drugbank_target|P25092 Heat-stable enterotoxin receptor (DB08890)
 OpenBabel12092120333D

  0  0  0     0  0            999 V3000
M  V30 BEGIN CTAB
M  V30 COUNTS 17356 17545 0 0 0
M  V30 BEGIN ATOM
M  V30 1 H -0.908 1.98254 -0.117106 0
M  V30 2 N 0 1.576 0 0
M  V30 3 C 0.933 2.03868 1.02534 0
M  V30 4 C 1.911 0.928543 1.3348 0
M  V30 5 O 3.095 1.19667 1.45644 0
M  V30 6 C 0.222 2.43627 2.35294 0
M  V30 7 C -0.732 3.65373 2.2001 0
M  V30 8 S 0.101 5.13292 1.52614 0
M  V30 9 C 1.257 5.56322 2.86805 0
M  V30 10 H 1.49 2.90518 0.631377 0
M  V30 11 H -0.977 1.52953 0.210867 0
M  V30 12 H 0.981 2.67203 3.11629 0
M  V30 13 H -0.358 1.57376 2.7183 0
M  V30 14 H -1.165 3.90944 3.18086 0
M  V30 15 H -1.563 3.418 1.51819 0
M  V30 16 H 0.729 5.58782 3.83104 0
M  V30 17 H 1.672 6.56266 2.65933 0
M  V30 18 H 2.08 4.83886 2.90714 0
M  V30 19 N 1.4781 -0.272755 1.55222 0
M  V30 20 C 2.4251 -1.33716 1.88119 0
M  V30 21 C 3.3951 -1.49066 0.73271 0
M  V30 22 O 4.5801 -1.63469 0.984002 0
M  V30 23 C 1.7201 -2.69238 2.15882 0
M  V30 24 C 0.8331 -2.62108 3.43399 0
M  V30 25 C -0.0319 -3.89811 3.60861 0
M  V30 26 C -0.9929 -3.77193 4.8207 0
M  V30 27 N -1.8559 -4.9673 4.96189 0
M  V30 28 H 2.9841 -1.04962 2.78903 0
M  V30 29 H 0.5211 -0.507088 1.38083 0
M  V30 30 H 2.4791 -3.48089 2.29978 0
M  V30 31 H 1.1091 -2.96194 1.28331 0
M  V30 32 H 0.1611 -1.74967 3.37773 0
M  V30 33 H 1.4731 -2.48685 4.32386 0
M  V30 34 H 0.6271 -4.77103 3.74777 0
M  V30 35 H -0.6339 -4.06102 2.7006 0
M  V30 36 H -1.6289 -2.88284 4.68159 0
M  V30 37 H -0.4039 -3.62421 5.74307 0
M  V30 38 H -2.4579 -5.13431 4.08319 0
M  V30 39 H -2.5409 -4.85839 5.79221 0
M  V30 40 H -1.2729 -5.85594 5.1449 0
M  V30 41 N 2.9562 -1.48159 -0.537278 0
M  V30 42 C 4.1842 -1.59454 -1.31841 0
M  V30 43 C 4.5992 -0.252065 -1.8711 0
M  V30 44 O 3.9562 0.757621 -1.66031 0
M  V30 45 C 4.0072 -2.63546 -2.47439 0
M  V30 46 O 3.7282 -3.92583 -1.94449 0
M  V30 47 C 5.2292 -2.85212 -3.39366 0
M  V30 48 H 2.4492 -0.53785 -0.401196 0
M  V30 49 H 4.9932 -1.93932 -0.648891 0
M  V30 50 H 3.1482 -2.31946 -3.1029 0
M  V30 51 H 3.5622 -4.49629 -2.70063 0
M  V30 52 H 5.0362 -3.61863 -4.16844 0
M  V30 53 H 5.5132 -1.93765 -3.94147 0
M  V30 54 H 6.1192 -3.18086 -2.82314 0
M  V30 55 N 4.4343 0.785586 -1.36625 0
M  V30 56 C 5.3643 1.91259 -1.33949 0
M  V30 57 C 6.3453 1.68795 -0.210325 0
M  V30 58 O 7.5303 1.89854 -0.408561 0
M  V30 59 C 4.6603 3.28339 -1.13186 0
M  V30 60 C 3.6143 3.65335 -2.22967 0
M  V30 61 C 2.9403 5.00806 -1.87342 0
M  V30 62 C 4.2403 3.7352 -3.65075 0
M  V30 63 H 5.9343 1.93755 -2.28253 0
M  V30 64 H 3.4803 0.930788 -1.09874 0
M  V30 65 H 5.4333 4.06804 -1.09948 0
M  V30 66 H 4.1573 3.2624 -0.153332 0
M  V30 67 H 2.8163 2.89169 -2.25337 0
M  V30 68 H 2.4643 4.95233 -0.880545 0
M  V30 69 H 2.1643 5.26529 -2.60846 0
M  V30 70 H 3.6883 5.81687 -1.85667 0
M  V30 71 H 5.1023 4.42168 -3.64911 0
M  V30 72 H 3.4993 4.10731 -4.37516 0
M  V30 73 H 4.5693 2.74527 -3.99703 0
M  V30 74 N 5.9124 1.20967 1.01018 0
M  V30 75 C 6.8424 0.988272 2.11555 0
M  V30 76 C 7.8234 -0.0849778 1.69888 0
M  V30 77 O 9.0084 0.0738202 1.9406 0
M  V30 78 C 6.1384 0.546528 3.42973 0
M  V30 79 C 5.0924 1.56375 3.9841 0
M  V30 80 C 4.4184 0.97842 5.25672 0
M  V30 81 C 5.7184 2.94922 4.31066 0
M  V30 82 H 7.4124 1.91276 2.30334 0
M  V30 83 H 4.9584 0.921073 1.1069 0
M  V30 84 H 6.9114 0.378839 4.19694 0
M  V30 85 H 5.6354 -0.413598 3.23971 0
M  V30 86 H 4.2944 1.71891 3.23804 0
M  V30 87 H 3.9424 0.0101688 5.02999 0
M  V30 88 H 3.6424 1.65784 5.63728 0
M  V30 89 H 5.1664 0.821939 6.05043 0
M  V30 90 H 6.5804 2.8288 4.9865 0
M  V30 91 H 4.9774 3.5983 4.80253 0
M  V30 92 H 6.0474 3.4616 3.39561 0
M  V30 93 N 7.3905 -1.2043 1.01659 0
M  V30 94 C 8.3205 -2.25466 0.607226 0
M  V30 95 C 9.3015 -1.65853 -0.377716 0
M  V30 96 O 10.4865 -1.92409 -0.263149 0
M  V30 97 C 7.6165 -3.47256 -0.0552949 0
M  V30 98 C 6.5705 -4.19462 0.850632 0
M  V30 99 C 5.8965 -5.34673 0.0538859 0
M  V30 100 C 7.1965 -4.75603 2.15868 0
M  V30 101 H 8.8905 -2.59962 1.48526 0
M  V30 102 H 6.4365 -1.2496 0.715605 0
M  V30 103 H 8.3895 -4.19917 -0.353233 0
M  V30 104 H 7.1135 -3.11924 -0.968045 0
M  V30 105 H 5.7725 -3.48667 1.13257 0
M  V30 106 H 5.4205 -4.95585 -0.860514 0
M  V30 107 H 5.1205 -5.83913 0.657192 0
M  V30 108 H 6.6445 -6.10138 -0.237598 0
M  V30 109 H 8.0585 -5.40083 1.92311 0
M  V30 110 H 6.4555 -5.3528 2.71284 0
M  V30 111 H 7.5255 -3.94346 2.82169 0
M  V30 112 N 8.8686 -0.792821 -1.36206 0
M  V30 113 C 10.1456 -0.290627 -1.93429 0
M  V30 114 C 10.5256 1.21773 -1.72437 0
M  V30 115 O 9.8736 2.0108 -1.08531 0
M  V30 116 C 10.0836 -0.686973 -3.42172 0
M  V30 117 C 11.4316 -0.668643 -4.19302 0
M  V30 118 O 12.4556 -0.627658 -3.50626 0
M  V30 119 O 11.3146 -0.714597 -5.41808 0
M  V30 120 H 8.4086 -0.0727927 -0.82379 0
M  V30 121 H 10.9546 -0.875593 -1.45367 0
M  V30 122 H 9.7266 -1.72711 -3.51122 0
M  V30 123 H 9.3496 -0.0760733 -3.97527 0
M  V30 124 N 10.3467 1.47872 -0.545128 0
M  V30 125 C 11.2767 2.32661 0.197793 0
M  V30 126 C 12.2577 1.43041 0.920504 0
M  V30 127 O 13.4427 1.71912 0.90333 0
M  V30 128 C 10.5727 3.24569 1.23582 0
M  V30 129 C 9.5267 4.23333 0.630323 0
M  V30 130 C 8.8527 5.0448 1.77211 0
M  V30 131 C 10.1527 5.20704 -0.407974 0
M  V30 132 H 11.8467 2.95024 -0.510045 0
M  V30 133 H 9.3927 1.4187 -0.246731 0
M  V30 134 H 11.3457 3.8272 1.76362 0
M  V30 135 H 10.0697 2.60236 1.97344 0
M  V30 136 H 8.7287 3.6639 0.123922 0
M  V30 137 H 8.3767 4.36561 2.49847 0
M  V30 138 H 8.0767 5.71339 1.37281 0
M  V30 139 H 9.6007 5.65487 2.3034 0
M  V30 140 H 11.0147 5.7329 0.033305 0
M  V30 141 H 9.4117 5.95699 -0.725486 0
M  V30 142 H 10.4817 4.66917 -1.30828 0
M  V30 143 N 11.8248 0.280983 1.55075 0
M  V30 144 C 12.7878 -0.590896 2.21452 0
M  V30 145 C 13.7878 -1.07682 1.19421 0
M  V30 146 O 14.9778 -0.97605 1.44288 0
M  V30 147 C 12.1098 -1.81587 2.88511 0
M  V30 148 H 13.3028 -0.0112554 2.99898 0
M  V30 149 H 10.8558 0.0316438 1.56268 0
M  V30 150 H 11.5908 -2.43587 2.14093 0
M  V30 151 H 11.3758 -1.4753 3.63287 0
M  V30 152 H 12.8658 -2.43575 3.39206 0
M  V30 153 N 13.3029 -1.57598 0.00835791 0
M  V30 154 C 14.2329 -2.1198 -0.979113 0
M  V30 155 C 15.2139 -1.03091 -1.35301 0
M  V30 156 O 16.3989 -1.30818 -1.43528 0
M  V30 157 C 13.5289 -2.62995 -2.26828 0
M  V30 158 C 12.4829 -3.76485 -2.03576 0
M  V30 159 C 11.8089 -4.13846 -3.38579 0
M  V30 160 C 13.1089 -5.0342 -1.39161 0
M  V30 161 H 14.8029 -2.94738 -0.526281 0
M  V30 162 H 12.3489 -1.41783 -0.251704 0
M  V30 163 H 14.3019 -2.99669 -2.96271 0
M  V30 164 H 13.0259 -1.7737 -2.7424 0
M  V30 165 H 11.6849 -3.40217 -1.36557 0
M  V30 166 H 11.3329 -3.25232 -3.83709 0
M  V30 167 H 11.0329 -4.90312 -3.23834 0
M  V30 168 H 12.5569 -4.53086 -4.09323 0
M  V30 169 H 13.9709 -5.37812 -1.98573 0
M  V30 170 H 12.3679 -5.84746 -1.34878 0
M  V30 171 H 13.4379 -4.83548 -0.361868 0
M  V30 172 N 14.781 0.264519 -1.55364 0
M  V30 173 C 16.027 0.992314 -1.77552 0
M  V30 174 C 16.382 1.83626 -0.574379 0
M  V30 175 O 15.675 1.86648 0.432782 0
M  V30 176 C 15.869 1.9004 -3.02687 0
M  V30 177 C 15.698 1.14583 -4.34857 0
M  V30 178 C 14.468 0.858068 -4.97961 0
M  V30 179 C 16.666 0.532069 -5.1154 0
M  V30 180 N 14.648 0.0775974 -6.13851 0
M  V30 181 C 16.019 -0.113823 -6.19896 0
M  V30 182 C 18.074 0.440763 -4.95945 0
M  V30 183 C 16.777 -0.842231 -7.14352 0
M  V30 184 C 18.803 -0.274072 -5.90765 0
M  V30 185 C 18.165 -0.90867 -6.98515 0
M  V30 186 H 14.264 0.344811 -0.701875 0
M  V30 187 H 16.848 0.267141 -1.92859 0
M  V30 188 H 15.019 2.59775 -2.88741 0
M  V30 189 H 16.751 2.56243 -3.13243 0
M  V30 190 H 13.506 1.16547 -4.59036 0
M  V30 191 H 13.93 -0.300216 -6.76334 0
M  V30 192 H 18.572 0.917064 -4.12735 0
M  V30 193 H 16.29 -1.33019 -7.97077 0
M  V30 194 H 19.876 -0.345151 -5.80775 0
M  V30 195 H 18.756 -1.45299 -7.70622 0
M  V30 196 N 16.2591 1.48442 0.529413 0
M  V30 197 C 17.4841 1.60406 1.31471 0
M  V30 198 C 17.9091 0.264738 1.86228 0
M  V30 199 O 17.2671 -0.763668 1.64432 0
M  V30 200 C 17.3151 2.65419 2.44101 0
M  V30 201 O 16.4191 2.22618 3.47153 0
M  V30 202 H 15.7601 0.537863 0.389357 0
M  V30 203 H 18.2901 1.94432 0.636965 0
M  V30 204 H 18.3001 2.86709 2.90279 0
M  V30 205 H 16.9751 3.62652 2.03608 0
M  V30 206 H 15.5521 2.11543 3.0709 0
M  V30 207 N 17.7372 -0.778329 1.37039 0
M  V30 208 C 18.6672 -1.90546 1.34962 0
M  V30 209 C 19.6482 -1.68681 0.219274 0
M  V30 210 O 20.8332 -1.89634 0.418624 0
M  V30 211 C 17.9632 -3.27734 1.14925 0
M  V30 212 C 16.9172 -3.64147 2.24902 0
M  V30 213 C 16.2432 -4.99806 1.89996 0
M  V30 214 C 17.5432 -3.71579 3.67051 0
M  V30 215 H 19.2372 -1.92541 2.29277 0
M  V30 216 H 16.7832 -0.924948 1.10366 0
M  V30 217 H 18.7362 -4.06215 1.12104 0
M  V30 218 H 17.4602 -3.26154 0.170631 0
M  V30 219 H 16.1192 -2.8797 2.26868 0
M  V30 220 H 15.7672 -4.94759 0.906796 0
M  V30 221 H 15.4672 -5.25139 2.63634 0
M  V30 222 H 16.9912 -5.80694 1.88749 0
M  V30 223 H 18.4052 -4.40227 3.67251 0
M  V30 224 H 16.8022 -4.08405 4.39688 0
M  V30 225 H 17.8722 -2.72404 4.01154 0
M  V30 226 N 19.2153 -1.21501 -1.00376 0
M  V30 227 C 20.1453 -0.999478 -2.11028 0
M  V30 228 C 21.1263 0.0759671 -1.6993 0
M  V30 229 O 22.3113 -0.0841106 -1.94018 0
M  V30 230 C 19.4413 -0.564709 -3.42678 0
M  V30 231 C 18.3953 -1.58486 -3.97576 0
M  V30 232 C 17.7213 -1.00628 -5.25146 0
M  V30 233 C 19.0213 -2.97204 -4.29496 0
M  V30 234 H 20.7153 -1.92495 -2.29317 0
M  V30 235 H 18.2613 -0.92693 -1.102 0
M  V30 236 H 20.2143 -0.401091 -4.19487 0
M  V30 237 H 18.9383 0.396411 -3.24185 0
M  V30 238 H 17.5973 -1.73606 -3.22888 0
M  V30 239 H 17.2453 -0.0368439 -5.02987 0
M  V30 240 H 16.9453 -1.68771 -5.62841 0
M  V30 241 H 18.4693 -0.854015 -6.04598 0
M  V30 242 H 19.8833 -2.8552 -4.97143 0
M  V30 243 H 18.2803 -3.62372 -4.78338 0
M  V30 244 H 19.3503 -3.47956 -3.3772 0
M  V30 245 N 20.6934 1.19889 -1.02296 0
M  V30 246 C 21.9404 1.8942 -0.715972 0
M  V30 247 C 22.2684 1.79251 0.754944 0
M  V30 248 O 21.5234 1.17526 1.56481 0
M  V30 249 C 21.8224 3.39883 -1.10518 0
M  V30 250 C 21.4884 3.70254 -2.57337 0
M  V30 251 C 20.1504 3.78254 -2.97452 0
M  V30 252 C 22.5024 3.84052 -3.52354 0
M  V30 253 C 19.8304 3.97514 -4.31509 0
M  V30 254 C 22.1824 4.04824 -4.86108 0
M  V30 255 C 20.8464 4.11054 -5.25919 0
M  V30 256 H 20.1164 0.693138 -0.261993 0
M  V30 257 H 22.7634 1.42012 -1.28472 0
M  V30 258 H 21.0684 3.8915 -0.454953 0
M  V30 259 H 22.7654 3.9199 -0.845261 0
M  V30 260 H 19.3554 3.64632 -2.25258 0
M  V30 261 H 23.5394 3.77221 -3.22518 0
M  V30 262 H 18.7954 4.00574 -4.61898 0
M  V30 263 H 22.9694 4.14442 -5.59653 0
M  V30 264 H 20.5964 4.2573 -6.29808 0
M  V30 265 N 22.1715 0.800033 1.35784 0
M  V30 266 C 23.1035 0.163596 2.28615 0
M  V30 267 C 24.1165 -0.633317 1.49976 0
M  V30 268 O 25.3055 -0.466754 1.72289 0
M  V30 269 C 22.4055 -0.790958 3.29541 0
M  V30 270 C 21.5785 -0.0418255 4.3738 0
M  V30 271 C 20.6375 -0.91389 5.18203 0
M  V30 272 O 19.6635 -0.367234 5.68014 0
M  V30 273 N 20.8655 -2.23682 5.35674 0
M  V30 274 H 23.6305 0.96105 2.83873 0
M  V30 275 H 21.1915 0.654894 1.48063 0
M  V30 276 H 23.1835 -1.37844 3.80501 0
M  V30 277 H 21.7535 -1.48925 2.74846 0
M  V30 278 H 20.9735 0.726813 3.87442 0
M  V30 279 H 22.2615 0.474719 5.06581 0
M  V30 280 H 21.6595 -2.70497 4.96838 0
M  V30 281 H 20.2165 -2.77369 5.89839 0
M  V30 282 N 23.6496 -1.47581 0.552962 0
M  V30 283 C 25.0606 -1.86324 0.118463 0
M  V30 284 C 25.4116 -1.46006 -1.3106 0
M  V30 285 O 24.5366 -0.861182 -1.98526 0
M  V30 286 C 25.1316 -3.3816 0.20821 0
M  V30 287 C 23.6906 -3.7601 -0.171226 0
M  V30 288 C 22.8376 -2.71634 0.557686 0
M  V30 289 H 25.7886 -1.39159 0.762928 0
M  V30 290 H 25.8096 -3.76141 -0.574278 0
M  V30 291 H 25.3216 -3.67473 1.24841 0
M  V30 292 H 23.4226 -3.52313 -1.21269 0
M  V30 293 H 23.5356 -4.78745 0.184379 0
M  V30 294 H 21.8996 -2.547 0.00125792 0
M  V30 295 H 22.6826 -3.0379 1.59896 0
M  V30 296 N 25.1277 -0.289203 -1.54924 0
M  V30 297 C 26.3757 0.322879 -1.99504 0
M  V30 298 C 26.6967 1.55313 -1.1791 0
M  V30 299 O 25.9667 1.94001 -0.272097 0
M  V30 300 H 24.5467 0.122291 -0.736922 0
M  V30 301 H 27.2087 -0.397802 -1.90797 0
M  V30 302 H 26.3047 0.603061 -3.06218 0
M  V30 303 N 26.6058 1.57591 -0.0167156 0
M  V30 304 C 27.8518 1.92399 0.659861 0
M  V30 305 C 28.2068 0.892561 1.70444 0
M  V30 306 O 27.4998 -0.0930755 1.91374 0
M  V30 307 C 27.6938 3.3172 1.33029 0
M  V30 308 C 27.5228 4.48319 0.352174 0
M  V30 309 C 26.2928 5.05281 -0.0434883 0
M  V30 310 C 28.4908 5.12831 -0.388474 0
M  V30 311 N 26.4728 6.05399 -1.01807 0
M  V30 312 C 27.8438 6.07934 -1.2172 0
M  V30 313 C 29.8988 4.95858 -0.450513 0
M  V30 314 C 28.6018 6.87891 -2.10235 0
M  V30 315 C 30.6278 5.76413 -1.32295 0
M  V30 316 C 29.9898 6.71123 -2.13948 0
M  V30 317 H 26.0888 0.752106 0.21415 0
M  V30 318 H 28.6728 1.94532 -0.0809846 0
M  V30 319 H 26.8438 3.3043 2.04134 0
M  V30 320 H 28.5758 3.5391 1.9629 0
M  V30 321 H 25.3308 4.7246 0.328384 0
M  V30 322 H 25.7548 6.60145 -1.50123 0
M  V30 323 H 30.3968 4.22472 0.166512 0
M  V30 324 H 28.1148 7.60591 -2.72997 0
M  V30 325 H 31.7008 5.65317 -1.37508 0
M  V30 326 H 30.5808 7.3237 -2.80364 0
M  V30 327 N 28.0839 -0.256276 1.55502 0
M  V30 328 C 29.0139 -1.32102 1.92539 0
M  V30 329 C 29.9949 -1.50684 0.789194 0
M  V30 330 O 31.1799 -1.63449 1.04872 0
M  V30 331 C 28.3099 -2.67752 2.21192 0
M  V30 332 C 27.2639 -2.63878 3.36975 0
M  V30 333 C 26.5899 -4.03236 3.51147 0
M  V30 334 C 27.8899 -2.21682 4.72921 0
M  V30 335 H 29.5839 -1.01351 2.81724 0
M  V30 336 H 27.1299 -0.486105 1.35547 0
M  V30 337 H 29.0829 -3.42365 2.45691 0
M  V30 338 H 27.8069 -3.0012 1.28824 0
M  V30 339 H 26.4659 -1.91722 3.12471 0
M  V30 340 H 26.1139 -4.32854 2.56216 0
M  V30 341 H 25.8139 -4.01535 4.29003 0
M  V30 342 H 27.3379 -4.79563 3.77957 0
M  V30 343 H 28.7519 -2.86023 4.96854 0
M  V30 344 H 27.1489 -2.3111 5.53812 0
M  V30 345 H 28.2189 -1.16833 4.70615 0
M  V30 346 N 29.562 -1.4872 -0.521534 0
M  V30 347 C 30.787 -1.61101 -1.30618 0
M  V30 348 C 31.212 -0.274611 -1.86085 0
M  V30 349 O 30.57 0.754937 -1.64834 0
M  V30 350 C 30.618 -2.66709 -2.4269 0
M  V30 351 O 29.722 -2.24456 -3.45967 0
M  V30 352 H 29.063 -0.539921 -0.386499 0
M  V30 353 H 31.593 -1.94767 -0.626645 0
M  V30 354 H 31.603 -2.88245 -2.88754 0
M  V30 355 H 30.278 -3.63727 -2.01682 0
M  V30 356 H 28.855 -2.13168 -3.05964 0
M  V30 357 N 31.0401 0.771051 -1.3745 0
M  V30 358 C 32.2871 1.52963 -1.32697 0
M  V30 359 C 32.6151 1.94299 0.0883274 0
M  V30 360 O 31.8701 1.64397 1.0617 0
M  V30 361 C 32.1691 2.80676 -2.2126 0
M  V30 362 C 31.8351 2.58389 -3.69521 0
M  V30 363 C 30.4971 2.52019 -4.09927 0
M  V30 364 C 32.8491 2.38469 -4.63446 0
M  V30 365 C 30.1771 2.23721 -5.42371 0
M  V30 366 C 32.5291 2.11694 -5.96128 0
M  V30 367 C 31.1931 2.03769 -6.35637 0
M  V30 368 H 30.4631 0.559732 -0.485573 0
M  V30 369 H 33.1101 0.888083 -1.69662 0
M  V30 370 H 31.4151 3.49392 -1.77291 0
M  V30 371 H 33.1121 3.38557 -2.14895 0
M  V30 372 H 29.7021 2.6421 -3.37478 0
M  V30 373 H 33.8861 2.4238 -4.33089 0
M  V30 374 H 29.1421 2.16081 -5.71943 0
M  V30 375 H 33.3161 1.9528 -6.6846 0
M  V30 376 H 30.9431 1.81606 -7.38189 0
M  V30 377 N 32.5182 1.22032 0.997298 0
M  V30 378 C 33.7432 1.06921 1.77715 0
M  V30 379 C 34.1682 -0.376226 1.84299 0
M  V30 380 O 33.5262 -1.27165 1.29223 0
M  V30 381 C 33.5742 1.67996 3.19076 0
M  V30 382 O 32.6782 0.930653 4.01762 0
M  V30 383 H 32.0192 0.375814 0.547412 0
M  V30 384 H 34.5492 1.61737 1.25309 0
M  V30 385 H 34.5592 1.72538 3.69723 0
M  V30 386 H 33.2342 2.73182 3.13599 0
M  V30 387 H 31.8112 0.960917 3.60307 0
M  V30 388 N 33.9963 -1.19345 1.0293 0
M  V30 389 C 35.2213 -1.93538 0.745511 0
M  V30 390 C 35.6463 -1.75007 -0.689511 0
M  V30 391 O 35.0043 -1.05265 -1.47611 0
M  V30 392 C 35.0523 -3.43336 1.10239 0
M  V30 393 O 34.1563 -4.11806 0.221289 0
M  V30 394 H 33.4973 -0.604193 0.275404 0
M  V30 395 H 36.0273 -1.5141 1.37609 0
M  V30 396 H 36.0373 -3.94004 1.05947 0
M  V30 397 H 34.7123 -3.56146 2.14786 0
M  V30 398 H 33.2893 -3.715 0.322842 0
M  V30 399 N 35.4744 -0.807222 -1.35358 0
M  V30 400 C 36.4064 -0.175717 -2.28525 0
M  V30 401 C 37.4194 0.625354 -1.5031 0
M  V30 402 O 38.6084 0.457611 -1.72535 0
M  V30 403 C 35.7084 0.773471 -3.29956 0
M  V30 404 C 34.8814 0.0186296 -4.37396 0
M  V30 405 C 33.9404 0.886395 -5.18681 0
M  V30 406 O 32.9664 0.337106 -5.68201 0
M  V30 407 N 34.1684 2.20839 -5.36852 0
M  V30 408 H 36.9334 -0.976091 -2.83359 0
M  V30 409 H 34.4944 -0.662737 -1.47714 0
M  V30 410 H 36.4864 1.35824 -3.81227 0
M  V30 411 H 35.0564 1.47465 -2.75632 0
M  V30 412 H 34.2764 -0.747349 -3.87051 0
M  V30 413 H 35.5644 -0.501577 -5.06322 0
M  V30 414 H 34.9624 2.67858 -4.98265 0
M  V30 415 H 33.5194 2.74237 -5.91301 0
M  V30 416 N 36.9525 1.47285 -0.560781 0
M  V30 417 C 38.1985 2.02764 -0.0381184 0
M  V30 418 C 38.5315 1.43384 1.30976 0
M  V30 419 O 37.8065 0.590733 1.85312 0
M  V30 420 C 38.0895 3.60064 0.0511427 0
M  V30 421 C 37.9425 4.2987 -1.32408 0
M  V30 422 C 39.2615 4.33439 0.762795 0
M  V30 423 H 36.3805 0.736841 -0.0153264 0
M  V30 424 H 39.0225 1.75675 -0.723759 0
M  V30 425 H 37.1725 3.83274 0.635065 0
M  V30 426 H 38.8445 4.17989 -1.95148 0
M  V30 427 H 37.0875 3.90085 -1.8978 0
M  V30 428 H 37.7585 5.38478 -1.21431 0
M  V30 429 H 40.2345 4.15243 0.266965 0
M  V30 430 H 39.1105 5.43124 0.794221 0
M  V30 431 H 39.3715 4.02915 1.81966 0
M  V30 432 N 38.4306 0.297415 1.54768 0
M  V30 433 C 39.6556 -0.318435 2.04941 0
M  V30 434 C 40.0806 -1.4701 1.17345 0
M  V30 435 O 39.4386 -1.80436 0.176758 0
M  V30 436 C 39.4866 -0.755749 3.52592 0
M  V30 437 O 38.5906 -1.86088 3.68028 0
M  V30 438 H 37.9316 -0.062421 0.661059 0
M  V30 439 H 40.4616 0.438215 1.99852 0
M  V30 440 H 40.4716 -1.04552 3.94376 0
M  V30 441 H 39.1466 0.0867233 4.1581 0
M  V30 442 H 37.7236 -1.57193 3.38149 0
M  V30 443 N 39.9087 -1.5758 0.0250728 0
M  V30 444 C 40.8407 -2.06869 -0.986796 0
M  V30 445 C 41.8537 -0.991332 -1.29137 0
M  V30 446 O 43.0427 -1.26761 -1.25674 0
M  V30 447 C 40.1427 -2.47486 -2.31525 0
M  V30 448 C 39.3157 -3.78253 -2.19643 0
M  V30 449 C 38.3747 -4.05464 -3.35388 0
M  V30 450 O 37.4007 -4.75774 -3.12454 0
M  V30 451 N 38.6027 -3.55321 -4.59051 0
M  V30 452 H 41.3677 -2.94302 -0.566276 0
M  V30 453 H 38.9287 -1.6109 -0.161776 0
M  V30 454 H 40.9207 -2.62785 -3.07776 0
M  V30 455 H 39.4907 -1.65441 -2.65232 0
M  V30 456 H 38.7107 -3.7279 -1.28144 0
M  V30 457 H 39.9987 -4.63936 -2.08903 0
M  V30 458 H 39.3967 -2.98431 -4.80578 0
M  V30 459 H 37.9537 -3.75905 -5.32483 0
M  V30 460 N 41.3868 0.248026 -1.55636 0
M  V30 461 C 42.3348 1.32683 -1.91045 0
M  V30 462 C 43.3288 1.49883 -0.789401 0
M  V30 463 O 44.5348 1.51371 -0.974007 0
M  V30 464 H 40.9098 0.444272 -0.606734 0
M  V30 465 H 42.8808 1.00085 -2.81115 0
M  V30 466 C 41.6298 2.6755 -2.22064 0
M  V30 467 H 40.9528 2.55114 -3.07826 0
M  V30 468 H 42.3928 3.41912 -2.50743 0
M  V30 469 C 40.8518 3.20556 -1.0366 0
M  V30 470 O 41.3818 4.00695 -0.284016 0
M  V30 471 N 39.5878 2.78568 -0.82753 0
M  V30 472 H 39.1348 2.1351 -1.44123 0
M  V30 473 H 39.0928 3.14378 -0.0369803 0
M  V30 474 N 42.8649 1.48995 0.513639 0
M  V30 475 C 44.1049 1.59452 1.27885 0
M  V30 476 C 44.4689 0.269479 1.90099 0
M  V30 477 O 45.6699 0.249139 2.67643 0
M  V30 478 C 43.9409 2.71277 2.32688 0
M  V30 479 S 45.4999 3.01604 3.18717 0
M  V30 480 H 42.3179 0.562565 0.434789 0
M  V30 481 H 44.9199 1.86595 0.583301 0
M  V30 482 H 43.6239 3.66089 1.8549 0
M  V30 483 H 43.1549 2.46086 3.06929 0
M  V30 484 H 45.1699 2.42155 4.331 0
M  V30 485 N 44.343 -0.763751 1.37857 0
M  V30 486 C 45.293 -1.86765 1.30777 0
M  V30 487 C 46.277 -1.59726 0.194015 0
M  V30 488 O 47.469 -1.7172 0.42911 0
M  V30 489 C 44.598 -3.24343 1.12502 0
M  V30 490 C 43.684 -3.57307 2.28456 0
M  V30 491 N 44.075 -3.61398 3.53871 0
M  V30 492 C 42.373 -3.87517 2.20786 0
M  V30 493 C 43.074 -3.91339 4.30382 0
M  V30 494 N 42.05 -4.07649 3.59615 0
M  V30 495 H 45.852 -1.88191 2.25746 0
M  V30 496 H 43.366 -0.9606 1.30944 0
M  V30 497 H 45.363 -4.03327 1.05514 0
M  V30 498 H 44.023 -3.24175 0.184574 0
M  V30 499 H 45.034 -3.43407 3.87675 0
M  V30 500 H 41.711 -3.95125 1.34844 0
M  V30 501 H 43.101 -4.01213 5.3896 0
M  V30 502 N 45.8211 -1.22559 -0.990812 0
M  V30 503 C 46.7691 -0.994798 -2.10253 0
M  V30 504 C 47.7631 0.0627798 -1.69284 0
M  V30 505 O 48.9691 -0.0898392 -1.79776 0
M  V30 506 H 45.3441 -0.304527 -0.687581 0
M  V30 507 H 47.3151 -1.93812 -2.26891 0
M  V30 508 C 46.0641 -0.591439 -3.42633 0
M  V30 509 H 45.3871 -1.3969 -3.74602 0
M  V30 510 H 46.8271 -0.469385 -4.21394 0
M  V30 511 C 45.2861 0.699232 -3.29564 0
M  V30 512 O 45.8161 1.75112 -3.61523 0
M  V30 513 N 44.0221 0.671182 -2.82743 0
M  V30 514 H 43.5691 -0.185136 -2.56934 0
M  V30 515 H 43.5271 1.53502 -2.7438 0
M  V30 516 N 47.2992 1.18797 -1.03562 0
M  V30 517 C 48.5472 1.88278 -0.734569 0
M  V30 518 C 48.8682 1.8043 0.739586 0
M  V30 519 O 48.1382 1.21925 1.53333 0
M  V30 520 H 46.7182 0.696991 -0.268725 0
M  V30 521 H 49.3802 1.44192 -1.31129 0
M  V30 522 H 48.4762 2.94443 -1.03489 0
M  V30 523 N 48.7773 0.814389 1.34928 0
M  V30 524 C 50.0023 0.410097 2.03305 0
M  V30 525 C 50.4273 -0.973464 1.60951 0
M  V30 526 O 49.7853 -1.63185 0.789964 0
M  V30 527 C 49.8333 0.51049 3.56968 0
M  V30 528 O 48.9373 -0.473035 4.09678 0
M  V30 529 H 48.2783 0.170088 0.641846 0
M  V30 530 H 50.8083 1.10244 1.72358 0
M  V30 531 H 50.8183 0.383135 4.06197 0
M  V30 532 H 49.4933 1.51963 3.87144 0
M  V30 533 H 48.0703 -0.305272 3.71648 0
M  V30 534 N 50.2554 -1.46986 0.568584 0
M  V30 535 C 51.4854 -2.0653 0.0539173 0
M  V30 536 C 51.8934 -1.42004 -1.25026 0
M  V30 537 O 51.2364 -0.514541 -1.76347 0
M  V30 538 C 51.2984 -3.58938 -0.200854 0
M  V30 539 C 50.9624 -4.45572 1.01559 0
M  V30 540 C 51.9594 -4.82986 1.92407 0
M  V30 541 C 49.6444 -4.8692 1.23346 0
M  V30 542 C 51.6384 -5.60559 3.03402 0
M  V30 543 C 49.3254 -5.64255 2.34649 0
M  V30 544 C 50.3234 -6.00986 3.24507 0
M  V30 545 O 50.0114 -6.76761 4.33878 0
M  V30 546 H 49.7434 -0.674292 0.0480234 0
M  V30 547 H 52.2974 -1.89812 0.784896 0
M  V30 548 H 50.5274 -3.73911 -0.986279 0
M  V30 549 H 52.2164 -4.0046 -0.662294 0
M  V30 550 H 52.9824 -4.51633 1.76785 0
M  V30 551 H 48.8614 -4.57789 0.543178 0
M  V30 552 H 52.4054 -5.89147 3.73565 0
M  V30 553 H 48.3024 -5.95021 2.5024 0
M  V30 554 H 49.0704 -6.95168 4.32068 0
M  V30 555 N 51.7335 -0.305618 -1.54608 0
M  V30 556 C 52.6435 0.57778 -2.27374 0
M  V30 557 C 53.6595 1.14451 -1.31061 0
M  V30 558 O 54.8355 1.16831 -1.6405 0
M  V30 559 C 51.9005 1.73123 -3.00382 0
M  V30 560 C 50.9615 1.19812 -4.12242 0
M  V30 561 C 50.1945 2.2966 -4.81759 0
M  V30 562 O 50.4175 3.49651 -4.50666 0
M  V30 563 O 49.3515 1.96091 -5.69062 0
M  V30 564 H 53.1775 -0.012624 -3.03697 0
M  V30 565 H 50.7625 -0.0719184 -1.49227 0
M  V30 566 H 52.6445 2.40315 -3.4616 0
M  V30 567 H 51.3195 2.30815 -2.26949 0
M  V30 568 H 50.2265 0.491798 -3.70853 0
M  V30 569 H 51.5595 0.666566 -4.87666 0
M  V30 570 N 53.2116 1.57565 -0.0334293 0
M  V30 571 C 54.4606 1.91155 0.643639 0
M  V30 572 C 54.7736 0.91192 1.73042 0
M  V30 573 O 55.9796 1.13923 2.46442 0
M  V30 574 C 54.4356 3.39443 1.1961 0
M  V30 575 C 54.0436 4.47774 0.142381 0
M  V30 576 C 55.7876 3.82094 1.84944 0
M  V30 577 C 53.6946 5.87162 0.706727 0
M  V30 578 H 52.6246 0.713368 0.244176 0
M  V30 579 H 55.2756 1.8323 -0.0994323 0
M  V30 580 H 53.6576 3.42313 1.99092 0
M  V30 581 H 54.8316 4.56469 -0.630296 0
M  V30 582 H 53.1466 4.14352 -0.412446 0
M  V30 583 H 55.7436 4.83591 2.2813 0
M  V30 584 H 56.0866 3.17386 2.69392 0
M  V30 585 H 56.6196 3.81665 1.12145 0
M  V30 586 H 53.3586 6.55424 -0.0997178 0
M  V30 587 H 52.8786 5.82064 1.44779 0
M  V30 588 H 54.5576 6.35866 1.19514 0
M  V30 589 N 54.6897 -0.239769 1.55765 0
M  V30 590 C 55.9147 -0.988373 1.82335 0
M  V30 591 C 56.3397 -1.77886 0.611421 0
M  V30 592 O 55.6977 -1.75889 -0.439639 0
M  V30 593 C 55.7457 -1.89627 3.06715 0
M  V30 594 O 54.8497 -2.98904 2.84131 0
M  V30 595 H 54.1907 -0.280858 0.601677 0
M  V30 596 H 56.7207 -0.258597 2.02959 0
M  V30 597 H 56.7307 -2.30957 3.36338 0
M  V30 598 H 55.4057 -1.31511 3.9456 0
M  V30 599 H 53.9827 -2.61651 2.65694 0
M  V30 600 N 56.1678 -1.49265 -0.50573 0
M  V30 601 C 57.4138 -1.58748 -1.26202 0
M  V30 602 C 57.7468 -0.271227 -1.92297 0
M  V30 603 O 57.0218 0.724831 -1.80489 0
M  V30 604 C 57.3048 -2.74332 -2.33268 0
M  V30 605 C 57.1578 -4.15737 -1.71705 0
M  V30 606 C 58.4768 -2.85576 -3.34865 0
M  V30 607 H 55.5958 -0.577826 -0.457478 0
M  V30 608 H 58.2378 -1.81532 -0.560897 0
M  V30 609 H 56.3878 -2.55036 -2.93068 0
M  V30 610 H 58.0598 -4.46537 -1.15769 0
M  V30 611 H 56.3028 -4.21605 -1.02135 0
M  V30 612 H 56.9738 -4.92477 -2.49341 0
M  V30 613 H 59.4498 -3.03127 -2.8505 0
M  V30 614 H 58.3258 -3.68135 -4.07146 0
M  V30 615 H 58.5868 -1.94732 -3.96903 0
M  V30 616 N 57.6459 0.756429 -1.3826 0
M  V30 617 C 58.5759 1.88374 -1.37976 0
M  V30 618 C 59.5569 1.68311 -0.246082 0
M  V30 619 O 60.7419 1.88944 -0.44874 0
M  V30 620 C 57.8719 3.25864 -1.20125 0
M  V30 621 C 56.8259 3.60523 -2.30666 0
M  V30 622 C 56.1519 4.9672 -1.97923 0
M  V30 623 C 57.4519 3.65692 -3.72916 0
M  V30 624 H 59.1459 1.88869 -2.32312 0
M  V30 625 H 56.6919 0.907272 -1.11824 0
M  V30 626 H 58.6449 4.0438 -1.18552 0
M  V30 627 H 57.3689 3.25841 -0.222498 0
M  V30 628 H 56.0279 2.84324 -2.3142 0
M  V30 629 H 55.6759 4.93253 -0.985393 0
M  V30 630 H 55.3759 5.20878 -2.71955 0
M  V30 631 H 56.8999 5.77618 -1.97964 0
M  V30 632 H 58.3139 4.34328 -3.74208 0
M  V30 633 H 56.7109 4.01358 -4.4613 0
M  V30 634 H 57.7809 2.65987 -4.05436 0
M  V30 635 N 59.124 1.23083 0.984299 0
M  V30 636 C 60.057 0.951786 2.07404 0
M  V30 637 C 61.035 -0.10848 1.62238 0
M  V30 638 O 62.219 0.0249467 1.88483 0
M  V30 639 C 59.346 0.433142 3.35919 0
M  V30 640 C 58.392 1.47941 4.0002 0
M  V30 641 S 59.225 3.05556 4.39768 0
M  V30 642 C 60.381 2.55351 5.71442 0
M  V30 643 H 60.614 1.87456 2.30754 0
M  V30 644 H 58.147 1.06284 1.11996 0
M  V30 645 H 60.105 0.140506 4.10259 0
M  V30 646 H 58.766 -0.468656 3.10584 0
M  V30 647 H 57.959 1.06658 4.92585 0
M  V30 648 H 57.561 1.7212 3.3204 0
M  V30 649 H 59.853 1.97128 6.48187 0
M  V30 650 H 60.796 3.46441 6.17563 0
M  V30 651 H 61.204 1.96339 5.29255 0
M  V30 652 N 60.6021 -1.18246 1.0419 0
M  V30 653 C 61.5351 -2.20746 0.578474 0
M  V30 654 C 62.5131 -1.57912 -0.387624 0
M  V30 655 O 63.6971 -1.86071 -0.301634 0
M  V30 656 C 60.8241 -3.38346 -0.154762 0
M  V30 657 C 59.8701 -4.19587 0.764782 0
M  V30 658 S 60.7031 -4.86014 2.24835 0
M  V30 659 C 61.8591 -6.07012 1.526 0
M  V30 660 H 62.0921 -2.59715 1.44691 0
M  V30 661 H 59.6251 -1.287 0.85297 0
M  V30 662 H 61.5831 -4.065 -0.571641 0
M  V30 663 H 60.2441 -2.97786 -0.999105 0
M  V30 664 H 59.4371 -5.03611 0.197976 0
M  V30 665 H 59.0391 -3.56818 1.12057 0
M  V30 666 H 61.3311 -6.72523 0.819733 0
M  V30 667 H 62.2741 -6.68202 2.34333 0
M  V30 668 H 62.6821 -5.55249 1.01779 0
M  V30 669 N 62.0802 -0.821533 -1.34494 0
M  V30 670 C 63.3282 -0.408139 -1.97936 0
M  V30 671 C 63.6492 1.03193 -1.65457 0
M  V30 672 O 62.9192 1.71622 -0.944595 0
M  V30 673 H 61.4992 -0.147928 -0.732206 0
M  V30 674 H 64.1612 -1.05067 -1.64155 0
M  V30 675 H 63.2572 -0.52601 -3.07635 0
M  V30 676 N 63.5583 1.46682 -0.576371 0
M  V30 677 C 64.5063 2.31953 0.17335 0
M  V30 678 C 65.5003 1.44098 0.89062 0
M  V30 679 O 66.7063 1.60759 0.809728 0
M  V30 680 H 63.0813 0.748273 0.0747727 0
M  V30 681 H 65.0523 2.93007 -0.564738 0
M  V30 682 C 63.8013 3.27142 1.17786 0
M  V30 683 H 63.1243 3.94719 0.635361 0
M  V30 684 H 64.5643 3.896 1.67296 0
M  V30 685 C 63.0233 2.52036 2.23561 0
M  V30 686 O 63.5533 2.27877 3.3081 0
M  V30 687 N 61.7593 2.12709 1.97998 0
M  V30 688 H 61.3063 2.32557 1.10792 0
M  V30 689 H 61.2643 1.62776 2.68982 0
M  V30 690 N 65.0364 0.313813 1.54444 0
M  V30 691 C 66.2614 -0.296681 2.05267 0
M  V30 692 C 66.6864 -1.45757 1.18897 0
M  V30 693 O 66.0444 -1.80239 0.195886 0
M  V30 694 C 66.0924 -0.71831 3.53373 0
M  V30 695 O 65.1964 -1.82175 3.69981 0
M  V30 696 H 64.5374 -0.0554061 0.661684 0
M  V30 697 H 67.0674 0.459387 1.99376 0
M  V30 698 H 67.0774 -1.00364 3.95463 0
M  V30 699 H 65.7524 0.130821 4.15694 0
M  V30 700 H 64.3294 -1.53598 3.39797 0
M  V30 701 N 66.5145 -1.57545 0.0417849 0
M  V30 702 C 67.4775 -2.09885 -0.92093 0
M  V30 703 C 68.4775 -1.01648 -1.24596 0
M  V30 704 O 69.6675 -1.27759 -1.1842 0
M  V30 705 C 66.7995 -2.57527 -2.23367 0
M  V30 706 H 67.9925 -2.96236 -0.467382 0
M  V30 707 H 65.5455 -1.5493 -0.206467 0
M  V30 708 H 66.2805 -1.74542 -2.73323 0
M  V30 709 H 66.0655 -3.36613 -2.01083 0
M  V30 710 H 67.5555 -2.98201 -2.92346 0
M  V30 711 N 67.9926 0.231505 -1.5589 0
M  V30 712 C 69.2396 0.957352 -1.78441 0
M  V30 713 C 69.5676 1.84726 -0.60882 0
M  V30 714 O 68.8226 1.91416 0.40725 0
M  V30 715 C 69.1216 1.83577 -3.0665 0
M  V30 716 C 68.7876 1.09993 -4.37278 0
M  V30 717 C 67.4496 0.896629 -4.72773 0
M  V30 718 C 69.8016 0.579558 -5.17968 0
M  V30 719 C 67.1296 0.160896 -5.86479 0
M  V30 720 C 69.4816 -0.142783 -6.32439 0
M  V30 721 C 68.1456 -0.357427 -6.66542 0
M  V30 722 H 67.4156 0.35032 -0.65296 0
M  V30 723 H 70.0626 0.226259 -1.90159 0
M  V30 724 H 68.3676 2.63441 -2.90011 0
M  V30 725 H 70.0646 2.39934 -3.21298 0
M  V30 726 H 66.6546 1.26835 -4.09403 0
M  V30 727 H 70.8386 0.724125 -4.90989 0
M  V30 728 H 66.0946 -0.0157293 -6.11398 0
M  V30 729 H 70.2686 -0.553559 -6.94196 0
M  V30 730 H 67.8956 -0.929466 -7.54497 0
M  V30 731 N 69.4707 1.49531 0.497807 0
M  V30 732 C 70.4337 1.65916 1.58128 0
M  V30 733 C 71.4337 0.530825 1.51786 0
M  V30 734 O 72.6237 0.797342 1.54881 0
M  V30 735 C 69.7557 1.65951 2.9778 0
M  V30 736 H 70.9487 2.62556 1.44929 0
M  V30 737 H 68.5017 1.38611 0.722275 0
M  V30 738 H 69.2367 0.709065 3.16453 0
M  V30 739 H 69.0217 2.47897 3.03792 0
M  V30 740 H 70.5117 1.80673 3.76493 0
M  V30 741 N 70.9488 -0.749086 1.3866 0
M  V30 742 C 71.8588 -1.89358 1.38494 0
M  V30 743 C 72.8748 -1.71708 0.281476 0
M  V30 744 O 74.0508 -1.94554 0.520643 0
M  V30 745 C 71.1158 -3.24782 1.21316 0
M  V30 746 C 70.1768 -3.54926 2.41508 0
M  V30 747 C 69.4098 -4.83888 2.2514 0
M  V30 748 O 69.6328 -5.56592 1.24746 0
M  V30 749 O 68.5668 -5.13612 3.13826 0
M  V30 750 H 72.3928 -1.92452 2.34938 0
M  V30 751 H 69.9778 -0.894981 1.19626 0
M  V30 752 H 71.8598 -4.05739 1.13814 0
M  V30 753 H 70.5348 -3.2249 0.279592 0
M  V30 754 H 69.4418 -2.74112 2.54585 0
M  V30 755 H 70.7748 -3.61983 3.3351 0
M  V30 756 N 72.4269 -1.23603 -0.977757 0
M  V30 757 C 73.8379 -1.06424 -1.53398 0
M  V30 758 C 74.1889 0.367578 -1.92726 0
M  V30 759 O 73.3139 1.25465 -1.76316 0
M  V30 760 C 73.9089 -1.92568 -2.78753 0
M  V30 761 C 72.4679 -1.79642 -3.30765 0
M  V30 762 C 71.6149 -1.88111 -2.03739 0
M  V30 763 H 74.5659 -1.37227 -0.797152 0
M  V30 764 H 74.5869 -1.45203 -3.51705 0
M  V30 765 H 74.0989 -2.96771 -2.50098 0
M  V30 766 H 72.1999 -0.782325 -3.64294 0
M  V30 767 H 72.3129 -2.63174 -4.00345 0
M  V30 768 H 70.6769 -1.31723 -2.17994 0
M  V30 769 H 71.4599 -2.93875 -1.77461 0
M  V30 770 N 73.905 1.17692 -1.04816 0
M  V30 771 C 74.835 2.23777 -0.666791 0
M  V30 772 C 75.816 1.66796 0.33361 0
M  V30 773 O 77.001 1.93039 0.212042 0
M  V30 774 C 74.131 3.47281 -0.0367933 0
M  V30 775 C 73.085 4.17059 -0.961546 0
M  V30 776 C 72.411 5.34342 -0.195626 0
M  V30 777 C 73.711 4.69713 -2.28402 0
M  V30 778 H 75.405 2.55933 -1.55367 0
M  V30 779 H 72.951 1.23019 -0.748484 0
M  V30 780 H 74.904 4.20706 0.241775 0
M  V30 781 H 73.628 3.14381 0.885004 0
M  V30 782 H 72.287 3.45541 -1.22462 0
M  V30 783 H 71.935 4.97692 0.728816 0
M  V30 784 H 71.635 5.81966 -0.811775 0
M  V30 785 H 73.159 6.10553 0.0757473 0
M  V30 786 H 74.573 5.34794 -2.06563 0
M  V30 787 H 72.97 5.279 -2.8538 0
M  V30 788 H 74.04 3.86726 -2.92525 0
M  V30 789 N 75.3831 0.828654 1.34056 0
M  V30 790 C 76.3301 0.252567 2.29414 0
M  V30 791 C 77.3001 -0.62588 1.53857 0
M  V30 792 O 78.4851 -0.566312 1.82202 0
M  V30 793 C 75.6251 -0.574831 3.40279 0
M  V30 794 C 74.7381 0.326499 4.30764 0
M  V30 795 C 73.8731 -0.511016 5.28736 0
M  V30 796 C 72.9121 0.389342 6.1086 0
M  V30 797 N 72.0491 -0.409439 7.00905 0
M  V30 798 H 76.8891 1.07108 2.78086 0
M  V30 799 H 74.4261 0.539677 1.36843 0
M  V30 800 H 76.3841 -1.06992 4.03248 0
M  V30 801 H 75.0141 -1.35841 2.92826 0
M  V30 802 H 74.0661 0.939837 3.68607 0
M  V30 803 H 75.3781 1.01857 4.88289 0
M  V30 804 H 74.5321 -1.07035 5.97184 0
M  V30 805 H 73.2711 -1.23657 4.71763 0
M  V30 806 H 72.2761 0.960769 5.4134 0
M  V30 807 H 73.5011 1.1131 6.69916 0
M  V30 808 H 71.4471 -1.11856 6.46393 0
M  V30 809 H 71.3641 0.224126 7.55668 0
M  V30 810 H 72.6321 -0.951336 7.73673 0
M  V30 811 N 76.8612 -1.46375 0.584142 0
M  V30 812 C 77.8092 -2.32042 -0.161047 0
M  V30 813 C 78.8032 -1.44569 -0.882966 0
M  V30 814 O 80.0092 -1.61186 -0.801191 0
M  V30 815 H 76.3842 -0.748659 -0.0708033 0
M  V30 816 H 78.3552 -2.92704 0.580269 0
M  V30 817 C 77.1042 -3.27762 -1.1605 0
M  V30 818 H 76.4272 -3.95051 -0.614419 0
M  V30 819 H 77.8672 -3.90481 -1.65228 0
M  V30 820 C 76.3262 -2.53218 -2.22221 0
M  V30 821 O 76.8562 -2.29628 -3.29597 0
M  V30 822 N 75.0622 -2.13756 -1.96868 0
M  V30 823 H 74.6092 -2.33142 -1.09557 0
M  V30 824 H 74.5672 -1.642 -2.68115 0
M  V30 825 N 78.3393 -0.321999 -1.54275 0
M  V30 826 C 79.2693 0.537411 -2.27231 0
M  V30 827 C 80.2503 1.12064 -1.27968 0
M  V30 828 O 81.4353 1.14606 -1.56777 0
M  V30 829 C 78.5653 1.69919 -3.02894 0
M  V30 830 C 77.5193 1.24534 -4.09482 0
M  V30 831 C 76.8453 2.49394 -4.72977 0
M  V30 832 C 78.1453 0.361335 -5.21049 0
M  V30 833 H 79.8393 -0.0711406 -2.99315 0
M  V30 834 H 77.3853 -0.0356555 -1.43956 0
M  V30 835 H 79.3383 2.30668 -3.52662 0
M  V30 836 H 78.0623 2.33431 -2.28424 0
M  V30 837 H 76.7213 0.660782 -3.60596 0
M  V30 838 H 76.3693 3.11265 -3.95124 0
M  V30 839 H 76.0693 2.19718 -5.44975 0
M  V30 840 H 77.5933 3.10908 -5.25517 0
M  V30 841 H 79.0073 0.875072 -5.66582 0
M  V30 842 H 77.4043 0.157428 -5.99893 0
M  V30 843 H 78.4743 -0.60822 -4.8107 0
M  V30 844 N 79.8174 1.5752 -0.0501392 0
M  V30 845 C 80.7274 2.14952 0.939827 0
M  V30 846 C 81.7434 1.10706 1.34239 0
M  V30 847 O 82.9194 1.42869 1.41952 0
M  V30 848 C 79.9844 2.68232 2.19665 0
M  V30 849 C 79.0454 3.87272 1.85253 0
M  V30 850 C 78.2784 4.38002 3.04943 0
M  V30 851 O 78.5014 3.87811 4.18281 0
M  V30 852 O 77.4354 5.29602 2.86017 0
M  V30 853 H 81.2614 2.9986 0.481392 0
M  V30 854 H 78.8464 1.4841 0.171699 0
M  V30 855 H 80.7284 3.02475 2.93406 0
M  V30 856 H 79.4034 1.86395 2.64648 0
M  V30 857 H 78.3104 3.5792 1.0883 0
M  V30 858 H 79.6434 4.70336 1.4507 0
M  V30 859 N 81.2955 -0.223234 1.56011 0
M  V30 860 C 82.5725 -0.972108 1.69733 0
M  V30 861 C 82.9525 -2.02485 0.59691 0
M  V30 862 O 82.3005 -2.25037 -0.396324 0
M  V30 863 C 82.5105 -1.58407 3.10979 0
M  V30 864 C 83.8585 -2.07696 3.70334 0
M  V30 865 O 84.8825 -1.68304 3.1393 0
M  V30 866 O 83.7415 -2.80096 4.69264 0
M  V30 867 H 80.8355 -0.453993 0.691245 0
M  V30 868 H 83.3815 -0.215149 1.68331 0
M  V30 869 H 82.1535 -0.823831 3.82529 0
M  V30 870 H 81.7765 -2.40661 3.16493 0
M  V30 871 N 82.7736 -1.49793 -0.48987 0
M  V30 872 C 83.7366 -1.66752 -1.57246 0
M  V30 873 C 84.7366 -0.538867 -1.51502 0
M  V30 874 O 85.9266 -0.805545 -1.54456 0
M  V30 875 C 83.0586 -1.67528 -2.96896 0
M  V30 876 H 84.2516 -2.63321 -1.43534 0
M  V30 877 H 81.8046 -1.38992 -0.714914 0
M  V30 878 H 82.5396 -0.725837 -3.16073 0
M  V30 879 H 82.3246 -2.49504 -3.02473 0
M  V30 880 H 83.8146 -1.82667 -3.7553 0
M  V30 881 N 84.2517 0.741722 -1.39055 0
M  V30 882 C 85.4977 1.50336 -1.36113 0
M  V30 883 C 85.8307 1.94148 0.0450796 0
M  V30 884 O 85.1057 1.66301 1.00868 0
M  V30 885 C 85.3887 2.74773 -2.32749 0
M  V30 886 C 85.2417 2.37023 -3.82283 0
M  V30 887 C 86.5607 3.76846 -2.27322 0
M  V30 888 H 83.6797 0.545351 -0.495743 0
M  V30 889 H 86.3217 0.848624 -1.69995 0
M  V30 890 H 84.4717 3.30639 -2.03986 0
M  V30 891 H 86.1437 1.8684 -4.21768 0
M  V30 892 H 84.3867 1.69334 -3.99385 0
M  V30 893 H 85.0577 3.26104 -4.45376 0
M  V30 894 H 87.5337 3.30548 -2.5274 0
M  V30 895 H 86.4097 4.6159 -2.97028 0
M  V30 896 H 86.6707 4.23286 -1.27599 0
M  V30 897 N 85.7298 1.2412 0.971189 0
M  V30 898 C 86.6778 1.02812 2.08644 0
M  V30 899 C 87.6718 -0.0358403 1.69362 0
M  V30 900 O 88.8778 0.118429 1.7961 0
M  V30 901 H 85.2528 0.315428 0.682649 0
M  V30 902 H 87.2238 1.97397 2.23779 0
M  V30 903 C 85.9728 0.645874 3.41649 0
M  V30 904 H 85.2958 1.45632 3.72332 0
M  V30 905 H 86.7358 0.536366 4.20594 0
M  V30 906 C 85.1948 -0.646713 3.30635 0
M  V30 907 O 85.7248 -1.69338 3.64263 0
M  V30 908 N 83.9308 -0.626115 2.83775 0
M  V30 909 H 83.4778 0.225988 2.56607 0
M  V30 910 H 83.4358 -1.49117 2.76788 0
M  V30 911 N 87.2079 -1.17134 1.05439 0
M  V30 912 C 88.1179 -2.24878 0.668365 0
M  V30 913 C 89.1339 -1.71186 -0.311687 0
M  V30 914 O 90.3099 -2.00738 -0.163161 0
M  V30 915 C 87.3749 -3.46662 0.051648 0
M  V30 916 C 86.4359 -4.15429 1.08246 0
M  V30 917 C 85.6689 -5.31399 0.495082 0
M  V30 918 O 85.8919 -5.66153 -0.694743 0
M  V30 919 O 84.8259 -5.89187 1.23056 0
M  V30 920 H 88.6519 -2.60189 1.56637 0
M  V30 921 H 86.2369 -1.24482 0.826104 0
M  V30 922 H 88.1189 -4.20394 -0.290966 0
M  V30 923 H 86.7939 -3.13142 -0.819971 0
M  V30 924 H 85.7009 -3.43704 1.47711 0
M  V30 925 H 87.0339 -4.52982 1.92532 0
M  V30 926 N 88.686 -0.835752 -1.33615 0
M  V30 927 C 89.934 -0.429109 -1.97492 0
M  V30 928 C 90.255 1.01433 -1.66543 0
M  V30 929 O 89.525 1.70611 -0.962744 0
M  V30 930 H 88.105 -0.155686 -0.730596 0
M  V30 931 H 90.767 -1.06802 -1.63031 0
M  V30 932 H 89.863 -0.55861 -3.0706 0
M  V30 933 N 90.1641 1.46063 -0.591896 0
M  V30 934 C 91.0941 2.33172 0.123673 0
M  V30 935 C 92.0751 1.45897 0.87453 0
M  V30 936 O 93.2601 1.74698 0.848181 0
M  V30 937 C 90.3901 3.28336 1.13194 0
M  V30 938 C 89.3441 4.25124 0.495324 0
M  V30 939 C 88.6701 5.09863 1.61071 0
M  V30 940 C 89.9701 5.19143 -0.573425 0
M  V30 941 H 91.6641 2.93252 -0.603646 0
M  V30 942 H 89.2101 1.41014 -0.291741 0
M  V30 943 H 91.1631 3.88137 1.64097 0
M  V30 944 H 89.8871 2.66383 1.88965 0
M  V30 945 H 88.5461 3.66599 0.00729452 0
M  V30 946 H 88.1941 4.44288 2.35832 0
M  V30 947 H 87.8941 5.75417 1.19035 0
M  V30 948 H 89.4181 5.72529 2.12233 0
M  V30 949 H 90.8321 5.73106 -0.1491 0
M  V30 950 H 89.2291 5.93089 -0.914636 0
M  V30 951 H 90.2991 4.62519 -1.45617 0
M  V30 952 N 91.6422 0.330177 1.54103 0
M  V30 953 C 92.5522 -0.541534 2.28264 0
M  V30 954 C 93.5682 -1.12351 1.32866 0
M  V30 955 O 94.7442 -1.14206 1.65888 0
M  V30 956 C 91.8092 -1.68322 3.03098 0
M  V30 957 C 90.8702 -1.13238 4.14096 0
M  V30 958 C 90.1032 -2.21966 4.85352 0
M  V30 959 O 90.3262 -3.42437 4.56172 0
M  V30 960 O 89.2602 -1.87013 5.7211 0
M  V30 961 H 93.0862 0.060938 3.03639 0
M  V30 962 H 90.6712 0.09565 1.49093 0
M  V30 963 H 92.5532 -2.34777 3.49939 0
M  V30 964 H 91.2282 -2.27176 2.30593 0
M  V30 965 H 90.1352 -0.432736 3.71589 0
M  V30 966 H 91.4682 -0.588898 4.88664 0
M  V30 967 N 93.1203 -1.57491 0.0584922 0
M  V30 968 C 94.3693 -1.92155 -0.613146 0
M  V30 969 C 94.6823 -0.939334 -1.71569 0
M  V30 970 O 95.8883 -1.17829 -2.44599 0
M  V30 971 C 94.3443 -3.41303 -1.14195 0
M  V30 972 C 93.9523 -4.47944 -0.0711265 0
M  V30 973 C 95.6963 -3.84988 -1.78841 0
M  V30 974 C 93.6033 -5.88212 -0.613225 0
M  V30 975 H 92.5333 -0.717162 -0.232796 0
M  V30 976 H 95.1843 -1.83049 0.12857 0
M  V30 977 H 93.5663 -3.45437 -1.93621 0
M  V30 978 H 94.7403 -4.55408 0.702836 0
M  V30 979 H 93.0553 -4.13644 0.478313 0
M  V30 980 H 95.6523 -4.87159 -2.20408 0
M  V30 981 H 95.9953 -3.21632 -2.64308 0
M  V30 982 H 96.5283 -3.83401 -1.06059 0
M  V30 983 H 93.2673 -6.55183 0.203978 0
M  V30 984 H 92.7873 -5.84294 -1.35501 0
M  V30 985 H 94.4663 -6.37687 -1.09383 0
M  V30 986 N 94.5984 0.214957 -1.56127 0
M  V30 987 C 95.8444 0.939762 -1.79712 0
M  V30 988 C 96.1774 1.83723 -0.629247 0
M  V30 989 O 95.4524 1.90925 0.371197 0
M  V30 990 C 95.7354 1.77306 -3.13424 0
M  V30 991 C 95.5884 0.90164 -4.40671 0
M  V30 992 C 96.9074 2.74956 -3.43638 0
M  V30 993 H 94.0264 0.340214 -0.653776 0
M  V30 994 H 96.6684 0.20824 -1.88855 0
M  V30 995 H 94.8184 2.39673 -3.0576 0
M  V30 996 H 96.4904 0.294206 -4.60361 0
M  V30 997 H 94.7334 0.207368 -4.33304 0
M  V30 998 H 95.4044 1.51923 -5.30682 0
M  V30 999 H 97.8804 2.22724 -3.51473 0
M  V30 1000 H 96.7564 3.30358 -4.38355 0
M  V30 1001 H 97.0174 3.53023 -2.66134 0
M  V30 1002 N 96.0765 1.50051 0.48192 0
M  V30 1003 C 97.4925 1.37237 0.814756 0
M  V30 1004 C 97.6925 0.420109 1.97072 0
M  V30 1005 O 96.7485 -0.141246 2.52105 0
M  V30 1006 C 98.0615 2.78375 1.13701 0
M  V30 1007 C 99.6095 2.87213 1.2441 0
M  V30 1008 C 100.084 4.29161 1.59954 0
M  V30 1009 N 101.575 4.32061 1.66967 0
M  V30 1010 C 102.31 5.38879 1.95952 0
M  V30 1011 N 101.806 6.55918 2.23031 0
M  V30 1012 N 103.599 5.26312 1.97363 0
M  V30 1013 H 95.7505 2.10546 -0.28005 0
M  V30 1014 H 98.0135 0.945921 -0.0627454 0
M  V30 1015 H 97.7195 3.49845 0.360787 0
M  V30 1016 H 97.5935 3.14941 2.07586 0
M  V30 1017 H 99.9805 2.15969 2.01101 0
M  V30 1018 H 100.061 2.54204 0.285299 0
M  V30 1019 H 99.7055 5.00938 0.838067 0
M  V30 1020 H 99.6355 4.59648 2.56966 0
M  V30 1021 H 102.126 3.47661 1.48123 0
M  V30 1022 H 102.439 7.33139 2.44391 0
M  V30 1023 H 100.784 6.59112 2.20447 0
M  V30 1024 H 103.975 4.33876 1.75697 0
M  V30 1025 H 104.148 6.09649 2.19618 0
M  V30 1026 N 97.5546 -0.734337 1.39446 0
M  V30 1027 C 98.8026 -1.49096 1.36436 0
M  V30 1028 C 99.1236 -1.94961 -0.0388255 0
M  V30 1029 O 98.3936 -1.69033 -0.990191 0
M  V30 1030 H 96.9736 -0.5531 0.502085 0
M  V30 1031 H 99.6356 -0.871725 1.74319 0
M  V30 1032 H 98.7316 -2.37276 2.02747 0
M  V30 1033 N 99.0327 -1.24633 -0.964593 0
M  V30 1034 C 100.449 -1.01239 -1.2338 0
M  V30 1035 C 100.649 0.2769 -1.99588 0
M  V30 1036 O 99.7047 0.992241 -2.32187 0
M  V30 1037 C 101.018 -2.22937 -2.01791 0
M  V30 1038 C 102.566 -2.27594 -2.14872 0
M  V30 1039 C 103.041 -3.48921 -2.96678 0
M  V30 1040 N 104.532 -3.49257 -3.04259 0
M  V30 1041 C 105.267 -4.39795 -3.67924 0
M  V30 1042 N 104.763 -5.40591 -4.33281 0
M  V30 1043 N 106.556 -4.275 -3.64966 0
M  V30 1044 H 98.7067 -2.0748 -0.454502 0
M  V30 1045 H 100.97 -0.910647 -0.26349 0
M  V30 1046 H 100.676 -3.16587 -1.53184 0
M  V30 1047 H 100.55 -2.25306 -3.02518 0
M  V30 1048 H 102.937 -1.34473 -2.6268 0
M  V30 1049 H 103.018 -2.2925 -1.13482 0
M  V30 1050 H 102.662 -4.42359 -2.49562 0
M  V30 1051 H 102.592 -3.4451 -3.98272 0
M  V30 1052 H 105.083 -2.76337 -2.57771 0
M  V30 1053 H 105.396 -6.05904 -4.79687 0
M  V30 1054 H 103.741 -5.44475 -4.3194 0
M  V30 1055 H 106.932 -3.47987 -3.13086 0
M  V30 1056 H 107.105 -4.98258 -4.14298 0
M  V30 1057 N 100.511 1.16574 -1.06058 0
M  V30 1058 C 101.441 2.23057 -0.690488 0
M  V30 1059 C 102.422 1.67141 0.315901 0
M  V30 1060 O 103.607 1.93253 0.191556 0
M  V30 1061 C 100.737 3.47222 -0.073625 0
M  V30 1062 C 99.6908 4.16016 -1.00573 0
M  V30 1063 C 99.0168 5.34104 -0.252289 0
M  V30 1064 C 100.317 4.67264 -2.33371 0
M  V30 1065 H 102.011 2.54271 -1.58072 0
M  V30 1066 H 99.5568 1.22218 -0.76149 0
M  V30 1067 H 101.51 4.20939 0.19714 0
M  V30 1068 H 100.234 3.15302 0.85161 0
M  V30 1069 H 98.8928 3.44223 -1.2612 0
M  V30 1070 H 98.5408 4.98437 0.675988 0
M  V30 1071 H 98.2408 5.81072 -0.873455 0
M  V30 1072 H 99.7648 6.10599 0.0109857 0
M  V30 1073 H 101.179 5.32573 -2.12223 0
M  V30 1074 H 99.5758 5.24843 -2.90963 0
M  V30 1075 H 100.646 3.83602 -2.96611 0
M  V30 1076 N 101.989 0.842826 1.3317 0
M  V30 1077 C 102.921 0.236245 2.27979 0
M  V30 1078 C 103.934 -0.585282 1.51915 0
M  V30 1079 O 105.123 -0.411705 1.73687 0
M  V30 1080 C 102.223 -0.685717 3.3189 0
M  V30 1081 C 101.396 0.0973448 4.37292 0
M  V30 1082 C 100.455 -0.748565 5.20848 0
M  V30 1083 O 99.4809 -0.186339 5.68895 0
M  V30 1084 N 100.683 -2.06527 5.42519 0
M  V30 1085 H 103.448 1.05088 2.80672 0
M  V30 1086 H 101.009 0.701667 1.45905 0
M  V30 1087 H 103.001 -1.25669 3.84694 0
M  V30 1088 H 101.571 -1.40105 2.79445 0
M  V30 1089 H 100.791 0.849706 3.84933 0
M  V30 1090 H 102.079 0.635643 5.04814 0
M  V30 1091 H 101.477 -2.54554 5.05192 0
M  V30 1092 H 100.034 -2.58464 5.98364 0
M  V30 1093 N 103.467 -1.45747 0.599634 0
M  V30 1094 C 104.415 -2.322 -0.136426 0
M  V30 1095 C 105.409 -1.45497 -0.867583 0
M  V30 1096 O 106.615 -1.62027 -0.78405 0
M  V30 1097 H 102.99 -0.749368 -0.0628588 0
M  V30 1098 H 104.961 -2.92072 0.611281 0
M  V30 1099 C 103.71 -3.28974 -1.12567 0
M  V30 1100 H 103.033 -3.9568 -0.572484 0
M  V30 1101 H 104.473 -3.92212 -1.61077 0
M  V30 1102 C 102.932 -2.55561 -2.19523 0
M  V30 1103 O 103.462 -2.33111 -3.27143 0
M  V30 1104 N 101.668 -2.15832 -1.94589 0
M  V30 1105 H 101.215 -2.3429 -1.07078 0
M  V30 1106 H 101.173 -1.67034 -2.66359 0
M  V30 1107 N 104.945 -0.338344 -1.53925 0
M  V30 1108 C 105.908 0.508299 -2.23493 0
M  V30 1109 C 106.908 1.03175 -1.23335 0
M  V30 1110 O 108.098 0.921826 -1.47811 0
M  V30 1111 C 105.23 1.70754 -2.95052 0
M  V30 1112 H 106.423 -0.100058 -2.99733 0
M  V30 1113 H 103.976 -0.0896198 -1.56043 0
M  V30 1114 H 104.711 2.35474 -2.22986 0
M  V30 1115 H 104.496 1.33946 -3.68512 0
M  V30 1116 H 105.986 2.30818 -3.48013 0
M  V30 1117 N 106.423 1.57458 -0.0668435 0
M  V30 1118 C 107.671 1.92919 0.602214 0
M  V30 1119 C 107.992 0.947215 1.70449 0
M  V30 1120 O 107.262 -0.00544117 1.95899 0
M  V30 1121 H 105.842 0.71217 0.22544 0
M  V30 1122 H 108.504 1.94508 -0.123535 0
M  V30 1123 H 107.6 2.94589 1.03073 0
M  V30 1124 N 107.901 -0.206675 1.56239 0
M  V30 1125 C 108.831 -1.25909 1.96645 0
M  V30 1126 C 109.812 -1.48097 0.836734 0
M  V30 1127 O 110.997 -1.6003 1.10019 0
M  V30 1128 C 108.127 -2.6058 2.29599 0
M  V30 1129 C 107.081 -2.53024 3.452 0
M  V30 1130 C 106.407 -3.91861 3.63798 0
M  V30 1131 C 107.707 -2.06524 4.79734 0
M  V30 1132 H 109.401 -0.923369 2.84806 0
M  V30 1133 H 106.947 -0.442735 1.37025 0
M  V30 1134 H 108.9 -3.34375 2.56459 0
M  V30 1135 H 107.624 -2.95869 1.38307 0
M  V30 1136 H 106.283 -1.81684 3.18412 0
M  V30 1137 H 105.931 -4.24483 2.69857 0
M  V30 1138 H 105.631 -3.87683 4.4156 0
M  V30 1139 H 107.155 -4.67296 3.93022 0
M  V30 1140 H 108.569 -2.70072 5.05702 0
M  V30 1141 H 106.966 -2.13374 5.60885 0
M  V30 1142 H 108.036 -1.01802 4.74093 0
M  V30 1143 N 109.379 -1.50304 -0.473955 0
M  V30 1144 C 110.327 -1.69482 -1.59307 0
M  V30 1145 C 111.321 -0.560669 -1.59853 0
M  V30 1146 O 112.527 -0.741087 -1.64036 0
M  V30 1147 H 108.902 -0.534892 -0.528578 0
M  V30 1148 H 110.873 -2.63364 -1.40293 0
M  V30 1149 C 109.622 -1.80354 -2.97267 0
M  V30 1150 H 108.945 -2.67012 -2.97564 0
M  V30 1151 H 110.385 -1.97798 -3.75036 0
M  V30 1152 C 108.844 -0.55448 -3.32306 0
M  V30 1153 O 109.374 0.307661 -4.0052 0
M  V30 1154 N 107.58 -0.409354 -2.87702 0
M  V30 1155 H 107.127 -1.11196 -2.32364 0
M  V30 1156 H 107.085 0.425223 -3.11511 0
M  V30 1157 N 110.857 0.726932 -1.39834 0
M  V30 1158 C 112.103 1.48884 -1.377 0
M  V30 1159 C 112.436 1.94185 0.0244852 0
M  V30 1160 O 111.711 1.67361 0.990986 0
M  V30 1161 C 111.994 2.72288 -2.3565 0
M  V30 1162 C 111.847 2.32956 -3.84775 0
M  V30 1163 C 113.166 3.74414 -2.31306 0
M  V30 1164 H 110.285 0.540062 -0.5015 0
M  V30 1165 H 112.927 0.830547 -1.70886 0
M  V30 1166 H 111.077 3.28457 -2.07481 0
M  V30 1167 H 112.749 1.82356 -4.23726 0
M  V30 1168 H 110.992 1.65088 -4.01159 0
M  V30 1169 H 111.663 3.21362 -4.4881 0
M  V30 1170 H 114.139 3.27849 -2.56231 0
M  V30 1171 H 113.015 4.58414 -3.01907 0
M  V30 1172 H 113.276 4.21909 -1.32081 0
M  V30 1173 N 112.336 1.25143 0.95797 0
M  V30 1174 C 113.564 1.12424 1.73691 0
M  V30 1175 C 113.979 -0.322304 1.86029 0
M  V30 1176 O 113.336 -1.22186 1.35561 0
M  V30 1177 C 113.387 1.76933 3.15241 0
M  V30 1178 O 113.108 3.15932 3.03511 0
M  V30 1179 C 114.609 1.6995 4.09429 0
M  V30 1180 H 111.829 0.3923 0.544373 0
M  V30 1181 H 114.373 1.6544 1.20207 0
M  V30 1182 H 112.528 1.27895 3.6568 0
M  V30 1183 H 112.942 3.47598 3.9278 0
M  V30 1184 H 114.416 2.19753 5.06372 0
M  V30 1185 H 114.893 0.662619 4.34173 0
M  V30 1186 H 115.499 2.18461 3.64904 0
M  V30 1187 N 113.814 -1.1601 1.06675 0
M  V30 1188 C 115.06 -1.86909 0.786945 0
M  V30 1189 C 115.393 -1.81717 -0.685018 0
M  V30 1190 O 114.668 -1.23551 -1.50218 0
M  V30 1191 C 114.951 -3.36313 1.28707 0
M  V30 1192 C 114.804 -3.50175 2.82308 0
M  V30 1193 C 116.123 -4.3084 0.898071 0
M  V30 1194 H 113.242 -0.678677 0.287343 0
M  V30 1195 H 115.884 -1.36336 1.32334 0
M  V30 1196 H 114.034 -3.79513 0.830768 0
M  V30 1197 H 115.706 -3.15886 3.36175 0
M  V30 1198 H 113.949 -2.91959 3.20847 0
M  V30 1199 H 114.62 -4.55116 3.12368 0
M  V30 1200 H 117.096 -3.95561 1.29114 0
M  V30 1201 H 115.972 -5.33876 1.27543 0
M  V30 1202 H 116.233 -4.41662 -0.196651 0
M  V30 1203 N 115.292 -0.849877 -1.32721 0
M  V30 1204 C 116.24 -0.279745 -2.30912 0
M  V30 1205 C 117.234 0.594278 -1.58634 0
M  V30 1206 O 118.44 0.482613 -1.73409 0
M  V30 1207 H 114.815 -0.0717521 -0.748569 0
M  V30 1208 H 116.786 -1.12222 -2.76494 0
M  V30 1209 C 115.535 0.521108 -3.43773 0
M  V30 1210 H 114.858 -0.142141 -3.99547 0
M  V30 1211 H 116.298 0.885693 -4.14646 0
M  V30 1212 C 114.757 1.70442 -2.90605 0
M  V30 1213 O 115.287 2.8034 -2.87702 0
M  V30 1214 N 113.493 1.52991 -2.47067 0
M  V30 1215 H 113.04 0.635914 -2.49628 0
M  V30 1216 H 112.998 2.32311 -2.11847 0
M  V30 1217 N 116.77 1.45427 -0.607355 0
M  V30 1218 C 117.733 2.28974 0.101693 0
M  V30 1219 C 118.733 1.39754 0.795329 0
M  V30 1220 O 119.923 1.61878 0.643527 0
M  V30 1221 C 117.055 3.20768 1.15414 0
M  V30 1222 H 118.248 2.93147 -0.632844 0
M  V30 1223 H 115.801 1.51945 -0.366391 0
M  V30 1224 H 116.536 2.61395 1.91945 0
M  V30 1225 H 116.321 3.86489 0.66098 0
M  V30 1226 H 117.811 3.83589 1.65073 0
M  V30 1227 N 118.248 0.346503 1.53744 0
M  V30 1228 C 119.476 -0.25041 2.05379 0
M  V30 1229 C 119.891 -1.43979 1.22129 0
M  V30 1230 O 119.248 -1.80677 0.257321 0
M  V30 1231 C 119.299 -0.662575 3.55376 0
M  V30 1232 O 119.02 0.479515 4.35468 0
M  V30 1233 C 120.521 -1.31989 4.23195 0
M  V30 1234 H 117.741 -0.0478198 0.669294 0
M  V30 1235 H 120.285 0.499346 1.9831 0
M  V30 1236 H 118.44 -1.36227 3.62658 0
M  V30 1237 H 118.854 0.15037 5.24284 0
M  V30 1238 H 120.328 -1.55902 5.29527 0
M  V30 1239 H 120.805 -2.27436 3.75725 0
M  V30 1240 H 121.411 -0.662154 4.20114 0
M  V30 1241 N 119.726 -1.57421 0.075193 0
M  V30 1242 C 120.973 -1.93618 -0.593146 0
M  V30 1243 C 121.301 -0.955484 -1.69413 0
M  V30 1244 O 120.556 0.0283251 -1.9568 0
M  V30 1245 C 120.855 -3.36428 -1.20626 0
M  V30 1246 C 120.521 -4.50307 -0.231078 0
M  V30 1247 C 119.183 -4.81186 0.0371936 0
M  V30 1248 C 121.535 -5.19374 0.435888 0
M  V30 1249 C 118.863 -5.78466 0.979461 0
M  V30 1250 C 121.215 -6.17665 1.3665 0
M  V30 1251 C 119.879 -6.46958 1.6432 0
M  V30 1252 H 119.149 -0.708499 -0.217047 0
M  V30 1253 H 121.796 -1.90937 0.146793 0
M  V30 1254 H 120.101 -3.35592 -2.02201 0
M  V30 1255 H 121.798 -3.61727 -1.73073 0
M  V30 1256 H 118.388 -4.26227 -0.450357 0
M  V30 1257 H 122.572 -4.95711 0.241748 0
M  V30 1258 H 117.828 -5.99487 1.20106 0
M  V30 1259 H 122.002 -6.70284 1.88924 0
M  V30 1260 H 119.629 -7.2215 2.37494 0
M  V30 1261 N 121.204 0.198386 -1.56346 0
M  V30 1262 C 122.137 1.27381 -1.89339 0
M  V30 1263 C 123.115 1.44106 -0.753134 0
M  V30 1264 O 124.299 1.59549 -1.00381 0
M  V30 1265 C 121.426 2.6409 -2.12071 0
M  V30 1266 C 120.472 2.64253 -3.34772 0
M  V30 1267 S 121.305 2.16013 -4.89999 0
M  V30 1268 C 122.461 3.54553 -5.15794 0
M  V30 1269 H 122.694 0.992058 -2.8026 0
M  V30 1270 H 120.227 0.401726 -1.49082 0
M  V30 1271 H 122.185 3.42786 -2.2585 0
M  V30 1272 H 120.846 2.89478 -1.21906 0
M  V30 1273 H 120.039 3.64768 -3.47794 0
M  V30 1274 H 119.641 1.93637 -3.1997 0
M  V30 1275 H 121.933 4.50396 -5.06112 0
M  V30 1276 H 122.876 3.46428 -6.1757 0
M  V30 1277 H 123.284 3.49313 -4.43442 0
M  V30 1278 N 122.682 1.50554 0.465978 0
M  V30 1279 C 123.912 1.65323 1.23903 0
M  V30 1280 C 124.32 0.338051 1.86155 0
M  V30 1281 O 123.663 -0.690518 1.70228 0
M  V30 1282 C 123.725 2.69048 2.3844 0
M  V30 1283 C 123.389 4.12462 1.96784 0
M  V30 1284 C 124.386 4.98168 1.48745 0
M  V30 1285 C 122.071 4.58407 2.05349 0
M  V30 1286 C 124.065 6.27868 1.0982 0
M  V30 1287 C 121.752 5.88112 1.66035 0
M  V30 1288 C 122.75 6.72668 1.18349 0
M  V30 1289 O 122.438 7.99951 0.795825 0
M  V30 1290 H 122.17 0.558629 0.38067 0
M  V30 1291 H 124.724 1.97561 0.562022 0
M  V30 1292 H 122.954 2.32062 3.09328 0
M  V30 1293 H 124.643 2.72985 3.0039 0
M  V30 1294 H 125.409 4.63885 1.41546 0
M  V30 1295 H 121.288 3.92735 2.41414 0
M  V30 1296 H 124.832 6.93819 0.725293 0
M  V30 1297 H 120.729 6.21914 1.72895 0
M  V30 1298 H 121.497 8.13265 0.924222 0
M  V30 1299 N 124.16 -0.719506 1.40217 0
M  V30 1300 C 125.385 -1.51371 1.4178 0
M  V30 1301 C 125.81 -1.88091 0.0182355 0
M  V30 1302 O 125.168 -1.52997 -0.972707 0
M  V30 1303 C 125.216 -2.768 2.31115 0
M  V30 1304 O 124.32 -3.73349 1.7517 0
M  V30 1305 H 123.661 -0.456529 0.482159 0
M  V30 1306 H 126.191 -0.88644 1.844 0
M  V30 1307 H 126.201 -3.25371 2.46167 0
M  V30 1308 H 124.876 -2.49407 3.3282 0
M  V30 1309 H 123.453 -3.32179 1.69444 0
M  V30 1310 N 125.638 -1.25649 -0.95132 0
M  V30 1311 C 126.915 -1.01361 -1.67288 0
M  V30 1312 C 127.295 0.459135 -2.06046 0
M  V30 1313 O 126.643 1.43723 -1.7764 0
M  V30 1314 C 126.853 -1.95256 -2.89268 0
M  V30 1315 C 128.201 -2.23289 -3.61147 0
M  V30 1316 O 129.225 -1.93041 -2.99355 0
M  V30 1317 O 128.084 -2.74741 -4.72419 0
M  V30 1318 H 125.178 -0.38464 -0.732107 0
M  V30 1319 H 127.724 -1.36817 -1.00395 0
M  V30 1320 H 126.496 -2.94685 -2.57442 0
M  V30 1321 H 126.119 -1.60218 -3.6389 0
M  V30 1322 N 127.117 1.15442 -1.07289 0
M  V30 1323 C 128.365 1.85845 -0.794096 0
M  V30 1324 C 128.686 1.82692 0.681809 0
M  V30 1325 O 127.956 1.26741 1.49377 0
M  V30 1326 H 126.536 0.688089 -0.290763 0
M  V30 1327 H 129.198 1.39947 -1.3565 0
M  V30 1328 H 128.294 2.91001 -1.12804 0
M  V30 1329 N 128.595 0.856903 1.32268 0
M  V30 1330 C 129.525 0.31858 2.31316 0
M  V30 1331 C 130.506 -0.583487 1.59779 0
M  V30 1332 O 131.691 -0.503259 1.87566 0
M  V30 1333 C 128.821 -0.491979 3.43798 0
M  V30 1334 C 127.775 0.315849 4.26833 0
M  V30 1335 C 127.101 -0.619586 5.31098 0
M  V30 1336 C 128.401 1.54282 4.98993 0
M  V30 1337 H 130.095 1.14621 2.76591 0
M  V30 1338 H 127.641 0.552613 1.32974 0
M  V30 1339 H 129.594 -0.879012 4.1213 0
M  V30 1340 H 128.318 -1.35299 2.97257 0
M  V30 1341 H 126.977 0.684664 3.6015 0
M  V30 1342 H 126.625 -1.47751 4.8081 0
M  V30 1343 H 126.325 -0.0830621 5.87541 0
M  V30 1344 H 127.849 -1.00375 6.02293 0
M  V30 1345 H 129.263 1.22796 5.59995 0
M  V30 1346 H 127.66 2.01745 5.65172 0
M  V30 1347 H 128.73 2.30285 4.26728 0
M  V30 1348 N 130.073 -1.45103 0.615059 0
M  V30 1349 C 131.322 -2.01396 0.110718 0
M  V30 1350 C 131.635 -1.48834 -1.26916 0
M  V30 1351 O 132.841 -1.97152 -1.86664 0
M  V30 1352 C 131.297 -3.59599 0.14723 0
M  V30 1353 C 130.905 -4.21158 1.52743 0
M  V30 1354 C 132.649 -4.23428 -0.30148 0
M  V30 1355 C 130.556 -5.71535 1.51992 0
M  V30 1356 H 129.486 -0.753061 0.0376241 0
M  V30 1357 H 132.137 -1.66494 0.77149 0
M  V30 1358 H 130.519 -3.91724 -0.580339 0
M  V30 1359 H 131.693 -4.00594 2.2773 0
M  V30 1360 H 130.008 -3.69552 1.91886 0
M  V30 1361 H 132.605 -5.33703 -0.326392 0
M  V30 1362 H 132.948 -3.94629 -1.32565 0
M  V30 1363 H 133.481 -3.96047 0.373065 0
M  V30 1364 H 130.22 -6.05044 2.52193 0
M  V30 1365 H 129.74 -5.94268 0.81274 0
M  V30 1366 H 131.419 -6.34873 1.24681 0
M  V30 1367 N 131.551 -0.354651 -1.53558 0
M  V30 1368 C 132.501 0.513179 -2.2215 0
M  V30 1369 C 133.485 1.05734 -1.21281 0
M  V30 1370 O 134.677 0.989202 -1.46778 0
M  V30 1371 C 131.806 1.65798 -3.00609 0
M  V30 1372 C 130.892 1.12722 -4.08845 0
M  V30 1373 N 131.283 0.318563 -5.04796 0
M  V30 1374 C 129.581 1.40307 -4.23356 0
M  V30 1375 C 130.282 0.0292224 -5.81693 0
M  V30 1376 N 129.258 0.623891 -5.40008 0
M  V30 1377 H 133.06 -0.111586 -2.93688 0
M  V30 1378 H 130.574 -0.162091 -1.61589 0
M  V30 1379 H 132.571 2.29176 -3.48258 0
M  V30 1380 H 131.231 2.28591 -2.306 0
M  V30 1381 H 132.242 -0.0413091 -5.17884 0
M  V30 1382 H 128.919 2.03458 -3.6457 0
M  V30 1383 H 130.309 -0.623808 -6.68998 0
M  V30 1384 N 133.029 1.57378 -0.0835403 0
M  V30 1385 C 133.977 2.14602 0.89714 0
M  V30 1386 C 134.971 1.08589 1.30018 0
M  V30 1387 O 136.177 1.26952 1.27606 0
M  V30 1388 H 132.552 0.686346 0.3073 0
M  V30 1389 H 134.523 2.95845 0.38969 0
M  V30 1390 C 133.272 2.73188 2.15089 0
M  V30 1391 H 132.595 3.54442 1.84962 0
M  V30 1392 H 134.035 3.1681 2.81793 0
M  V30 1393 C 132.494 1.68517 2.91725 0
M  V30 1394 O 133.024 1.11718 3.85852 0
M  V30 1395 N 131.23 1.39277 2.55049 0
M  V30 1396 H 130.777 1.85655 1.78577 0
M  V30 1397 H 130.735 0.694791 3.06627 0
M  V30 1398 N 134.507 -0.190092 1.56449 0
M  V30 1399 C 135.732 -0.929864 1.85387 0
M  V30 1400 C 136.157 -1.7585 0.667704 0
M  V30 1401 O 135.515 -1.77198 -0.383459 0
M  V30 1402 C 135.563 -1.79773 3.12593 0
M  V30 1403 O 134.667 -2.89713 2.93496 0
M  V30 1404 H 134.008 -0.261574 0.610307 0
M  V30 1405 H 136.538 -0.193896 2.03679 0
M  V30 1406 H 136.548 -2.20139 3.43515 0
M  V30 1407 H 135.223 -1.18892 3.98544 0
M  V30 1408 H 133.8 -2.53065 2.73884 0
M  V30 1409 N 135.985 -1.50799 -0.457987 0
M  V30 1410 C 137.233 -1.62121 -1.2067 0
M  V30 1411 C 137.554 -0.329793 -1.92191 0
M  V30 1412 O 136.824 0.653409 -1.84682 0
M  V30 1413 H 135.404 -0.597441 -0.448411 0
M  V30 1414 H 138.066 -1.87637 -0.527096 0
M  V30 1415 H 137.162 -2.43882 -1.94751 0
M  V30 1416 N 137.463 0.71206 -1.40597 0
M  V30 1417 C 138.74 1.46536 -1.29563 0
M  V30 1418 C 139.12 2.10931 0.0844217 0
M  V30 1419 O 138.468 2.00418 1.0975 0
M  V30 1420 C 138.678 2.49821 -2.43701 0
M  V30 1421 C 140.026 3.15551 -2.841 0
M  V30 1422 O 141.05 2.60142 -2.4332 0
M  V30 1423 O 139.909 4.15867 -3.54566 0
M  V30 1424 H 137.003 0.651801 -0.509004 0
M  V30 1425 H 139.549 0.743935 -1.52524 0
M  V30 1426 H 138.321 2.00778 -3.35863 0
M  V30 1427 H 137.944 3.29495 -2.22528 0
M  V30 1428 N 138.941 1.26152 0.944643 0
M  V30 1429 C 140.181 1.12708 1.70517 0
M  V30 1430 C 140.545 -0.324727 1.89234 0
M  V30 1431 O 141.746 -0.581211 2.62441 0
M  V30 1432 C 140.017 1.8713 3.04495 0
M  V30 1433 S 141.576 1.89698 3.95677 0
M  V30 1434 H 138.394 0.402665 0.585988 0
M  V30 1435 H 140.996 1.59821 1.12594 0
M  V30 1436 H 139.7 2.91833 2.88551 0
M  V30 1437 H 139.231 1.40444 3.67477 0
M  V30 1438 H 141.246 0.981198 4.86402 0
M  V30 1439 N 140.419 -1.14872 1.07899 0
M  V30 1440 C 141.835 -1.37776 0.805606 0
M  V30 1441 C 142.035 -1.92743 -0.587555 0
M  V30 1442 O 141.091 -2.13678 -1.34528 0
M  V30 1443 C 142.404 -2.34361 1.88402 0
M  V30 1444 C 143.952 -2.48012 1.90942 0
M  V30 1445 C 144.427 -3.47893 2.97883 0
M  V30 1446 N 145.918 -3.55433 2.97021 0
M  V30 1447 C 146.653 -4.32553 3.76412 0
M  V30 1448 N 146.149 -5.12959 4.65666 0
M  V30 1449 N 147.942 -4.27697 3.64735 0
M  V30 1450 H 140.093 -0.775365 1.97742 0
M  V30 1451 H 142.356 -0.403521 0.857831 0
M  V30 1452 H 142.062 -2.01098 2.88535 0
M  V30 1453 H 141.936 -3.34206 1.74889 0
M  V30 1454 H 144.323 -2.8057 0.914579 0
M  V30 1455 H 144.404 -1.48147 2.08534 0
M  V30 1456 H 144.048 -3.16069 3.97571 0
M  V30 1457 H 143.978 -4.47527 2.77538 0
M  V30 1458 H 146.469 -2.98048 2.32326 0
M  V30 1459 H 146.782 -5.69065 5.22862 0
M  V30 1460 H 145.127 -5.12245 4.69712 0
M  V30 1461 H 148.318 -3.63949 2.94378 0
M  V30 1462 H 148.491 -4.8755 4.26848 0
M  V30 1463 N 141.898 -0.863906 -1.31812 0
M  V30 1464 C 143.123 -0.48527 -2.01643 0
M  V30 1465 C 143.548 0.913058 -1.64453 0
M  V30 1466 O 142.906 1.6014 -0.849985 0
M  V30 1467 C 142.954 -0.642625 -3.54828 0
M  V30 1468 O 142.058 0.320659 -4.11151 0
M  V30 1469 H 141.399 -0.193793 -0.635091 0
M  V30 1470 H 143.929 -1.16565 -1.68148 0
M  V30 1471 H 143.939 -0.533628 -4.04495 0
M  V30 1472 H 142.614 -1.66227 -3.81237 0
M  V30 1473 H 141.191 0.167126 -3.72525 0
M  V30 1474 N 143.376 1.44774 -0.622745 0
M  V30 1475 C 144.601 2.06999 -0.128968 0
M  V30 1476 C 145.026 1.4617 1.1839 0
M  V30 1477 O 144.384 0.560007 1.72434 0
M  V30 1478 C 144.432 3.60595 -0.0188351 0
M  V30 1479 O 143.536 3.99398 1.02739 0
M  V30 1480 H 142.877 0.659047 -0.0809544 0
M  V30 1481 H 145.407 1.85784 -0.85705 0
M  V30 1482 H 145.417 4.07627 0.174476 0
M  V30 1483 H 144.092 4.04252 -0.977384 0
M  V30 1484 H 142.669 3.64011 0.809326 0
M  V30 1485 N 144.854 0.36279 1.53368 0
M  V30 1486 C 146.082 -0.228613 2.05633 0
M  V30 1487 C 146.497 -1.42676 1.23649 0
M  V30 1488 O 145.854 -1.80394 0.27647 0
M  V30 1489 C 145.905 -0.624845 3.56059 0
M  V30 1490 O 145.626 0.525675 4.34935 0
M  V30 1491 C 147.127 -1.27493 4.24571 0
M  V30 1492 H 144.347 -0.0407183 0.669763 0
M  V30 1493 H 146.891 0.520352 1.97769 0
M  V30 1494 H 145.046 -1.32373 3.64083 0
M  V30 1495 H 145.46 0.205969 5.24095 0
M  V30 1496 H 146.934 -1.50277 5.31151 0
M  V30 1497 H 147.411 -2.23439 3.78116 0
M  V30 1498 H 148.017 -0.617558 4.20792 0
M  V30 1499 N 146.332 -1.57332 0.0918853 0
M  V30 1500 C 147.572 -1.96117 -0.575988 0
M  V30 1501 C 147.936 -0.972499 -1.65549 0
M  V30 1502 O 149.137 -1.24872 -2.38034 0
M  V30 1503 C 147.408 -3.39407 -1.11973 0
M  V30 1504 S 148.967 -4.00185 -1.79992 0
M  V30 1505 H 145.785 -0.685682 -0.188045 0
M  V30 1506 H 148.387 -1.94755 0.170525 0
M  V30 1507 H 147.091 -4.09131 -0.322504 0
M  V30 1508 H 146.622 -3.44358 -1.90214 0
M  V30 1509 H 148.637 -3.88728 -3.08391 0
M  V30 1510 N 147.81 0.181792 -1.56548 0
M  V30 1511 C 148.72 1.24538 -1.98815 0
M  V30 1512 C 149.736 1.49045 -0.897861 0
M  V30 1513 O 150.912 1.61399 -1.20467 0
M  V30 1514 C 147.977 2.56683 -2.33055 0
M  V30 1515 C 147.038 2.40131 -3.55859 0
M  V30 1516 C 146.271 3.65975 -3.88456 0
M  V30 1517 O 146.494 4.70711 -3.22161 0
M  V30 1518 O 145.428 3.6071 -4.81842 0
M  V30 1519 H 149.254 0.916647 -2.89536 0
M  V30 1520 H 146.839 0.387842 -1.44278 0
M  V30 1521 H 148.721 3.34655 -2.56094 0
M  V30 1522 H 147.396 2.89157 -1.45498 0
M  V30 1523 H 146.303 1.60226 -3.38051 0
M  V30 1524 H 147.636 2.12585 -4.43924 0
M  V30 1525 N 149.288 1.51039 0.449983 0
M  V30 1526 C 150.536 1.62759 1.19808 0
M  V30 1527 C 150.857 0.339981 1.92013 0
M  V30 1528 O 150.127 -0.643606 1.85026 0
M  V30 1529 H 148.707 0.599811 0.445237 0
M  V30 1530 H 151.369 1.87914 0.517138 0
M  V30 1531 H 150.465 2.44911 1.93455 0
M  V30 1532 N 150.766 -0.704594 1.40972 0
M  V30 1533 C 151.696 -1.83124 1.44872 0
M  V30 1534 C 152.677 -1.67281 0.30838 0
M  V30 1535 O 153.862 -1.87149 0.518556 0
M  V30 1536 C 150.992 -3.21181 1.32136 0
M  V30 1537 C 149.946 -3.51714 2.43888 0
M  V30 1538 C 149.272 -4.89032 2.16222 0
M  V30 1539 C 150.572 -3.516 3.86232 0
M  V30 1540 H 152.266 -1.80117 2.39161 0
M  V30 1541 H 149.812 -0.865145 1.15114 0
M  V30 1542 H 151.765 -3.99702 1.33479 0
M  V30 1543 H 150.489 -3.24791 0.343279 0
M  V30 1544 H 149.148 -2.75539 2.41813 0
M  V30 1545 H 148.796 -4.89256 1.16778 0
M  V30 1546 H 148.496 -5.10426 2.911 0
M  V30 1547 H 150.02 -5.69873 2.19265 0
M  V30 1548 H 151.434 -4.2014 3.9007 0
M  V30 1549 H 149.831 -3.84523 4.60719 0
M  V30 1550 H 150.901 -2.50757 4.15029 0
M  V30 1551 N 152.244 -1.26651 -0.937939 0
M  V30 1552 C 153.521 -1.0313 -1.66204 0
M  V30 1553 C 153.901 0.437256 -2.06522 0
M  V30 1554 O 153.249 1.41831 -1.79154 0
M  V30 1555 C 153.459 -1.98314 -2.87181 0
M  V30 1556 C 154.807 -2.27107 -3.58758 0
M  V30 1557 O 155.831 -1.96205 -2.97291 0
M  V30 1558 O 154.69 -2.79736 -4.69479 0
M  V30 1559 H 151.784 -0.392384 -0.727986 0
M  V30 1560 H 154.33 -1.37874 -0.989382 0
M  V30 1561 H 153.102 -2.97399 -2.54302 0
M  V30 1562 H 152.725 -1.64068 -3.6217 0
M  V30 1563 N 153.722 1.14298 -1.08507 0
M  V30 1564 C 154.652 2.21542 -0.737646 0
M  V30 1565 C 155.633 1.67773 0.280377 0
M  V30 1566 O 156.818 1.93616 0.150521 0
M  V30 1567 C 153.948 3.46988 -0.147259 0
M  V30 1568 C 152.902 4.13789 -1.09374 0
M  V30 1569 C 152.228 5.33449 -0.365524 0
M  V30 1570 C 153.528 4.62208 -2.4323 0
M  V30 1571 H 155.222 2.5086 -1.6343 0
M  V30 1572 H 152.768 1.20576 -0.787243 0
M  V30 1573 H 154.721 4.21262 0.107808 0
M  V30 1574 H 153.445 3.17037 0.784538 0
M  V30 1575 H 152.104 3.4147 -1.33393 0
M  V30 1576 H 151.752 4.99759 0.57011 0
M  V30 1577 H 151.452 5.79088 -0.996512 0
M  V30 1578 H 152.976 6.10485 -0.118534 0
M  V30 1579 H 154.39 5.27952 -2.23472 0
M  V30 1580 H 152.787 5.18553 -3.02031 0
M  V30 1581 H 153.857 3.77224 -3.04681 0
M  V30 1582 N 155.201 0.870884 1.31352 0
M  V30 1583 C 156.131 0.343096 2.30966 0
M  V30 1584 C 157.112 -0.566507 1.60389 0
M  V30 1585 O 158.297 -0.483336 1.88089 0
M  V30 1586 C 155.427 -0.455487 3.443 0
M  V30 1587 C 154.381 0.361103 4.26474 0
M  V30 1588 C 153.707 -0.563221 5.31725 0
M  V30 1589 C 155.007 1.59566 4.97329 0
M  V30 1590 H 156.701 1.17548 2.75359 0
M  V30 1591 H 154.247 0.566686 1.32381 0
M  V30 1592 H 156.2 -0.83525 4.13039 0
M  V30 1593 H 154.924 -1.32139 2.98675 0
M  V30 1594 H 153.583 0.722825 3.59403 0
M  V30 1595 H 153.231 -1.42643 4.82351 0
M  V30 1596 H 152.931 -0.0207409 5.87596 0
M  V30 1597 H 154.455 -0.939808 6.03324 0
M  V30 1598 H 155.869 1.28728 5.58661 0
M  V30 1599 H 154.266 2.07728 5.63 0
M  V30 1600 H 155.336 2.34798 4.24262 0
M  V30 1601 N 156.679 -1.44442 0.630414 0
M  V30 1602 C 158.095 -1.56832 0.295973 0
M  V30 1603 C 158.295 -1.61806 -1.20088 0
M  V30 1604 O 157.351 -1.5607 -1.9849 0
M  V30 1605 C 158.664 -2.84031 0.987264 0
M  V30 1606 C 160.212 -2.97742 0.96534 0
M  V30 1607 C 160.687 -4.27743 1.63708 0
M  V30 1608 N 162.178 -4.34555 1.60364 0
M  V30 1609 C 162.913 -5.33862 2.09234 0
M  V30 1610 N 162.409 -6.39578 2.66292 0
M  V30 1611 N 164.202 -5.25366 1.99867 0
M  V30 1612 H 156.353 -1.39457 1.60205 0
M  V30 1613 H 158.616 -0.668237 0.672431 0
M  V30 1614 H 158.322 -2.86338 2.04215 0
M  V30 1615 H 158.196 -3.73534 0.524588 0
M  V30 1616 H 160.583 -2.94989 -0.0810639 0
M  V30 1617 H 160.664 -2.09589 1.4665 0
M  V30 1618 H 160.308 -4.31255 2.68293 0
M  V30 1619 H 160.238 -5.14752 1.11076 0
M  V30 1620 H 162.729 -3.58772 1.18705 0
M  V30 1621 H 163.042 -7.11637 3.01317 0
M  V30 1622 H 161.387 -6.40265 2.70343 0
M  V30 1623 H 164.578 -4.41688 1.55013 0
M  V30 1624 H 164.751 -6.02606 2.38265 0
M  V30 1625 N 158.157 -0.370918 -1.53173 0
M  V30 1626 C 159.104 0.473035 -2.259 0
M  V30 1627 C 160.074 1.07311 -1.26781 0
M  V30 1628 O 161.259 1.1046 -1.55574 0
M  V30 1629 C 158.399 1.60405 -3.05556 0
M  V30 1630 C 157.512 1.02863 -4.19575 0
M  V30 1631 C 156.647 2.12918 -4.86661 0
M  V30 1632 C 155.686 1.52869 -5.92704 0
M  V30 1633 N 154.823 2.56779 -6.53459 0
M  V30 1634 H 159.663 -0.153649 -2.97604 0
M  V30 1635 H 157.2 -0.0875946 -1.46839 0
M  V30 1636 H 159.158 2.27034 -3.50016 0
M  V30 1637 H 157.788 2.20131 -2.36097 0
M  V30 1638 H 156.84 0.252465 -3.79561 0
M  V30 1639 H 158.152 0.549642 -4.95762 0
M  V30 1640 H 157.306 2.87356 -5.34333 0
M  V30 1641 H 156.045 2.6417 -4.09958 0
M  V30 1642 H 155.05 0.769479 -5.44389 0
M  V30 1643 H 156.275 1.02435 -6.7133 0
M  V30 1644 H 154.221 3.07235 -5.79606 0
M  V30 1645 H 154.138 2.13583 -7.25202 0
M  V30 1646 H 155.406 3.30903 -7.05779 0
M  V30 1647 N 159.635 1.57281 -0.100228 0
M  V30 1648 C 160.884 1.93713 0.561984 0
M  V30 1649 C 161.197 0.984492 1.69018 0
M  V30 1650 O 162.403 1.24273 2.41389 0
M  V30 1651 C 160.859 3.4421 1.05106 0
M  V30 1652 C 160.467 4.47975 -0.0476628 0
M  V30 1653 C 162.211 3.89595 1.68571 0
M  V30 1654 C 160.118 5.89631 0.457055 0
M  V30 1655 H 159.048 0.723082 0.2137 0
M  V30 1656 H 161.699 1.82644 -0.177057 0
M  V30 1657 H 160.081 3.50449 1.84395 0
M  V30 1658 H 161.255 4.53385 -0.823333 0
M  V30 1659 H 159.57 4.1223 -0.587816 0
M  V30 1660 H 162.167 4.92832 2.07414 0
M  V30 1661 H 162.51 3.28526 2.55688 0
M  V30 1662 H 163.043 3.86078 0.958562 0
M  V30 1663 H 159.782 6.54411 -0.377616 0
M  V30 1664 H 159.302 5.87681 1.19962 0
M  V30 1665 H 160.981 6.40363 0.92437 0
M  V30 1666 N 161.113 -0.173488 1.56642 0
M  V30 1667 C 162.338 -0.910149 1.86363 0
M  V30 1668 C 162.763 -1.75132 0.686318 0
M  V30 1669 O 162.121 -1.77595 -0.364643 0
M  V30 1670 C 162.169 -1.76447 3.14482 0
M  V30 1671 O 161.273 -2.86584 2.96553 0
M  V30 1672 H 160.614 -0.255086 0.613047 0
M  V30 1673 H 163.144 -0.172283 2.03873 0
M  V30 1674 H 163.154 -2.16483 3.45831 0
M  V30 1675 H 161.829 -1.14658 3.99783 0
M  V30 1676 H 160.406 -2.50146 2.76553 0
M  V30 1677 N 162.591 -1.51276 -0.441967 0
M  V30 1678 C 163.539 -1.72823 -1.55676 0
M  V30 1679 C 164.533 -0.59445 -1.58627 0
M  V30 1680 O 165.739 -0.775715 -1.62427 0
M  V30 1681 H 162.114 -0.545983 -0.517113 0
M  V30 1682 H 164.085 -2.6628 -1.34675 0
M  V30 1683 C 162.834 -1.86619 -2.93375 0
M  V30 1684 H 162.157 -2.73264 -2.91834 0
M  V30 1685 H 163.597 -2.05709 -3.70756 0
M  V30 1686 C 162.056 -0.624842 -3.31055 0
M  V30 1687 O 162.586 0.222636 -4.01083 0
M  V30 1688 N 160.792 -0.470288 -2.86769 0
M  V30 1689 H 160.339 -1.161 -2.29953 0
M  V30 1690 H 160.297 0.359051 -3.12343 0
M  V30 1691 N 164.069 0.697108 -1.41344 0
M  V30 1692 C 165.032 1.79281 -1.42797 0
M  V30 1693 C 166.032 1.57607 -0.318837 0
M  V30 1694 O 167.222 1.64309 -0.578642 0
M  V30 1695 C 164.354 3.17632 -1.23785 0
M  V30 1696 H 165.547 1.79385 -2.40335 0
M  V30 1697 H 163.1 0.904582 -1.27464 0
M  V30 1698 H 163.835 3.23167 -0.270814 0
M  V30 1699 H 163.62 3.34765 -2.04144 0
M  V30 1700 H 165.11 3.97617 -1.27633 0
M  V30 1701 N 165.547 1.27147 0.931209 0
M  V30 1702 C 166.479 1.05364 2.03546 0
M  V30 1703 C 167.492 0.0108438 1.62796 0
M  V30 1704 O 168.681 0.25202 1.76712 0
M  V30 1705 C 165.781 0.575566 3.33977 0
M  V30 1706 C 164.954 1.68985 4.03439 0
M  V30 1707 C 164.013 1.20813 5.12143 0
M  V30 1708 O 163.039 1.90712 5.363 0
M  V30 1709 N 164.241 0.0618851 5.80467 0
M  V30 1710 H 167.006 2.00454 2.22796 0
M  V30 1711 H 164.567 1.18666 1.10136 0
M  V30 1712 H 166.559 0.237264 4.04004 0
M  V30 1713 H 165.129 -0.282016 3.11325 0
M  V30 1714 H 164.349 2.19861 3.27192 0
M  V30 1715 H 165.637 2.4378 4.46597 0
M  V30 1716 H 165.035 -0.521621 5.6329 0
M  V30 1717 H 163.592 -0.217264 6.51438 0
M  V30 1718 N 167.025 -1.13721 1.09112 0
M  V30 1719 C 168.441 -1.36914 0.820174 0
M  V30 1720 C 168.641 -1.93356 -0.567079 0
M  V30 1721 O 167.697 -2.15093 -1.32255 0
M  V30 1722 C 169.01 -2.3235 1.90877 0
M  V30 1723 C 170.558 -2.45973 1.93562 0
M  V30 1724 C 171.033 -3.44714 3.01556 0
M  V30 1725 N 172.524 -3.52263 3.00775 0
M  V30 1726 C 173.259 -4.28536 3.80978 0
M  V30 1727 N 172.755 -5.07991 4.71081 0
M  V30 1728 N 174.548 -4.23804 3.69251 0
M  V30 1729 H 166.699 -0.754348 1.98553 0
M  V30 1730 H 168.962 -0.3944 0.862063 0
M  V30 1731 H 168.668 -1.98027 2.90651 0
M  V30 1732 H 168.542 -3.32332 1.78424 0
M  V30 1733 H 170.929 -2.79584 0.944286 0
M  V30 1734 H 171.01 -1.45926 2.10093 0
M  V30 1735 H 170.654 -3.11835 4.00901 0
M  V30 1736 H 170.584 -4.44558 2.82269 0
M  V30 1737 H 173.075 -2.95567 2.35475 0
M  V30 1738 H 173.388 -5.63487 5.28869 0
M  V30 1739 H 171.733 -5.07235 4.75119 0
M  V30 1740 H 174.924 -3.60806 2.98222 0
M  V30 1741 H 175.097 -4.82995 4.31995 0
M  V30 1742 N 168.503 -0.877838 -1.30888 0
M  V30 1743 C 169.436 -0.283995 -2.26426 0
M  V30 1744 C 170.414 0.591361 -1.51465 0
M  V30 1745 O 171.598 0.54304 -1.80509 0
M  V30 1746 C 168.725 0.597129 -3.33395 0
M  V30 1747 C 167.771 -0.207937 -4.25993 0
M  V30 1748 S 168.604 -1.59158 -5.11301 0
M  V30 1749 C 169.76 -0.716791 -6.21782 0
M  V30 1750 H 169.993 -1.09383 -2.76446 0
M  V30 1751 H 167.526 -0.676828 -1.38775 0
M  V30 1752 H 169.484 1.09978 -3.95493 0
M  V30 1753 H 168.145 1.38099 -2.82113 0
M  V30 1754 H 167.338 0.464163 -5.01858 0
M  V30 1755 H 166.94 -0.642963 -3.68432 0
M  V30 1756 H 169.232 0.0692833 -6.77465 0
M  V30 1757 H 170.175 -1.44682 -6.93161 0
M  V30 1758 H 170.583 -0.280855 -5.63801 0
M  V30 1759 N 169.982 1.44106 -0.638065 0
M  V30 1760 C 171.23 2.01579 -0.145043 0
M  V30 1761 C 171.551 1.50496 1.24 0
M  V30 1762 O 170.821 0.711374 1.82527 0
M  V30 1763 H 169.401 0.745282 -0.05063 0
M  V30 1764 H 172.063 1.76516 -0.826327 0
M  V30 1765 H 171.159 3.11877 -0.118039 0
M  V30 1766 N 171.46 0.379036 1.52974 0
M  V30 1767 C 172.7 -0.206325 2.03356 0
M  V30 1768 C 173.064 -1.44892 1.25977 0
M  V30 1769 O 174.265 -2.11078 1.66432 0
M  V30 1770 C 172.536 -0.477887 3.54191 0
M  V30 1771 S 174.095 -1.035 4.26419 0
M  V30 1772 H 170.913 -0.0590259 0.708546 0
M  V30 1773 H 173.515 0.525013 1.88319 0
M  V30 1774 H 172.219 0.433745 4.08101 0
M  V30 1775 H 171.75 -1.23793 3.73415 0
M  V30 1776 H 173.765 -2.31821 4.38718 0
M  V30 1777 N 172.938 -1.57226 0.108567 0
M  V30 1778 C 174.184 -1.95121 -0.552761 0
M  V30 1779 C 174.517 -0.991345 -1.66991 0
M  V30 1780 O 173.792 -0.0267211 -1.94482 0
M  V30 1781 C 174.075 -3.43039 -1.09528 0
M  V30 1782 C 173.928 -4.49797 0.0177332 0
M  V30 1783 C 175.247 -3.92567 -1.98945 0
M  V30 1784 H 172.366 -0.709496 -0.199461 0
M  V30 1785 H 175.008 -1.89126 0.182011 0
M  V30 1786 H 173.158 -3.48279 -1.72146 0
M  V30 1787 H 174.83 -4.56661 0.652584 0
M  V30 1788 H 173.073 -4.284 0.682309 0
M  V30 1789 H 173.744 -5.50528 -0.402919 0
M  V30 1790 H 176.22 -3.89565 -1.46214 0
M  V30 1791 H 175.096 -4.96605 -2.33827 0
M  V30 1792 H 175.357 -3.32648 -2.91201 0
M  V30 1793 N 174.416 0.165178 -1.56732 0
M  V30 1794 C 175.346 1.20651 -1.99914 0
M  V30 1795 C 176.327 1.45827 -0.875705 0
M  V30 1796 O 177.512 1.57057 -1.14223 0
M  V30 1797 C 174.642 2.54401 -2.36427 0
M  V30 1798 C 173.596 2.43782 -3.51787 0
M  V30 1799 C 172.922 3.82078 -3.7406 0
M  V30 1800 C 174.222 1.93732 -4.85041 0
M  V30 1801 H 175.916 0.847534 -2.87154 0
M  V30 1802 H 173.462 0.40625 -1.38151 0
M  V30 1803 H 175.415 3.27458 -2.65234 0
M  V30 1804 H 174.139 2.92098 -1.46103 0
M  V30 1805 H 172.798 1.73178 -3.23117 0
M  V30 1806 H 172.446 4.17179 -2.81017 0
M  V30 1807 H 172.146 3.7584 -4.51684 0
M  V30 1808 H 173.67 4.56712 -4.05274 0
M  V30 1809 H 175.084 2.56569 -5.12684 0
M  V30 1810 H 173.481 1.98428 -5.66345 0
M  V30 1811 H 174.551 0.891962 -4.76626 0
M  V30 1812 N 175.894 1.51508 0.433938 0
M  V30 1813 C 177.143 1.63578 1.18005 0
M  V30 1814 C 177.456 0.359514 1.92268 0
M  V30 1815 O 178.662 0.359632 2.69108 0
M  V30 1816 C 177.118 2.88901 2.14626 0
M  V30 1817 C 176.726 4.23544 1.45995 0
M  V30 1818 C 178.47 3.10328 2.89649 0
M  V30 1819 C 176.377 5.40014 2.4112 0
M  V30 1820 H 175.307 0.609277 0.444182 0
M  V30 1821 H 177.958 1.77978 0.446773 0
M  V30 1822 H 176.34 2.68142 2.91403 0
M  V30 1823 H 177.514 4.54696 0.747532 0
M  V30 1824 H 175.829 4.08021 0.831115 0
M  V30 1825 H 178.426 3.94518 3.60915 0
M  V30 1826 H 178.769 2.23544 3.51189 0
M  V30 1827 H 179.302 3.31443 2.19978 0
M  V30 1828 H 176.041 6.29068 1.84264 0
M  V30 1829 H 175.561 5.13233 3.10406 0
M  V30 1830 H 177.24 5.72099 3.02177 0
M  V30 1831 N 177.372 -0.689602 1.41712 0
M  V30 1832 C 178.62 -1.4468 1.4111 0
M  V30 1833 C 178.941 -1.94986 0.0232196 0
M  V30 1834 O 178.211 -1.72097 -0.935913 0
M  V30 1835 H 176.791 -0.536847 0.519427 0
M  V30 1836 H 179.453 -0.815825 1.77004 0
M  V30 1837 H 178.549 -2.30706 2.10193 0
M  V30 1838 N 178.85 -1.27639 -0.924453 0
M  V30 1839 C 180.261 -1.12834 -1.48746 0
M  V30 1840 C 180.612 0.285505 -1.94112 0
M  V30 1841 O 179.737 1.17874 -1.81479 0
M  V30 1842 C 180.332 -2.04217 -2.70334 0
M  V30 1843 C 178.891 -1.93509 -3.22848 0
M  V30 1844 C 178.038 -1.96583 -1.95577 0
M  V30 1845 H 180.989 -1.40484 -0.738233 0
M  V30 1846 H 181.01 -1.59989 -3.4523 0
M  V30 1847 H 180.522 -3.07111 -2.37285 0
M  V30 1848 H 178.623 -0.936131 -3.60649 0
M  V30 1849 H 178.736 -2.79917 -3.88823 0
M  V30 1850 H 177.1 -1.4085 -2.12211 0
M  V30 1851 H 177.883 -3.01137 -1.64837 0
M  V30 1852 N 180.328 1.1314 -1.09713 0
M  V30 1853 C 181.553 1.88862 -0.857081 0
M  V30 1854 C 181.978 1.78729 0.586304 0
M  V30 1855 O 181.336 1.13692 1.41222 0
M  V30 1856 C 181.384 3.36325 -1.30069 0
M  V30 1857 O 180.488 4.09815 -0.461007 0
M  V30 1858 H 179.829 0.587108 -0.310162 0
M  V30 1859 H 182.359 1.43129 -1.46203 0
M  V30 1860 H 182.369 3.87157 -1.28738 0
M  V30 1861 H 181.044 3.43017 -2.35185 0
M  V30 1862 H 179.621 3.68986 -0.538888 0
M  V30 1863 N 181.806 0.884767 1.30421 0
M  V30 1864 C 183.046 0.509806 1.9794 0
M  V30 1865 C 183.41 -0.923736 1.68319 0
M  V30 1866 O 184.611 -1.40481 2.29169 0
M  V30 1867 C 182.882 0.776732 3.48858 0
M  V30 1868 S 184.441 0.503843 4.35898 0
M  V30 1869 H 181.259 0.189699 0.685227 0
M  V30 1870 H 183.861 1.14399 1.58535 0
M  V30 1871 H 182.565 1.81857 3.67908 0
M  V30 1872 H 182.096 0.1301 3.93185 0
M  V30 1873 H 184.111 -0.657625 4.91823 0
M  V30 1874 N 183.284 -1.43765 0.645699 0
M  V30 1875 C 184.512 -2.06253 0.163556 0
M  V30 1876 C 184.927 -1.48352 -1.16778 0
M  V30 1877 O 184.284 -0.611932 -1.71935 0
M  V30 1878 C 184.335 -3.61453 0.0583186 0
M  V30 1879 O 184.056 -4.172 1.33702 0
M  V30 1880 C 185.557 -4.41002 -0.450795 0
M  V30 1881 H 182.777 -0.665413 0.0864077 0
M  V30 1882 H 185.321 -1.84396 0.884222 0
M  V30 1883 H 183.476 -3.82522 -0.612865 0
M  V30 1884 H 183.89 -5.10791 1.19131 0
M  V30 1885 H 185.364 -5.49966 -0.473403 0
M  V30 1886 H 185.841 -4.13488 -1.48068 0
M  V30 1887 H 186.447 -4.24886 0.187637 0
M  V30 1888 N 184.763 -0.387143 -1.52771 0
M  V30 1889 C 185.993 0.195585 -2.05672 0
M  V30 1890 C 186.401 1.41241 -1.25887 0
M  V30 1891 O 185.744 1.81265 -0.298081 0
M  V30 1892 C 185.806 0.632327 -3.53895 0
M  V30 1893 C 185.47 -0.470739 -4.54569 0
M  V30 1894 C 186.467 -1.32746 -5.02667 0
M  V30 1895 C 184.152 -0.637151 -4.98243 0
M  V30 1896 C 186.146 -2.33574 -5.93061 0
M  V30 1897 C 183.833 -1.64877 -5.88438 0
M  V30 1898 C 184.831 -2.49649 -6.35739 0
M  V30 1899 O 184.519 -3.49082 -7.24153 0
M  V30 1900 H 184.251 0.033658 -0.675162 0
M  V30 1901 H 186.805 -0.550221 -1.97893 0
M  V30 1902 H 185.035 1.43008 -3.59285 0
M  V30 1903 H 186.724 1.14048 -3.89548 0
M  V30 1904 H 187.49 -1.21019 -4.69659 0
M  V30 1905 H 183.369 0.0129567 -4.60998 0
M  V30 1906 H 186.913 -2.99777 -6.29904 0
M  V30 1907 H 182.81 -1.76643 -6.2086 0
M  V30 1908 H 183.578 -3.45065 -7.42208 0
M  V30 1909 N 186.241 1.57166 -0.116904 0
M  V30 1910 C 187.466 1.999 0.55271 0
M  V30 1911 C 187.891 0.996039 1.59564 0
M  V30 1912 O 187.249 -0.032556 1.81271 0
M  V30 1913 C 187.297 3.4152 1.15742 0
M  V30 1914 O 186.401 3.44106 2.27299 0
M  V30 1915 H 185.742 0.649447 0.138258 0
M  V30 1916 H 188.272 2.03573 -0.204759 0
M  V30 1917 H 188.282 3.79684 1.49346 0
M  V30 1918 H 186.957 4.14034 0.393493 0
M  V30 1919 H 185.534 3.17759 1.9515 0
M  V30 1920 N 187.719 -0.156864 1.56817 0
M  V30 1921 C 188.947 -0.886316 1.86955 0
M  V30 1922 C 189.362 -1.75185 0.703975 0
M  V30 1923 O 188.719 -1.79555 -0.326552 0
M  V30 1924 C 188.77 -1.75117 3.16253 0
M  V30 1925 O 188.491 -0.920537 4.2832 0
M  V30 1926 C 189.992 -2.58905 3.59837 0
M  V30 1927 H 187.212 -0.25678 0.619923 0
M  V30 1928 H 189.756 -0.152615 2.0393 0
M  V30 1929 H 187.911 -2.43805 3.01062 0
M  V30 1930 H 188.325 -1.51337 5.02192 0
M  V30 1931 H 189.799 -3.1518 4.53172 0
M  V30 1932 H 190.276 -3.34472 2.84649 0
M  V30 1933 H 190.882 -1.95526 3.7769 0
M  V30 1934 N 189.197 -1.51736 -0.425897 0
M  V30 1935 C 190.444 -1.6497 -1.17436 0
M  V30 1936 C 190.772 -0.371445 -1.9092 0
M  V30 1937 O 190.027 0.644963 -1.84767 0
M  V30 1938 C 190.326 -2.81103 -2.20717 0
M  V30 1939 C 189.992 -4.19954 -1.64162 0
M  V30 1940 C 188.654 -4.57725 -1.48462 0
M  V30 1941 C 191.006 -5.06552 -1.22696 0
M  V30 1942 C 188.334 -5.79789 -0.897873 0
M  V30 1943 C 190.686 -6.29205 -0.654464 0
M  V30 1944 C 189.35 -6.6574 -0.484456 0
M  V30 1945 H 188.62 -0.603668 -0.429727 0
M  V30 1946 H 191.267 -1.85798 -0.463829 0
M  V30 1947 H 189.572 -2.54542 -2.97852 0
M  V30 1948 H 191.269 -2.8854 -2.78471 0
M  V30 1949 H 187.859 -3.90181 -1.77361 0
M  V30 1950 H 192.043 -4.77968 -1.33642 0
M  V30 1951 H 187.299 -6.06733 -0.75402 0
M  V30 1952 H 191.473 -6.95643 -0.324694 0
M  V30 1953 H 189.1 -7.60195 -0.0276833 0
M  V30 1954 N 190.675 0.682077 -1.42076 0
M  V30 1955 C 191.607 1.80755 -1.40926 0
M  V30 1956 C 192.62 1.59833 -0.309398 0
M  V30 1957 O 193.809 1.69087 -0.572014 0
M  V30 1958 C 190.909 3.17744 -1.17865 0
M  V30 1959 C 190.082 3.65578 -2.40149 0
M  V30 1960 C 189.141 4.81277 -2.12742 0
M  V30 1961 O 188.167 4.92197 -2.85887 0
M  V30 1962 N 189.369 5.69474 -1.12602 0
M  V30 1963 H 192.134 1.82229 -2.37935 0
M  V30 1964 H 189.695 0.864903 -1.36861 0
M  V30 1965 H 191.687 3.9279 -0.9746 0
M  V30 1966 H 190.257 3.11214 -0.294068 0
M  V30 1967 H 189.477 2.81291 -2.76169 0
M  V30 1968 H 190.765 3.94278 -3.21593 0
M  V30 1969 H 190.163 5.63297 -0.520899 0
M  V30 1970 H 188.72 6.44363 -0.981842 0
M  V30 1971 N 192.153 1.28127 0.917671 0
M  V30 1972 C 193.086 1.06039 2.02067 0
M  V30 1973 C 194.064 -0.0223285 1.62585 0
M  V30 1974 O 195.248 0.124823 1.88086 0
M  V30 1975 C 192.375 0.610596 3.33151 0
M  V30 1976 C 191.421 1.68937 3.91615 0
M  V30 1977 S 192.254 3.28437 4.22953 0
M  V30 1978 C 193.41 2.85283 5.57103 0
M  V30 1979 H 193.643 1.99425 2.20493 0
M  V30 1980 H 191.176 1.12071 1.06205 0
M  V30 1981 H 193.134 0.357778 4.08938 0
M  V30 1982 H 191.795 -0.303364 3.12632 0
M  V30 1983 H 190.988 1.32619 4.86239 0
M  V30 1984 H 190.59 1.89478 3.2245 0
M  V30 1985 H 192.882 2.3121 6.36827 0
M  V30 1986 H 193.825 3.7869 5.98331 0
M  V30 1987 H 194.233 2.24118 5.18104 0
M  V30 1988 N 193.631 -1.12557 1.10312 0
M  V30 1989 C 194.861 -1.87592 0.865617 0
M  V30 1990 C 195.269 -1.79851 -0.587389 0
M  V30 1991 O 194.612 -1.16949 -1.41664 0
M  V30 1992 C 194.674 -3.37665 1.23381 0
M  V30 1993 C 194.338 -3.69181 2.69359 0
M  V30 1994 C 195.335 -3.67652 3.67597 0
M  V30 1995 C 193.02 -3.98555 3.05711 0
M  V30 1996 C 195.014 -3.95053 5.00212 0
M  V30 1997 C 192.701 -4.25616 4.38514 0
M  V30 1998 C 193.699 -4.23851 5.35574 0
M  V30 1999 O 193.387 -4.50242 6.65986 0
M  V30 2000 H 193.119 -0.600442 0.310557 0
M  V30 2001 H 195.673 -1.4335 1.47105 0
M  V30 2002 H 193.903 -3.82454 0.571467 0
M  V30 2003 H 195.592 -3.94041 0.973994 0
M  V30 2004 H 196.358 -3.45024 3.40857 0
M  V30 2005 H 192.237 -3.99071 2.30789 0
M  V30 2006 H 195.781 -3.93591 5.75962 0
M  V30 2007 H 191.678 -4.47718 4.64994 0
M  V30 2008 H 192.446 -4.67867 6.71597 0
M  V30 2009 N 195.109 -0.891671 -1.2995 0
M  V30 2010 C 196.039 -0.379797 -2.30391 0
M  V30 2011 C 197.02 0.540919 -1.6127 0
M  V30 2012 O 198.205 0.453352 -1.88834 0
M  V30 2013 C 195.335 0.400654 -3.44981 0
M  V30 2014 C 194.289 -0.428905 -4.25846 0
M  V30 2015 C 193.615 0.478557 -5.32554 0
M  V30 2016 C 194.915 -1.67458 -4.94727 0
M  V30 2017 H 196.609 -1.21914 -2.73454 0
M  V30 2018 H 194.155 -0.587675 -1.31462 0
M  V30 2019 H 196.108 0.769434 -4.14316 0
M  V30 2020 H 194.832 1.27371 -3.0074 0
M  V30 2021 H 193.491 -0.779911 -3.58208 0
M  V30 2022 H 193.139 1.34951 -4.84559 0
M  V30 2023 H 192.839 -0.0727433 -5.87555 0
M  V30 2024 H 194.363 0.843705 -6.04743 0
M  V30 2025 H 195.777 -1.376 -5.56542 0
M  V30 2026 H 194.174 -2.16659 -5.59624 0
M  V30 2027 H 195.244 -2.41518 -4.20473 0
M  V30 2028 N 196.587 1.43421 -0.653314 0
M  V30 2029 C 197.864 1.95361 -0.0966581 0
M  V30 2030 C 198.244 1.59461 1.38331 0
M  V30 2031 O 197.592 0.879777 2.10884 0
M  V30 2032 C 197.802 3.47311 -0.342988 0
M  V30 2033 C 199.15 4.23875 -0.24798 0
M  V30 2034 O 200.174 3.55133 -0.275553 0
M  V30 2035 O 199.033 5.4623 -0.171771 0
M  V30 2036 H 196.127 0.826945 0.00956291 0
M  V30 2037 H 198.673 1.5336 -0.726558 0
M  V30 2038 H 197.445 3.66569 -1.36906 0
M  V30 2039 H 197.068 3.9631 0.319975 0
M  V30 2040 N 198.065 0.39524 1.52563 0
M  V30 2041 C 199.293 -0.184943 2.06072 0
M  V30 2042 C 199.708 -1.40021 1.26647 0
M  V30 2043 O 199.065 -1.79767 0.314672 0
M  V30 2044 C 199.116 -0.549179 3.57304 0
M  V30 2045 O 198.837 0.617813 4.33722 0
M  V30 2046 C 200.338 -1.18459 4.2718 0
M  V30 2047 H 197.558 -0.0265025 0.670476 0
M  V30 2048 H 200.102 0.562184 1.96621 0
M  V30 2049 H 198.257 -1.2462 3.66809 0
M  V30 2050 H 198.671 0.317091 5.23541 0
M  V30 2051 H 200.145 -1.38976 5.34219 0
M  V30 2052 H 200.622 -2.15368 3.82771 0
M  V30 2053 H 201.228 -0.528163 4.22008 0
M  V30 2054 N 199.544 -1.57102 0.125237 0
M  V30 2055 C 200.454 -2.19191 -0.8362 0
M  V30 2056 C 201.47 -1.16985 -1.28805 0
M  V30 2057 O 202.646 -1.49479 -1.34974 0
M  V30 2058 C 199.711 -2.78407 -2.06617 0
M  V30 2059 C 198.772 -3.9567 -1.66565 0
M  V30 2060 C 198.005 -4.52052 -2.83698 0
M  V30 2061 O 198.228 -4.07326 -3.99302 0
M  V30 2062 O 197.162 -5.42645 -2.60423 0
M  V30 2063 H 200.988 -3.01816 -0.337776 0
M  V30 2064 H 198.573 -1.4906 -0.100695 0
M  V30 2065 H 200.455 -3.16129 -2.7864 0
M  V30 2066 H 199.13 -1.9881 -2.55453 0
M  V30 2067 H 198.037 -3.62705 -0.916296 0
M  V30 2068 H 199.37 -4.76722 -1.22464 0
M  V30 2069 N 201.022 0.148545 -1.56898 0
M  V30 2070 C 201.952 1.18524 -2.01182 0
M  V30 2071 C 202.933 1.4489 -0.891123 0
M  V30 2072 O 204.118 1.55836 -1.15882 0
M  V30 2073 C 201.248 2.51879 -2.39112 0
M  V30 2074 C 200.202 2.40038 -3.54353 0
M  V30 2075 C 199.528 3.78089 -3.78091 0
M  V30 2076 C 200.828 1.88577 -4.87069 0
M  V30 2077 H 202.522 0.817029 -2.88036 0
M  V30 2078 H 200.068 0.391575 -1.38574 0
M  V30 2079 H 202.021 3.24627 -2.68692 0
M  V30 2080 H 200.745 2.90532 -1.49193 0
M  V30 2081 H 199.404 1.69742 -3.24936 0
M  V30 2082 H 199.052 4.14175 -2.85426 0
M  V30 2083 H 198.752 3.71028 -4.55645 0
M  V30 2084 H 200.276 4.52387 -4.10095 0
M  V30 2085 H 201.69 2.51117 -5.15377 0
M  V30 2086 H 200.087 1.9241 -5.68417 0
M  V30 2087 H 201.157 0.84136 -4.77545 0
M  V30 2088 N 202.5 1.5196 0.417844 0
M  V30 2089 C 203.725 1.69717 1.1921 0
M  V30 2090 C 204.15 0.402148 1.83751 0
M  V30 2091 O 203.508 -0.639593 1.69643 0
M  V30 2092 C 203.556 2.82794 2.2374 0
M  V30 2093 O 202.66 2.47756 3.29683 0
M  V30 2094 H 202.001 0.565263 0.348387 0
M  V30 2095 H 204.531 1.98621 0.490985 0
M  V30 2096 H 204.541 3.07452 2.68212 0
M  V30 2097 H 203.216 3.76756 1.76146 0
M  V30 2098 H 201.793 2.33739 2.90552 0
M  V30 2099 N 203.978 -0.674533 1.42435 0
M  V30 2100 C 205.208 -1.46071 1.46105 0
M  V30 2101 C 205.616 -1.89067 0.0709605 0
M  V30 2102 O 204.959 -1.58731 -0.924677 0
M  V30 2103 C 205.021 -2.74145 2.32561 0
M  V30 2104 C 204.685 -2.53224 3.8043 0
M  V30 2105 C 205.682 -2.17809 4.72075 0
M  V30 2106 C 203.367 -2.6821 4.24698 0
M  V30 2107 C 205.361 -1.97648 6.05982 0
M  V30 2108 C 203.048 -2.47665 5.58664 0
M  V30 2109 C 204.046 -2.12437 6.49122 0
M  V30 2110 O 203.734 -1.9209 7.80613 0
M  V30 2111 H 203.466 -0.455959 0.499076 0
M  V30 2112 H 206.02 -0.836193 1.87609 0
M  V30 2113 H 204.25 -3.3908 1.85908 0
M  V30 2114 H 205.939 -3.36028 2.27683 0
M  V30 2115 H 206.705 -2.05826 4.39159 0
M  V30 2116 H 202.584 -2.94609 3.54579 0
M  V30 2117 H 206.128 -1.70075 6.7655 0
M  V30 2118 H 202.025 -2.59244 5.91154 0
M  V30 2119 H 202.793 -2.06686 7.91974 0
M  V30 2120 N 205.456 -1.28612 -0.910864 0
M  V30 2121 C 206.867 -1.14406 -1.47541 0
M  V30 2122 C 207.218 0.264901 -1.94403 0
M  V30 2123 O 206.343 1.15942 -1.82719 0
M  V30 2124 C 206.938 -2.07073 -2.68153 0
M  V30 2125 C 205.497 -1.96923 -3.20778 0
M  V30 2126 C 204.644 -1.98646 -1.93481 0
M  V30 2127 H 207.595 -1.41259 -0.723291 0
M  V30 2128 H 207.616 -1.63642 -3.43514 0
M  V30 2129 H 207.128 -3.09611 -2.34015 0
M  V30 2130 H 205.229 -0.97433 -3.59635 0
M  V30 2131 H 205.342 -2.84026 -3.85832 0
M  V30 2132 H 203.706 -1.43093 -2.10705 0
M  V30 2133 H 204.489 -3.02868 -1.61634 0
M  V30 2134 N 206.934 1.1197 -1.10907 0
M  V30 2135 C 207.867 2.16998 -0.706192 0
M  V30 2136 C 208.845 1.59903 0.294897 0
M  V30 2137 O 210.029 1.87513 0.192636 0
M  V30 2138 C 207.156 3.38673 -0.0427664 0
M  V30 2139 C 206.202 4.14414 -1.00811 0
M  V30 2140 S 207.035 4.72079 -2.52789 0
M  V30 2141 C 208.191 5.97083 -1.87731 0
M  V30 2142 H 208.424 2.50837 -1.59587 0
M  V30 2143 H 205.957 1.23508 -0.926555 0
M  V30 2144 H 207.915 4.09142 0.333668 0
M  V30 2145 H 206.576 3.03105 0.823788 0
M  V30 2146 H 205.769 5.016 -0.491259 0
M  V30 2147 H 205.371 3.49678 -1.3267 0
M  V30 2148 H 207.663 6.66599 -1.21044 0
M  V30 2149 H 208.606 6.53403 -2.72892 0
M  V30 2150 H 209.014 5.4837 -1.33979 0
M  V30 2151 N 208.412 0.89855 1.29475 0
M  V30 2152 C 209.661 0.519863 1.94885 0
M  V30 2153 C 209.974 -0.9383 1.71625 0
M  V30 2154 O 211.18 -1.42445 2.31131 0
M  V30 2155 C 209.636 0.878836 3.49005 0
M  V30 2156 C 209.244 2.35569 3.81066 0
M  V30 2157 C 210.988 0.570004 4.20656 0
M  V30 2158 C 208.895 2.65558 5.28425 0
M  V30 2159 H 207.825 0.190692 0.729488 0
M  V30 2160 H 210.476 1.09539 1.47219 0
M  V30 2161 H 208.858 0.232253 3.95318 0
M  V30 2162 H 210.032 3.04773 3.45616 0
M  V30 2163 H 208.347 2.63343 3.22552 0
M  V30 2164 H 210.944 0.770925 5.29113 0
M  V30 2165 H 211.287 -0.491404 4.1339 0
M  V30 2166 H 211.82 1.17438 3.8007 0
M  V30 2167 H 208.559 3.70493 5.40754 0
M  V30 2168 H 208.079 2.00977 5.65127 0
M  V30 2169 H 209.758 2.51765 5.96006 0
M  V30 2170 N 209.89 -1.43072 0.660911 0
M  V30 2171 C 211.115 -2.06584 0.183805 0
M  V30 2172 C 211.54 -1.49257 -1.14472 0
M  V30 2173 O 210.898 -0.605528 -1.70889 0
M  V30 2174 C 210.946 -3.60418 0.114434 0
M  V30 2175 O 210.05 -4.01981 -0.921137 0
M  V30 2176 H 209.391 -0.656669 0.0983994 0
M  V30 2177 H 211.921 -1.83447 0.906006 0
M  V30 2178 H 211.931 -4.07946 -0.0663394 0
M  V30 2179 H 210.606 -4.01519 1.08422 0
M  V30 2180 H 209.183 -3.66029 -0.71253 0
M  V30 2181 N 211.368 -0.403325 -1.52352 0
M  V30 2182 C 212.331 0.413051 -2.25447 0
M  V30 2183 C 213.331 0.978513 -1.276 0
M  V30 2184 O 214.521 0.858305 -1.51587 0
M  V30 2185 C 211.653 1.58087 -3.02029 0
M  V30 2186 H 212.846 -0.227094 -2.99039 0
M  V30 2187 H 210.399 -0.155722 -1.55522 0
M  V30 2188 H 211.134 2.25804 -2.32772 0
M  V30 2189 H 210.919 1.18195 -3.73861 0
M  V30 2190 H 212.409 2.1585 -3.57489 0
M  V30 2191 N 212.846 1.57033 -0.133567 0
M  V30 2192 C 214.094 1.953 0.519848 0
M  V30 2193 C 214.415 1.01866 1.66278 0
M  V30 2194 O 213.685 0.0776513 1.95746 0
M  V30 2195 H 212.265 0.721091 0.195032 0
M  V30 2196 H 214.927 1.93809 -0.205921 0
M  V30 2197 H 214.023 2.98695 0.904854 0
M  V30 2198 N 214.325 -0.140222 1.56975 0
M  V30 2199 C 215.55 -0.870414 1.88251 0
M  V30 2200 C 215.975 -1.73637 0.723312 0
M  V30 2201 O 215.333 -1.78329 -0.32689 0
M  V30 2202 C 215.381 -1.69737 3.18154 0
M  V30 2203 O 214.485 -2.80229 3.02565 0
M  V30 2204 H 213.826 -0.242025 0.61832 0
M  V30 2205 H 216.356 -0.128999 2.04193 0
M  V30 2206 H 216.366 -2.09099 3.50345 0
M  V30 2207 H 215.041 -1.06152 4.02125 0
M  V30 2208 H 213.618 -2.44224 2.81796 0
M  V30 2209 N 215.803 -1.52179 -0.40978 0
M  V30 2210 C 217.05 -1.66206 -1.15679 0
M  V30 2211 C 217.378 -0.391674 -1.90516 0
M  V30 2212 O 216.633 0.62533 -1.8544 0
M  V30 2213 C 216.932 -2.83428 -2.17723 0
M  V30 2214 C 216.598 -4.21672 -1.59699 0
M  V30 2215 C 215.26 -4.59274 -1.43599 0
M  V30 2216 C 217.612 -5.07825 -1.17317 0
M  V30 2217 C 214.94 -5.80709 -0.836328 0
M  V30 2218 C 217.292 -6.29864 -0.587691 0
M  V30 2219 C 215.956 -6.66216 -0.413818 0
M  V30 2220 H 215.226 -0.608192 -0.423301 0
M  V30 2221 H 217.873 -1.86279 -0.444097 0
M  V30 2222 H 216.178 -2.57687 -2.95135 0
M  V30 2223 H 217.875 -2.91477 -2.75394 0
M  V30 2224 H 214.465 -3.9204 -1.73213 0
M  V30 2225 H 218.649 -4.79359 -1.28565 0
M  V30 2226 H 213.905 -6.07498 -0.689626 0
M  V30 2227 H 218.079 -6.95948 -0.250894 0
M  V30 2228 H 215.706 -7.60182 0.0529471 0
M  V30 2229 N 217.281 0.66697 -1.42791 0
M  V30 2230 C 218.529 1.42417 -1.43394 0
M  V30 2231 C 218.85 1.94925 -0.0542373 0
M  V30 2232 O 218.12 1.73564 0.908415 0
M  V30 2233 H 216.7 0.528515 -0.527902 0
M  V30 2234 H 219.362 0.787562 -1.78279 0
M  V30 2235 H 218.458 2.27333 -2.13837 0
M  V30 2236 N 218.759 1.29093 0.90403 0
M  V30 2237 C 219.689 1.16401 2.02418 0
M  V30 2238 C 220.67 0.0593085 1.69997 0
M  V30 2239 O 221.855 0.238021 1.92736 0
M  V30 2240 C 218.985 0.835233 3.37107 0
M  V30 2241 C 217.939 1.89578 3.83724 0
M  V30 2242 C 217.265 1.42041 5.15489 0
M  V30 2243 C 218.565 3.30394 4.04521 0
M  V30 2244 H 220.259 2.10109 2.13295 0
M  V30 2245 H 217.805 1.01157 1.02486 0
M  V30 2246 H 219.758 0.733169 4.14973 0
M  V30 2247 H 218.482 -0.137543 3.2631 0
M  V30 2248 H 217.141 1.98715 3.08071 0
M  V30 2249 H 216.789 0.436426 5.01103 0
M  V30 2250 H 216.489 2.12964 5.4765 0
M  V30 2251 H 218.013 1.33176 5.959 0
M  V30 2252 H 219.427 3.24123 4.72882 0
M  V30 2253 H 217.824 3.99237 4.48029 0
M  V30 2254 H 218.894 3.73692 3.09002 0
M  V30 2255 N 220.237 -1.11381 1.11499 0
M  V30 2256 C 221.462 -1.87475 0.887019 0
M  V30 2257 C 221.887 -1.79639 -0.557796 0
M  V30 2258 O 221.245 -1.15924 -1.39396 0
M  V30 2259 C 221.293 -3.34213 1.35403 0
M  V30 2260 O 220.397 -4.0903 0.526146 0
M  V30 2261 H 219.738 -0.582099 0.319463 0
M  V30 2262 H 222.268 -1.40785 1.48461 0
M  V30 2263 H 222.278 -3.8506 1.34881 0
M  V30 2264 H 220.953 -3.39232 2.40612 0
M  V30 2265 H 219.53 -3.68082 0.597522 0
M  V30 2266 N 221.715 -0.905404 -1.28997 0
M  V30 2267 C 222.955 -0.541232 -1.97104 0
M  V30 2268 C 223.319 0.896841 -1.69767 0
M  V30 2269 O 224.52 1.36817 -2.31375 0
M  V30 2270 C 222.791 -0.832134 -3.47578 0
M  V30 2271 S 224.35 -0.573127 -4.35041 0
M  V30 2272 H 221.168 -0.200576 -0.682122 0
M  V30 2273 H 223.77 -1.16906 -1.56694 0
M  V30 2274 H 222.474 -1.87687 -3.64968 0
M  V30 2275 H 222.005 -0.192636 -3.92928 0
M  V30 2276 H 224.02 0.579297 -4.92807 0
M  V30 2277 N 223.193 1.4272 -0.668489 0
M  V30 2278 C 224.47 1.95248 -0.117373 0
M  V30 2279 C 224.85 1.60919 1.36632 0
M  V30 2280 O 224.198 0.902095 2.09939 0
M  V30 2281 C 224.408 3.46927 -0.379806 0
M  V30 2282 C 225.756 4.23588 -0.292923 0
M  V30 2283 O 226.78 3.5482 -0.313204 0
M  V30 2284 O 225.639 5.46017 -0.229697 0
M  V30 2285 H 222.733 0.827 0.00079152 0
M  V30 2286 H 225.279 1.52581 -0.742783 0
M  V30 2287 H 224.051 3.65096 -1.40786 0
M  V30 2288 H 223.674 3.96627 0.277923 0
M  V30 2289 N 224.671 0.411399 1.52136 0
M  V30 2290 C 225.901 -0.16284 2.05957 0
M  V30 2291 C 226.309 -1.3922 1.28119 0
M  V30 2292 O 225.652 -1.80768 0.326881 0
M  V30 2293 C 225.714 -0.575946 3.54856 0
M  V30 2294 C 225.378 0.542998 4.53763 0
M  V30 2295 C 226.375 1.40726 5.00492 0
M  V30 2296 C 224.06 0.716337 4.97166 0
M  V30 2297 C 226.054 2.4298 5.8927 0
M  V30 2298 C 223.741 1.74218 5.8574 0
M  V30 2299 C 224.739 2.59731 6.31687 0
M  V30 2300 O 224.427 3.60558 7.18507 0
M  V30 2301 H 224.159 -0.0229125 0.675612 0
M  V30 2302 H 226.713 0.581634 1.96993 0
M  V30 2303 H 224.943 -1.37274 3.61515 0
M  V30 2304 H 226.632 -1.07836 3.91313 0
M  V30 2305 H 227.398 1.28476 4.67674 0
M  V30 2306 H 223.277 0.0603857 4.6096 0
M  V30 2307 H 226.821 3.0976 6.25055 0
M  V30 2308 H 222.718 1.86498 6.17971 0
M  V30 2309 H 223.486 3.56829 7.36624 0
M  V30 2310 N 226.149 -1.5696 0.141893 0
M  V30 2311 C 227.096 -2.16501 -0.799737 0
M  V30 2312 C 228.066 -1.09643 -1.24771 0
M  V30 2313 O 229.251 -1.3766 -1.32115 0
M  V30 2314 C 226.391 -2.78679 -2.03549 0
M  V30 2315 C 225.504 -3.99914 -1.6338 0
M  V30 2316 C 224.639 -4.50106 -2.82096 0
M  V30 2317 C 223.678 -5.63819 -2.38275 0
M  V30 2318 N 222.815 -6.08651 -3.49983 0
M  V30 2319 H 227.655 -2.96632 -0.285179 0
M  V30 2320 H 225.192 -1.46533 -0.129053 0
M  V30 2321 H 227.15 -3.1287 -2.75986 0
M  V30 2322 H 225.78 -2.012 -2.52425 0
M  V30 2323 H 224.832 -3.71735 -0.807279 0
M  V30 2324 H 226.144 -4.82311 -1.27192 0
M  V30 2325 H 225.298 -4.86325 -3.62729 0
M  V30 2326 H 224.037 -3.66706 -3.21525 0
M  V30 2327 H 223.042 -5.2718 -1.56081 0
M  V30 2328 H 224.267 -6.49 -1.99938 0
M  V30 2329 H 222.213 -5.28188 -3.89042 0
M  V30 2330 H 222.13 -6.85961 -3.17794 0
M  V30 2331 H 223.398 -6.49515 -4.30988 0
M  V30 2332 N 227.627 0.131896 -1.57047 0
M  V30 2333 C 228.537 1.1815 -2.02676 0
M  V30 2334 C 229.553 1.46113 -0.944824 0
M  V30 2335 O 230.729 1.57485 -1.25541 0
M  V30 2336 C 227.794 2.49139 -2.41103 0
M  V30 2337 C 226.855 2.28688 -3.63318 0
M  V30 2338 C 226.088 3.53431 -3.99903 0
M  V30 2339 O 226.311 4.60223 -3.36973 0
M  V30 2340 O 225.245 3.45198 -4.93074 0
M  V30 2341 H 229.071 0.824069 -2.92306 0
M  V30 2342 H 226.656 0.341745 -1.45439 0
M  V30 2343 H 228.538 3.26338 -2.66611 0
M  V30 2344 H 227.213 2.84382 -1.54624 0
M  V30 2345 H 226.12 1.4939 -3.42977 0
M  V30 2346 H 227.453 1.98355 -4.50462 0
M  V30 2347 N 229.106 1.52395 0.401703 0
M  V30 2348 C 230.334 1.70676 1.16949 0
M  V30 2349 C 230.749 0.419503 1.8408 0
M  V30 2350 O 230.106 -0.605061 1.72178 0
M  V30 2351 C 230.157 2.84753 2.22706 0
M  V30 2352 O 229.878 4.08495 1.58314 0
M  V30 2353 C 231.379 3.14608 3.12309 0
M  V30 2354 H 228.599 0.571787 0.351142 0
M  V30 2355 H 231.143 1.98987 0.471652 0
M  V30 2356 H 229.298 2.58941 2.88147 0
M  V30 2357 H 229.712 4.72117 2.28485 0
M  V30 2358 H 231.186 3.97923 3.82572 0
M  V30 2359 H 231.663 2.28464 3.75101 0
M  V30 2360 H 232.269 3.42212 2.52529 0
M  V30 2361 N 230.584 -0.659388 1.43143 0
M  V30 2362 C 231.514 -1.78422 1.50625 0
M  V30 2363 C 232.495 -1.66216 0.361443 0
M  V30 2364 O 233.68 -1.85404 0.577834 0
M  V30 2365 C 230.81 -3.16815 1.42287 0
M  V30 2366 C 229.764 -3.43777 2.54954 0
M  V30 2367 C 229.09 -4.81905 2.31671 0
M  V30 2368 C 230.39 -3.39134 3.97222 0
M  V30 2369 H 232.084 -1.72417 2.44771 0
M  V30 2370 H 229.63 -0.828084 1.17808 0
M  V30 2371 H 231.583 -3.95253 1.46127 0
M  V30 2372 H 230.307 -3.23534 0.446435 0
M  V30 2373 H 228.966 -2.67707 2.50457 0
M  V30 2374 H 228.614 -4.85294 1.32284 0
M  V30 2375 H 228.314 -5.00906 3.07192 0
M  V30 2376 H 229.838 -5.62609 2.37284 0
M  V30 2377 H 231.252 -4.07518 4.03239 0
M  V30 2378 H 229.649 -3.69671 4.72719 0
M  V30 2379 H 230.719 -2.37426 4.22797 0
M  V30 2380 N 232.062 -1.29571 -0.897171 0
M  V30 2381 C 233.29 -1.20583 -1.68129 0
M  V30 2382 C 233.705 0.233181 -1.87354 0
M  V30 2383 O 233.062 1.15579 -1.41236 0
M  V30 2384 C 233.113 -1.91772 -3.06441 0
M  V30 2385 O 232.834 -3.30053 -2.88091 0
M  V30 2386 C 234.335 -1.89291 -4.00854 0
M  V30 2387 H 231.555 -0.417826 -0.525036 0
M  V30 2388 H 234.099 -1.70987 -1.12177 0
M  V30 2389 H 232.254 -1.45196 -3.59161 0
M  V30 2390 H 232.668 -3.65942 -3.75748 0
M  V30 2391 H 234.142 -2.43662 -4.95311 0
M  V30 2392 H 234.619 -0.869014 -4.30517 0
M  V30 2393 H 235.225 -2.35622 -3.54066 0
M  V30 2394 N 233.54 1.10788 -1.12088 0
M  V30 2395 C 234.956 1.34691 -0.856186 0
M  V30 2396 C 235.156 1.94791 0.515615 0
M  V30 2397 O 234.212 2.18524 1.26505 0
M  V30 2398 C 235.525 2.27208 -1.9697 0
M  V30 2399 C 237.073 2.40755 -2.00016 0
M  V30 2400 C 237.548 3.36598 -3.1059 0
M  V30 2401 N 239.039 3.44164 -3.10008 0
M  V30 2402 C 239.774 4.18284 -3.92206 0
M  V30 2403 N 239.27 4.95322 -4.84384 0
M  V30 2404 N 241.063 4.13865 -3.80357 0
M  V30 2405 H 233.214 0.70144 -2.00483 0
M  V30 2406 H 235.477 0.371405 -0.872217 0
M  V30 2407 H 235.183 1.90251 -2.958 0
M  V30 2408 H 235.057 3.27485 -1.87172 0
M  V30 2409 H 237.444 2.76982 -1.01808 0
M  V30 2410 H 237.525 1.40305 -2.13888 0
M  V30 2411 H 237.169 3.01096 -4.09028 0
M  V30 2412 H 237.099 4.36918 -2.93956 0
M  V30 2413 H 239.59 2.8922 -2.43228 0
M  V30 2414 H 239.903 5.49267 -5.43623 0
M  V30 2415 H 238.248 4.94459 -4.884 0
M  V30 2416 H 241.439 3.52773 -3.07683 0
M  V30 2417 H 241.612 4.71372 -4.44649 0
M  V30 2418 N 235.018 0.912232 1.28515 0
M  V30 2419 C 235.948 0.416403 2.29757 0
M  V30 2420 C 236.929 -0.515194 1.6211 0
M  V30 2421 O 238.114 -0.423253 1.89532 0
M  V30 2422 C 235.244 -0.34572 3.45575 0
M  V30 2423 C 234.198 0.496599 4.25109 0
M  V30 2424 C 233.524 -0.393771 5.33248 0
M  V30 2425 C 234.824 1.75307 4.92001 0
M  V30 2426 H 236.518 1.26249 2.7148 0
M  V30 2427 H 234.064 0.608515 1.30511 0
M  V30 2428 H 236.017 -0.703422 4.15488 0
M  V30 2429 H 234.741 -1.2257 3.02728 0
M  V30 2430 H 233.4 0.8368 3.56922 0
M  V30 2431 H 233.048 -1.27225 4.86644 0
M  V30 2432 H 232.748 0.166209 5.87365 0
M  V30 2433 H 234.272 -0.747389 6.06009 0
M  V30 2434 H 235.686 1.46437 5.54283 0
M  V30 2435 H 234.083 2.25534 5.56106 0
M  V30 2436 H 235.153 2.48176 4.16577 0
M  V30 2437 N 236.496 -1.42363 0.676048 0
M  V30 2438 C 237.429 -2.28141 -0.0516916 0
M  V30 2439 C 238.407 -1.41135 -0.807439 0
M  V30 2440 O 239.591 -1.70573 -0.802305 0
M  V30 2441 C 236.718 -3.21007 -1.08039 0
M  V30 2442 C 235.764 -4.24426 -0.420076 0
M  V30 2443 S 236.597 -5.29134 0.823246 0
M  V30 2444 C 237.753 -6.25566 -0.204344 0
M  V30 2445 H 237.986 -2.89515 0.675884 0
M  V30 2446 H 235.519 -1.47211 0.465635 0
M  V30 2447 H 237.477 -3.75048 -1.66881 0
M  V30 2448 H 236.138 -2.58766 -1.78042 0
M  V30 2449 H 235.331 -4.89596 -1.19633 0
M  V30 2450 H 234.933 -3.7388 0.0947845 0
M  V30 2451 H 237.225 -6.69098 -1.06369 0
M  V30 2452 H 238.168 -7.06895 0.412915 0
M  V30 2453 H 238.576 -5.61811 -0.55038 0
M  V30 2454 N 237.974 -0.419461 -1.51915 0
M  V30 2455 C 239.199 0.154572 -2.06823 0
M  V30 2456 C 239.624 1.3722 -1.28656 0
M  V30 2457 O 238.982 1.78461 -0.319583 0
M  V30 2458 C 239.03 0.473172 -3.57482 0
M  V30 2459 O 238.134 1.56255 -3.81652 0
M  V30 2460 H 237.475 0.0096924 -0.663929 0
M  V30 2461 H 240.005 -0.595642 -1.95738 0
M  V30 2462 H 240.015 0.728825 -4.01438 0
M  V30 2463 H 238.69 -0.416873 -4.13805 0
M  V30 2464 H 237.267 1.29825 -3.49571 0
M  V30 2465 N 239.452 1.56882 -0.150215 0
M  V30 2466 C 240.863 1.82995 0.370076 0
M  V30 2467 C 241.214 1.06907 1.64515 0
M  V30 2468 O 240.339 0.315369 2.1409 0
M  V30 2469 C 240.934 3.31942 0.678208 0
M  V30 2470 C 239.493 3.58625 1.14301 0
M  V30 2471 C 238.64 2.76792 0.167778 0
M  V30 2472 H 241.591 1.54209 -0.374858 0
M  V30 2473 H 241.612 3.48272 1.53254 0
M  V30 2474 H 241.124 3.87294 -0.249991 0
M  V30 2475 H 239.225 3.08664 2.08704 0
M  V30 2476 H 239.338 4.67073 1.06676 0
M  V30 2477 H 237.702 2.45972 0.661037 0
M  V30 2478 H 238.485 3.34916 -0.754069 0
M  V30 2479 N 240.93 -0.123565 1.57115 0
M  V30 2480 C 241.893 -1.13583 1.99076 0
M  V30 2481 C 242.893 -1.34564 0.880296 0
M  V30 2482 O 244.083 -1.31158 1.14644 0
M  V30 2483 C 241.215 -2.49128 2.32698 0
M  V30 2484 H 242.408 -0.775287 2.89706 0
M  V30 2485 H 239.961 -0.36771 1.51913 0
M  V30 2486 H 240.696 -2.90111 1.44934 0
M  V30 2487 H 240.481 -2.35255 3.13684 0
M  V30 2488 H 241.971 -3.2199 2.65918 0
M  V30 2489 N 242.408 -1.52605 -0.393616 0
M  V30 2490 C 243.824 -1.41753 -0.733357 0
M  V30 2491 C 244.024 -0.534293 -1.94287 0
M  V30 2492 O 243.08 -0.0059787 -2.52499 0
M  V30 2493 C 244.393 -2.84531 -0.972772 0
M  V30 2494 C 245.941 -2.93978 -1.07453 0
M  V30 2495 C 246.416 -4.37756 -1.3466 0
M  V30 2496 N 247.907 -4.4106 -1.41492 0
M  V30 2497 C 248.642 -5.49387 -1.642 0
M  V30 2498 N 248.138 -6.67806 -1.8441 0
M  V30 2499 N 249.931 -5.36923 -1.66342 0
M  V30 2500 H 242.082 -2.08555 0.402328 0
M  V30 2501 H 244.345 -0.940654 0.117789 0
M  V30 2502 H 244.051 -3.51353 -0.156204 0
M  V30 2503 H 243.925 -3.26508 -1.88871 0
M  V30 2504 H 246.312 -2.27326 -1.88167 0
M  V30 2505 H 246.393 -2.55435 -0.136605 0
M  V30 2506 H 246.037 -5.04972 -0.544581 0
M  V30 2507 H 245.967 -4.73848 -2.2973 0
M  V30 2508 H 248.458 -3.55705 -1.27601 0
M  V30 2509 H 248.771 -7.46141 -2.01231 0
M  V30 2510 H 247.116 -6.70843 -1.81644 0
M  V30 2511 H 250.307 -4.43381 -1.50102 0
M  V30 2512 H 250.48 -6.21416 -1.837 0
M  V30 2513 N 243.887 0.651787 -1.4349 0
M  V30 2514 C 244.834 1.76462 -1.4876 0
M  V30 2515 C 245.804 1.62641 -0.337189 0
M  V30 2516 O 246.989 1.82864 -0.544544 0
M  V30 2517 C 244.129 3.14623 -1.41796 0
M  V30 2518 C 243.242 3.39568 -2.67053 0
M  V30 2519 C 242.377 4.67585 -2.52068 0
M  V30 2520 C 241.416 4.85639 -3.72587 0
M  V30 2521 N 240.553 6.04915 -3.56402 0
M  V30 2522 H 245.393 1.71293 -2.43849 0
M  V30 2523 H 242.93 0.835889 -1.21043 0
M  V30 2524 H 244.888 3.94496 -1.35753 0
M  V30 2525 H 243.518 3.18859 -0.50288 0
M  V30 2526 H 242.57 2.53783 -2.8337 0
M  V30 2527 H 243.882 3.48795 -3.56572 0
M  V30 2528 H 243.036 5.55586 -2.4374 0
M  V30 2529 H 241.775 4.60681 -1.60075 0
M  V30 2530 H 240.78 3.96073 -3.81321 0
M  V30 2531 H 242.005 4.94372 -4.65589 0
M  V30 2532 H 239.951 5.9914 -2.67146 0
M  V30 2533 H 239.868 6.15106 -4.39524 0
M  V30 2534 H 241.136 6.95533 -3.51929 0
M  V30 2535 N 245.365 1.30045 0.890287 0
M  V30 2536 C 246.295 1.18541 2.01172 0
M  V30 2537 C 247.276 0.0773356 1.69924 0
M  V30 2538 O 248.461 0.25845 1.92473 0
M  V30 2539 C 245.591 0.870941 3.36202 0
M  V30 2540 C 244.545 1.93637 3.81692 0
M  V30 2541 C 243.871 1.475 5.13953 0
M  V30 2542 C 245.171 3.34666 4.00994 0
M  V30 2543 H 246.865 2.12359 2.11054 0
M  V30 2544 H 244.411 1.02238 1.01407 0
M  V30 2545 H 246.364 0.777141 4.14172 0
M  V30 2546 H 245.088 -0.102926 3.26438 0
M  V30 2547 H 243.747 2.01972 3.05946 0
M  V30 2548 H 243.395 0.489551 5.00612 0
M  V30 2549 H 243.095 2.1876 5.4536 0
M  V30 2550 H 244.619 1.39489 5.94454 0
M  V30 2551 H 246.033 3.2912 4.69417 0
M  V30 2552 H 244.43 4.03966 4.43769 0
M  V30 2553 H 245.5 3.76949 3.05021 0
M  V30 2554 N 246.843 -1.10192 1.12674 0
M  V30 2555 C 247.776 -2.15847 0.740625 0
M  V30 2556 C 248.754 -1.60352 -0.269421 0
M  V30 2557 O 249.938 -1.87796 -0.16278 0
M  V30 2558 C 247.065 -3.38562 0.096641 0
M  V30 2559 C 246.111 -4.12758 1.07391 0
M  V30 2560 S 246.944 -4.67997 2.60267 0
M  V30 2561 C 248.1 -5.94021 1.97206 0
M  V30 2562 H 248.333 -2.48266 1.63558 0
M  V30 2563 H 245.866 -1.22019 0.946087 0
M  V30 2564 H 247.824 -4.09621 -0.268535 0
M  V30 2565 H 246.485 -3.04377 -0.775462 0
M  V30 2566 H 245.678 -5.00755 0.570997 0
M  V30 2567 H 245.28 -3.47523 1.38216 0
M  V30 2568 H 247.572 -6.64589 1.31634 0
M  V30 2569 H 248.515 -6.48979 2.83253 0
M  V30 2570 H 248.923 -5.46169 1.42686 0
M  V30 2571 N 248.321 -0.919034 -1.28029 0
M  V30 2572 C 249.551 -0.570143 -1.98577 0
M  V30 2573 C 249.959 0.854172 -1.68821 0
M  V30 2574 O 249.302 1.57807 -0.940351 0
M  V30 2575 C 249.364 -0.705734 -3.52505 0
M  V30 2576 C 249.028 -2.10057 -4.05863 0
M  V30 2577 C 250.025 -3.07385 -4.19298 0
M  V30 2578 C 247.71 -2.41517 -4.40426 0
M  V30 2579 C 249.704 -4.34287 -4.66555 0
M  V30 2580 C 247.391 -3.68657 -4.87376 0
M  V30 2581 C 248.389 -4.64856 -5.00398 0
M  V30 2582 O 248.077 -5.89735 -5.46322 0
M  V30 2583 H 247.809 -0.215592 -0.6407 0
M  V30 2584 H 250.363 -1.23583 -1.64062 0
M  V30 2585 H 248.593 0.0170414 -3.86696 0
M  V30 2586 H 250.282 -0.363172 -4.04272 0
M  V30 2587 H 251.048 -2.84398 -3.92865 0
M  V30 2588 H 246.927 -1.67389 -4.29537 0
M  V30 2589 H 250.471 -5.09377 -4.76635 0
M  V30 2590 H 246.368 -3.91466 -5.13249 0
M  V30 2591 H 247.136 -5.92599 -5.64596 0
M  V30 2592 N 249.799 1.42003 -0.683588 0
M  V30 2593 C 251.046 2.01413 -0.209514 0
M  V30 2594 C 251.374 1.54088 1.1869 0
M  V30 2595 O 250.629 0.737591 1.81268 0
M  V30 2596 C 250.928 3.56827 -0.202357 0
M  V30 2597 C 250.594 4.23617 -1.54464 0
M  V30 2598 C 249.256 4.41577 -1.91215 0
M  V30 2599 C 251.608 4.61178 -2.42826 0
M  V30 2600 C 248.936 4.9437 -3.15935 0
M  V30 2601 C 251.288 5.15355 -3.66867 0
M  V30 2602 C 249.952 5.31528 -4.03776 0
M  V30 2603 H 249.222 0.737023 -0.0766668 0
M  V30 2604 H 251.869 1.70067 -0.880312 0
M  V30 2605 H 250.174 3.87892 0.551969 0
M  V30 2606 H 251.871 4.00588 0.181793 0
M  V30 2607 H 248.461 4.10004 -1.24877 0
M  V30 2608 H 252.645 4.46968 -2.15717 0
M  V30 2609 H 247.901 5.05076 -3.44541 0
M  V30 2610 H 252.075 5.43402 -4.35531 0
M  V30 2611 H 249.702 5.72199 -5.00492 0
M  V30 2612 N 251.277 0.427512 1.51691 0
M  V30 2613 C 252.207 -0.3796 2.30394 0
M  V30 2614 C 253.188 -1.02982 1.35384 0
M  V30 2615 O 254.373 -1.03534 1.643 0
M  V30 2616 C 251.503 -1.48649 3.1388 0
M  V30 2617 C 250.457 -0.960294 4.17088 0
M  V30 2618 C 249.783 -2.16219 4.89033 0
M  V30 2619 C 251.083 -0.00153679 5.223 0
M  V30 2620 H 252.777 0.277164 2.98114 0
M  V30 2621 H 250.323 0.134739 1.43368 0
M  V30 2622 H 252.276 -2.05826 3.67714 0
M  V30 2623 H 251 -2.1714 2.43962 0
M  V30 2624 H 249.659 -0.410806 3.64291 0
M  V30 2625 H 249.307 -2.83307 4.15628 0
M  V30 2626 H 249.007 -1.81654 5.58816 0
M  V30 2627 H 250.531 -2.73968 5.45687 0
M  V30 2628 H 251.945 -0.482687 5.71264 0
M  V30 2629 H 250.342 0.256199 5.99553 0
M  V30 2630 H 251.412 0.938174 4.75738 0
M  V30 2631 N 252.755 -1.56801 0.158532 0
M  V30 2632 C 254.001 -1.96781 -0.490405 0
M  V30 2633 C 254.334 -1.04397 -1.63753 0
M  V30 2634 O 253.609 -0.0885805 -1.94298 0
M  V30 2635 C 253.892 -3.4635 -0.985594 0
M  V30 2636 C 253.745 -4.49512 0.160824 0
M  V30 2637 C 255.064 -3.98697 -1.86355 0
M  V30 2638 H 252.183 -0.715482 -0.176788 0
M  V30 2639 H 254.825 -1.88451 0.242088 0
M  V30 2640 H 252.975 -3.53579 -1.60978 0
M  V30 2641 H 254.647 -4.54353 0.797537 0
M  V30 2642 H 252.89 -4.26013 0.818256 0
M  V30 2643 H 253.561 -5.51531 -0.227569 0
M  V30 2644 H 256.037 -3.94019 -1.33746 0
M  V30 2645 H 254.913 -5.03792 -2.17909 0
M  V30 2646 H 255.174 -3.41744 -2.8047 0
M  V30 2647 N 254.233 0.115231 -1.57178 0
M  V30 2648 C 255.181 1.16014 -2.01602 0
M  V30 2649 C 256.175 1.42653 -0.913587 0
M  V30 2650 O 257.381 1.42571 -1.09879 0
M  V30 2651 H 253.756 0.391252 -0.642204 0
M  V30 2652 H 255.727 0.758998 -2.88586 0
M  V30 2653 C 254.476 2.47767 -2.4394 0
M  V30 2654 H 253.799 2.28108 -3.28339 0
M  V30 2655 H 255.239 3.19432 -2.78818 0
M  V30 2656 C 253.698 3.10617 -1.30455 0
M  V30 2657 O 254.228 3.96846 -0.622585 0
M  V30 2658 N 252.434 2.70553 -1.06064 0
M  V30 2659 H 251.981 2.00527 -1.61699 0
M  V30 2660 H 251.939 3.12934 -0.303284 0
M  V30 2661 N 255.711 1.52812 0.385517 0
M  V30 2662 C 256.958 1.68026 1.1302 0
M  V30 2663 C 257.286 0.421934 1.89868 0
M  V30 2664 O 256.541 -0.595749 1.86412 0
M  V30 2665 C 256.84 2.86856 2.13187 0
M  V30 2666 C 256.506 4.24159 1.5297 0
M  V30 2667 C 255.168 4.61501 1.36274 0
M  V30 2668 C 257.52 5.09627 1.09223 0
M  V30 2669 C 254.848 5.81966 0.743837 0
M  V30 2670 C 257.2 6.30719 0.487411 0
M  V30 2671 C 255.864 6.6679 0.307777 0
M  V30 2672 H 255.134 0.614849 0.413571 0
M  V30 2673 H 257.781 1.86962 0.414405 0
M  V30 2674 H 256.086 2.6235 2.90998 0
M  V30 2675 H 257.783 2.95821 2.70722 0
M  V30 2676 H 254.373 3.94746 1.66954 0
M  V30 2677 H 258.557 4.81343 1.20922 0
M  V30 2678 H 253.813 6.08519 0.592891 0
M  V30 2679 H 257.987 6.96259 0.140143 0
M  V30 2680 H 255.614 7.60001 -0.173879 0
M  V30 2681 N 257.189 -0.644168 1.43834 0
M  V30 2682 C 258.435 -1.40431 1.47141 0
M  V30 2683 C 258.79 -1.92153 0.0975577 0
M  V30 2684 O 258.083 -1.69924 -0.885232 0
M  V30 2685 C 258.277 -2.59615 2.45631 0
M  V30 2686 C 258.106 -2.1956 3.92458 0
M  V30 2687 C 256.876 -2.07456 4.60749 0
M  V30 2688 C 259.074 -1.79281 4.8204 0
M  V30 2689 N 257.056 -1.60827 5.92459 0
M  V30 2690 C 258.427 -1.43801 6.03093 0
M  V30 2691 C 260.482 -1.66545 4.6922 0
M  V30 2692 C 259.185 -0.968599 7.12749 0
M  V30 2693 C 261.211 -1.21008 5.78888 0
M  V30 2694 C 260.573 -0.864711 6.99072 0
M  V30 2695 H 256.672 -0.509182 0.593513 0
M  V30 2696 H 259.256 -0.740351 1.80075 0
M  V30 2697 H 257.427 -3.23658 2.1471 0
M  V30 2698 H 259.159 -3.26357 2.39318 0
M  V30 2699 H 255.914 -2.275 4.1538 0
M  V30 2700 H 256.338 -1.39848 6.62398 0
M  V30 2701 H 260.98 -1.91883 3.7675 0
M  V30 2702 H 258.698 -0.702715 8.05039 0
M  V30 2703 H 262.284 -1.11631 5.7099 0
M  V30 2704 H 261.164 -0.517736 7.82489 0
M  V30 2705 N 258.668 -1.30515 -0.883378 0
M  V30 2706 C 259.615 -1.17032 -1.98927 0
M  V30 2707 C 260.585 -0.0594241 -1.65994 0
M  V30 2708 O 261.77 -0.229895 -1.8941 0
M  V30 2709 C 258.91 -0.869777 -3.33959 0
M  V30 2710 C 258.023 -2.06271 -3.79574 0
M  V30 2711 C 257.158 -1.70011 -5.03259 0
M  V30 2712 C 256.197 -2.8579 -5.41286 0
M  V30 2713 N 255.334 -2.49816 -6.56153 0
M  V30 2714 H 260.174 -2.1164 -2.09792 0
M  V30 2715 H 257.711 -1.05296 -1.02719 0
M  V30 2716 H 259.669 -0.676138 -4.11685 0
M  V30 2717 H 258.299 0.0394332 -3.22776 0
M  V30 2718 H 257.351 -2.36755 -2.97744 0
M  V30 2719 H 258.663 -2.92971 -4.03694 0
M  V30 2720 H 257.817 -1.47032 -5.88614 0
M  V30 2721 H 256.556 -0.804829 -4.81013 0
M  V30 2722 H 255.561 -3.09434 -4.54456 0
M  V30 2723 H 256.786 -3.76008 -5.65504 0
M  V30 2724 H 254.732 -1.62795 -6.35479 0
M  V30 2725 H 254.649 -3.30048 -6.8015 0
M  V30 2726 H 255.917 -2.30197 -7.44735 0
M  V30 2727 N 260.146 1.09593 -1.13257 0
M  V30 2728 C 261.374 1.855 -0.916378 0
M  V30 2729 C 261.789 1.81069 0.534738 0
M  V30 2730 O 261.146 1.20562 1.37007 0
M  V30 2731 C 261.197 3.33546 -1.39388 0
M  V30 2732 O 260.918 3.37927 -2.78813 0
M  V30 2733 C 262.419 4.26299 -1.21588 0
M  V30 2734 H 259.639 0.585991 -0.326887 0
M  V30 2735 H 262.183 1.38488 -1.5047 0
M  V30 2736 H 260.338 3.77992 -0.848597 0
M  V30 2737 H 260.752 4.30254 -2.9997 0
M  V30 2738 H 262.226 5.28341 -1.59876 0
M  V30 2739 H 262.703 4.38918 -0.157376 0
M  V30 2740 H 263.309 3.87668 -1.7491 0
M  V30 2741 N 261.624 0.925811 1.2754 0
M  V30 2742 C 262.572 0.413897 2.28888 0
M  V30 2743 C 263.566 -0.500779 1.61829 0
M  V30 2744 O 264.772 -0.38069 1.75928 0
M  V30 2745 H 261.147 0.115274 0.743112 0
M  V30 2746 H 263.118 1.28151 2.69481 0
M  V30 2747 C 261.867 -0.319792 3.46226 0
M  V30 2748 H 261.19 0.374846 3.98039 0
M  V30 2749 H 262.63 -0.642435 4.19105 0
M  V30 2750 C 261.089 -1.53209 3.00048 0
M  V30 2751 O 261.619 -2.6309 3.03557 0
M  V30 2752 N 259.825 -1.38326 2.55566 0
M  V30 2753 H 259.372 -0.489292 2.5291 0
M  V30 2754 H 259.33 -2.19564 2.25031 0
M  V30 2755 N 263.102 -1.41638 0.69111 0
M  V30 2756 C 264.379 -1.95036 0.148421 0
M  V30 2757 C 264.759 -1.63072 -1.34055 0
M  V30 2758 O 264.107 -0.93538 -2.08478 0
M  V30 2759 C 264.317 -3.46279 0.434951 0
M  V30 2760 C 265.665 -4.23069 0.360275 0
M  V30 2761 O 266.689 -3.54277 0.369613 0
M  V30 2762 O 265.548 -5.45583 0.316534 0
M  V30 2763 H 262.642 -0.826908 0.0123654 0
M  V30 2764 H 265.188 -1.5138 0.766963 0
M  V30 2765 H 263.96 -3.6281 1.46576 0
M  V30 2766 H 263.583 -3.97019 -0.214787 0
M  V30 2767 N 264.58 -0.43555 -1.51462 0
M  V30 2768 C 265.51 0.367376 -2.30592 0
M  V30 2769 C 266.491 1.02263 -1.35928 0
M  V30 2770 O 267.676 1.02661 -1.64847 0
M  V30 2771 C 264.806 1.46983 -3.14664 0
M  V30 2772 C 263.76 0.938161 -4.17591 0
M  V30 2773 C 263.086 2.13622 -4.90173 0
M  V30 2774 C 264.386 -0.0261621 -5.22293 0
M  V30 2775 H 266.08 -0.292969 -2.97963 0
M  V30 2776 H 263.626 -0.14234 -1.43295 0
M  V30 2777 H 265.579 2.03873 -3.688 0
M  V30 2778 H 264.303 2.15843 -2.4511 0
M  V30 2779 H 262.962 0.391481 -3.64504 0
M  V30 2780 H 262.61 2.81098 -4.17124 0
M  V30 2781 H 262.31 1.78688 -5.59772 0
M  V30 2782 H 263.834 2.7107 -5.47132 0
M  V30 2783 H 265.248 0.452384 -5.71512 0
M  V30 2784 H 263.645 -0.287992 -5.99409 0
M  V30 2785 H 264.715 -0.963391 -4.75233 0
M  V30 2786 N 266.058 1.56714 -0.166846 0
M  V30 2787 C 267.469 1.83378 0.350646 0
M  V30 2788 C 267.82 1.08646 1.63372 0
M  V30 2789 O 266.945 0.338058 2.13743 0
M  V30 2790 C 267.54 3.32643 0.642963 0
M  V30 2791 C 266.099 3.59818 1.10491 0
M  V30 2792 C 265.246 2.76954 0.138411 0
M  V30 2793 H 268.197 1.53803 -0.391193 0
M  V30 2794 H 268.218 3.49878 1.49551 0
M  V30 2795 H 267.73 3.87007 -0.291055 0
M  V30 2796 H 265.831 3.1086 2.05418 0
M  V30 2797 H 265.944 4.68178 1.01716 0
M  V30 2798 H 264.308 2.4666 0.634911 0
M  V30 2799 H 265.091 3.34097 -0.789549 0
M  V30 2800 N 267.536 -0.106894 1.57237 0
M  V30 2801 C 268.783 -0.812526 1.85484 0
M  V30 2802 C 269.111 -1.79304 0.753687 0
M  V30 2803 O 268.366 -1.94047 -0.253853 0
M  V30 2804 C 268.665 -1.58628 3.20268 0
M  V30 2805 C 268.331 -0.748967 4.44636 0
M  V30 2806 C 266.993 -0.518104 4.78403 0
M  V30 2807 C 269.345 -0.166122 5.20935 0
M  V30 2808 C 266.673 0.305659 5.85903 0
M  V30 2809 C 269.025 0.644899 6.29304 0
M  V30 2810 C 267.689 0.885965 6.61594 0
M  V30 2811 H 266.959 -0.297324 0.678734 0
M  V30 2812 H 269.606 -0.0744332 1.91355 0
M  V30 2813 H 267.911 -2.39562 3.10028 0
M  V30 2814 H 269.608 -2.13643 3.39349 0
M  V30 2815 H 266.198 -0.939006 4.18187 0
M  V30 2816 H 270.382 -0.33167 4.95191 0
M  V30 2817 H 265.638 0.501528 6.0934 0
M  V30 2818 H 269.812 1.10345 6.87602 0
M  V30 2819 H 267.439 1.52609 7.44725 0
M  V30 2820 N 269.014 -1.53014 -0.377408 0
M  V30 2821 C 269.961 -1.78616 -1.46168 0
M  V30 2822 C 270.931 -0.629917 -1.53692 0
M  V30 2823 O 272.116 -0.870861 -1.69766 0
M  V30 2824 C 269.256 -1.97123 -2.8326 0
M  V30 2825 C 268.369 -3.24831 -2.84796 0
M  V30 2826 C 267.504 -3.33591 -4.13389 0
M  V30 2827 C 266.543 -4.55377 -4.09021 0
M  V30 2828 N 265.68 -4.61355 -5.29241 0
M  V30 2829 H 270.52 -2.71142 -1.23637 0
M  V30 2830 H 268.057 -1.34326 -0.599577 0
M  V30 2831 H 270.015 -2.05839 -3.62886 0
M  V30 2832 H 268.645 -1.07946 -3.04216 0
M  V30 2833 H 267.697 -3.25128 -1.97474 0
M  V30 2834 H 269.009 -4.14523 -2.77439 0
M  V30 2835 H 268.163 -3.41554 -5.01424 0
M  V30 2836 H 266.902 -2.41894 -4.23484 0
M  V30 2837 H 265.907 -4.47527 -3.19373 0
M  V30 2838 H 267.132 -5.48402 -4.00539 0
M  V30 2839 H 265.078 -3.72554 -5.39944 0
M  V30 2840 H 264.995 -5.44935 -5.24006 0
M  V30 2841 H 266.263 -4.73586 -6.19141 0
M  V30 2842 N 270.492 0.636531 -1.44174 0
M  V30 2843 C 271.72 1.42353 -1.50144 0
M  V30 2844 C 272.135 1.88389 -0.124575 0
M  V30 2845 O 271.492 1.6051 0.868489 0
M  V30 2846 C 271.543 2.64744 -2.46156 0
M  V30 2847 O 271.264 2.20629 -3.7849 0
M  V30 2848 C 272.765 3.57929 -2.61537 0
M  V30 2849 H 269.985 0.436752 -0.5094 0
M  V30 2850 H 272.529 0.778933 -1.89084 0
M  V30 2851 H 270.684 3.25307 -2.10366 0
M  V30 2852 H 271.098 2.99938 -4.30276 0
M  V30 2853 H 272.572 4.40428 -3.32757 0
M  V30 2854 H 273.049 4.06382 -1.66585 0
M  V30 2855 H 273.655 3.03238 -2.98206 0
M  V30 2856 N 271.97 1.30982 0.876444 0
M  V30 2857 C 273.2 1.23063 1.65949 0
M  V30 2858 C 273.608 -0.207537 1.88058 0
M  V30 2859 O 272.951 -1.14781 1.43426 0
M  V30 2860 C 273.013 1.89768 3.05333 0
M  V30 2861 C 272.677 3.39106 3.0636 0
M  V30 2862 C 273.674 4.3496 2.84791 0
M  V30 2863 C 271.359 3.80693 3.27686 0
M  V30 2864 C 273.353 5.70375 2.84519 0
M  V30 2865 C 271.04 5.16223 3.27043 0
M  V30 2866 C 272.038 6.10875 3.05485 0
M  V30 2867 O 271.726 7.43928 3.04674 0
M  V30 2868 H 271.458 0.426685 0.524324 0
M  V30 2869 H 274.012 1.7329 1.10271 0
M  V30 2870 H 272.242 1.34082 3.6271 0
M  V30 2871 H 273.931 1.75853 3.65829 0
M  V30 2872 H 274.697 4.0416 2.68103 0
M  V30 2873 H 270.576 3.07457 3.43499 0
M  V30 2874 H 274.12 6.44228 2.67611 0
M  V30 2875 H 270.017 5.4666 3.43269 0
M  V30 2876 H 270.785 7.53022 3.2078 0
M  V30 2877 N 273.449 -1.08991 1.13837 0
M  V30 2878 C 274.674 -1.85551 0.926585 0
M  V30 2879 C 275.099 -1.80782 -0.519566 0
M  V30 2880 O 274.457 -1.18855 -1.36906 0
M  V30 2881 C 274.505 -3.31266 1.42462 0
M  V30 2882 O 273.609 -4.07822 0.612789 0
M  V30 2883 H 272.95 -0.575192 0.331738 0
M  V30 2884 H 275.48 -1.37604 1.51414 0
M  V30 2885 H 275.49 -3.82112 1.43019 0
M  V30 2886 H 274.165 -3.34052 2.47754 0
M  V30 2887 H 272.742 -3.66731 0.675463 0
M  V30 2888 N 274.927 -0.932562 -1.27047 0
M  V30 2889 C 276.173 -0.585913 -1.94778 0
M  V30 2890 C 276.528 0.864142 -1.71902 0
M  V30 2891 O 275.821 1.60894 -1.04037 0
M  V30 2892 C 276.015 -0.853713 -3.47054 0
M  V30 2893 C 275.844 -2.32825 -3.84737 0
M  V30 2894 C 274.614 -2.98184 -4.07939 0
M  V30 2895 C 276.812 -3.30612 -3.93954 0
M  V30 2896 N 274.794 -4.3574 -4.3244 0
M  V30 2897 C 276.165 -4.53395 -4.22887 0
M  V30 2898 C 278.22 -3.25755 -3.76548 0
M  V30 2899 C 276.923 -5.71927 -4.36224 0
M  V30 2900 C 278.949 -4.43604 -3.91113 0
M  V30 2901 C 278.311 -5.65166 -4.20437 0
M  V30 2902 H 274.41 -0.264617 -0.735868 0
M  V30 2903 H 276.994 -1.20019 -1.53309 0
M  V30 2904 H 275.165 -0.268557 -3.8747 0
M  V30 2905 H 276.897 -0.469202 -4.01971 0
M  V30 2906 H 273.652 -2.48835 -4.02961 0
M  V30 2907 H 274.076 -5.06915 -4.48738 0
M  V30 2908 H 278.718 -2.32835 -3.52913 0
M  V30 2909 H 276.436 -6.65308 -4.58683 0
M  V30 2910 H 280.022 -4.41368 -3.79059 0
M  V30 2911 H 278.902 -6.54836 -4.31462 0
M  V30 2912 N 276.405 1.4127 -0.698611 0
M  V30 2913 C 277.63 2.06024 -0.238512 0
M  V30 2914 C 278.055 1.5224 1.10475 0
M  V30 2915 O 277.413 0.650623 1.69223 0
M  V30 2916 C 277.461 3.59988 -0.209952 0
M  V30 2917 O 276.565 4.04282 0.814235 0
M  V30 2918 H 275.906 0.653829 -0.115775 0
M  V30 2919 H 278.436 1.8098 -0.954326 0
M  V30 2920 H 278.446 4.07979 -0.0418436 0
M  V30 2921 H 277.121 3.98503 -1.1903 0
M  V30 2922 H 275.698 3.6779 0.615234 0
M  V30 2923 N 277.883 0.443576 1.51229 0
M  V30 2924 C 279.111 -0.11929 2.06556 0
M  V30 2925 C 279.526 -1.35921 1.31038 0
M  V30 2926 O 278.883 -1.78675 0.371704 0
M  V30 2927 C 278.934 -0.435228 3.5887 0
M  V30 2928 O 278.655 0.755486 4.31537 0
M  V30 2929 C 280.156 -1.04808 4.30732 0
M  V30 2930 H 277.376 -0.0051584 0.67098 0
M  V30 2931 H 279.92 0.624453 1.94733 0
M  V30 2932 H 278.075 -1.12887 3.70588 0
M  V30 2933 H 278.489 0.483491 5.22267 0
M  V30 2934 H 279.963 -1.2191 5.3837 0
M  V30 2935 H 280.44 -2.03081 3.89429 0
M  V30 2936 H 281.046 -0.393637 4.23474 0
M  V30 2937 N 279.361 -1.56624 0.175154 0
M  V30 2938 C 280.586 -2.01813 -0.478137 0
M  V30 2939 C 281.011 -1.05457 -1.55757 0
M  V30 2940 O 280.369 -0.0347439 -1.81267 0
M  V30 2941 C 280.417 -3.45581 -1.02987 0
M  V30 2942 O 279.521 -3.52305 -2.14371 0
M  V30 2943 H 278.862 -0.65413 -0.114059 0
M  V30 2944 H 281.392 -2.02673 0.280173 0
M  V30 2945 H 281.402 -3.84965 -1.35151 0
M  V30 2946 H 280.077 -4.1521 -0.239556 0
M  V30 2947 H 278.654 -3.24783 -1.83222 0
M  V30 2948 N 280.839 0.0985539 -1.57292 0
M  V30 2949 C 282.069 0.815135 -1.8984 0
M  V30 2950 C 282.477 1.7297 -0.766679 0
M  V30 2951 O 281.82 1.81698 0.270483 0
M  V30 2952 C 281.882 1.6842 -3.17608 0
M  V30 2953 C 281.546 0.94182 -4.4719 0
M  V30 2954 C 282.543 0.273212 -5.19182 0
M  V30 2955 C 280.228 0.916927 -4.9386 0
M  V30 2956 C 282.222 -0.410361 -6.36078 0
M  V30 2957 C 279.909 0.229567 -6.10669 0
M  V30 2958 C 280.907 -0.432902 -6.81627 0
M  V30 2959 O 280.595 -1.10925 -7.9621 0
M  V30 2960 H 280.327 0.238501 -0.632529 0
M  V30 2961 H 282.881 0.0812659 -2.05239 0
M  V30 2962 H 281.111 2.46022 -2.98345 0
M  V30 2963 H 282.8 2.27704 -3.36015 0
M  V30 2964 H 283.566 0.283927 -4.84168 0
M  V30 2965 H 279.445 1.42201 -4.3852 0
M  V30 2966 H 282.989 -0.928013 -6.914 0
M  V30 2967 H 278.886 0.216686 -6.45136 0
M  V30 2968 H 279.654 -1.01579 -8.12172 0
M  V30 2969 N 282.317 1.53212 0.369288 0
M  V30 2970 C 283.563 1.69466 1.11397 0
M  V30 2971 C 283.896 0.443257 1.89074 0
M  V30 2972 O 283.171 -0.559386 1.86282 0
M  V30 2973 C 283.454 2.9422 2.07621 0
M  V30 2974 C 283.307 4.29508 1.33577 0
M  V30 2975 C 284.626 3.14565 3.07794 0
M  V30 2976 H 281.745 0.616667 0.403597 0
M  V30 2977 H 284.387 1.85845 0.395179 0
M  V30 2978 H 282.537 2.80387 2.68916 0
M  V30 2979 H 284.209 4.55147 0.750955 0
M  V30 2980 H 282.452 4.29088 0.637618 0
M  V30 2981 H 283.123 5.12926 2.03989 0
M  V30 2982 H 285.599 3.2756 2.56601 0
M  V30 2983 H 284.475 4.03297 3.72348 0
M  V30 2984 H 284.736 2.29675 3.77759 0
M  V30 2985 N 283.795 -0.628877 1.44509 0
M  V30 2986 C 285.025 -1.41349 1.50678 0
M  V30 2987 C 285.433 -1.88745 0.131075 0
M  V30 2988 O 284.776 -1.61592 -0.87371 0
M  V30 2989 C 284.838 -2.66608 2.41165 0
M  V30 2990 C 284.502 -2.40993 3.88293 0
M  V30 2991 C 285.499 -2.0268 4.78766 0
M  V30 2992 C 283.184 -2.54563 4.33016 0
M  V30 2993 C 285.178 -1.78269 6.11963 0
M  V30 2994 C 282.865 -2.29766 5.6626 0
M  V30 2995 C 283.863 -1.91678 6.55552 0
M  V30 2996 O 283.551 -1.67158 7.86329 0
M  V30 2997 H 283.283 -0.439851 0.51333 0
M  V30 2998 H 285.837 -0.776084 1.90174 0
M  V30 2999 H 284.067 -3.32994 1.96601 0
M  V30 3000 H 285.756 -3.28615 2.38259 0
M  V30 3001 H 286.522 -1.91751 4.45485 0
M  V30 3002 H 282.401 -2.83179 3.63773 0
M  V30 3003 H 285.945 -1.48465 6.81619 0
M  V30 3004 H 281.842 -2.40306 5.99102 0
M  V30 3005 H 282.61 -1.81386 7.98149 0
M  V30 3006 N 285.273 -1.31445 -0.869486 0
M  V30 3007 C 286.22 -1.19135 -1.97675 0
M  V30 3008 C 287.19 -0.0770266 -1.65921 0
M  V30 3009 O 288.375 -0.249972 -1.89155 0
M  V30 3010 C 285.515 -0.905149 -3.33018 0
M  V30 3011 C 284.628 -2.10285 -3.77365 0
M  V30 3012 C 283.763 -1.75339 -5.01427 0
M  V30 3013 C 282.802 -2.91515 -5.38224 0
M  V30 3014 N 281.939 -2.56762 -6.53466 0
M  V30 3015 H 286.779 -2.13853 -2.07535 0
M  V30 3016 H 284.316 -1.06379 -1.01597 0
M  V30 3017 H 286.274 -0.719765 -4.10944 0
M  V30 3018 H 284.904 0.00519624 -3.228 0
M  V30 3019 H 283.956 -2.39899 -2.95216 0
M  V30 3020 H 285.268 -2.97237 -4.00564 0
M  V30 3021 H 284.422 -1.53266 -5.87022 0
M  V30 3022 H 283.161 -0.855801 -4.80133 0
M  V30 3023 H 282.166 -3.14237 -4.51149 0
M  V30 3024 H 283.391 -3.81985 -5.61484 0
M  V30 3025 H 281.337 -1.69526 -6.33717 0
M  V30 3026 H 281.254 -3.37243 -6.76612 0
M  V30 3027 H 282.522 -2.38083 -7.42251 0
M  V30 3028 N 286.751 1.08385 -1.14413 0
M  V30 3029 C 287.699 2.17406 -0.826888 0
M  V30 3030 C 288.693 1.6827 0.195312 0
M  V30 3031 O 289.899 1.79927 0.0513892 0
M  V30 3032 H 286.274 0.70934 -0.249681 0
M  V30 3033 H 288.245 2.41388 -1.75426 0
M  V30 3034 C 286.994 3.46215 -0.320979 0
M  V30 3035 H 286.317 3.84401 -1.0989 0
M  V30 3036 H 287.757 4.23777 -0.137549 0
M  V30 3037 C 286.216 3.23067 0.955472 0
M  V30 3038 O 286.746 3.4668 2.02918 0
M  V30 3039 N 284.952 2.7661 0.890798 0
M  V30 3040 H 284.499 2.57594 0.0168815 0
M  V30 3041 H 284.457 2.61501 1.74542 0
M  V30 3042 N 288.23 0.939286 1.26551 0
M  V30 3043 C 289.478 0.58469 1.93457 0
M  V30 3044 C 289.799 -0.878774 1.74076 0
M  V30 3045 O 289.069 -1.62421 1.09528 0
M  V30 3046 H 287.649 0.21325 0.715914 0
M  V30 3047 H 290.311 1.1942 1.54029 0
M  V30 3048 H 289.407 0.800849 3.0165 0
M  V30 3049 N 289.708 -1.40897 0.706093 0
M  V30 3050 C 290.936 -2.05373 0.250887 0
M  V30 3051 C 291.351 -1.53172 -1.10381 0
M  V30 3052 O 290.708 -0.684305 -1.69185 0
M  V30 3053 C 290.759 -3.6088 0.211571 0
M  V30 3054 O 290.48 -4.11153 1.51276 0
M  V30 3055 C 291.981 -4.42517 -0.263346 0
M  V30 3056 H 289.201 -0.66115 0.114552 0
M  V30 3057 H 291.745 -1.80479 0.961635 0
M  V30 3058 H 289.9 -3.84777 -0.450073 0
M  V30 3059 H 290.314 -5.05279 1.40689 0
M  V30 3060 H 291.788 -5.51479 -0.239718 0
M  V30 3061 H 292.265 -4.19396 -1.30397 0
M  V30 3062 H 292.871 -4.23708 0.367677 0
M  V30 3063 N 291.186 -0.45159 -1.50991 0
M  V30 3064 C 292.096 0.358431 -2.31846 0
M  V30 3065 C 293.112 1.01438 -1.41373 0
M  V30 3066 O 294.288 1.00663 -1.74439 0
M  V30 3067 C 291.353 1.43704 -3.15515 0
M  V30 3068 C 290.414 0.799742 -4.21785 0
M  V30 3069 C 289.647 1.82696 -5.01456 0
M  V30 3070 O 289.87 3.05105 -4.81941 0
M  V30 3071 O 288.804 1.40958 -5.85162 0
M  V30 3072 H 292.63 -0.302032 -3.02194 0
M  V30 3073 H 290.215 -0.213825 -1.47862 0
M  V30 3074 H 292.097 2.06227 -3.67489 0
M  V30 3075 H 290.772 2.08133 -2.47916 0
M  V30 3076 H 289.679 0.136084 -3.73852 0
M  V30 3077 H 291.012 0.198718 -4.91799 0
M  V30 3078 N 292.664 1.56529 -0.183458 0
M  V30 3079 C 293.892 2.01623 0.464285 0
M  V30 3080 C 294.307 1.06366 1.55986 0
M  V30 3081 O 293.664 0.0665398 1.82379 0
M  V30 3082 C 293.715 3.46475 1.03139 0
M  V30 3083 O 293.436 4.38095 -0.0204675 0
M  V30 3084 C 294.937 4.0703 1.75617 0
M  V30 3085 H 292.157 0.660596 0.117704 0
M  V30 3086 H 294.701 2.02451 -0.288751 0
M  V30 3087 H 292.856 3.46383 1.73486 0
M  V30 3088 H 293.27 5.22973 0.399952 0
M  V30 3089 H 294.744 5.10271 2.10542 0
M  V30 3090 H 295.221 3.49819 2.65563 0
M  V30 3091 H 295.827 4.1086 1.09882 0
M  V30 3092 N 294.142 -0.090211 1.57342 0
M  V30 3093 C 295.052 -1.12735 2.05738 0
M  V30 3094 C 296.068 -1.43557 0.983231 0
M  V30 3095 O 297.244 -1.54101 1.29672 0
M  V30 3096 C 294.309 -2.42659 2.47624 0
M  V30 3097 C 293.37 -2.18975 3.69254 0
M  V30 3098 C 292.603 -3.42704 4.09133 0
M  V30 3099 O 292.826 -4.51127 3.49057 0
M  V30 3100 O 291.76 -3.32003 5.02053 0
M  V30 3101 H 295.586 -0.746279 2.94388 0
M  V30 3102 H 293.171 -0.303064 1.46294 0
M  V30 3103 H 295.053 -3.19155 2.7517 0
M  V30 3104 H 293.728 -2.80182 1.62109 0
M  V30 3105 H 292.635 -1.40244 3.46818 0
M  V30 3106 H 293.968 -1.86342 4.55563 0
M  V30 3107 N 295.62 -1.53406 -0.361157 0
M  V30 3108 C 296.897 -1.60411 -1.11927 0
M  V30 3109 C 297.277 -0.414385 -2.06993 0
M  V30 3110 O 296.625 0.594976 -2.20618 0
M  V30 3111 C 296.835 -2.95652 -1.85448 0
M  V30 3112 C 298.183 -3.50386 -2.39823 0
M  V30 3113 O 299.207 -2.97711 -1.95568 0
M  V30 3114 O 298.066 -4.42482 -3.20737 0
M  V30 3115 H 295.16 -0.64811 -0.513695 0
M  V30 3116 H 297.706 -1.65749 -0.364065 0
M  V30 3117 H 296.478 -3.73682 -1.16091 0
M  V30 3118 H 296.101 -2.93825 -2.67866 0
M  V30 3119 N 297.098 0.621204 -1.44841 0
M  V30 3120 C 298.338 1.39201 -1.49674 0
M  V30 3121 C 298.702 1.91561 -0.129764 0
M  V30 3122 O 299.903 2.68748 -0.0527814 0
M  V30 3123 C 298.174 2.519 -2.53537 0
M  V30 3124 S 299.733 3.39916 -2.77494 0
M  V30 3125 H 296.551 0.474758 -0.529269 0
M  V30 3126 H 299.153 0.718171 -1.81831 0
M  V30 3127 H 297.857 2.11761 -3.51547 0
M  V30 3128 H 297.388 3.241 -2.22986 0
M  V30 3129 H 299.403 4.49646 -2.0984 0
M  V30 3130 N 298.576 1.31904 0.862503 0
M  V30 3131 C 299.823 1.22017 1.61611 0
M  V30 3132 C 300.151 -0.21991 1.93253 0
M  V30 3133 O 299.406 -1.17076 1.56817 0
M  V30 3134 C 299.705 2.01713 2.95037 0
M  V30 3135 C 299.371 3.51145 2.82857 0
M  V30 3136 C 298.033 3.91889 2.79243 0
M  V30 3137 C 300.385 4.46204 2.69353 0
M  V30 3138 C 297.713 5.25947 2.59993 0
M  V30 3139 C 300.065 5.80397 2.5164 0
M  V30 3140 C 298.729 6.20352 2.46413 0
M  V30 3141 H 297.999 0.44649 0.591378 0
M  V30 3142 H 300.646 1.63248 1.00111 0
M  V30 3143 H 298.951 1.53185 3.60613 0
M  V30 3144 H 300.648 1.91437 3.52353 0
M  V30 3145 H 297.238 3.1878 2.86491 0
M  V30 3146 H 301.422 4.15652 2.71196 0
M  V30 3147 H 296.678 5.5597 2.54376 0
M  V30 3148 H 300.852 6.53676 2.40169 0
M  V30 3149 H 298.479 7.24172 2.31256 0
M  V30 3150 N 300.054 -1.07777 1.14986 0
M  V30 3151 C 301.3 -1.80719 0.93339 0
M  V30 3152 C 301.655 -1.8484 -0.534019 0
M  V30 3153 O 300.948 -1.31795 -1.3907 0
M  V30 3154 C 301.142 -3.25495 1.47608 0
M  V30 3155 C 300.971 -3.3548 2.99472 0
M  V30 3156 C 299.741 -3.46293 3.6798 0
M  V30 3157 C 301.939 -3.26596 3.97291 0
M  V30 3158 N 299.921 -3.45136 5.07695 0
M  V30 3159 C 301.292 -3.32506 5.23297 0
M  V30 3160 C 303.347 -3.10376 3.89321 0
M  V30 3161 C 302.05 -3.23866 6.42264 0
M  V30 3162 C 304.076 -3.03069 5.07842 0
M  V30 3163 C 303.438 -3.09587 6.32721 0
M  V30 3164 H 299.537 -0.674814 0.395158 0
M  V30 3165 H 302.121 -1.28681 1.46114 0
M  V30 3166 H 300.292 -3.75963 0.975022 0
M  V30 3167 H 302.024 -3.86535 1.19887 0
M  V30 3168 H 298.779 -3.50456 3.18555 0
M  V30 3169 H 299.203 -3.48097 5.80653 0
M  V30 3170 H 303.845 -3.04194 2.93642 0
M  V30 3171 H 301.563 -3.28807 7.38181 0
M  V30 3172 H 305.149 -2.91629 5.03432 0
M  V30 3173 H 304.029 -3.0397 7.22891 0
M  V30 3174 N 301.532 -0.945985 -1.26051 0
M  V30 3175 C 302.762 -0.612136 -1.97323 0
M  V30 3176 C 303.17 0.818171 -1.70595 0
M  V30 3177 O 302.513 1.55777 -0.973613 0
M  V30 3178 C 302.575 -0.780347 -3.50929 0
M  V30 3179 C 302.239 -2.18619 -4.01317 0
M  V30 3180 C 303.236 -3.16209 -4.12683 0
M  V30 3181 C 300.921 -2.50805 -4.35203 0
M  V30 3182 C 302.915 -4.44085 -4.57238 0
M  V30 3183 C 300.602 -3.78912 -4.79446 0
M  V30 3184 C 301.6 -4.75365 -4.90425 0
M  V30 3185 O 301.288 -6.01191 -5.3369 0
M  V30 3186 H 301.02 -0.229134 -0.635982 0
M  V30 3187 H 303.574 -1.27036 -1.61404 0
M  V30 3188 H 301.804 -0.0649864 -3.86645 0
M  V30 3189 H 303.493 -0.448842 -4.03411 0
M  V30 3190 H 304.259 -2.92668 -3.86744 0
M  V30 3191 H 300.138 -1.76463 -4.2589 0
M  V30 3192 H 303.682 -5.19373 -4.65723 0
M  V30 3193 H 299.579 -4.02265 -5.0483 0
M  V30 3194 H 300.347 -6.04442 -5.51899 0
M  V30 3195 N 303.011 1.40521 -0.713556 0
M  V30 3196 C 303.941 2.33381 -0.0743864 0
M  V30 3197 C 304.922 1.52784 0.747735 0
M  V30 3198 O 306.107 1.81258 0.697071 0
M  V30 3199 C 303.237 3.36748 0.849598 0
M  V30 3200 C 302.191 4.27793 0.133247 0
M  V30 3201 C 301.517 5.21679 1.17281 0
M  V30 3202 C 302.817 5.12415 -1.01134 0
M  V30 3203 H 304.511 2.87081 -0.850007 0
M  V30 3204 H 302.057 1.38034 -0.410201 0
M  V30 3205 H 304.01 4.00648 1.30612 0
M  V30 3206 H 302.734 2.81439 1.65709 0
M  V30 3207 H 301.393 3.65342 -0.303426 0
M  V30 3208 H 301.041 4.62677 1.9733 0
M  V30 3209 H 300.741 5.83435 0.698397 0
M  V30 3210 H 302.265 5.88456 1.62947 0
M  V30 3211 H 303.679 5.69781 -0.634274 0
M  V30 3212 H 302.076 5.83203 -1.41399 0
M  V30 3213 H 303.146 4.48514 -1.84292 0
M  V30 3214 N 304.489 0.459591 1.5075 0
M  V30 3215 C 305.437 -0.354678 2.2988 0
M  V30 3216 C 306.431 -1.00086 1.36672 0
M  V30 3217 O 307.637 -0.933277 1.53915 0
M  V30 3218 H 304.012 -0.13321 0.740107 0
M  V30 3219 H 305.983 0.333269 2.96533 0
M  V30 3220 C 304.732 -1.43073 3.169 0
M  V30 3221 H 304.055 -0.942882 3.88523 0
M  V30 3222 H 305.495 -1.97328 3.75284 0
M  V30 3223 C 303.954 -2.42633 2.33732 0
M  V30 3224 O 304.484 -3.47658 2.01238 0
M  V30 3225 N 302.69 -2.14066 1.9653 0
M  V30 3226 H 302.237 -1.28685 2.23155 0
M  V30 3227 H 302.195 -2.80917 1.41185 0
M  V30 3228 N 305.967 -1.56429 0.191757 0
M  V30 3229 C 306.93 -2.17707 -0.716688 0
M  V30 3230 C 307.93 -1.13061 -1.14341 0
M  V30 3231 O 309.12 -1.38464 -1.05704 0
M  V30 3232 C 306.252 -2.77644 -1.97804 0
M  V30 3233 H 307.445 -2.99342 -0.1829 0
M  V30 3234 H 304.998 -1.56193 -0.0578566 0
M  V30 3235 H 305.733 -1.99799 -2.55443 0
M  V30 3236 H 305.518 -3.54246 -1.68083 0
M  V30 3237 H 307.008 -3.24708 -2.62592 0
M  V30 3238 N 307.445 0.0818655 -1.57387 0
M  V30 3239 C 308.375 1.09885 -2.06028 0
M  V30 3240 C 309.356 1.4098 -0.951774 0
M  V30 3241 O 310.541 1.50781 -1.22387 0
M  V30 3242 C 307.671 2.4151 -2.4958 0
M  V30 3243 C 306.625 2.24792 -3.64215 0
M  V30 3244 C 305.951 3.61712 -3.93787 0
M  V30 3245 C 307.251 1.67749 -4.94629 0
M  V30 3246 H 308.945 0.694128 -2.91243 0
M  V30 3247 H 306.491 0.332448 -1.4011 0
M  V30 3248 H 308.444 3.12939 -2.82219 0
M  V30 3249 H 307.168 2.83943 -1.61381 0
M  V30 3250 H 305.827 1.55807 -3.31843 0
M  V30 3251 H 305.475 4.01697 -3.02735 0
M  V30 3252 H 305.175 3.51368 -4.70971 0
M  V30 3253 H 306.699 4.34587 -4.28913 0
M  V30 3254 H 308.113 2.29032 -5.25564 0
M  V30 3255 H 306.51 1.68128 -5.76067 0
M  V30 3256 H 307.58 0.638059 -4.80684 0
M  V30 3257 N 308.923 1.53595 0.353017 0
M  V30 3258 C 309.833 1.83897 1.45667 0
M  V30 3259 C 310.849 0.728334 1.58023 0
M  V30 3260 O 312.025 1.01968 1.73679 0
M  V30 3261 C 309.09 2.03383 2.80778 0
M  V30 3262 C 308.151 3.27262 2.77845 0
M  V30 3263 C 307.384 3.45809 4.06512 0
M  V30 3264 O 307.607 2.68387 5.03314 0
M  V30 3265 O 306.541 4.39207 4.11559 0
M  V30 3266 H 310.367 2.77686 1.2298 0
M  V30 3267 H 307.952 1.39132 0.544308 0
M  V30 3268 H 309.834 2.17698 3.60812 0
M  V30 3269 H 308.509 1.12783 3.03417 0
M  V30 3270 H 307.416 3.18359 1.96465 0
M  V30 3271 H 308.749 4.17824 2.60161 0
M  V30 3272 N 310.401 -0.613514 1.45168 0
M  V30 3273 C 311.364 -1.7065 1.53007 0
M  V30 3274 C 312.364 -1.5548 0.410184 0
M  V30 3275 O 313.554 -1.60656 0.673455 0
M  V30 3276 C 310.686 -3.09875 1.42093 0
M  V30 3277 H 311.879 -1.65068 2.50385 0
M  V30 3278 H 309.432 -0.828728 1.32521 0
M  V30 3279 H 310.167 -3.21039 0.458769 0
M  V30 3280 H 309.952 -3.22293 2.23315 0
M  V30 3281 H 311.442 -3.895 1.50598 0
M  V30 3282 N 311.879 -1.3236 -0.855495 0
M  V30 3283 C 313.104 -1.2601 -1.64731 0
M  V30 3284 C 313.529 0.169068 -1.87339 0
M  V30 3285 O 312.887 1.12016 -1.42556 0
M  V30 3286 C 312.935 -2.02417 -2.98429 0
M  V30 3287 O 312.039 -1.3714 -3.8893 0
M  V30 3288 H 311.38 -0.434325 -0.502253 0
M  V30 3289 H 313.91 -1.74661 -1.06558 0
M  V30 3290 H 313.92 -2.12559 -3.48257 0
M  V30 3291 H 312.595 -3.06343 -2.81295 0
M  V30 3292 H 311.172 -1.3554 -3.47395 0
M  V30 3293 N 313.357 1.07166 -1.15556 0
M  V30 3294 C 314.603 1.80065 -0.932984 0
M  V30 3295 C 314.936 1.86586 0.53845 0
M  V30 3296 O 314.211 1.35098 1.39924 0
M  V30 3297 C 314.494 3.25022 -1.55025 0
M  V30 3298 C 314.347 3.26634 -3.09242 0
M  V30 3299 C 315.666 4.22341 -1.2376 0
M  V30 3300 H 312.785 0.653697 -0.340366 0
M  V30 3301 H 315.427 1.25389 -1.4275 0
M  V30 3302 H 313.577 3.71712 -1.12972 0
M  V30 3303 H 315.249 2.88173 -3.60214 0
M  V30 3304 H 313.492 2.65539 -3.43033 0
M  V30 3305 H 314.163 4.28854 -3.47546 0
M  V30 3306 H 316.639 3.8405 -1.60139 0
M  V30 3307 H 315.515 5.22053 -1.69564 0
M  V30 3308 H 315.776 4.41828 -0.154938 0
M  V30 3309 N 314.835 0.952656 1.25548 0
M  V30 3310 C 316.06 0.623025 1.97821 0
M  V30 3311 C 316.485 -0.7976 1.70352 0
M  V30 3312 O 315.843 -1.53905 0.958283 0
M  V30 3313 C 315.891 0.885532 3.49558 0
M  V30 3314 O 314.995 -0.0366641 4.12384 0
M  V30 3315 H 314.336 0.237082 0.620232 0
M  V30 3316 H 316.866 1.27871 1.59719 0
M  V30 3317 H 316.876 0.811009 3.99858 0
M  V30 3318 H 315.551 1.92094 3.6888 0
M  V30 3319 H 314.128 0.0898954 3.72792 0
M  V30 3320 N 316.313 -1.40141 0.720998 0
M  V30 3321 C 317.543 -2.04798 0.27226 0
M  V30 3322 C 317.951 -1.54442 -1.09289 0
M  V30 3323 O 317.294 -0.698342 -1.69908 0
M  V30 3324 C 317.356 -3.59048 0.18027 0
M  V30 3325 C 317.02 -4.32317 1.48159 0
M  V30 3326 C 318.017 -4.59902 2.42458 0
M  V30 3327 C 315.702 -4.71125 1.74202 0
M  V30 3328 C 317.696 -5.25288 3.61042 0
M  V30 3329 C 315.383 -5.36242 2.93066 0
M  V30 3330 C 316.381 -5.63254 3.86308 0
M  V30 3331 O 316.069 -6.27024 5.03086 0
M  V30 3332 H 315.801 -0.665419 0.119139 0
M  V30 3333 H 318.355 -1.80436 0.981432 0
M  V30 3334 H 316.585 -3.82251 -0.58489 0
M  V30 3335 H 318.274 -4.05221 -0.234618 0
M  V30 3336 H 319.04 -4.30379 2.23604 0
M  V30 3337 H 314.919 -4.49466 1.02477 0
M  V30 3338 H 318.463 -5.46289 4.33837 0
M  V30 3339 H 314.36 -5.65185 3.11826 0
M  V30 3340 H 315.128 -6.4552 5.03235 0
M  V30 3341 N 317.792 -0.46758 -1.50504 0
M  V30 3342 C 319.039 0.0886219 -2.02306 0
M  V30 3343 C 319.367 1.40037 -1.34981 0
M  V30 3344 O 318.622 1.90136 -0.463318 0
M  V30 3345 C 318.921 0.323995 -3.55928 0
M  V30 3346 C 318.587 -0.905618 -4.41712 0
M  V30 3347 C 317.249 -1.24275 -4.64875 0
M  V30 3348 C 319.601 -1.72448 -4.91845 0
M  V30 3349 C 316.929 -2.39888 -5.35417 0
M  V30 3350 C 319.281 -2.87185 -5.63656 0
M  V30 3351 C 317.945 -3.21317 -5.85074 0
M  V30 3352 H 317.215 0.0324291 -0.74029 0
M  V30 3353 H 319.862 -0.620945 -1.81153 0
M  V30 3354 H 318.167 1.11577 -3.75577 0
M  V30 3355 H 319.864 0.76826 -3.93572 0
M  V30 3356 H 316.454 -0.632956 -4.239 0
M  V30 3357 H 320.638 -1.4772 -4.73806 0
M  V30 3358 H 315.894 -2.66611 -5.50208 0
M  V30 3359 H 320.068 -3.50985 -6.01484 0
M  V30 3360 H 317.695 -4.1101 -6.39511 0
M  V30 3361 N 319.27 1.56325 -0.20005 0
M  V30 3362 C 320.495 2.02548 0.44597 0
M  V30 3363 C 320.92 1.07922 1.5406 0
M  V30 3364 O 320.278 0.0635775 1.81188 0
M  V30 3365 C 320.326 3.47175 0.974761 0
M  V30 3366 O 319.43 3.55671 2.08739 0
M  V30 3367 H 318.771 0.655862 0.103638 0
M  V30 3368 H 321.301 2.02201 -0.312381 0
M  V30 3369 H 321.311 3.87067 1.2901 0
M  V30 3370 H 319.986 4.15538 0.17347 0
M  V30 3371 H 318.563 3.27657 1.78032 0
M  V30 3372 N 320.748 -0.0735177 1.57428 0
M  V30 3373 C 321.698 -1.09442 2.00016 0
M  V30 3374 C 322.682 -1.34575 0.881947 0
M  V30 3375 O 323.874 -1.34905 1.14585 0
M  V30 3376 C 321.003 -2.40865 2.4462 0
M  V30 3377 C 320.089 -2.19014 3.63172 0
M  V30 3378 N 320.48 -1.67087 4.77405 0
M  V30 3379 C 318.778 -2.49494 3.69688 0
M  V30 3380 C 319.479 -1.6001 5.5926 0
M  V30 3381 N 318.455 -2.05999 5.03056 0
M  V30 3382 H 322.257 -0.686227 2.85776 0
M  V30 3383 H 319.771 -0.280617 1.59957 0
M  V30 3384 H 321.768 -3.14763 2.73368 0
M  V30 3385 H 320.428 -2.82403 1.60246 0
M  V30 3386 H 321.439 -1.35975 4.99731 0
M  V30 3387 H 318.116 -2.94409 2.96023 0
M  V30 3388 H 319.506 -1.2073 6.60964 0
M  V30 3389 N 322.226 -1.5378 -0.344866 0
M  V30 3390 C 323.136 -1.84667 -1.4469 0
M  V30 3391 C 324.152 -0.736704 -1.57635 0
M  V30 3392 O 325.328 -1.02888 -1.73136 0
M  V30 3393 C 322.393 -2.04869 -2.79696 0
M  V30 3394 C 321.454 -3.28731 -2.76106 0
M  V30 3395 C 320.687 -3.4796 -4.04673 0
M  V30 3396 O 320.91 -2.71052 -5.01883 0
M  V30 3397 O 319.844 -4.41383 -4.09224 0
M  V30 3398 H 323.67 -2.78334 -1.21506 0
M  V30 3399 H 321.255 -1.39418 -0.536921 0
M  V30 3400 H 323.137 -2.19609 -3.59652 0
M  V30 3401 H 321.812 -1.14391 -3.02814 0
M  V30 3402 H 320.719 -3.19396 -1.94774 0
M  V30 3403 H 322.052 -4.19198 -2.57941 0
M  V30 3404 N 323.704 0.605807 -1.45491 0
M  V30 3405 C 324.634 1.72709 -1.57143 0
M  V30 3406 C 325.615 1.6476 -0.422884 0
M  V30 3407 O 326.8 1.83132 -0.646247 0
M  V30 3408 C 323.93 3.11316 -1.53948 0
M  V30 3409 C 322.884 3.34077 -2.67537 0
M  V30 3410 C 322.21 4.72975 -2.49397 0
M  V30 3411 C 323.51 3.24158 -4.09535 0
M  V30 3412 H 325.204 1.63214 -2.51001 0
M  V30 3413 H 322.75 0.78379 -1.208 0
M  V30 3414 H 324.703 3.89557 -1.60696 0
M  V30 3415 H 323.427 3.21655 -0.566205 0
M  V30 3416 H 322.086 2.58227 -2.6022 0
M  V30 3417 H 321.734 4.8005 -1.50205 0
M  V30 3418 H 321.434 4.8916 -3.25571 0
M  V30 3419 H 322.958 5.53414 -2.58002 0
M  V30 3420 H 324.372 3.92271 -4.18086 0
M  V30 3421 H 322.769 3.51872 -4.86113 0
M  V30 3422 H 323.839 2.2157 -4.31317 0
M  V30 3423 N 325.182 1.32811 0.848464 0
M  V30 3424 C 326.43 1.23479 1.59991 0
M  V30 3425 C 326.751 -0.201853 1.93952 0
M  V30 3426 O 326.021 -1.12818 1.60153 0
M  V30 3427 H 324.601 0.454034 0.593179 0
M  V30 3428 H 327.263 1.66412 1.01455 0
M  V30 3429 H 326.359 1.82178 2.53412 0
M  V30 3430 N 326.66 -1.06551 1.16123 0
M  V30 3431 C 327.907 -1.79302 0.941126 0
M  V30 3432 C 328.235 -1.87105 -0.531235 0
M  V30 3433 O 327.49 -1.35692 -1.41018 0
M  V30 3434 C 327.789 -3.23911 1.51052 0
M  V30 3435 C 327.455 -3.36193 3.00475 0
M  V30 3436 C 326.117 -3.39252 3.41265 0
M  V30 3437 C 328.469 -3.38326 3.96465 0
M  V30 3438 C 325.797 -3.42057 4.76669 0
M  V30 3439 C 328.149 -3.4267 5.31752 0
M  V30 3440 C 326.813 -3.4401 5.72026 0
M  V30 3441 H 326.083 -0.656111 0.344382 0
M  V30 3442 H 328.73 -1.25325 1.44796 0
M  V30 3443 H 327.035 -3.80723 0.925063 0
M  V30 3444 H 328.732 -3.78793 1.31593 0
M  V30 3445 H 325.322 -3.34516 2.6795 0
M  V30 3446 H 329.506 -3.35176 3.6602 0
M  V30 3447 H 324.762 -3.41398 5.07206 0
M  V30 3448 H 328.936 -3.43268 6.05921 0
M  V30 3449 H 326.563 -3.45937 6.76928 0
M  V30 3450 N 328.138 -0.959301 -1.25041 0
M  V30 3451 C 329.085 -0.482057 -2.2571 0
M  V30 3452 C 330.055 0.467939 -1.59372 0
M  V30 3453 O 331.24 0.380159 -1.86974 0
M  V30 3454 C 328.38 0.229623 -3.44335 0
M  V30 3455 C 327.493 -0.758156 -4.25295 0
M  V30 3456 C 326.628 -0.0234403 -5.31195 0
M  V30 3457 C 325.667 -1.00184 -6.03846 0
M  V30 3458 N 324.804 -0.29769 -7.01469 0
M  V30 3459 H 329.644 -1.34538 -2.65901 0
M  V30 3460 H 327.181 -0.674592 -1.3072 0
M  V30 3461 H 329.139 0.658856 -4.11965 0
M  V30 3462 H 327.769 1.05696 -3.05005 0
M  V30 3463 H 326.821 -1.30586 -3.57284 0
M  V30 3464 H 328.133 -1.50458 -4.75567 0
M  V30 3465 H 327.287 0.464201 -6.04922 0
M  V30 3466 H 326.026 0.755741 -4.81809 0
M  V30 3467 H 325.031 -1.50044 -5.2893 0
M  V30 3468 H 326.256 -1.78133 -6.55321 0
M  V30 3469 H 324.202 0.462668 -6.54366 0
M  V30 3470 H 324.119 -0.983128 -7.4958 0
M  V30 3471 H 325.387 0.16826 -7.79318 0
M  V30 3472 N 329.616 1.39756 -0.72842 0
M  V30 3473 C 330.862 2.00942 -0.273892 0
M  V30 3474 C 331.195 1.57656 1.13394 0
M  V30 3475 O 330.47 0.802434 1.77176 0
M  V30 3476 C 330.753 3.58211 -0.368346 0
M  V30 3477 C 330.606 4.11534 -1.81548 0
M  V30 3478 C 331.925 4.39372 0.253054 0
M  V30 3479 H 329.044 0.730047 -0.100996 0
M  V30 3480 H 331.686 1.66056 -0.923337 0
M  V30 3481 H 329.836 3.88061 0.184588 0
M  V30 3482 H 331.508 3.92431 -2.42478 0
M  V30 3483 H 329.751 3.65341 -2.33898 0
M  V30 3484 H 330.422 5.20682 -1.83288 0
M  V30 3485 H 332.898 4.15527 -0.218224 0
M  V30 3486 H 331.774 5.48677 0.156585 0
M  V30 3487 H 332.035 4.21358 1.33826 0
M  V30 3488 N 331.094 0.475555 1.50254 0
M  V30 3489 C 332.34 -0.0780073 2.0265 0
M  V30 3490 C 332.673 -1.38968 1.35652 0
M  V30 3491 O 331.948 -1.8839 0.483691 0
M  V30 3492 C 332.231 -0.257161 3.59181 0
M  V30 3493 C 332.084 1.07585 4.36744 0
M  V30 3494 C 333.403 -1.00965 4.28362 0
M  V30 3495 H 330.522 -0.0268758 0.73651 0
M  V30 3496 H 333.164 0.622015 1.7953 0
M  V30 3497 H 331.314 -0.853412 3.79011 0
M  V30 3498 H 332.986 1.70902 4.28474 0
M  V30 3499 H 331.229 1.6714 4.00308 0
M  V30 3500 H 331.9 0.904088 5.44546 0
M  V30 3501 H 334.376 -0.504214 4.13034 0
M  V30 3502 H 333.252 -1.10381 5.37687 0
M  V30 3503 H 333.513 -2.04731 3.91839 0
M  V30 3504 N 332.573 -1.56217 0.208337 0
M  V30 3505 C 333.503 -2.22694 -0.702116 0
M  V30 3506 C 334.484 -1.19432 -1.2112 0
M  V30 3507 O 335.669 -1.47978 -1.25762 0
M  V30 3508 C 332.799 -2.8966 -1.9161 0
M  V30 3509 C 331.753 -3.9928 -1.5414 0
M  V30 3510 C 331.079 -4.53476 -2.83308 0
M  V30 3511 C 332.379 -5.17012 -0.741339 0
M  V30 3512 H 334.073 -2.99034 -0.147898 0
M  V30 3513 H 331.619 -1.43831 -0.0696951 0
M  V30 3514 H 333.572 -3.34852 -2.55836 0
M  V30 3515 H 332.296 -2.10746 -2.49507 0
M  V30 3516 H 330.955 -3.54799 -0.922668 0
M  V30 3517 H 330.603 -3.71308 -3.39322 0
M  V30 3518 H 330.303 -5.27451 -2.58976 0
M  V30 3519 H 331.827 -5.01378 -3.485 0
M  V30 3520 H 333.241 -5.58667 -1.28699 0
M  V30 3521 H 331.638 -5.97137 -0.595627 0
M  V30 3522 H 332.708 -4.8423 0.254851 0
M  V30 3523 N 334.051 0.0651679 -1.57465 0
M  V30 3524 C 335.467 0.420105 -1.53972 0
M  V30 3525 C 335.667 1.78782 -0.929474 0
M  V30 3526 O 334.723 2.46771 -0.534839 0
M  V30 3527 C 336.036 0.355084 -2.98596 0
M  V30 3528 C 337.584 0.434792 -3.09965 0
M  V30 3529 C 338.059 0.399609 -4.56253 0
M  V30 3530 N 339.55 0.459488 -4.60915 0
M  V30 3531 C 340.285 0.454584 -5.71595 0
M  V30 3532 N 339.781 0.404102 -6.9162 0
M  V30 3533 N 341.574 0.501635 -5.59857 0
M  V30 3534 H 333.725 -0.830328 -1.95498 0
M  V30 3535 H 335.988 -0.312244 -0.895102 0
M  V30 3536 H 335.694 -0.583357 -3.46828 0
M  V30 3537 H 335.568 1.16275 -3.58831 0
M  V30 3538 H 337.955 1.36366 -2.61703 0
M  V30 3539 H 338.036 -0.40157 -2.52628 0
M  V30 3540 H 337.68 -0.525436 -5.05175 0
M  V30 3541 H 337.61 1.25359 -5.11461 0
M  V30 3542 H 340.101 0.502482 -3.74544 0
M  V30 3543 H 340.414 0.404468 -7.71741 0
M  V30 3544 H 338.759 0.37069 -6.94011 0
M  V30 3545 H 341.95 0.538812 -4.64989 0
M  V30 3546 H 342.123 0.494345 -6.46112 0
M  V30 3547 N 335.529 1.53961 0.336706 0
M  V30 3548 C 336.461 1.78751 1.4346 0
M  V30 3549 C 337.474 0.669019 1.48418 0
M  V30 3550 O 338.663 0.945884 1.51378 0
M  V30 3551 C 335.763 1.87844 2.82078 0
M  V30 3552 C 334.936 3.17854 3.00479 0
M  V30 3553 C 333.995 3.17816 4.19379 0
M  V30 3554 O 333.021 3.91511 4.13168 0
M  V30 3555 N 334.223 2.40669 5.2826 0
M  V30 3556 H 336.988 2.73493 1.22563 0
M  V30 3557 H 334.549 1.53096 0.526625 0
M  V30 3558 H 336.541 1.85261 3.59806 0
M  V30 3559 H 335.111 1.00257 2.96086 0
M  V30 3560 H 334.331 3.33504 2.10163 0
M  V30 3561 H 335.619 4.03718 3.0966 0
M  V30 3562 H 335.017 1.8036 5.36178 0
M  V30 3563 H 333.574 2.43877 6.04456 0
M  V30 3564 N 337.007 -0.598083 1.45811 0
M  V30 3565 C 338.284 -1.35777 1.40797 0
M  V30 3566 C 338.664 -2.10935 0.083462 0
M  V30 3567 O 338.012 -2.08505 -0.934763 0
M  V30 3568 C 338.222 -2.29666 2.62783 0
M  V30 3569 C 339.57 -2.91977 3.08277 0
M  V30 3570 O 340.594 -2.39984 2.63223 0
M  V30 3571 O 339.453 -3.86376 3.86491 0
M  V30 3572 H 336.547 -0.609291 0.55919 0
M  V30 3573 H 339.093 -0.620379 1.57954 0
M  V30 3574 H 337.865 -1.73454 3.50756 0
M  V30 3575 H 337.488 -3.1077 2.48008 0
M  V30 3576 N 338.485 -1.33259 -0.841409 0
M  V30 3577 C 339.432 -1.23302 -1.95103 0
M  V30 3578 C 340.402 -0.112204 -1.65721 0
M  V30 3579 O 341.587 -0.290038 -1.88583 0
M  V30 3580 C 338.727 -0.975583 -3.31023 0
M  V30 3581 C 337.84 -2.18243 -3.72819 0
M  V30 3582 C 336.975 -1.85936 -4.97595 0
M  V30 3583 C 336.014 -3.02866 -5.3192 0
M  V30 3584 N 335.151 -2.70565 -6.47873 0
M  V30 3585 H 339.991 -2.18207 -2.02952 0
M  V30 3586 H 337.528 -1.0851 -0.993173 0
M  V30 3587 H 339.486 -0.80677 -4.09325 0
M  V30 3588 H 338.116 -0.0632755 -3.22738 0
M  V30 3589 H 337.168 -2.46107 -2.90061 0
M  V30 3590 H 338.48 -3.05666 -3.94169 0
M  V30 3591 H 337.634 -1.65684 -5.83638 0
M  V30 3592 H 336.373 -0.957452 -4.78209 0
M  V30 3593 H 335.378 -3.23736 -4.44382 0
M  V30 3594 H 336.603 -3.93809 -5.53255 0
M  V30 3595 H 334.549 -1.8293 -6.29978 0
M  V30 3596 H 334.466 -3.51519 -6.69306 0
M  V30 3597 H 335.734 -2.53774 -7.37034 0
M  V30 3598 N 339.963 1.05934 -1.16686 0
M  V30 3599 C 340.873 2.17014 -0.891183 0
M  V30 3600 C 341.889 1.73453 0.137907 0
M  V30 3601 O 343.065 2.01361 -0.039592 0
M  V30 3602 C 340.13 3.44384 -0.400099 0
M  V30 3603 C 339.191 4.02433 -1.49486 0
M  V30 3604 C 338.424 5.23723 -1.02711 0
M  V30 3605 O 338.647 5.7027 0.121716 0
M  V30 3606 O 337.581 5.7382 -1.81699 0
M  V30 3607 H 341.407 2.43113 -1.82015 0
M  V30 3608 H 338.992 1.15541 -0.947132 0
M  V30 3609 H 340.874 4.21189 -0.133392 0
M  V30 3610 H 339.549 3.19802 0.500817 0
M  V30 3611 H 338.456 3.27102 -1.81535 0
M  V30 3612 H 339.789 4.31317 -2.37121 0
M  V30 3613 N 341.441 0.965919 1.2453 0
M  V30 3614 C 342.688 0.626831 1.92554 0
M  V30 3615 C 343.016 -0.837739 1.75534 0
M  V30 3616 O 342.271 -1.61793 1.10098 0
M  V30 3617 C 342.57 0.945428 3.44669 0
M  V30 3618 C 342.236 2.39785 3.81856 0
M  V30 3619 C 340.898 2.79483 3.91718 0
M  V30 3620 C 343.25 3.34055 4.00071 0
M  V30 3621 C 340.578 4.12496 4.1721 0
M  V30 3622 C 342.93 4.66694 4.27059 0
M  V30 3623 C 341.594 5.06172 4.3514 0
M  V30 3624 H 340.864 0.229374 0.704605 0
M  V30 3625 H 343.511 1.21707 1.4785 0
M  V30 3626 H 341.816 0.272926 3.90848 0
M  V30 3627 H 343.513 0.661484 3.95507 0
M  V30 3628 H 340.103 2.08003 3.74743 0
M  V30 3629 H 344.287 3.04571 3.91855 0
M  V30 3630 H 339.543 4.42709 4.21685 0
M  V30 3631 H 343.717 5.3971 4.40097 0
M  V30 3632 H 341.344 6.09262 4.54646 0
M  V30 3633 N 342.919 -1.39368 0.735821 0
M  V30 3634 C 343.851 -2.2913 0.0567723 0
M  V30 3635 C 344.864 -1.46859 -0.702589 0
M  V30 3636 O 346.053 -1.69925 -0.546616 0
M  V30 3637 C 343.153 -3.25492 -0.943823 0
M  V30 3638 C 342.326 -4.36709 -0.24581 0
M  V30 3639 C 341.385 -5.13376 -1.15463 0
M  V30 3640 O 340.411 -5.65683 -0.631803 0
M  V30 3641 N 341.613 -5.24656 -2.48427 0
M  V30 3642 H 344.378 -2.88047 0.827582 0
M  V30 3643 H 341.939 -1.50957 0.585112 0
M  V30 3644 H 343.931 -3.73657 -1.55443 0
M  V30 3645 H 342.501 -2.676 -1.61583 0
M  V30 3646 H 341.721 -3.9041 0.545286 0
M  V30 3647 H 343.009 -5.08244 0.237891 0
M  V30 3648 H 342.407 -4.83679 -2.93379 0
M  V30 3649 H 340.964 -5.76258 -3.04582 0
M  V30 3650 N 344.397 -0.483516 -1.5 0
M  V30 3651 C 345.674 0.129337 -1.95172 0
M  V30 3652 C 346.054 1.55802 -1.4244 0
M  V30 3653 O 345.402 2.19625 -0.630649 0
M  V30 3654 C 345.612 0.0599251 -3.48949 0
M  V30 3655 C 346.96 0.242617 -4.23906 0
M  V30 3656 O 347.984 0.135933 -3.55941 0
M  V30 3657 O 346.843 0.459454 -5.44565 0
M  V30 3658 H 343.937 0.104887 -0.820322 0
M  V30 3659 H 346.483 -0.544807 -1.60717 0
M  V30 3660 H 345.255 -0.937079 -3.79914 0
M  V30 3661 H 344.878 0.774984 -3.89974 0
M  V30 3662 N 345.875 1.56104 -0.216619 0
M  V30 3663 C 347.124 1.97348 0.416744 0
M  V30 3664 C 347.437 1.10715 1.6125 0
M  V30 3665 O 348.643 1.41836 2.31506 0
M  V30 3666 C 347.099 3.51059 0.792835 0
M  V30 3667 C 346.707 4.46387 -0.379828 0
M  V30 3668 C 348.451 4.01026 1.39208 0
M  V30 3669 C 346.358 5.91397 0.0184223 0
M  V30 3670 H 345.288 0.736942 0.159475 0
M  V30 3671 H 347.939 1.80827 -0.31205 0
M  V30 3672 H 346.321 3.63162 1.57891 0
M  V30 3673 H 347.495 4.46029 -1.15737 0
M  V30 3674 H 345.81 4.06734 -0.891979 0
M  V30 3675 H 348.407 5.0686 1.70286 0
M  V30 3676 H 348.75 3.46587 2.30614 0
M  V30 3677 H 349.283 3.92125 0.669537 0
M  V30 3678 H 346.022 6.49807 -0.862002 0
M  V30 3679 H 345.542 5.94961 0.760384 0
M  V30 3680 H 347.221 6.45455 0.446818 0
M  V30 3681 N 347.353 -0.0568162 1.57498 0
M  V30 3682 C 348.283 -1.06593 2.0775 0
M  V30 3683 C 349.264 -1.39448 0.974082 0
M  V30 3684 O 350.449 -1.48815 1.24771 0
M  V30 3685 C 347.579 -2.37509 2.5339 0
M  V30 3686 C 346.533 -2.1897 3.67745 0
M  V30 3687 C 345.859 -3.55402 3.99492 0
M  V30 3688 C 347.159 -1.59859 4.97235 0
M  V30 3689 H 348.853 -0.647706 2.9231 0
M  V30 3690 H 346.399 -0.310116 1.40621 0
M  V30 3691 H 348.352 -3.08409 2.87162 0
M  V30 3692 H 347.076 -2.8134 1.65878 0
M  V30 3693 H 345.735 -1.50508 3.3428 0
M  V30 3694 H 345.383 -3.9683 3.09088 0
M  V30 3695 H 345.083 -3.43831 4.76502 0
M  V30 3696 H 346.607 -4.27708 4.35773 0
M  V30 3697 H 348.021 -2.20642 5.29141 0
M  V30 3698 H 346.418 -1.58942 5.78669 0
M  V30 3699 H 347.488 -0.561506 4.81638 0
M  V30 3700 N 348.832 -1.54138 -0.328536 0
M  V30 3701 C 349.765 -1.78014 -1.4278 0
M  V30 3702 C 350.743 -0.629889 -1.49904 0
M  V30 3703 O 351.927 -0.866763 -1.6739 0
M  V30 3704 C 349.054 -1.89225 -2.80912 0
M  V30 3705 C 348.1 -3.11483 -2.91343 0
M  V30 3706 S 348.933 -4.70201 -2.56263 0
M  V30 3707 C 350.089 -4.84312 -3.96476 0
M  V30 3708 H 350.322 -2.70974 -1.22313 0
M  V30 3709 H 347.855 -1.45197 -0.525084 0
M  V30 3710 H 349.813 -1.9637 -3.60485 0
M  V30 3711 H 348.474 -0.972518 -2.98665 0
M  V30 3712 H 347.667 -3.16046 -3.92595 0
M  V30 3713 H 347.269 -3.02642 -2.19736 0
M  V30 3714 H 349.561 -4.66643 -4.91173 0
M  V30 3715 H 350.504 -5.86411 -3.96898 0
M  V30 3716 H 350.912 -4.12652 -3.85199 0
M  V30 3717 N 350.31 0.590341 -1.46126 0
M  V30 3718 C 351.587 1.35029 -1.41515 0
M  V30 3719 C 351.967 2.10888 -0.0946472 0
M  V30 3720 O 351.315 2.08998 0.923693 0
M  V30 3721 C 351.525 2.28269 -2.63997 0
M  V30 3722 C 352.873 2.90338 -3.09821 0
M  V30 3723 O 353.897 2.38585 -2.64492 0
M  V30 3724 O 352.756 3.84321 -3.88535 0
M  V30 3725 H 349.85 0.606317 -0.562413 0
M  V30 3726 H 352.396 0.611994 -1.58281 0
M  V30 3727 H 351.168 1.71591 -3.51671 0
M  V30 3728 H 350.791 3.0945 -2.49652 0
M  V30 3729 N 351.788 1.33704 0.83433 0
M  V30 3730 C 352.738 1.20899 1.93306 0
M  V30 3731 C 353.722 0.110783 1.60518 0
M  V30 3732 O 354.914 0.339331 1.73717 0
M  V30 3733 C 352.043 0.955018 3.29749 0
M  V30 3734 C 351.129 2.09587 3.68692 0
M  V30 3735 N 351.52 3.34621 3.79292 0
M  V30 3736 C 349.818 2.00358 3.98463 0
M  V30 3737 C 350.519 4.09472 4.13167 0
M  V30 3738 N 349.495 3.37954 4.25779 0
M  V30 3739 H 353.297 2.15665 1.99664 0
M  V30 3740 H 350.811 1.25777 1.02732 0
M  V30 3741 H 352.808 0.844208 4.08263 0
M  V30 3742 H 351.468 0.0159317 3.24696 0
M  V30 3743 H 352.479 3.69313 3.63082 0
M  V30 3744 H 349.156 1.14137 4.01596 0
M  V30 3745 H 350.546 5.17391 4.28668 0
M  V30 3746 N 353.266 -1.05314 1.17247 0
M  V30 3747 C 354.214 -2.15137 0.884238 0
M  V30 3748 C 355.208 -1.68729 -0.15063 0
M  V30 3749 O 356.414 -1.8 -0.00366673 0
M  V30 3750 H 352.789 -0.702471 0.2684 0
M  V30 3751 H 354.76 -2.36652 1.81764 0
M  V30 3752 C 353.509 -3.45243 0.412659 0
M  V30 3753 H 352.832 -3.81352 1.20043 0
M  V30 3754 H 354.272 -4.23263 0.249858 0
M  V30 3755 C 352.731 -3.25487 -0.86948 0
M  V30 3756 O 353.261 -3.51938 -1.93655 0
M  V30 3757 N 351.467 -2.78875 -0.817147 0
M  V30 3758 H 351.014 -2.57549 0.0514211 0
M  V30 3759 H 350.972 -2.66036 -1.67547 0
M  V30 3760 N 354.744 -0.972509 -1.24016 0
M  V30 3761 C 356.16 -0.679827 -1.44397 0
M  V30 3762 C 356.36 0.756716 -1.86751 0
M  V30 3763 O 355.416 1.53007 -2.00861 0
M  V30 3764 C 356.729 -1.66803 -2.50195 0
M  V30 3765 C 358.277 -1.68119 -2.64017 0
M  V30 3766 C 358.752 -2.65748 -3.73017 0
M  V30 3767 N 360.243 -2.64219 -3.8045 0
M  V30 3768 C 360.978 -3.36433 -4.64328 0
M  V30 3769 N 360.474 -4.1818 -5.52356 0
M  V30 3770 N 362.267 -3.25235 -4.58453 0
M  V30 3771 H 354.418 -1.90059 -0.948228 0
M  V30 3772 H 356.681 -0.818527 -0.478245 0
M  V30 3773 H 356.387 -2.69498 -2.25973 0
M  V30 3774 H 356.261 -1.4446 -3.48441 0
M  V30 3775 H 358.648 -0.661319 -2.87594 0
M  V30 3776 H 358.729 -1.94525 -1.66113 0
M  V30 3777 H 358.373 -3.67872 -3.50189 0
M  V30 3778 H 358.303 -2.36619 -4.70446 0
M  V30 3779 H 360.794 -2.04887 -3.17537 0
M  V30 3780 H 361.107 -4.70157 -6.13329 0
M  V30 3781 H 359.452 -4.22273 -5.52006 0
M  V30 3782 H 362.643 -2.60829 -3.88698 0
M  V30 3783 H 362.816 -3.81776 -5.23594 0
M  V30 3784 N 356.222 1.38976 -0.743202 0
M  V30 3785 C 357.169 2.30544 -0.10861 0
M  V30 3786 C 358.139 1.49642 0.720869 0
M  V30 3787 O 359.324 1.78304 0.679142 0
M  V30 3788 C 356.464 3.36018 0.786496 0
M  V30 3789 C 355.577 4.31963 -0.0564849 0
M  V30 3790 C 354.712 5.24506 0.840657 0
M  V30 3791 C 353.751 6.121 -0.00658363 0
M  V30 3792 N 352.888 6.96973 0.846943 0
M  V30 3793 H 357.728 2.8424 -0.895088 0
M  V30 3794 H 355.265 1.3995 -0.453048 0
M  V30 3795 H 357.223 3.95768 1.31999 0
M  V30 3796 H 355.853 2.83758 1.53887 0
M  V30 3797 H 354.905 3.73763 -0.707492 0
M  V30 3798 H 356.217 4.93703 -0.711229 0
M  V30 3799 H 355.371 5.89322 1.4417 0
M  V30 3800 H 354.11 4.63107 1.52916 0
M  V30 3801 H 353.115 5.46289 -0.620366 0
M  V30 3802 H 354.34 6.75565 -0.691992 0
M  V30 3803 H 352.286 6.38133 1.52059 0
M  V30 3804 H 352.203 7.5559 0.248864 0
M  V30 3805 H 353.471 7.6621 1.43328 0
M  V30 3806 N 357.7 0.491464 1.49741 0
M  V30 3807 C 358.925 -0.0557177 2.07325 0
M  V30 3808 C 359.35 -1.30925 1.35056 0
M  V30 3809 O 358.708 -1.76733 0.404365 0
M  V30 3810 C 358.756 -0.302074 3.59333 0
M  V30 3811 O 357.86 -1.37868 3.88672 0
M  V30 3812 H 357.201 0.0219956 0.663636 0
M  V30 3813 H 359.731 0.688352 1.92673 0
M  V30 3814 H 359.741 -0.536464 4.04458 0
M  V30 3815 H 358.416 0.61383 4.11345 0
M  V30 3816 H 356.993 -1.12999 3.55367 0
M  V30 3817 N 359.178 -1.55987 0.224894 0
M  V30 3818 C 360.126 -2.21808 -0.700283 0
M  V30 3819 C 361.12 -1.19854 -1.19714 0
M  V30 3820 O 362.326 -1.37925 -1.15658 0
M  V30 3821 H 358.701 -0.711226 -0.244258 0
M  V30 3822 H 360.672 -2.98152 -0.121749 0
M  V30 3823 C 359.421 -2.91444 -1.8962 0
M  V30 3824 H 358.744 -3.69655 -1.52299 0
M  V30 3825 H 360.184 -3.40894 -2.52125 0
M  V30 3826 C 358.643 -1.94098 -2.75368 0
M  V30 3827 O 359.173 -1.46004 -3.74227 0
M  V30 3828 N 357.379 -1.61675 -2.41474 0
M  V30 3829 H 356.926 -2.00979 -1.61137 0
M  V30 3830 H 356.884 -0.968036 -2.99126 0
M  V30 3831 N 360.656 0.0484629 -1.57525 0
M  V30 3832 C 361.902 0.744226 -1.88651 0
M  V30 3833 C 362.235 1.76029 -0.820212 0
M  V30 3834 O 361.51 1.93782 0.166985 0
M  V30 3835 C 361.793 1.43128 -3.30434 0
M  V30 3836 C 361.646 0.43005 -4.47739 0
M  V30 3837 C 362.965 2.37031 -3.70816 0
M  V30 3838 H 360.084 0.269089 -0.68612 0
M  V30 3839 H 362.726 0.00713532 -1.89999 0
M  V30 3840 H 360.876 2.05956 -3.29415 0
M  V30 3841 H 362.548 -0.194816 -4.60888 0
M  V30 3842 H 360.791 -0.252522 -4.33064 0
M  V30 3843 H 361.462 0.948874 -5.43783 0
M  V30 3844 H 363.938 1.84263 -3.73077 0
M  V30 3845 H 362.814 2.82094 -4.70865 0
M  V30 3846 H 363.075 3.22864 -3.02012 0
M  V30 3847 N 362.134 1.5431 0.320358 0
M  V30 3848 C 363.383 1.7188 1.05546 0
M  V30 3849 C 363.696 0.501143 1.89071 0
M  V30 3850 O 364.902 0.558258 2.65699 0
M  V30 3851 C 363.358 3.04025 1.92605 0
M  V30 3852 C 362.966 4.33207 1.14176 0
M  V30 3853 C 364.71 3.30959 2.65832 0
M  V30 3854 C 362.617 5.56412 2.00399 0
M  V30 3855 H 361.547 0.640547 0.397763 0
M  V30 3856 H 364.198 1.80802 0.313522 0
M  V30 3857 H 362.58 2.89019 2.7071 0
M  V30 3858 H 363.754 4.58989 0.40819 0
M  V30 3859 H 362.069 4.13062 0.526165 0
M  V30 3860 H 364.666 4.20203 3.30656 0
M  V30 3861 H 365.009 2.48979 3.33639 0
M  V30 3862 H 365.542 3.46847 1.94787 0
M  V30 3863 H 362.281 6.41004 1.37094 0
M  V30 3864 H 361.801 5.34844 2.7148 0
M  V30 3865 H 363.48 5.92938 2.58908 0
M  V30 3866 N 363.613 -0.582584 1.46437 0
M  V30 3867 C 364.862 -1.337 1.5102 0
M  V30 3868 C 365.175 -1.94891 0.166359 0
M  V30 3869 O 366.381 -2.71351 0.0899954 0
M  V30 3870 C 364.837 -2.42315 2.66104 0
M  V30 3871 C 364.445 -1.87427 4.06909 0
M  V30 3872 C 366.189 -3.19099 2.79958 0
M  V30 3873 C 364.096 -2.93672 5.13333 0
M  V30 3874 H 363.026 -0.502619 0.562041 0
M  V30 3875 H 365.677 -0.621701 1.72647 0
M  V30 3876 H 364.059 -3.16645 2.37807 0
M  V30 3877 H 365.233 -1.19639 4.44998 0
M  V30 3878 H 363.548 -1.2331 3.97723 0
M  V30 3879 H 366.145 -3.9839 3.56636 0
M  V30 3880 H 366.488 -3.71695 1.87479 0
M  V30 3881 H 367.021 -2.51875 3.07902 0
M  V30 3882 H 363.76 -2.45962 6.07604 0
M  V30 3883 H 363.28 -3.59948 4.79789 0
M  V30 3884 H 364.959 -3.5762 5.39182 0
M  V30 3885 N 365.091 -1.34144 -0.827227 0
M  V30 3886 C 366.024 -1.19707 -1.94282 0
M  V30 3887 C 367.002 -0.0897256 -1.62352 0
M  V30 3888 O 368.186 -0.254095 -1.8678 0
M  V30 3889 C 365.313 -0.838646 -3.28153 0
M  V30 3890 C 364.359 -1.95514 -3.79047 0
M  V30 3891 S 365.192 -3.56793 -3.99323 0
M  V30 3892 C 366.348 -3.22983 -5.36127 0
M  V30 3893 H 366.581 -2.1414 -2.06231 0
M  V30 3894 H 364.114 -1.19121 -0.982321 0
M  V30 3895 H 366.072 -0.638637 -4.05502 0
M  V30 3896 H 364.733 0.0872776 -3.13979 0
M  V30 3897 H 363.926 -1.658 -4.75948 0
M  V30 3898 H 363.528 -2.11241 -3.08631 0
M  V30 3899 H 365.82 -2.74531 -6.19386 0
M  V30 3900 H 366.763 -4.19008 -5.70822 0
M  V30 3901 H 367.171 -2.59276 -5.01434 0
M  V30 3902 N 366.569 1.04691 -1.17803 0
M  V30 3903 C 367.809 1.79352 -0.980423 0
M  V30 3904 C 368.173 1.85853 0.481958 0
M  V30 3905 O 369.374 2.56656 0.798809 0
M  V30 3906 C 367.645 3.19088 -1.6099 0
M  V30 3907 S 369.204 4.10164 -1.55918 0
M  V30 3908 H 366.022 0.617631 -0.352211 0
M  V30 3909 H 368.624 1.25575 -1.49837 0
M  V30 3910 H 367.328 3.11962 -2.66661 0
M  V30 3911 H 366.859 3.77941 -1.09197 0
M  V30 3912 H 368.874 4.92907 -0.570685 0
M  V30 3913 N 368.047 0.979072 1.23499 0
M  V30 3914 C 369.295 0.645941 1.91499 0
M  V30 3915 C 369.616 -0.822948 1.76784 0
M  V30 3916 O 368.886 -1.58854 1.14639 0
M  V30 3917 H 367.466 0.235919 0.708767 0
M  V30 3918 H 370.128 1.2426 1.50152 0
M  V30 3919 H 369.224 0.896411 2.9895 0
M  V30 3920 N 369.525 -1.3858 0.750561 0
M  V30 3921 C 370.773 -1.99789 0.30477 0
M  V30 3922 C 371.094 -1.59874 -1.11649 0
M  V30 3923 O 370.364 -0.85417 -1.76297 0
M  V30 3924 H 368.944 -0.738902 0.109694 0
M  V30 3925 H 371.606 -1.69391 0.963983 0
M  V30 3926 H 370.702 -3.09952 0.365499 0
M  V30 3927 N 371.003 -0.499398 -1.49478 0
M  V30 3928 C 372.414 -0.051215 -1.8663 0
M  V30 3929 C 372.765 1.36238 -1.41186 0
M  V30 3930 O 371.89 2.01502 -0.789051 0
M  V30 3931 C 372.485 -0.0861651 -3.3869 0
M  V30 3932 C 371.044 0.30667 -3.75149 0
M  V30 3933 C 370.191 -0.459397 -2.73468 0
M  V30 3934 H 373.142 -0.712264 -1.41818 0
M  V30 3935 H 373.163 0.709507 -3.73826 0
M  V30 3936 H 372.675 -1.11512 -3.71735 0
M  V30 3937 H 370.776 1.33892 -3.47712 0
M  V30 3938 H 370.889 -0.0116669 -4.79099 0
M  V30 3939 H 369.253 0.0905645 -2.54539 0
M  V30 3940 H 370.036 -1.4884 -3.09357 0
M  V30 3941 N 372.481 1.55866 -0.233164 0
M  V30 3942 C 373.391 2.24431 0.683217 0
M  V30 3943 C 374.407 1.2558 1.2044 0
M  V30 3944 O 375.583 1.58422 1.24356 0
M  V30 3945 C 372.648 2.91979 1.86947 0
M  V30 3946 C 371.709 4.06204 1.38912 0
M  V30 3947 C 370.942 4.70522 2.51883 0
M  V30 3948 O 371.165 4.33865 3.70293 0
M  V30 3949 O 370.099 5.59296 2.22423 0
M  V30 3950 H 373.925 3.03426 0.129059 0
M  V30 3951 H 371.51 1.494 -0.0022283 0
M  V30 3952 H 373.392 3.34573 2.56201 0
M  V30 3953 H 372.067 2.15935 2.41151 0
M  V30 3954 H 370.974 3.68155 0.664259 0
M  V30 3955 H 372.307 4.84025 0.893328 0
M  V30 3956 N 373.959 -0.0401083 1.57549 0
M  V30 3957 C 375.206 -0.733125 1.88763 0
M  V30 3958 C 375.534 -1.75946 0.829058 0
M  V30 3959 O 374.789 -1.94949 -0.171323 0
M  V30 3960 C 375.088 -1.44902 3.26708 0
M  V30 3961 C 374.754 -0.559707 4.47413 0
M  V30 3962 C 373.416 -0.314731 4.8017 0
M  V30 3963 C 375.768 0.0549743 5.21171 0
M  V30 3964 C 373.096 0.553886 5.8408 0
M  V30 3965 C 375.448 0.911229 6.26003 0
M  V30 3966 C 374.112 1.16577 6.57241 0
M  V30 3967 H 373.382 -0.268269 0.690733 0
M  V30 3968 H 376.029 0.00679408 1.91499 0
M  V30 3969 H 374.334 -2.26197 3.1991 0
M  V30 3970 H 376.031 -1.99058 3.48105 0
M  V30 3971 H 372.621 -0.760793 4.21794 0
M  V30 3972 H 376.805 -0.121344 4.96152 0
M  V30 3973 H 372.061 0.759518 6.06664 0
M  V30 3974 H 376.235 1.3941 6.82303 0
M  V30 3975 H 373.862 1.84058 7.37582 0
M  V30 3976 N 375.437 -1.54477 -0.31217 0
M  V30 3977 C 376.367 -1.87652 -1.38957 0
M  V30 3978 C 377.348 -0.734358 -1.53431 0
M  V30 3979 O 378.533 -0.98911 -1.67123 0
M  V30 3980 C 375.663 -2.11396 -2.75552 0
M  V30 3981 C 374.617 -3.27243 -2.75855 0
M  V30 3982 C 373.943 -3.36382 -4.15633 0
M  V30 3983 C 375.243 -4.64622 -2.38587 0
M  V30 3984 H 376.937 -2.77887 -1.11442 0
M  V30 3985 H 374.483 -1.33707 -0.534655 0
M  V30 3986 H 376.436 -2.33189 -3.51 0
M  V30 3987 H 375.16 -1.17921 -3.04569 0
M  V30 3988 H 373.819 -3.05356 -2.02863 0
M  V30 3989 H 373.467 -2.40445 -4.41809 0
M  V30 3990 H 373.167 -4.14249 -4.1674 0
M  V30 3991 H 374.691 -3.60422 -4.92877 0
M  V30 3992 H 376.105 -4.86219 -3.03749 0
M  V30 3993 H 374.502 -5.45121 -2.50925 0
M  V30 3994 H 375.572 -4.66097 -1.33723 0
M  V30 3995 N 376.915 0.57481 -1.46744 0
M  V30 3996 C 378.145 1.35659 -1.55821 0
M  V30 3997 C 378.553 1.88129 -0.201036 0
M  V30 3998 O 377.896 1.64723 0.813134 0
M  V30 3999 C 377.958 2.57473 -2.50894 0
M  V30 4000 C 377.622 2.26415 -3.9697 0
M  V30 4001 C 378.619 1.84771 -4.85958 0
M  V30 4002 C 376.304 2.38316 -4.42166 0
M  V30 4003 C 378.298 1.55434 -6.18158 0
M  V30 4004 C 375.985 2.08591 -5.74398 0
M  V30 4005 C 376.983 1.67216 -6.62214 0
M  V30 4006 O 376.671 1.37859 -7.91991 0
M  V30 4007 H 376.403 0.420496 -0.529301 0
M  V30 4008 H 378.957 0.704967 -1.92923 0
M  V30 4009 H 377.187 3.25468 -2.08824 0
M  V30 4010 H 378.876 3.19546 -2.50291 0
M  V30 4011 H 379.642 1.75085 -4.52295 0
M  V30 4012 H 375.521 2.69483 -3.74032 0
M  V30 4013 H 379.065 1.23065 -6.86659 0
M  V30 4014 H 374.962 2.17905 -6.07608 0
M  V30 4015 H 375.73 1.51638 -8.04331 0
M  V30 4016 N 378.394 1.34581 0.820102 0
M  V30 4017 C 379.341 1.2639 1.93117 0
M  V30 4018 C 380.311 0.138554 1.65521 0
M  V30 4019 O 381.496 0.320004 1.88097 0
M  V30 4020 C 378.636 1.02812 3.29429 0
M  V30 4021 C 377.749 2.24146 3.693 0
M  V30 4022 C 376.884 1.93829 4.94574 0
M  V30 4023 C 375.923 3.1129 5.27034 0
M  V30 4024 N 375.06 2.80838 6.43486 0
M  V30 4025 H 379.9 2.21408 1.99455 0
M  V30 4026 H 377.437 1.10077 0.975784 0
M  V30 4027 H 379.395 0.871788 4.0799 0
M  V30 4028 H 378.025 0.114612 3.22596 0
M  V30 4029 H 377.077 2.50691 2.86109 0
M  V30 4030 H 378.389 3.11899 3.89257 0
M  V30 4031 H 377.543 1.74948 5.80929 0
M  V30 4032 H 376.282 1.03341 4.76626 0
M  V30 4033 H 375.287 3.30764 4.39175 0
M  V30 4034 H 376.512 4.02561 5.4692 0
M  V30 4035 H 374.458 1.92929 6.26988 0
M  V30 4036 H 374.375 3.62123 6.63629 0
M  V30 4037 H 375.643 2.65467 7.32903 0
M  V30 4038 N 379.872 -1.04064 1.18357 0
M  V30 4039 C 380.802 -2.14001 0.934113 0
M  V30 4040 C 381.783 -1.69616 -0.128186 0
M  V30 4041 O 382.968 -1.94185 0.0244093 0
M  V30 4042 C 380.098 -3.44253 0.459066 0
M  V30 4043 C 379.052 -4.02261 1.46185 0
M  V30 4044 C 378.378 -5.27992 0.844322 0
M  V30 4045 C 379.678 -4.38432 2.83856 0
M  V30 4046 H 381.372 -2.35127 1.85352 0
M  V30 4047 H 378.918 -1.12998 0.892604 0
M  V30 4048 H 380.871 -4.20522 0.271907 0
M  V30 4049 H 379.595 -3.22813 -0.495912 0
M  V30 4050 H 378.254 -3.28074 1.63595 0
M  V30 4051 H 377.902 -5.02862 -0.117845 0
M  V30 4052 H 377.602 -5.67765 1.51384 0
M  V30 4053 H 379.126 -6.06938 0.667693 0
M  V30 4054 H 380.54 -5.05688 2.70098 0
M  V30 4055 H 378.937 -4.89254 3.47491 0
M  V30 4056 H 380.007 -3.4826 3.37406 0
M  V30 4057 N 381.35 -0.985608 -1.22978 0
M  V30 4058 C 382.297 -0.529825 -2.24636 0
M  V30 4059 C 383.267 0.434028 -1.60329 0
M  V30 4060 O 384.452 0.340414 -1.87739 0
M  V30 4061 C 381.592 0.156533 -3.44745 0
M  V30 4062 C 380.705 -0.848197 -4.23591 0
M  V30 4063 C 379.84 -0.136109 -5.31026 0
M  V30 4064 C 378.879 -1.1297 -6.01585 0
M  V30 4065 N 378.016 -0.446415 -7.00679 0
M  V30 4066 H 382.856 -1.40148 -2.62988 0
M  V30 4067 H 380.393 -0.702168 -1.29259 0
M  V30 4068 H 382.351 0.571324 -4.1327 0
M  V30 4069 H 380.981 0.992025 -3.07179 0
M  V30 4070 H 380.033 -1.38135 -3.54433 0
M  V30 4071 H 381.345 -1.60512 -4.72268 0
M  V30 4072 H 380.499 0.335784 -6.0577 0
M  V30 4073 H 379.238 0.653373 -4.83304 0
M  V30 4074 H 378.243 -1.6123 -5.25628 0
M  V30 4075 H 379.468 -1.91993 -6.51395 0
M  V30 4076 H 377.414 0.323763 -6.55201 0
M  V30 4077 H 377.331 -1.1419 -7.47326 0
M  V30 4078 H 378.599 0.00291697 -7.795 0
M  V30 4079 N 382.828 1.3818 -0.7579 0
M  V30 4080 C 384.076 1.99624 -0.315361 0
M  V30 4081 C 384.397 1.60464 1.10799 0
M  V30 4082 O 383.667 0.863507 1.75842 0
M  V30 4083 H 382.247 0.73831 -0.113611 0
M  V30 4084 H 384.909 1.68878 -0.972952 0
M  V30 4085 H 384.005 3.09754 -0.381931 0
M  V30 4086 N 384.306 0.507319 1.49211 0
M  V30 4087 C 385.583 -0.0982702 1.95353 0
M  V30 4088 C 385.963 -1.53516 1.449 0
M  V30 4089 O 385.311 -2.18594 0.66551 0
M  V30 4090 C 385.521 -0.00440283 3.49 0
M  V30 4091 C 386.869 -0.175147 4.24239 0
M  V30 4092 O 387.893 -0.0792891 3.56112 0
M  V30 4093 O 386.752 -0.37276 5.45227 0
M  V30 4094 H 383.846 -0.0918236 0.821887 0
M  V30 4095 H 386.392 0.570307 1.5983 0
M  V30 4096 H 385.164 0.997402 3.78375 0
M  V30 4097 H 384.787 -0.712845 3.91158 0
M  V30 4098 N 385.784 -1.5574 0.241426 0
M  V30 4099 C 387.2 -1.59196 -0.113548 0
M  V30 4100 C 387.4 -1.25852 -1.57364 0
M  V30 4101 O 386.456 -1.00322 -2.31715 0
M  V30 4102 C 387.769 -2.99814 0.230695 0
M  V30 4103 C 389.317 -3.12513 0.174547 0
M  V30 4104 C 389.792 -4.55342 0.492744 0
M  V30 4105 N 391.283 -4.61076 0.443043 0
M  V30 4106 C 392.018 -5.6956 0.662484 0
M  V30 4107 N 391.514 -6.86328 0.944761 0
M  V30 4108 N 393.307 -5.58957 0.593564 0
M  V30 4109 H 385.458 -1.75685 1.19368 0
M  V30 4110 H 387.721 -0.81756 0.479896 0
M  V30 4111 H 387.427 -3.28932 1.24485 0
M  V30 4112 H 387.301 -3.74568 -0.444833 0
M  V30 4113 H 389.688 -2.83179 -0.830277 0
M  V30 4114 H 389.769 -2.40045 0.883845 0
M  V30 4115 H 389.413 -4.85396 1.4951 0
M  V30 4116 H 389.343 -5.26062 -0.23797 0
M  V30 4117 H 391.834 -3.77179 0.233374 0
M  V30 4118 H 392.147 -7.64935 1.09977 0
M  V30 4119 H 390.492 -6.88025 0.982175 0
M  V30 4120 H 393.683 -4.66611 0.373123 0
M  V30 4121 H 393.856 -6.43433 0.767981 0
M  V30 4122 N 387.262 0.0317525 -1.57568 0
M  V30 4123 C 388.225 1.01783 -2.0536 0
M  V30 4124 C 389.225 1.29203 -0.957253 0
M  V30 4125 O 390.415 1.24251 -1.22095 0
M  V30 4126 C 387.547 2.35137 -2.46827 0
M  V30 4127 H 388.74 0.605062 -2.93733 0
M  V30 4128 H 386.293 0.278514 -1.53799 0
M  V30 4129 H 387.028 2.81168 -1.61602 0
M  V30 4130 H 386.813 2.16566 -3.26866 0
M  V30 4131 H 388.303 3.05938 -2.84239 0
M  V30 4132 N 388.74 1.54641 0.303973 0
M  V30 4133 C 389.986 1.74038 1.04109 0
M  V30 4134 C 390.319 0.523051 1.87024 0
M  V30 4135 O 389.594 -0.479874 1.88487 0
M  V30 4136 C 389.877 3.02761 1.94955 0
M  V30 4137 C 389.73 4.34787 1.1524 0
M  V30 4138 C 391.049 3.27336 2.94175 0
M  V30 4139 H 388.168 0.63323 0.377079 0
M  V30 4140 H 390.81 1.87354 0.316001 0
M  V30 4141 H 388.96 2.9154 2.56782 0
M  V30 4142 H 390.632 4.57922 0.557236 0
M  V30 4143 H 388.875 4.31407 0.455053 0
M  V30 4144 H 389.546 5.21116 1.8205 0
M  V30 4145 H 392.022 3.38148 2.42477 0
M  V30 4146 H 390.898 4.18726 3.54908 0
M  V30 4147 H 391.159 2.45491 3.67677 0
M  V30 4148 N 390.218 -0.567019 1.47046 0
M  V30 4149 C 391.181 -1.65696 1.58359 0
M  V30 4150 C 392.181 -1.54097 0.459441 0
M  V30 4151 O 393.371 -1.58432 0.724225 0
M  V30 4152 C 390.503 -3.05197 1.51879 0
M  V30 4153 H 391.696 -1.57019 2.5551 0
M  V30 4154 H 389.249 -0.786148 1.3509 0
M  V30 4155 H 389.984 -3.19417 0.560673 0
M  V30 4156 H 389.769 -3.15025 2.33455 0
M  V30 4157 H 391.259 -3.84511 1.62913 0
M  V30 4158 N 391.696 -1.35014 -0.812953 0
M  V30 4159 C 392.606 -1.2951 -1.95613 0
M  V30 4160 C 393.622 -0.20107 -1.72834 0
M  V30 4161 O 394.798 -0.42932 -1.96771 0
M  V30 4162 C 391.863 -1.06033 -3.30088 0
M  V30 4163 C 390.924 -2.24688 -3.65805 0
M  V30 4164 C 390.157 -2.02322 -4.93864 0
M  V30 4165 O 390.38 -0.986464 -5.61805 0
M  V30 4166 O 389.314 -2.89525 -5.27692 0
M  V30 4167 H 393.14 -2.25705 -2.03202 0
M  V30 4168 H 390.725 -1.15321 -0.949811 0
M  V30 4169 H 392.607 -0.94763 -4.10607 0
M  V30 4170 H 391.282 -0.128852 -3.23443 0
M  V30 4171 H 390.189 -2.41521 -2.85689 0
M  V30 4172 H 391.522 -3.16261 -3.77147 0
M  V30 4173 N 393.175 1.03435 -1.18907 0
M  V30 4174 C 394.452 1.73778 -0.89781 0
M  V30 4175 C 394.832 2.02458 0.597832 0
M  V30 4176 O 394.18 1.67482 1.55441 0
M  V30 4177 C 394.39 3.01845 -1.75187 0
M  V30 4178 C 395.738 3.7546 -1.9828 0
M  V30 4179 O 396.762 3.11759 -1.72293 0
M  V30 4180 O 395.621 4.89966 -2.42065 0
M  V30 4181 H 392.715 0.75651 -0.334098 0
M  V30 4182 H 395.261 1.09444 -1.29693 0
M  V30 4183 H 394.033 2.76836 -2.76545 0
M  V30 4184 H 393.656 3.73919 -1.35167 0
M  V30 4185 N 394.653 0.992116 1.22453 0
M  V30 4186 C 395.902 0.662992 1.90492 0
M  V30 4187 C 396.215 -0.808407 1.78113 0
M  V30 4188 O 397.421 -1.24908 2.41061 0
M  V30 4189 C 395.877 1.1353 3.41524 0
M  V30 4190 C 395.485 2.63187 3.62542 0
M  V30 4191 C 397.229 0.880465 4.15269 0
M  V30 4192 C 395.136 3.04024 5.0727 0
M  V30 4193 H 394.066 0.244278 0.713333 0
M  V30 4194 H 396.717 1.20157 1.38688 0
M  V30 4195 H 395.099 0.52485 3.92506 0
M  V30 4196 H 396.273 3.2957 3.22056 0
M  V30 4197 H 394.588 2.86543 3.02129 0
M  V30 4198 H 397.185 1.16128 5.21937 0
M  V30 4199 H 397.528 -0.183408 4.15896 0
M  V30 4200 H 398.061 1.45307 3.70312 0
M  V30 4201 H 394.8 4.09584 5.11782 0
M  V30 4202 H 394.32 2.42343 5.48662 0
M  V30 4203 H 395.999 2.95282 5.75689 0
M  V30 4204 N 396.131 -1.37776 0.765217 0
M  V30 4205 C 397.377 -2.00145 0.327072 0
M  V30 4206 C 397.71 -1.60607 -1.09175 0
M  V30 4207 O 396.985 -0.849127 -1.74986 0
M  V30 4208 C 397.268 -3.57109 0.46319 0
M  V30 4209 C 397.121 -4.06576 1.92395 0
M  V30 4210 C 398.44 -4.39888 -0.136473 0
M  V30 4211 H 395.559 -0.727113 0.120316 0
M  V30 4212 H 398.201 -1.63549 0.967039 0
M  V30 4213 H 396.351 -3.88414 -0.0816358 0
M  V30 4214 H 398.023 -3.85864 2.52798 0
M  V30 4215 H 396.266 -3.59011 2.43503 0
M  V30 4216 H 396.937 -5.15639 1.97028 0
M  V30 4217 H 399.413 -4.14803 0.328317 0
M  V30 4218 H 398.289 -5.48899 -0.0110582 0
M  V30 4219 H 398.55 -4.24758 -1.22608 0
M  V30 4220 N 397.609 -0.515225 -1.4894 0
M  V30 4221 C 398.858 0.0261361 -2.01683 0
M  V30 4222 C 399.171 1.36719 -1.39883 0
M  V30 4223 O 400.377 1.99606 -1.84037 0
M  V30 4224 C 398.833 0.0970111 -3.59769 0
M  V30 4225 C 398.441 -1.23825 -4.30548 0
M  V30 4226 C 400.185 0.587981 -4.20408 0
M  V30 4227 C 398.092 -1.12877 -5.80528 0
M  V30 4228 H 397.022 0.0135398 -0.753878 0
M  V30 4229 H 399.673 -0.656787 -1.71343 0
M  V30 4230 H 398.055 0.844694 -3.86886 0
M  V30 4231 H 399.229 -2.00034 -4.15118 0
M  V30 4232 H 397.544 -1.66379 -3.81716 0
M  V30 4233 H 400.141 0.68763 -5.3026 0
M  V30 4234 H 400.484 1.59026 -3.84729 0
M  V30 4235 H 401.017 -0.103582 -3.97665 0
M  V30 4236 H 397.756 -2.10575 -6.20756 0
M  V30 4237 H 397.276 -0.407799 -5.98412 0
M  V30 4238 H 398.955 -0.813332 -6.41868 0
M  V30 4239 N 399.087 1.5561 -0.249682 0
M  V30 4240 C 400.336 1.98187 0.37479 0
M  V30 4241 C 400.649 1.14111 1.58865 0
M  V30 4242 O 401.855 1.46714 2.28445 0
M  V30 4243 C 400.311 3.52661 0.718192 0
M  V30 4244 C 399.919 4.45481 -0.474428 0
M  V30 4245 C 401.663 4.03888 1.3067 0
M  V30 4246 C 399.57 5.91303 -0.107026 0
M  V30 4247 H 398.5 0.740159 0.143808 0
M  V30 4248 H 401.151 1.80125 -0.350336 0
M  V30 4249 H 399.533 3.66429 1.50152 0
M  V30 4250 H 400.707 4.43473 -1.25172 0
M  V30 4251 H 399.022 4.04751 -0.978052 0
M  V30 4252 H 401.619 5.10358 1.59496 0
M  V30 4253 H 401.962 3.51401 2.23211 0
M  V30 4254 H 402.495 3.93457 0.586211 0
M  V30 4255 H 399.234 6.47833 -0.999642 0
M  V30 4256 H 398.754 5.9644 0.634013 0
M  V30 4257 H 400.433 6.46258 0.309807 0
M  V30 4258 N 400.565 -0.0233959 1.57583 0
M  V30 4259 C 401.495 -1.02162 2.09965 0
M  V30 4260 C 402.476 -1.3735 1.00344 0
M  V30 4261 O 403.661 -1.46135 1.27899 0
M  V30 4262 C 400.791 -2.32081 2.58371 0
M  V30 4263 C 399.745 -2.1112 3.72307 0
M  V30 4264 C 399.071 -3.46848 4.06941 0
M  V30 4265 C 400.371 -1.49276 5.00514 0
M  V30 4266 H 402.065 -0.585557 2.93618 0
M  V30 4267 H 399.611 -0.280218 1.41247 0
M  V30 4268 H 401.564 -3.02249 2.93639 0
M  V30 4269 H 400.288 -2.77758 1.71808 0
M  V30 4270 H 398.947 -1.43384 3.37397 0
M  V30 4271 H 398.595 -3.90184 3.17436 0
M  V30 4272 H 398.295 -3.33646 4.83688 0
M  V30 4273 H 399.819 -4.18369 4.44747 0
M  V30 4274 H 401.233 -2.09368 5.33702 0
M  V30 4275 H 399.63 -1.46632 5.8191 0
M  V30 4276 H 400.7 -0.459217 4.82721 0
M  V30 4277 N 402.043 -1.548 -0.295768 0
M  V30 4278 C 403.289 -1.74588 -1.03184 0
M  V30 4279 C 403.622 -0.532962 -1.86744 0
M  V30 4280 O 402.897 0.469872 -1.88739 0
M  V30 4281 C 403.18 -3.03791 -1.93347 0
M  V30 4282 C 403.033 -4.35392 -1.12933 0
M  V30 4283 C 404.352 -3.28892 -2.92435 0
M  V30 4284 H 401.471 -0.635221 -0.373715 0
M  V30 4285 H 404.113 -1.87519 -0.30606 0
M  V30 4286 H 402.263 -2.92898 -2.55232 0
M  V30 4287 H 403.935 -4.58211 -0.532943 0
M  V30 4288 H 402.178 -4.31642 -0.432168 0
M  V30 4289 H 402.849 -5.22074 -1.79284 0
M  V30 4290 H 405.325 -3.39429 -2.4068 0
M  V30 4291 H 404.201 -4.20603 -3.52682 0
M  V30 4292 H 404.462 -2.47437 -3.6637 0
M  V30 4293 N 403.521 0.559213 -1.47345 0
M  V30 4294 C 404.798 1.31997 -1.44348 0
M  V30 4295 C 405.178 2.1064 -0.139358 0
M  V30 4296 O 404.526 2.1091 0.879153 0
M  V30 4297 C 404.736 2.22618 -2.68779 0
M  V30 4298 C 406.084 2.83701 -3.1591 0
M  V30 4299 O 407.108 2.32921 -2.69493 0
M  V30 4300 O 405.967 3.75993 -3.966 0
M  V30 4301 H 403.061 0.594251 -0.575147 0
M  V30 4302 H 405.607 0.578282 -1.59543 0
M  V30 4303 H 404.379 1.64093 -3.55231 0
M  V30 4304 H 404.002 3.04085 -2.5616 0
M  V30 4305 N 404.999 1.35443 0.805782 0
M  V30 4306 C 405.929 1.31095 1.93226 0
M  V30 4307 C 406.91 0.185244 1.69088 0
M  V30 4308 O 408.095 0.380332 1.90439 0
M  V30 4309 C 405.225 1.08299 3.29983 0
M  V30 4310 C 404.179 2.17519 3.68605 0
M  V30 4311 C 403.505 1.79887 5.03532 0
M  V30 4312 C 404.805 3.5949 3.78898 0
M  V30 4313 H 406.499 2.25352 1.97122 0
M  V30 4314 H 404.045 1.0848 0.946996 0
M  V30 4315 H 405.998 1.03897 4.08391 0
M  V30 4316 H 404.722 0.104885 3.26432 0
M  V30 4317 H 403.381 2.2102 2.92482 0
M  V30 4318 H 403.029 0.80693 4.96485 0
M  V30 4319 H 402.729 2.53001 5.30344 0
M  V30 4320 H 404.253 1.77011 5.84379 0
M  V30 4321 H 405.667 3.58307 4.47536 0
M  V30 4322 H 404.064 4.31371 4.1718 0
M  V30 4323 H 405.134 3.95584 2.80431 0
M  V30 4324 N 406.477 -1.02803 1.19454 0
M  V30 4325 C 407.724 -1.76217 0.997693 0
M  V30 4326 C 408.052 -1.887 -0.47144 0
M  V30 4327 O 407.307 -1.4011 -1.3663 0
M  V30 4328 C 407.606 -3.18941 1.6128 0
M  V30 4329 C 407.272 -3.26463 3.11019 0
M  V30 4330 C 405.934 -3.28223 3.51885 0
M  V30 4331 C 408.286 -3.25542 4.07028 0
M  V30 4332 C 405.614 -3.26719 4.8731 0
M  V30 4333 C 407.966 -3.25579 5.42385 0
M  V30 4334 C 406.63 -3.25637 5.82681 0
M  V30 4335 H 405.9 -0.644823 0.365082 0
M  V30 4336 H 408.547 -1.20655 1.4871 0
M  V30 4337 H 406.852 -3.77587 1.04572 0
M  V30 4338 H 408.549 -3.74415 1.43577 0
M  V30 4339 H 405.139 -3.25822 2.78457 0
M  V30 4340 H 409.323 -3.23362 3.76498 0
M  V30 4341 H 404.579 -3.25089 5.1781 0
M  V30 4342 H 408.753 -3.23817 6.16535 0
M  V30 4343 H 406.38 -3.24226 6.87591 0
M  V30 4344 N 407.956 -0.998596 -1.21925 0
M  V30 4345 C 408.904 -0.546641 -2.26085 0
M  V30 4346 C 409.898 0.405576 -1.64473 0
M  V30 4347 O 411.104 0.277471 -1.77849 0
M  V30 4348 H 407.479 -0.158403 -0.735127 0
M  V30 4349 H 409.45 -1.43645 -2.61551 0
M  V30 4350 C 408.199 0.117388 -3.47502 0
M  V30 4351 H 407.522 -0.606277 -3.95176 0
M  V30 4352 H 408.962 0.396993 -4.22137 0
M  V30 4353 C 407.421 1.35455 -3.0847 0
M  V30 4354 O 407.951 2.44944 -3.18379 0
M  V30 4355 N 406.157 1.23191 -2.63196 0
M  V30 4356 H 405.704 0.341006 -2.55333 0
M  V30 4357 H 405.662 2.06071 -2.37449 0
M  V30 4358 N 409.434 1.37368 -0.772513 0
M  V30 4359 C 410.711 1.93839 -0.26188 0
M  V30 4360 C 411.091 1.7061 1.24319 0
M  V30 4361 O 410.439 1.05534 2.02669 0
M  V30 4362 C 410.649 3.43154 -0.636102 0
M  V30 4363 C 411.997 4.20249 -0.606324 0
M  V30 4364 O 413.021 3.5152 -0.575538 0
M  V30 4365 O 411.88 5.42809 -0.634086 0
M  V30 4366 H 408.974 0.82478 -0.0605555 0
M  V30 4367 H 411.52 1.4665 -0.853917 0
M  V30 4368 H 410.292 3.53647 -1.6748 0
M  V30 4369 H 409.915 3.97596 -0.0170516 0
M  V30 4370 N 410.912 0.523116 1.48665 0
M  V30 4371 C 411.844 -0.280421 2.27478 0
M  V30 4372 C 412.857 -0.910694 1.34945 0
M  V30 4373 O 414.046 -0.790295 1.60052 0
M  V30 4374 C 411.146 -1.41171 3.08097 0
M  V30 4375 C 410.319 -0.884642 4.28361 0
M  V30 4376 C 409.378 -1.89622 4.90846 0
M  V30 4377 O 408.404 -1.4559 5.50265 0
M  V30 4378 N 409.606 -3.22801 4.82472 0
M  V30 4379 H 412.371 0.395481 2.97079 0
M  V30 4380 H 409.932 0.357018 1.57915 0
M  V30 4381 H 411.924 -2.08645 3.4677 0
M  V30 4382 H 410.494 -1.99139 2.40961 0
M  V30 4383 H 409.714 -0.0341177 3.94185 0
M  V30 4384 H 411.002 -0.511268 5.06225 0
M  V30 4385 H 410.4 -3.61246 4.35336 0
M  V30 4386 H 408.957 -3.85927 5.25265 0
M  V30 4387 N 412.39 -1.55475 0.257931 0
M  V30 4388 C 413.62 -2.03314 -0.367026 0
M  V30 4389 C 414.028 -1.13625 -1.51281 0
M  V30 4390 O 413.371 -0.145334 -1.83124 0
M  V30 4391 C 413.433 -3.47362 -0.926284 0
M  V30 4392 C 413.097 -4.56914 0.0886584 0
M  V30 4393 C 414.094 -5.12013 0.902123 0
M  V30 4394 C 411.779 -5.01827 0.217936 0
M  V30 4395 C 413.773 -6.10529 1.83122 0
M  V30 4396 C 411.46 -6.00172 1.15052 0
M  V30 4397 C 412.458 -6.54402 1.95568 0
M  V30 4398 O 412.146 -7.50827 2.87253 0
M  V30 4399 H 411.878 -0.669976 -0.0900443 0
M  V30 4400 H 414.432 -2.01804 0.382673 0
M  V30 4401 H 412.662 -3.46056 -1.72575 0
M  V30 4402 H 414.351 -3.78637 -1.46249 0
M  V30 4403 H 415.117 -4.78139 0.812891 0
M  V30 4404 H 410.996 -4.59272 -0.398721 0
M  V30 4405 H 414.54 -6.52783 2.46008 0
M  V30 4406 H 410.437 -6.33465 1.24064 0
M  V30 4407 H 411.205 -7.68483 2.81739 0
M  V30 4408 N 413.868 0.0150385 -1.57593 0
M  V30 4409 C 415.115 0.703001 -1.89906 0
M  V30 4410 C 415.443 1.74604 -0.856944 0
M  V30 4411 O 414.698 1.95197 0.140287 0
M  V30 4412 C 414.997 1.39686 -3.28972 0
M  V30 4413 C 414.663 0.488457 -4.48246 0
M  V30 4414 C 413.325 0.2383 -4.8061 0
M  V30 4415 C 415.677 -0.137881 -5.21018 0
M  V30 4416 C 413.005 -0.646738 -5.83125 0
M  V30 4417 C 415.357 -1.0107 -6.24474 0
M  V30 4418 C 414.021 -1.27019 -6.55303 0
M  V30 4419 H 413.291 0.257246 -0.694914 0
M  V30 4420 H 415.938 -0.037259 -1.91464 0
M  V30 4421 H 414.243 2.21079 -3.23468 0
M  V30 4422 H 415.94 1.93495 -3.51227 0
M  V30 4423 H 412.53 0.693593 -4.22951 0
M  V30 4424 H 416.714 0.0423953 -4.96282 0
M  V30 4425 H 411.97 -0.855937 -6.05379 0
M  V30 4426 H 416.144 -1.50247 -6.79999 0
M  V30 4427 H 413.771 -1.95769 -7.3456 0
M  V30 4428 N 415.346 1.54954 0.287554 0
M  V30 4429 C 416.256 1.8991 1.37736 0
M  V30 4430 C 417.272 0.794701 1.54792 0
M  V30 4431 O 418.448 1.09243 1.69198 0
M  V30 4432 C 415.513 2.15108 2.71899 0
M  V30 4433 C 414.574 3.38752 2.63715 0
M  V30 4434 C 413.807 3.62739 3.91479 0
M  V30 4435 O 414.03 2.89492 4.91478 0
M  V30 4436 O 412.964 4.56267 3.92561 0
M  V30 4437 H 416.79 2.82652 1.11092 0
M  V30 4438 H 414.375 1.41315 0.484807 0
M  V30 4439 H 416.257 2.32806 3.51254 0
M  V30 4440 H 414.932 1.25551 2.9836 0
M  V30 4441 H 413.839 3.26405 1.82786 0
M  V30 4442 H 415.172 4.28483 2.42205 0
M  V30 4443 N 416.824 -0.551391 1.4764 0
M  V30 4444 C 418.101 -1.31229 1.45046 0
M  V30 4445 C 418.481 -2.10563 0.150527 0
M  V30 4446 O 417.829 -2.11374 -0.867956 0
M  V30 4447 C 418.039 -2.21189 2.69956 0
M  V30 4448 C 419.387 -2.82021 3.1741 0
M  V30 4449 O 420.411 -2.31488 2.70724 0
M  V30 4450 O 419.27 -3.73885 3.98588 0
M  V30 4451 H 416.364 -0.591193 0.578291 0
M  V30 4452 H 418.91 -0.569813 1.59847 0
M  V30 4453 H 417.682 -1.62207 3.56096 0
M  V30 4454 H 417.305 -3.02722 2.57769 0
M  V30 4455 N 418.302 -1.35869 -0.798587 0
M  V30 4456 C 419.25 -1.29491 -1.93222 0
M  V30 4457 C 420.244 -0.18836 -1.6835 0
M  V30 4458 O 421.45 -0.354822 -1.76468 0
M  V30 4459 H 417.825 -0.402901 -0.63496 0
M  V30 4460 H 419.796 -2.25247 -1.9572 0
M  V30 4461 C 418.545 -1.09184 -3.30112 0
M  V30 4462 H 417.868 -1.93574 -3.49813 0
M  V30 4463 H 419.308 -1.08766 -4.09812 0
M  V30 4464 C 417.767 0.203959 -3.36282 0
M  V30 4465 O 418.297 1.19699 -3.83451 0
M  V30 4466 N 416.503 0.245488 -2.89561 0
M  V30 4467 H 416.05 -0.563223 -2.51367 0
M  V30 4468 H 416.008 1.11219 -2.94071 0
M  V30 4469 N 419.78 1.02168 -1.19998 0
M  V30 4470 C 421.026 1.75945 -1.00852 0
M  V30 4471 C 421.359 1.88702 0.458828 0
M  V30 4472 O 420.634 1.40911 1.34069 0
M  V30 4473 C 420.917 3.18154 -1.68671 0
M  V30 4474 C 420.77 3.13224 -3.22817 0
M  V30 4475 C 422.089 4.16711 -1.41561 0
M  V30 4476 H 419.208 0.638673 -0.367785 0
M  V30 4477 H 421.85 1.19222 -1.4794 0
M  V30 4478 H 420 3.66586 -1.28636 0
M  V30 4479 H 421.672 2.72635 -3.72112 0
M  V30 4480 H 419.915 2.50751 -3.53986 0
M  V30 4481 H 420.586 4.13728 -3.65422 0
M  V30 4482 H 423.062 3.76913 -1.76284 0
M  V30 4483 H 421.938 5.14391 -1.91553 0
M  V30 4484 H 422.199 4.40774 -0.342193 0
M  V30 4485 N 421.258 1.00505 1.21394 0
M  V30 4486 C 422.486 0.706609 1.9446 0
M  V30 4487 C 422.901 -0.73081 1.74082 0
M  V30 4488 O 422.258 -1.49446 1.04747 0
M  V30 4489 C 422.309 1.01824 3.46863 0
M  V30 4490 O 422.03 2.39919 3.66566 0
M  V30 4491 C 423.531 0.739216 4.37093 0
M  V30 4492 H 420.751 0.260394 0.618414 0
M  V30 4493 H 423.295 1.34311 1.54211 0
M  V30 4494 H 421.45 0.427343 3.85036 0
M  V30 4495 H 421.864 2.50784 4.6066 0
M  V30 4496 H 423.338 1.00744 5.42729 0
M  V30 4497 H 423.815 -0.326746 4.37983 0
M  V30 4498 H 424.421 1.31173 4.04566 0
M  V30 4499 N 422.737 -1.36956 0.779787 0
M  V30 4500 C 423.7 -2.2851 0.177662 0
M  V30 4501 C 424.7 -1.48393 -0.619377 0
M  V30 4502 O 425.89 -1.68505 -0.441785 0
M  V30 4503 C 423.022 -3.32428 -0.755279 0
M  V30 4504 H 424.215 -2.83269 0.984823 0
M  V30 4505 H 421.768 -1.46358 0.548544 0
M  V30 4506 H 422.503 -2.82808 -1.58714 0
M  V30 4507 H 422.288 -3.91659 -0.185817 0
M  V30 4508 H 423.778 -4.00824 -1.17174 0
M  V30 4509 N 424.215 -0.530993 -1.48385 0
M  V30 4510 C 425.626 -0.0907905 -1.86479 0
M  V30 4511 C 425.977 1.33213 -1.44044 0
M  V30 4512 O 425.102 1.99783 -0.831615 0
M  V30 4513 C 425.697 -0.157987 -3.38431 0
M  V30 4514 C 424.256 0.227026 -3.75715 0
M  V30 4515 C 423.403 -0.5173 -2.72432 0
M  V30 4516 H 426.354 -0.742186 -1.40276 0
M  V30 4517 H 426.375 0.630053 -3.75247 0
M  V30 4518 H 425.887 -1.19372 -3.69286 0
M  V30 4519 H 423.988 1.26486 -3.50474 0
M  V30 4520 H 424.101 -0.113288 -4.78966 0
M  V30 4521 H 422.465 0.0365527 -2.54674 0
M  V30 4522 H 423.248 -1.55368 -3.0613 0
M  V30 4523 N 425.693 1.55336 -0.266172 0
M  V30 4524 C 426.97 1.91372 0.404486 0
M  V30 4525 C 427.35 1.18935 1.74407 0
M  V30 4526 O 426.698 0.3132 2.26343 0
M  V30 4527 C 426.908 3.44581 0.553593 0
M  V30 4528 C 428.256 4.16196 0.840618 0
M  V30 4529 O 429.28 3.50426 0.638739 0
M  V30 4530 O 428.139 5.32567 1.22618 0
M  V30 4531 H 425.233 0.797194 0.220025 0
M  V30 4532 H 427.779 1.66813 -0.311664 0
M  V30 4533 H 426.551 3.89357 -0.389498 0
M  V30 4534 H 426.174 3.75065 1.31955 0
M  V30 4535 N 427.171 -0.0066808 1.57599 0
M  V30 4536 C 428.401 -0.703066 1.94269 0
M  V30 4537 C 428.809 -1.68206 0.866222 0
M  V30 4538 O 428.152 -1.82966 -0.164087 0
M  V30 4539 C 428.214 -1.49616 3.26887 0
M  V30 4540 C 427.878 -0.679494 4.5192 0
M  V30 4541 C 428.875 0.0299508 5.19891 0
M  V30 4542 C 426.56 -0.627433 4.98366 0
M  V30 4543 C 428.554 0.780514 6.32603 0
M  V30 4544 C 426.241 0.126861 6.10968 0
M  V30 4545 C 427.239 0.829574 6.77943 0
M  V30 4546 O 426.927 1.57157 7.88389 0
M  V30 4547 H 426.659 -0.201217 0.645359 0
M  V30 4548 H 429.213 0.0385326 2.05364 0
M  V30 4549 H 427.443 -2.28209 3.12182 0
M  V30 4550 H 429.132 -2.07726 3.48719 0
M  V30 4551 H 429.898 -0.00115963 4.85 0
M  V30 4552 H 425.777 -1.16392 4.46065 0
M  V30 4553 H 429.321 1.32954 6.84813 0
M  V30 4554 H 425.218 0.159815 6.45302 0
M  V30 4555 H 425.986 1.48758 8.04868 0
M  V30 4556 N 428.649 -1.55105 -0.279332 0
M  V30 4557 C 429.582 -1.82467 -1.37044 0
M  V30 4558 C 430.56 -0.677261 -1.47824 0
M  V30 4559 O 431.744 -0.919578 -1.64548 0
M  V30 4560 C 428.871 -1.98066 -2.7475 0
M  V30 4561 C 427.917 -3.20594 -2.81286 0
M  V30 4562 S 428.75 -4.78116 -2.41175 0
M  V30 4563 C 429.906 -4.9668 -3.80867 0
M  V30 4564 H 430.139 -2.74728 -1.1363 0
M  V30 4565 H 427.672 -1.46794 -0.478625 0
M  V30 4566 H 429.63 -2.07739 -3.54055 0
M  V30 4567 H 428.291 -1.06704 -2.9542 0
M  V30 4568 H 427.484 -3.28376 -3.82341 0
M  V30 4569 H 427.086 -3.09479 -2.09996 0
M  V30 4570 H 429.378 -4.82033 -4.76078 0
M  V30 4571 H 430.321 -5.98741 -3.78041 0
M  V30 4572 H 430.729 -4.24698 -3.71876 0
M  V30 4573 N 430.127 0.543554 -1.4793 0
M  V30 4574 C 431.074 1.64942 -1.6144 0
M  V30 4575 C 432.044 1.59692 -0.456903 0
M  V30 4576 O 433.229 1.78321 -0.678688 0
M  V30 4577 C 430.369 3.03238 -1.64744 0
M  V30 4578 C 429.482 3.18823 -2.91506 0
M  V30 4579 C 428.617 4.47599 -2.86057 0
M  V30 4580 C 427.656 4.56664 -4.07584 0
M  V30 4581 N 426.793 5.76811 -4.00292 0
M  V30 4582 H 431.633 1.52733 -2.55884 0
M  V30 4583 H 429.17 0.7438 -1.2691 0
M  V30 4584 H 431.128 3.83339 -1.64641 0
M  V30 4585 H 429.758 3.1425 -0.738017 0
M  V30 4586 H 428.81 2.32064 -3.01414 0
M  V30 4587 H 430.122 3.21384 -3.81463 0
M  V30 4588 H 429.276 5.35975 -2.84281 0
M  V30 4589 H 428.015 4.47538 -1.93807 0
M  V30 4590 H 427.02 3.66697 -4.09651 0
M  V30 4591 H 428.245 4.58474 -5.00978 0
M  V30 4592 H 426.191 5.77673 -3.10853 0
M  V30 4593 H 426.108 5.80808 -4.8394 0
M  V30 4594 H 427.376 6.67512 -4.02553 0
M  V30 4595 N 431.605 1.3629 0.791371 0
M  V30 4596 C 432.553 1.30514 1.92533 0
M  V30 4597 C 433.547 0.197285 1.68247 0
M  V30 4598 O 434.753 0.364176 1.76278 0
M  V30 4599 H 431.128 0.406263 0.632815 0
M  V30 4600 H 433.099 2.26282 1.94523 0
M  V30 4601 C 431.848 1.10933 3.29529 0
M  V30 4602 H 431.171 1.95427 3.48781 0
M  V30 4603 H 432.611 1.10937 4.0923 0
M  V30 4604 C 431.07 -0.186123 3.36385 0
M  V30 4605 O 431.6 -1.17664 3.84081 0
M  V30 4606 N 429.806 -0.230128 2.89687 0
M  V30 4607 H 429.353 0.576545 2.51065 0
M  V30 4608 H 429.311 -1.09658 2.94657 0
M  V30 4609 N 433.083 -1.0153 1.20538 0
M  V30 4610 C 434.329 -1.75408 1.01783 0
M  V30 4611 C 434.662 -1.88943 -0.448814 0
M  V30 4612 O 433.937 -1.4162 -1.33319 0
M  V30 4613 C 434.22 -3.17255 1.70356 0
M  V30 4614 C 434.073 -3.11508 3.24473 0
M  V30 4615 C 435.392 -4.15955 1.43769 0
M  V30 4616 H 432.511 -0.636713 0.371167 0
M  V30 4617 H 435.153 -1.18436 1.4857 0
M  V30 4618 H 433.303 -3.65898 1.30578 0
M  V30 4619 H 434.975 -2.70658 3.73553 0
M  V30 4620 H 433.218 -2.4887 3.55311 0
M  V30 4621 H 433.889 -4.11784 3.67611 0
M  V30 4622 H 436.365 -3.75973 1.7828 0
M  V30 4623 H 435.241 -5.13368 1.94279 0
M  V30 4624 H 435.502 -4.40586 0.365564 0
M  V30 4625 N 434.561 -1.01147 -1.20859 0
M  V30 4626 C 435.491 -0.597663 -2.25722 0
M  V30 4627 C 436.472 0.384744 -1.65692 0
M  V30 4628 O 437.657 0.271303 -1.92296 0
M  V30 4629 C 434.787 0.0700149 -3.47229 0
M  V30 4630 C 433.741 -0.832843 -4.19819 0
M  V30 4631 C 433.067 -0.0312202 -5.34691 0
M  V30 4632 C 434.367 -2.1385 -4.76514 0
M  V30 4633 H 436.061 -1.47423 -2.60589 0
M  V30 4634 H 433.607 -0.710301 -1.25263 0
M  V30 4635 H 435.56 0.37103 -4.19763 0
M  V30 4636 H 434.284 0.981259 -3.11511 0
M  V30 4637 H 432.943 -1.11778 -3.49144 0
M  V30 4638 H 432.591 0.881515 -4.95215 0
M  V30 4639 H 432.291 -0.632434 -5.84187 0
M  V30 4640 H 433.815 0.26346 -6.10031 0
M  V30 4641 H 435.229 -1.9002 -5.40893 0
M  V30 4642 H 433.626 -2.69012 -5.36426 0
M  V30 4643 H 434.696 -2.80495 -3.95538 0
M  V30 4644 N 436.039 1.36541 -0.78704 0
M  V30 4645 C 437.285 1.99599 -0.358872 0
M  V30 4646 C 437.618 1.62323 1.06606 0
M  V30 4647 O 436.893 0.876858 1.73613 0
M  V30 4648 C 437.176 3.56327 -0.519944 0
M  V30 4649 C 437.029 4.03464 -1.98839 0
M  V30 4650 C 438.348 4.4005 0.0664737 0
M  V30 4651 H 435.467 0.725107 -0.131869 0
M  V30 4652 H 438.109 1.6199 -0.992936 0
M  V30 4653 H 436.259 3.88495 0.0198321 0
M  V30 4654 H 437.931 3.81793 -2.58905 0
M  V30 4655 H 436.174 3.55092 -2.49183 0
M  V30 4656 H 436.845 5.12439 -2.05207 0
M  V30 4657 H 439.321 4.14228 -0.394267 0
M  V30 4658 H 438.197 5.48847 -0.0762682 0
M  V30 4659 H 438.458 4.26655 1.15835 0
M  V30 4660 N 437.518 0.538854 1.48102 0
M  V30 4661 C 438.448 -0.207654 2.32575 0
M  V30 4662 C 439.429 -0.926559 1.4265 0
M  V30 4663 O 440.614 -0.91061 1.71527 0
M  V30 4664 C 437.744 -1.24957 3.24042 0
M  V30 4665 C 436.698 -0.648263 4.23062 0
M  V30 4666 C 436.024 -1.79348 5.03725 0
M  V30 4667 C 437.324 0.385897 5.20872 0
M  V30 4668 H 439.018 0.497534 2.95237 0
M  V30 4669 H 436.564 0.240715 1.41974 0
M  V30 4670 H 438.517 -1.77983 3.81969 0
M  V30 4671 H 437.241 -1.98446 2.59397 0
M  V30 4672 H 435.9 -0.139452 3.66335 0
M  V30 4673 H 435.548 -2.51696 4.35498 0
M  V30 4674 H 435.248 -1.39702 5.70751 0
M  V30 4675 H 436.772 -2.32735 5.64506 0
M  V30 4676 H 438.186 -0.057607 5.73271 0
M  V30 4677 H 436.583 0.700227 5.96001 0
M  V30 4678 H 437.653 1.28848 4.67468 0
M  V30 4679 N 438.996 -1.55193 0.274407 0
M  V30 4680 C 440.224 -2.03987 -0.345943 0
M  V30 4681 C 440.639 -1.15279 -1.4952 0
M  V30 4682 O 439.996 -0.172759 -1.8168 0
M  V30 4683 C 440.047 -3.51898 -0.827631 0
M  V30 4684 O 439.768 -4.37231 0.275855 0
M  V30 4685 C 441.269 -4.16577 -1.51587 0
M  V30 4686 H 438.489 -0.666335 -0.0789892 0
M  V30 4687 H 441.033 -2.00423 0.406294 0
M  V30 4688 H 439.188 -3.55909 -1.52996 0
M  V30 4689 H 439.602 -5.24415 -0.0943638 0
M  V30 4690 H 441.076 -5.21678 -1.80433 0
M  V30 4691 H 441.553 -3.64707 -2.44716 0
M  V30 4692 H 442.159 -4.16568 -0.857409 0
M  V30 4693 N 440.474 -0.00167713 -1.576 0
M  V30 4694 C 441.404 0.988091 -2.11563 0
M  V30 4695 C 442.385 1.35736 -1.02517 0
M  V30 4696 O 443.57 1.44082 -1.30208 0
M  V30 4697 C 440.7 2.27941 -2.62031 0
M  V30 4698 C 439.654 2.0517 -3.75619 0
M  V30 4699 C 438.98 3.4033 -4.12407 0
M  V30 4700 C 440.28 1.41294 -5.02825 0
M  V30 4701 H 441.974 0.538771 -2.94513 0
M  V30 4702 H 439.52 0.257712 -1.41675 0
M  V30 4703 H 441.473 2.97539 -2.9841 0
M  V30 4704 H 440.197 2.74989 -1.76205 0
M  V30 4705 H 438.856 1.37998 -3.39635 0
M  V30 4706 H 438.504 3.85085 -3.23603 0
M  V30 4707 H 438.204 3.25909 -4.88935 0
M  V30 4708 H 439.728 4.1124 -4.51347 0
M  V30 4709 H 441.142 2.00851 -5.36965 0
M  V30 4710 H 439.539 1.37356 -5.84169 0
M  V30 4711 H 440.609 0.382362 -4.8339 0
M  V30 4712 N 441.952 1.55251 0.271103 0
M  V30 4713 C 443.177 1.80306 1.02491 0
M  V30 4714 C 443.602 0.575457 1.79081 0
M  V30 4715 O 442.96 -0.474987 1.74967 0
M  V30 4716 C 443.008 3.02832 1.95768 0
M  V30 4717 O 442.112 2.78051 3.04568 0
M  V30 4718 H 441.453 0.595896 0.292923 0
M  V30 4719 H 443.983 2.02397 0.299436 0
M  V30 4720 H 443.993 3.31616 2.37686 0
M  V30 4721 H 442.668 3.9183 1.39434 0
M  V30 4722 H 441.245 2.60369 2.66951 0
M  V30 4723 N 443.43 -0.535701 1.48216 0
M  V30 4724 C 444.841 -1.11769 1.49548 0
M  V30 4725 C 445.192 -1.94442 0.26207 0
M  V30 4726 O 444.317 -2.06987 -0.631287 0
M  V30 4727 C 444.912 -2.03367 2.70975 0
M  V30 4728 C 443.471 -2.56795 2.75196 0
M  V30 4729 C 442.618 -1.33631 2.42977 0
M  V30 4730 H 445.569 -0.321232 1.55415 0
M  V30 4731 H 445.59 -2.87569 2.49167 0
M  V30 4732 H 445.102 -1.43169 3.60727 0
M  V30 4733 H 443.203 -3.20731 1.89638 0
M  V30 4734 H 443.316 -2.9632 3.76472 0
M  V30 4735 H 441.68 -1.6502 1.94012 0
M  V30 4736 H 442.463 -0.75194 3.34964 0
M  V30 4737 N 444.908 -1.36708 -0.784132 0
M  V30 4738 C 446.156 -1.30972 -1.53918 0
M  V30 4739 C 446.477 0.109086 -1.94695 0
M  V30 4740 O 445.747 1.05048 -1.65353 0
M  V30 4741 H 444.327 -0.481819 -0.570841 0
M  V30 4742 H 446.989 -1.71063 -0.934002 0
M  V30 4743 H 446.085 -1.94061 -2.44431 0
M  V30 4744 N 446.386 1.0089 -1.21074 0
M  V30 4745 C 447.334 2.11707 -0.963476 0
M  V30 4746 C 448.328 1.69172 0.0879032 0
M  V30 4747 O 449.534 1.79889 -0.0631415 0
M  V30 4748 H 445.909 0.692026 -0.294287 0
M  V30 4749 H 447.88 2.29743 -1.90422 0
M  V30 4750 C 446.629 3.43473 -0.540509 0
M  V30 4751 H 445.952 3.76634 -1.34114 0
M  V30 4752 H 447.392 4.22044 -0.406777 0
M  V30 4753 C 445.851 3.2849 0.748079 0
M  V30 4754 O 446.381 3.58883 1.8046 0
M  V30 4755 N 444.587 2.81715 0.713081 0
M  V30 4756 H 444.134 2.5718 -0.146973 0
M  V30 4757 H 444.092 2.72071 1.57558 0
M  V30 4758 N 447.864 1.01787 1.20321 0
M  V30 4759 C 449.089 0.727009 1.9424 0
M  V30 4760 C 449.514 -0.706179 1.74341 0
M  V30 4761 O 448.872 -1.48609 1.03852 0
M  V30 4762 C 448.92 1.06958 3.44372 0
M  V30 4763 O 448.024 0.181983 4.11998 0
M  V30 4764 H 447.365 0.269626 0.606793 0
M  V30 4765 H 449.895 1.36158 1.52716 0
M  V30 4766 H 449.905 1.02182 3.94997 0
M  V30 4767 H 448.58 2.11378 3.58179 0
M  V30 4768 H 447.157 0.287378 3.71791 0
M  V30 4769 N 449.342 -1.36122 0.79427 0
M  V30 4770 C 450.272 -2.32551 0.210328 0
M  V30 4771 C 451.253 -1.56884 -0.657386 0
M  V30 4772 O 452.438 -1.85014 -0.590207 0
M  V30 4773 C 449.568 -3.41128 -0.651819 0
M  V30 4774 C 448.522 -4.27842 0.116395 0
M  V30 4775 C 447.848 -5.2763 -0.86666 0
M  V30 4776 C 449.148 -5.05647 1.30837 0
M  V30 4777 H 450.842 -2.81636 1.01594 0
M  V30 4778 H 448.388 -1.35407 0.489981 0
M  V30 4779 H 450.341 -4.07581 -1.07031 0
M  V30 4780 H 449.065 -2.90622 -1.49019 0
M  V30 4781 H 447.724 -3.62952 0.515915 0
M  V30 4782 H 447.372 -4.73395 -1.70019 0
M  V30 4783 H 447.072 -5.86514 -0.35705 0
M  V30 4784 H 448.596 -5.96955 -1.28361 0
M  V30 4785 H 450.01 -5.65113 0.965393 0
M  V30 4786 H 448.407 -5.73967 1.75161 0
M  V30 4787 H 449.477 -4.37006 2.10128 0
M  V30 4788 N 450.82 -0.546701 -1.47814 0
M  V30 4789 C 451.75 0.195317 -2.32682 0
M  V30 4790 C 452.731 0.918981 -1.43139 0
M  V30 4791 O 453.916 0.901501 -1.72008 0
M  V30 4792 C 451.046 1.23237 -3.247 0
M  V30 4793 C 450 0.625818 -4.234 0
M  V30 4794 C 449.326 1.76674 -5.04669 0
M  V30 4795 C 450.626 -0.413515 -5.2066 0
M  V30 4796 H 452.32 -0.513184 -2.94969 0
M  V30 4797 H 449.866 -0.248241 -1.41844 0
M  V30 4798 H 451.819 1.75955 -3.82907 0
M  V30 4799 H 450.543 1.97067 -2.60446 0
M  V30 4800 H 449.202 0.120023 -3.66403 0
M  V30 4801 H 448.85 2.49383 -4.36826 0
M  V30 4802 H 448.55 1.36673 -5.71484 0
M  V30 4803 H 450.074 2.29738 -5.65732 0
M  V30 4804 H 451.488 0.0272042 -5.73294 0
M  V30 4805 H 449.885 -0.731825 -5.95621 0
M  V30 4806 H 450.955 -1.31325 -4.66778 0
M  V30 4807 N 452.299 1.55045 -0.282633 0
M  V30 4808 C 453.247 2.24254 0.617478 0
M  V30 4809 C 454.241 1.24215 1.15183 0
M  V30 4810 O 455.447 1.42123 1.10459 0
M  V30 4811 H 451.822 0.719801 0.217693 0
M  V30 4812 H 453.793 2.98398 0.0110076 0
M  V30 4813 C 452.542 2.98281 1.78672 0
M  V30 4814 H 451.865 3.75053 1.38475 0
M  V30 4815 H 453.305 3.50017 2.393 0
M  V30 4816 C 451.764 2.04184 2.67975 0
M  V30 4817 O 452.294 1.59792 3.6855 0
M  V30 4818 N 450.5 1.70526 2.35307 0
M  V30 4819 H 450.047 2.06821 1.53567 0
M  V30 4820 H 450.005 1.07839 2.95327 0
M  V30 4821 N 453.777 0.010035 1.57597 0
M  V30 4822 C 455.002 -0.687021 1.95691 0
M  V30 4823 C 455.427 -1.65952 0.885519 0
M  V30 4824 O 454.785 -1.80633 -0.15543 0
M  V30 4825 C 454.833 -1.3864 3.32884 0
M  V30 4826 O 453.937 -2.50115 3.27897 0
M  V30 4827 H 453.278 -0.181989 0.638573 0
M  V30 4828 H 455.808 0.0662122 2.04493 0
M  V30 4829 H 455.818 -1.74754 3.6868 0
M  V30 4830 H 454.493 -0.673411 4.10412 0
M  V30 4831 H 453.07 -2.16253 3.03791 0
M  V30 4832 N 455.255 -1.55392 -0.262866 0
M  V30 4833 C 456.48 -1.80847 -1.01533 0
M  V30 4834 C 456.905 -0.584946 -1.78774 0
M  V30 4835 O 456.263 0.465701 -1.75217 0
M  V30 4836 C 456.311 -3.03866 -1.94159 0
M  V30 4837 O 455.415 -2.79662 -3.03089 0
M  V30 4838 H 454.756 -0.597441 -0.289759 0
M  V30 4839 H 457.286 -2.02553 -0.288698 0
M  V30 4840 H 457.296 -3.32872 -2.35924 0
M  V30 4841 H 455.971 -3.92564 -1.37354 0
M  V30 4842 H 454.548 -2.61781 -2.65566 0
M  V30 4843 N 456.733 0.527833 -1.48498 0
M  V30 4844 C 457.98 1.28354 -1.56625 0
M  V30 4845 C 458.308 1.93 -0.241096 0
M  V30 4846 O 457.563 1.79967 0.768798 0
M  V30 4847 C 457.862 2.39275 -2.65485 0
M  V30 4848 C 457.528 1.92268 -4.07853 0
M  V30 4849 C 456.19 1.79166 -4.46602 0
M  V30 4850 C 458.542 1.56771 -4.97064 0
M  V30 4851 C 455.87 1.28905 -5.72364 0
M  V30 4852 C 458.222 1.07972 -6.23318 0
M  V30 4853 C 456.886 0.934887 -6.60921 0
M  V30 4854 H 456.156 0.469682 -0.573131 0
M  V30 4855 H 458.803 0.588781 -1.82224 0
M  V30 4856 H 457.108 3.1443 -2.33754 0
M  V30 4857 H 458.805 2.974 -2.68988 0
M  V30 4858 H 455.395 2.03417 -3.77252 0
M  V30 4859 H 459.579 1.65753 -4.67803 0
M  V30 4860 H 454.835 1.16381 -6.00221 0
M  V30 4861 H 459.009 0.795775 -6.91838 0
M  V30 4862 H 456.636 0.543231 -7.58257 0
M  V30 4863 N 458.211 1.37122 0.776871 0
M  V30 4864 C 459.436 1.354 1.57104 0
M  V30 4865 C 459.861 -0.0595562 1.88006 0
M  V30 4866 O 459.219 -1.03514 1.48844 0
M  V30 4867 C 459.267 2.19472 2.8612 0
M  V30 4868 O 458.371 1.59582 3.80273 0
M  V30 4869 H 457.712 0.462869 0.476076 0
M  V30 4870 H 460.242 1.80577 0.961932 0
M  V30 4871 H 460.252 2.32502 3.35271 0
M  V30 4872 H 458.927 3.22222 2.62956 0
M  V30 4873 H 457.504 1.55564 3.38902 0
M  V30 4874 N 459.689 -1.00246 1.21608 0
M  V30 4875 C 461.105 -1.26435 0.973975 0
M  V30 4876 C 461.305 -1.98642 -0.338143 0
M  V30 4877 O 460.361 -2.29026 -1.06317 0
M  V30 4878 C 461.674 -2.08551 2.16626 0
M  V30 4879 C 463.222 -2.21769 2.20879 0
M  V30 4880 C 463.697 -3.07267 3.39633 0
M  V30 4881 N 465.188 -3.14855 3.39736 0
M  V30 4882 C 465.923 -3.81274 4.28273 0
M  V30 4883 N 465.419 -4.497 5.27012 0
M  V30 4884 N 467.212 -3.7794 4.16074 0
M  V30 4885 H 459.363 -0.518089 2.05984 0
M  V30 4886 H 461.626 -0.291368 0.902113 0
M  V30 4887 H 461.332 -1.62847 3.11727 0
M  V30 4888 H 461.206 -3.09303 2.15897 0
M  V30 4889 H 463.593 -2.66691 1.26332 0
M  V30 4890 H 463.674 -1.20478 2.25652 0
M  V30 4891 H 463.318 -2.63047 4.34475 0
M  V30 4892 H 463.248 -4.08678 3.321 0
M  V30 4893 H 465.739 -2.66147 2.6828 0
M  V30 4894 H 466.052 -4.98092 5.90867 0
M  V30 4895 H 464.397 -4.48479 5.30935 0
M  V30 4896 H 467.588 -3.23638 3.38195 0
M  V30 4897 H 467.761 -4.29424 4.85282 0
M  V30 4898 N 461.167 -1.02423 -1.1978 0
M  V30 4899 C 462.115 -0.594474 -2.24875 0
M  V30 4900 C 463.109 0.370598 -1.65296 0
M  V30 4901 O 464.315 0.239684 -1.78397 0
M  V30 4902 H 460.69 -0.173961 -0.731602 0
M  V30 4903 H 462.661 -1.4916 -2.58445 0
M  V30 4904 C 461.41 0.0436512 -3.47673 0
M  V30 4905 H 460.733 -0.689963 -3.93801 0
M  V30 4906 H 462.173 0.307362 -4.22884 0
M  V30 4907 C 460.632 1.28881 -3.11274 0
M  V30 4908 O 461.162 2.38135 -3.23503 0
M  V30 4909 N 459.368 1.1758 -2.6575 0
M  V30 4910 H 458.915 0.286769 -2.55999 0
M  V30 4911 H 458.873 2.00988 -2.41767 0
M  V30 4912 N 462.645 1.35699 -0.801477 0
M  V30 4913 C 463.575 2.32436 -0.222658 0
M  V30 4914 C 464.556 1.5723 0.649057 0
M  V30 4915 O 465.741 1.85324 0.580387 0
M  V30 4916 C 462.871 3.41469 0.633719 0
M  V30 4917 C 461.825 4.27774 -0.139083 0
M  V30 4918 C 461.151 5.28082 0.838666 0
M  V30 4919 C 462.451 5.04946 -1.33517 0
M  V30 4920 H 464.145 2.81094 -1.03086 0
M  V30 4921 H 461.691 1.35146 -0.497155 0
M  V30 4922 H 463.644 4.08143 1.04868 0
M  V30 4923 H 462.368 2.91408 1.47475 0
M  V30 4924 H 461.027 3.62673 -0.535156 0
M  V30 4925 H 460.675 4.7429 1.67506 0
M  V30 4926 H 460.375 5.86695 0.32594 0
M  V30 4927 H 461.899 5.97628 1.25194 0
M  V30 4928 H 463.313 5.64593 -0.995349 0
M  V30 4929 H 461.71 5.7303 -1.78202 0
M  V30 4930 H 462.78 4.35886 -2.12442 0
M  V30 4931 N 464.123 0.554532 1.47522 0
M  V30 4932 C 465.348 0.0322661 2.07375 0
M  V30 4933 C 465.773 -1.25079 1.40488 0
M  V30 4934 O 465.131 -1.74859 0.47896 0
M  V30 4935 C 465.179 -0.149397 3.6029 0
M  V30 4936 O 464.283 -1.21259 3.9417 0
M  V30 4937 H 463.624 0.0501228 0.662106 0
M  V30 4938 H 466.154 0.769452 1.8958 0
M  V30 4939 H 466.164 -0.364437 4.06369 0
M  V30 4940 H 464.839 0.787743 4.08372 0
M  V30 4941 H 463.416 -0.97825 3.5984 0
M  V30 4942 N 465.601 -1.54893 0.290851 0
M  V30 4943 C 467.012 -1.85584 -0.203816 0
M  V30 4944 C 467.363 -1.21285 -1.54222 0
M  V30 4945 O 466.488 -0.506841 -2.10381 0
M  V30 4946 C 467.083 -3.367 -0.376595 0
M  V30 4947 C 465.642 -3.6746 -0.815485 0
M  V30 4948 C 464.789 -2.77178 0.0821087 0
M  V30 4949 H 467.74 -1.50208 0.512175 0
M  V30 4950 H 467.761 -3.60656 -1.21275 0
M  V30 4951 H 467.273 -3.8347 0.59767 0
M  V30 4952 H 465.374 -3.26201 -1.80066 0
M  V30 4953 H 465.487 -4.7478 -0.641905 0
M  V30 4954 H 463.851 -2.50925 -0.436895 0
M  V30 4955 H 464.634 -3.26767 1.05254 0
M  V30 4956 N 467.08 -0.0183926 -1.57589 0
M  V30 4957 C 468.308 0.673046 -1.95647 0
M  V30 4958 C 468.723 1.66275 -0.894312 0
M  V30 4959 O 468.08 1.82072 0.124975 0
M  V30 4960 C 468.131 1.38884 -3.33756 0
M  V30 4961 O 467.852 0.438806 -4.35897 0
M  V30 4962 C 469.353 2.1731 -3.86383 0
M  V30 4963 H 466.573 0.186292 -0.644621 0
M  V30 4964 H 469.117 -0.0749748 -2.04363 0
M  V30 4965 H 467.272 2.08835 -3.26293 0
M  V30 4966 H 467.686 0.945869 -5.15901 0
M  V30 4967 H 469.16 2.62863 -4.85394 0
M  V30 4968 H 469.637 3.00764 -3.20059 0
M  V30 4969 H 470.243 1.52339 -3.97081 0
M  V30 4970 N 468.558 1.5553 0.254621 0
M  V30 4971 C 469.505 1.89666 1.31512 0
M  V30 4972 C 470.475 0.750057 1.482 0
M  V30 4973 O 471.66 1.00301 1.62309 0
M  V30 4974 C 468.8 2.19009 2.667 0
M  V30 4975 C 467.913 3.46435 2.58083 0
M  V30 4976 C 467.048 3.65386 3.85573 0
M  V30 4977 C 466.087 4.8644 3.71541 0
M  V30 4978 N 465.224 5.01952 4.90906 0
M  V30 4979 H 470.064 2.80109 1.017 0
M  V30 4980 H 467.601 1.38666 0.490938 0
M  V30 4981 H 469.559 2.34025 3.45381 0
M  V30 4982 H 468.189 1.31779 2.94676 0
M  V30 4983 H 467.241 3.39792 1.71013 0
M  V30 4984 H 468.553 4.35258 2.43622 0
M  V30 4985 H 467.707 3.80319 4.72697 0
M  V30 4986 H 466.446 2.74781 4.02922 0
M  V30 4987 H 465.451 4.71491 2.82801 0
M  V30 4988 H 466.676 5.78497 3.55694 0
M  V30 4989 H 464.622 4.14283 5.08631 0
M  V30 4990 H 464.539 5.84851 4.79046 0
M  V30 4991 H 465.807 5.21289 5.7955 0
M  V30 4992 N 470.036 -0.519951 1.48776 0
M  V30 4993 C 471.452 -0.849418 1.35119 0
M  V30 4994 C 471.652 -1.98077 0.36982 0
M  V30 4995 O 470.708 -2.51664 -0.205359 0
M  V30 4996 C 472.021 -1.20748 2.75391 0
M  V30 4997 C 473.569 -1.31679 2.83954 0
M  V30 4998 C 474.044 -1.70824 4.24951 0
M  V30 4999 N 475.535 -1.77908 4.27672 0
M  V30 5000 C 476.27 -2.09603 5.33717 0
M  V30 5001 N 475.766 -2.39652 6.5003 0
M  V30 5002 N 477.559 -2.10694 5.21119 0
M  V30 5003 H 469.71 0.226377 2.1119 0
M  V30 5004 H 471.973 0.0386519 0.947212 0
M  V30 5005 H 471.679 -0.449703 3.48813 0
M  V30 5006 H 471.553 -2.15534 3.09556 0
M  V30 5007 H 473.94 -2.06532 2.10781 0
M  V30 5008 H 474.021 -0.3499 2.53396 0
M  V30 5009 H 473.665 -0.965282 4.98643 0
M  V30 5010 H 473.595 -2.6858 4.52959 0
M  V30 5011 H 476.086 -1.56923 3.43779 0
M  V30 5012 H 476.399 -2.6297 7.26682 0
M  V30 5013 H 474.744 -2.37149 6.53288 0
M  V30 5014 H 477.935 -1.86682 4.29264 0
M  V30 5015 H 478.108 -2.35062 6.03863 0
M  V30 5016 N 471.514 -1.37532 -0.769588 0
M  V30 5017 C 472.791 -1.23392 -1.51768 0
M  V30 5018 C 473.171 0.17157 -2.10402 0
M  V30 5019 O 472.519 1.17943 -1.95708 0
M  V30 5020 C 472.729 -2.33163 -2.59685 0
M  V30 5021 C 474.077 -2.70809 -3.27028 0
M  V30 5022 O 475.101 -2.32355 -2.69981 0
M  V30 5023 O 473.96 -3.37066 -4.30173 0
M  V30 5024 H 471.054 -0.481617 -0.67229 0
M  V30 5025 H 473.6 -1.49318 -0.806368 0
M  V30 5026 H 472.372 -3.27273 -2.14494 0
M  V30 5027 H 471.995 -2.08713 -3.38415 0
M  V30 5028 N 472.992 0.995999 -1.22138 0
M  V30 5029 C 474.239 1.7351 -1.04406 0
M  V30 5030 C 474.567 1.89884 0.421244 0
M  V30 5031 O 473.822 1.43683 1.32867 0
M  V30 5032 C 474.121 3.14553 -1.6968 0
M  V30 5033 C 473.787 3.18102 -3.19565 0
M  V30 5034 C 472.449 3.18778 -3.60464 0
M  V30 5035 C 474.801 3.14636 -4.15516 0
M  V30 5036 C 472.129 3.13684 -4.95801 0
M  V30 5037 C 474.481 3.11084 -5.50826 0
M  V30 5038 C 473.145 3.10074 -5.91109 0
M  V30 5039 H 472.415 0.634916 -0.38205 0
M  V30 5040 H 475.062 1.1667 -1.51857 0
M  V30 5041 H 473.367 3.74682 -1.14546 0
M  V30 5042 H 475.064 3.70477 -1.53454 0
M  V30 5043 H 471.654 3.18324 -2.86998 0
M  V30 5044 H 475.838 3.13266 -3.84939 0
M  V30 5045 H 471.094 3.11245 -5.26247 0
M  V30 5046 H 475.268 3.07357 -6.24904 0
M  V30 5047 H 472.895 3.05882 -6.95946 0
M  V30 5048 N 474.47 1.03057 1.19235 0
M  V30 5049 C 475.433 0.617418 2.20727 0
M  V30 5050 C 476.433 -0.319856 1.57587 0
M  V30 5051 O 477.623 -0.106633 1.73873 0
M  V30 5052 C 474.755 -0.096296 3.40764 0
M  V30 5053 H 475.948 1.51544 2.58794 0
M  V30 5054 H 473.501 0.821949 1.32942 0
M  V30 5055 H 474.236 -1.00859 3.08217 0
M  V30 5056 H 474.021 0.577217 3.87828 0
M  V30 5057 H 475.511 -0.372219 4.15938 0
M  V30 5058 N 475.948 -1.35272 0.808662 0
M  V30 5059 C 476.878 -2.32315 0.234981 0
M  V30 5060 C 477.859 -1.57572 -0.64071 0
M  V30 5061 O 479.044 -1.8563 -0.570551 0
M  V30 5062 C 476.174 -3.41801 -0.615601 0
M  V30 5063 C 475.128 -4.27694 0.161767 0
M  V30 5064 C 474.454 -5.28519 -0.810649 0
M  V30 5065 C 475.754 -5.04231 1.36193 0
M  V30 5066 H 477.448 -2.80543 1.04575 0
M  V30 5067 H 474.994 -1.3488 0.504315 0
M  V30 5068 H 476.947 -4.08693 -1.02702 0
M  V30 5069 H 475.671 -2.92186 -1.45928 0
M  V30 5070 H 474.33 -3.62384 0.554382 0
M  V30 5071 H 473.978 -4.75171 -1.64988 0
M  V30 5072 H 473.678 -5.8686 -0.294822 0
M  V30 5073 H 475.202 -5.98283 -1.22023 0
M  V30 5074 H 476.616 -5.64058 1.02528 0
M  V30 5075 H 475.013 -5.72077 1.81239 0
M  V30 5076 H 476.083 -4.34753 2.14751 0
M  V30 5077 N 477.426 -0.562348 -1.47226 0
M  V30 5078 C 478.389 0.172056 -2.28553 0
M  V30 5079 C 479.389 0.837928 -1.37242 0
M  V30 5080 O 480.579 0.693001 -1.59822 0
M  V30 5081 C 477.711 1.25223 -3.17068 0
M  V30 5082 H 478.904 -0.542401 -2.94954 0
M  V30 5083 H 476.457 -0.319493 -1.53 0
M  V30 5084 H 477.192 1.99892 -2.55369 0
M  V30 5085 H 476.977 0.779515 -3.84273 0
M  V30 5086 H 478.467 1.76791 -3.78332 0
M  V30 5087 N 478.904 1.54736 -0.299062 0
M  V30 5088 C 480.134 2.04215 0.312992 0
M  V30 5089 C 480.542 1.17596 1.48215 0
M  V30 5090 O 479.885 0.193835 1.82674 0
M  V30 5091 C 479.947 3.49696 0.833862 0
M  V30 5092 C 479.611 4.56518 -0.20977 0
M  V30 5093 C 480.608 5.09442 -1.03756 0
M  V30 5094 C 478.293 5.01073 -0.35091 0
M  V30 5095 C 480.287 6.05459 -1.99244 0
M  V30 5096 C 477.974 5.9691 -1.30924 0
M  V30 5097 C 478.972 6.48987 -2.1285 0
M  V30 5098 O 478.66 7.42947 -3.07059 0
M  V30 5099 H 478.392 0.672128 0.0722494 0
M  V30 5100 H 480.946 2.00718 -0.436043 0
M  V30 5101 H 479.176 3.5051 1.63339 0
M  V30 5102 H 480.865 3.82381 1.36159 0
M  V30 5103 H 481.631 4.75816 -0.939376 0
M  V30 5104 H 477.51 4.60168 0.276813 0
M  V30 5105 H 481.054 6.46031 -2.63229 0
M  V30 5106 H 476.951 6.29953 -1.40815 0
M  V30 5107 H 477.719 7.60743 -3.02015 0
M  V30 5108 N 480.382 0.0267497 1.57577 0
M  V30 5109 C 481.312 -0.954308 2.13108 0
M  V30 5110 C 482.293 -1.34088 1.04663 0
M  V30 5111 O 483.478 -1.41992 1.32484 0
M  V30 5112 C 480.608 -2.23744 2.65624 0
M  V30 5113 C 479.562 -1.99168 3.78835 0
M  V30 5114 C 478.888 -3.33726 4.17769 0
M  V30 5115 C 480.188 -1.33277 5.0501 0
M  V30 5116 H 481.882 -0.491848 2.95332 0
M  V30 5117 H 479.428 -0.23514 1.42067 0
M  V30 5118 H 481.381 -2.92754 3.03106 0
M  V30 5119 H 480.105 -2.72151 1.80558 0
M  V30 5120 H 478.764 -1.32577 3.41788 0
M  V30 5121 H 478.412 -3.79888 3.29688 0
M  V30 5122 H 478.112 -3.18089 4.94058 0
M  V30 5123 H 479.636 -4.04008 4.57832 0
M  V30 5124 H 481.05 -1.92283 5.40093 0
M  V30 5125 H 479.447 -1.28045 5.8628 0
M  V30 5126 H 480.517 -0.305411 4.83937 0
M  V30 5127 N 481.861 -1.55662 -0.24637 0
M  V30 5128 C 482.809 -1.91186 -1.3248 0
M  V30 5129 C 483.803 -0.790996 -1.49799 0
M  V30 5130 O 485.009 -0.975617 -1.51267 0
M  V30 5131 H 481.384 -0.607207 -0.443626 0
M  V30 5132 H 483.355 -2.81221 -0.997853 0
M  V30 5133 C 482.104 -2.22349 -2.67313 0
M  V30 5134 H 481.427 -3.08097 -2.54786 0
M  V30 5135 H 482.867 -2.51107 -3.41645 0
M  V30 5136 C 481.326 -1.04001 -3.20446 0
M  V30 5137 O 481.856 -0.28828 -4.00664 0
M  V30 5138 N 480.062 -0.830494 -2.7848 0
M  V30 5139 H 479.609 -1.4435 -2.13356 0
M  V30 5140 H 479.567 -0.0403258 -3.14374 0
M  V30 5141 N 483.339 0.512053 -1.4905 0
M  V30 5142 C 484.587 1.26436 -1.57665 0
M  V30 5143 C 484.908 1.93255 -0.260293 0
M  V30 5144 O 484.178 1.82206 0.719564 0
M  V30 5145 H 482.758 0.469658 -0.580888 0
M  V30 5146 H 485.42 0.594398 -1.85615 0
M  V30 5147 H 484.516 2.03417 -2.36702 0
M  V30 5148 N 484.817 1.37938 0.762283 0
M  V30 5149 C 486.066 1.32989 1.51647 0
M  V30 5150 C 486.379 -0.0802922 1.95435 0
M  V30 5151 O 487.585 -0.252295 2.70325 0
M  V30 5152 C 486.041 2.33485 2.73885 0
M  V30 5153 C 485.649 3.80079 2.37157 0
M  V30 5154 C 487.393 2.37563 3.51801 0
M  V30 5155 C 485.3 4.72283 3.55954 0
M  V30 5156 H 484.23 0.494301 0.56937 0
M  V30 5157 H 486.881 1.63448 0.834083 0
M  V30 5158 H 485.263 1.96056 3.44061 0
M  V30 5159 H 486.437 4.26398 1.74704 0
M  V30 5160 H 484.752 3.79037 1.72395 0
M  V30 5161 H 487.349 3.0365 4.40114 0
M  V30 5162 H 487.692 1.39199 3.92338 0
M  V30 5163 H 488.225 2.73747 2.8863 0
M  V30 5164 H 484.964 5.7181 3.2049 0
M  V30 5165 H 484.484 4.30663 4.1748 0
M  V30 5166 H 486.163 4.89876 4.22647 0
M  V30 5167 N 486.295 -0.989507 1.22664 0
M  V30 5168 C 487.225 -2.09847 1.02404 0
M  V30 5169 C 488.206 -1.70007 -0.0561303 0
M  V30 5170 O 489.391 -1.93906 0.106748 0
M  V30 5171 C 486.521 -3.41996 0.604663 0
M  V30 5172 C 485.475 -3.95699 1.63115 0
M  V30 5173 C 484.801 -5.23936 1.0675 0
M  V30 5174 C 486.101 -4.25999 3.02196 0
M  V30 5175 H 487.795 -2.27054 1.95158 0
M  V30 5176 H 485.341 -1.09111 0.939727 0
M  V30 5177 H 487.294 -4.1899 0.45002 0
M  V30 5178 H 486.018 -3.24626 -0.35855 0
M  V30 5179 H 484.677 -3.2084 1.77362 0
M  V30 5180 H 484.325 -5.02909 0.0955422 0
M  V30 5181 H 484.025 -5.60833 1.75328 0
M  V30 5182 H 485.549 -6.0356 0.924516 0
M  V30 5183 H 486.963 -4.93777 2.91303 0
M  V30 5184 H 485.36 -4.74076 3.67929 0
M  V30 5185 H 486.43 -3.33636 3.51873 0
M  V30 5186 N 487.773 -1.03688 -1.18687 0
M  V30 5187 C 488.703 -0.645407 -2.24403 0
M  V30 5188 C 489.684 0.349511 -1.66471 0
M  V30 5189 O 490.869 0.230453 -1.92828 0
M  V30 5190 C 487.999 -0.00365337 -3.473 0
M  V30 5191 C 486.953 -0.921705 -4.17958 0
M  V30 5192 C 486.279 -0.144629 -5.34504 0
M  V30 5193 C 487.579 -2.23909 -4.71871 0
M  V30 5194 H 489.273 -1.52917 -2.57404 0
M  V30 5195 H 486.819 -0.736711 -1.23728 0
M  V30 5196 H 488.772 0.281908 -4.20456 0
M  V30 5197 H 487.496 0.914963 -3.13522 0
M  V30 5198 H 486.155 -1.19159 -3.46694 0
M  V30 5199 H 485.803 0.776274 -4.96974 0
M  V30 5200 H 485.503 -0.756206 -5.82714 0
M  V30 5201 H 487.027 0.134004 -6.10453 0
M  V30 5202 H 488.441 -2.0145 -5.36741 0
M  V30 5203 H 486.838 -2.8033 -5.30599 0
M  V30 5204 H 487.908 -2.88822 -3.895 0
M  V30 5205 N 489.251 1.34841 -0.815825 0
M  V30 5206 C 490.498 1.98499 -0.400535 0
M  V30 5207 C 490.826 1.64699 1.03463 0
M  V30 5208 O 490.081 0.907006 1.73412 0
M  V30 5209 C 490.38 3.53273 -0.541541 0
M  V30 5210 C 490.046 4.06966 -1.94138 0
M  V30 5211 C 488.708 4.21341 -2.32433 0
M  V30 5212 C 491.06 4.35933 -2.85677 0
M  V30 5213 C 488.388 4.62007 -3.61617 0
M  V30 5214 C 490.74 4.78042 -4.14317 0
M  V30 5215 C 489.404 4.90622 -4.52599 0
M  V30 5216 H 488.674 0.72636 -0.146566 0
M  V30 5217 H 491.321 1.60902 -1.0384 0
M  V30 5218 H 489.626 3.91387 0.179741 0
M  V30 5219 H 491.323 4.00497 -0.20085 0
M  V30 5220 H 487.913 3.96235 -1.63388 0
M  V30 5221 H 492.097 4.24372 -2.57337 0
M  V30 5222 H 487.353 4.69937 -3.91113 0
M  V30 5223 H 491.527 4.99415 -4.85342 0
M  V30 5224 H 489.154 5.2189 -5.52752 0
M  V30 5225 N 490.729 0.570148 1.46925 0
M  V30 5226 C 491.977 0.0508523 2.02036 0
M  V30 5227 C 492.298 -1.30885 1.44548 0
M  V30 5228 O 491.568 -1.85647 0.625453 0
M  V30 5229 H 490.148 0.0158088 0.746833 0
M  V30 5230 H 492.81 0.743086 1.80178 0
M  V30 5231 H 491.906 -0.027575 3.12088 0
M  V30 5232 N 492.207 -1.54576 0.307264 0
M  V30 5233 C 493.157 -2.20467 -0.581249 0
M  V30 5234 C 494.141 -1.17972 -1.09414 0
M  V30 5235 O 495.333 -1.43667 -1.03387 0
M  V30 5236 C 492.462 -2.95369 -1.74963 0
M  V30 5237 C 491.548 -4.05186 -1.25241 0
M  V30 5238 N 491.939 -5.03577 -0.47364 0
M  V30 5239 C 490.237 -4.18841 -1.53259 0
M  V30 5240 C 490.938 -5.81328 -0.208083 0
M  V30 5241 N 489.914 -5.37834 -0.789651 0
M  V30 5242 H 493.716 -2.93892 0.0212221 0
M  V30 5243 H 491.23 -1.62011 0.112325 0
M  V30 5244 H 493.227 -3.41046 -2.39777 0
M  V30 5245 H 491.887 -2.23461 -2.35574 0
M  V30 5246 H 492.898 -5.17766 -0.117963 0
M  V30 5247 H 489.575 -3.58141 -2.14573 0
M  V30 5248 H 490.965 -6.706 0.417793 0
M  V30 5249 N 493.685 -0.035106 -1.57561 0
M  V30 5250 C 494.618 0.979673 -2.06101 0
M  V30 5251 C 495.596 1.31378 -0.958046 0
M  V30 5252 O 496.78 1.42942 -1.22881 0
M  V30 5253 C 493.907 2.29809 -2.48808 0
M  V30 5254 C 492.953 2.11817 -3.70184 0
M  V30 5255 S 493.786 1.41143 -5.16565 0
M  V30 5256 C 494.942 2.74341 -5.62572 0
M  V30 5257 H 495.175 0.566506 -2.91853 0
M  V30 5258 H 492.708 0.176744 -1.53385 0
M  V30 5259 H 494.666 3.056 -2.74078 0
M  V30 5260 H 493.327 2.68257 -1.63392 0
M  V30 5261 H 492.52 3.09299 -3.97933 0
M  V30 5262 H 492.122 1.44168 -3.45097 0
M  V30 5263 H 494.414 3.70562 -5.67177 0
M  V30 5264 H 495.357 2.51249 -6.62027 0
M  V30 5265 H 495.765 2.79863 -4.90242 0
M  V30 5266 N 495.163 1.55791 0.238111 0
M  V30 5267 C 496.093 1.94068 1.29846 0
M  V30 5268 C 497.074 0.806726 1.49753 0
M  V30 5269 O 498.259 1.06772 1.62214 0
M  V30 5270 C 495.389 2.24302 2.65153 0
M  V30 5271 C 494.343 3.40032 2.59927 0
M  V30 5272 C 493.669 3.55829 3.99111 0
M  V30 5273 C 494.969 4.75476 2.16148 0
M  V30 5274 H 496.663 2.82887 0.980563 0
M  V30 5275 H 494.209 1.36105 0.470253 0
M  V30 5276 H 496.162 2.4967 3.39475 0
M  V30 5277 H 494.886 1.32318 2.98596 0
M  V30 5278 H 493.545 3.14687 1.88063 0
M  V30 5279 H 493.193 2.6125 4.29834 0
M  V30 5280 H 492.893 4.3366 3.96501 0
M  V30 5281 H 494.417 3.83528 4.7512 0
M  V30 5282 H 495.831 5.00158 2.80205 0
M  V30 5283 H 494.228 5.56472 2.24631 0
M  V30 5284 H 495.298 4.71946 1.11333 0
M  V30 5285 N 496.642 -0.504142 1.49319 0
M  V30 5286 C 497.589 -1.60603 1.65756 0
M  V30 5287 C 498.559 -1.58425 0.499082 0
M  V30 5288 O 499.744 -1.76459 0.725728 0
M  V30 5289 C 496.884 -2.98764 1.72726 0
M  V30 5290 C 495.997 -3.10982 2.99857 0
M  V30 5291 C 495.132 -4.39857 2.97824 0
M  V30 5292 C 494.171 -4.45697 4.19548 0
M  V30 5293 N 493.308 -5.65995 4.15444 0
M  V30 5294 H 498.148 -1.45895 2.59843 0
M  V30 5295 H 495.685 -0.709891 1.28837 0
M  V30 5296 H 497.643 -3.78839 1.74747 0
M  V30 5297 H 496.273 -3.12183 0.821075 0
M  V30 5298 H 495.325 -2.23991 3.07461 0
M  V30 5299 H 496.637 -3.11157 3.89849 0
M  V30 5300 H 495.791 -5.2825 2.98391 0
M  V30 5301 H 494.53 -4.42242 2.05604 0
M  V30 5302 H 493.535 -3.55707 4.19229 0
M  V30 5303 H 494.76 -4.4503 5.12957 0
M  V30 5304 H 492.706 -5.69229 3.26059 0
M  V30 5305 H 492.623 -5.67773 4.99169 0
M  V30 5306 H 493.891 -6.56604 4.20109 0
M  V30 5307 N 498.12 -1.38341 -0.754957 0
M  V30 5308 C 499.369 -1.33791 -1.5094 0
M  V30 5309 C 499.682 0.0699267 -1.95475 0
M  V30 5310 O 500.888 0.237956 -2.70455 0
M  V30 5311 C 499.344 -2.34934 -2.72643 0
M  V30 5312 C 498.952 -3.81332 -2.35138 0
M  V30 5313 C 500.696 -2.39425 -3.50536 0
M  V30 5314 C 498.603 -4.74164 -3.53444 0
M  V30 5315 H 497.533 -0.497314 -0.566741 0
M  V30 5316 H 500.184 -1.63888 -0.825403 0
M  V30 5317 H 498.566 -1.97878 -3.43017 0
M  V30 5318 H 499.74 -4.27319 -1.7244 0
M  V30 5319 H 498.055 -3.79946 -1.70382 0
M  V30 5320 H 500.652 -3.0598 -4.38498 0
M  V30 5321 H 500.995 -1.41278 -3.91594 0
M  V30 5322 H 501.528 -2.75274 -2.87174 0
M  V30 5323 H 498.267 -5.73501 -3.17453 0
M  V30 5324 H 497.787 -4.3287 -4.15191 0
M  V30 5325 H 499.466 -4.92111 -4.20043 0
M  V30 5326 N 499.598 0.982988 -1.23187 0
M  V30 5327 C 500.845 1.72392 -1.06241 0
M  V30 5328 C 501.173 1.9032 0.40108 0
M  V30 5329 O 500.428 1.45084 1.31336 0
M  V30 5330 C 500.727 3.12736 -1.73006 0
M  V30 5331 C 500.393 3.14695 -3.22921 0
M  V30 5332 C 499.055 3.14937 -3.63824 0
M  V30 5333 C 501.407 3.10211 -4.1883 0
M  V30 5334 C 498.735 3.08408 -4.99101 0
M  V30 5335 C 501.087 3.05224 -5.54095 0
M  V30 5336 C 499.751 3.03787 -5.94365 0
M  V30 5337 H 499.021 0.630829 -0.388762 0
M  V30 5338 H 501.668 1.15053 -1.53085 0
M  V30 5339 H 499.973 3.73446 -1.18514 0
M  V30 5340 H 501.67 3.68828 -1.57374 0
M  V30 5341 H 498.26 3.15262 -2.90358 0
M  V30 5342 H 502.444 3.09166 -3.8824 0
M  V30 5343 H 497.7 3.05646 -5.29519 0
M  V30 5344 H 501.874 3.00712 -6.28128 0
M  V30 5345 H 499.501 2.98483 -6.99151 0
M  V30 5346 N 501.076 1.04316 1.18135 0
M  V30 5347 C 502.006 0.657299 2.24058 0
M  V30 5348 C 502.987 -0.340678 1.66654 0
M  V30 5349 O 504.172 -0.220223 1.92947 0
M  V30 5350 C 501.302 0.0220715 3.47293 0
M  V30 5351 C 500.256 0.943857 4.17463 0
M  V30 5352 C 499.582 0.172973 5.3442 0
M  V30 5353 C 500.882 2.26409 4.70677 0
M  V30 5354 H 502.576 1.5428 2.56589 0
M  V30 5355 H 500.122 0.743263 1.23335 0
M  V30 5356 H 502.075 -0.259607 4.206 0
M  V30 5357 H 500.799 -0.898323 3.14003 0
M  V30 5358 H 499.458 1.20996 3.46057 0
M  V30 5359 H 499.106 -0.749907 4.97379 0
M  V30 5360 H 498.806 0.787098 5.82304 0
M  V30 5361 H 500.33 -0.101628 6.10515 0
M  V30 5362 H 501.744 2.04294 5.35665 0
M  V30 5363 H 500.141 2.8314 5.29105 0
M  V30 5364 H 501.211 2.90883 3.87962 0
M  V30 5365 N 502.554 -1.34406 0.822964 0
M  V30 5366 C 503.464 -2.33298 0.246838 0
M  V30 5367 C 504.48 -1.62625 -0.618797 0
M  V30 5368 O 505.656 -1.94391 -0.526685 0
M  V30 5369 C 502.721 -3.41785 -0.581731 0
M  V30 5370 C 501.782 -4.28206 0.306309 0
M  V30 5371 C 501.015 -5.31512 -0.48281 0
M  V30 5372 O 501.238 -5.43973 -1.71607 0
M  V30 5373 O 500.172 -6.01749 0.134884 0
M  V30 5374 H 503.998 -2.84401 1.06534 0
M  V30 5375 H 501.583 -1.37466 0.585108 0
M  V30 5376 H 503.465 -4.08028 -1.05313 0
M  V30 5377 H 502.14 -2.92925 -1.37756 0
M  V30 5378 H 501.047 -3.64885 0.825199 0
M  V30 5379 H 502.38 -4.80507 1.06649 0
M  V30 5380 N 504.032 -0.577932 -1.46621 0
M  V30 5381 C 504.98 0.170882 -2.31971 0
M  V30 5382 C 505.974 0.889086 -1.44193 0
M  V30 5383 O 507.18 0.808017 -1.60845 0
M  V30 5384 H 503.555 0.0739763 -0.748353 0
M  V30 5385 H 505.526 -0.567856 -2.92947 0
M  V30 5386 C 504.275 1.17438 -3.27267 0
M  V30 5387 H 503.598 0.63116 -3.94787 0
M  V30 5388 H 505.038 1.66882 -3.89778 0
M  V30 5389 C 503.497 2.23292 -2.52274 0
M  V30 5390 O 504.027 3.30567 -2.28229 0
M  V30 5391 N 502.233 1.97772 -2.12919 0
M  V30 5392 H 501.78 1.10545 -2.32675 0
M  V30 5393 H 501.738 2.68809 -1.63062 0
M  V30 5394 N 505.51 1.54411 -0.315457 0
M  V30 5395 C 506.758 2.00023 0.288971 0
M  V30 5396 C 507.079 1.20529 1.5329 0
M  V30 5397 O 506.349 0.304986 1.93511 0
M  V30 5398 H 504.929 0.738891 0.109766 0
M  V30 5399 H 507.591 1.90094 -0.430129 0
M  V30 5400 H 506.687 3.07198 0.550999 0
M  V30 5401 N 506.988 0.0434614 1.5754 0
M  V30 5402 C 507.898 -0.94893 2.14552 0
M  V30 5403 C 508.914 -1.34707 1.10136 0
M  V30 5404 O 510.09 -1.42557 1.42266 0
M  V30 5405 C 507.155 -2.208 2.67298 0
M  V30 5406 C 506.216 -1.86893 3.86484 0
M  V30 5407 C 505.449 -3.06797 4.36705 0
M  V30 5408 O 505.672 -4.19921 3.86034 0
M  V30 5409 O 504.606 -2.8826 5.28384 0
M  V30 5410 H 508.432 -0.494099 2.99654 0
M  V30 5411 H 506.017 -0.177989 1.48336 0
M  V30 5412 H 507.899 -2.94686 3.01228 0
M  V30 5413 H 506.574 -2.65436 1.85272 0
M  V30 5414 H 505.481 -1.10347 3.57455 0
M  V30 5415 H 506.814 -1.47062 4.69716 0
M  V30 5416 N 508.466 -1.55915 -0.229846 0
M  V30 5417 C 509.414 -1.9258 -1.30444 0
M  V30 5418 C 510.408 -0.806839 -1.48951 0
M  V30 5419 O 511.614 -0.991606 -1.50224 0
M  V30 5420 H 507.989 -0.611878 -0.437161 0
M  V30 5421 H 509.96 -2.82264 -0.96797 0
M  V30 5422 C 508.709 -2.25171 -2.6494 0
M  V30 5423 H 508.032 -3.10782 -2.51504 0
M  V30 5424 H 509.472 -2.54716 -3.38963 0
M  V30 5425 C 507.931 -1.07394 -3.19324 0
M  V30 5426 O 508.461 -0.330759 -4.00336 0
M  V30 5427 N 506.667 -0.859984 -2.77584 0
M  V30 5428 H 506.214 -1.46605 -2.11813 0
M  V30 5429 H 506.172 -0.0736671 -3.14314 0
M  V30 5430 N 509.944 0.496216 -1.49584 0
M  V30 5431 C 511.193 1.24668 -1.58558 0
M  V30 5432 C 511.506 1.9359 -0.279703 0
M  V30 5433 O 512.712 2.70365 -0.248048 0
M  V30 5434 C 511.168 2.26388 -2.79779 0
M  V30 5435 C 510.776 1.63384 -4.17145 0
M  V30 5436 C 512.52 3.02233 -2.98086 0
M  V30 5437 C 510.427 2.63243 -5.29582 0
M  V30 5438 H 509.357 0.468995 -0.590389 0
M  V30 5439 H 512.008 0.519985 -1.75978 0
M  V30 5440 H 510.39 3.02241 -2.55863 0
M  V30 5441 H 511.564 0.93491 -4.51216 0
M  V30 5442 H 509.879 0.999121 -4.04236 0
M  V30 5443 H 512.476 3.76919 -3.79257 0
M  V30 5444 H 512.819 3.60132 -2.08831 0
M  V30 5445 H 513.352 2.33495 -3.22063 0
M  V30 5446 H 510.091 2.10119 -6.20911 0
M  V30 5447 H 509.611 3.31363 -4.99959 0
M  V30 5448 H 511.29 3.25575 -5.59115 0
M  V30 5449 N 511.423 1.38739 0.74761 0
M  V30 5450 C 512.651 1.38521 1.53686 0
M  V30 5451 C 513.066 -0.0235129 1.88785 0
M  V30 5452 O 512.423 -0.991662 1.53207 0
M  V30 5453 C 512.474 2.24641 2.83229 0
M  V30 5454 O 512.195 3.60026 2.49625 0
M  V30 5455 C 513.696 2.32669 3.77333 0
M  V30 5456 H 510.916 0.473589 0.475347 0
M  V30 5457 H 513.46 1.82395 0.924786 0
M  V30 5458 H 511.615 1.84213 3.40799 0
M  V30 5459 H 512.029 4.05435 3.3275 0
M  V30 5460 H 513.503 2.97201 4.65162 0
M  V30 5461 H 513.98 1.3421 4.18192 0
M  V30 5462 H 514.586 2.73512 3.25685 0
M  V30 5463 N 512.901 -0.976442 1.23707 0
M  V30 5464 C 514.129 -1.75341 1.09833 0
M  V30 5465 C 514.544 -1.8553 -0.349885 0
M  V30 5466 O 513.901 -1.33732 -1.24185 0
M  V30 5467 C 513.952 -3.17833 1.72233 0
M  V30 5468 O 513.673 -3.08167 3.11391 0
M  V30 5469 C 515.174 -4.11906 1.63853 0
M  V30 5470 H 512.394 -0.550137 0.384175 0
M  V30 5471 H 514.938 -1.2265 1.63638 0
M  V30 5472 H 513.093 -3.67538 1.22452 0
M  V30 5473 H 513.507 -3.97897 3.41729 0
M  V30 5474 H 514.981 -5.09579 2.12211 0
M  V30 5475 H 515.458 -4.35109 0.598092 0
M  V30 5476 H 516.064 -3.68107 2.13019 0
M  V30 5477 N 514.379 -1.04941 -1.1758 0
M  V30 5478 C 515.79 -0.784501 -1.69418 0
M  V30 5479 C 516.141 0.693625 -1.8353 0
M  V30 5480 O 515.266 1.53925 -1.52106 0
M  V30 5481 C 515.861 -1.41746 -3.07723 0
M  V30 5482 C 514.42 -1.20066 -3.56737 0
M  V30 5483 C 513.567 -1.5026 -2.33061 0
M  V30 5484 H 516.518 -1.21469 -1.02133 0
M  V30 5485 H 516.539 -0.825381 -3.7144 0
M  V30 5486 H 516.051 -2.49325 -2.9742 0
M  V30 5487 H 514.152 -0.144006 -3.72322 0
M  V30 5488 H 514.265 -1.90384 -4.39648 0
M  V30 5489 H 512.629 -0.922598 -2.37403 0
M  V30 5490 H 513.412 -2.58967 -2.25368 0
M  V30 5491 N 515.857 1.33968 -0.830081 0
M  V30 5492 C 516.804 2.29387 -0.255008 0
M  V30 5493 C 517.774 1.53923 0.624243 0
M  V30 5494 O 518.959 1.82262 0.564372 0
M  V30 5495 C 516.099 3.4034 0.571209 0
M  V30 5496 C 515.212 4.30729 -0.331083 0
M  V30 5497 C 514.347 5.2879 0.505389 0
M  V30 5498 C 513.386 6.10819 -0.395843 0
M  V30 5499 N 512.523 7.00948 0.401979 0
M  V30 5500 H 517.363 2.77972 -1.07404 0
M  V30 5501 H 514.9 1.36785 -0.541133 0
M  V30 5502 H 516.858 4.03361 1.06562 0
M  V30 5503 H 515.488 2.9297 1.35529 0
M  V30 5504 H 514.54 3.68507 -0.943759 0
M  V30 5505 H 515.852 4.88181 -1.02377 0
M  V30 5506 H 515.006 5.97297 1.06399 0
M  V30 5507 H 513.745 4.71894 1.23155 0
M  V30 5508 H 512.75 5.41238 -0.966529 0
M  V30 5509 H 513.975 6.69797 -1.12023 0
M  V30 5510 H 511.921 6.46512 1.11168 0
M  V30 5511 H 511.838 7.55643 -0.232167 0
M  V30 5512 H 513.106 7.73774 0.943102 0
M  V30 5513 N 517.335 0.585699 1.46312 0
M  V30 5514 C 518.582 0.0724211 2.0237 0
M  V30 5515 C 518.91 -1.28868 1.45683 0
M  V30 5516 O 518.165 -1.85853 0.612945 0
M  V30 5517 C 518.464 -0.0401312 3.57377 0
M  V30 5518 C 518.13 1.25376 4.33119 0
M  V30 5519 C 516.792 1.60824 4.5353 0
M  V30 5520 C 519.144 2.10987 4.76586 0
M  V30 5521 C 516.472 2.81676 5.14661 0
M  V30 5522 C 518.824 3.31068 5.39052 0
M  V30 5523 C 517.488 3.66794 5.5769 0
M  V30 5524 H 516.758 0.0265007 0.740526 0
M  V30 5525 H 519.405 0.762935 1.75646 0
M  V30 5526 H 517.71 -0.813791 3.83255 0
M  V30 5527 H 519.407 -0.453078 3.98432 0
M  V30 5528 H 515.997 0.967808 4.1753 0
M  V30 5529 H 520.181 1.84904 4.60569 0
M  V30 5530 H 515.437 3.0949 5.27282 0
M  V30 5531 H 519.611 3.97672 5.71691 0
M  V30 5532 H 517.238 4.60529 6.04828 0
M  V30 5533 N 518.813 -1.54241 0.323641 0
M  V30 5534 C 519.776 -2.22997 -0.529602 0
M  V30 5535 C 520.776 -1.22345 -1.04347 0
M  V30 5536 O 521.966 -1.46924 -0.935889 0
M  V30 5537 C 519.098 -2.93409 -1.73562 0
M  V30 5538 H 520.291 -2.99815 0.0714518 0
M  V30 5539 H 517.844 -1.56121 0.0747258 0
M  V30 5540 H 518.579 -2.20729 -2.37591 0
M  V30 5541 H 518.364 -3.67217 -1.37456 0
M  V30 5542 H 519.854 -3.45794 -2.34128 0
M  V30 5543 N 520.291 -0.0518155 -1.57515 0
M  V30 5544 C 521.241 0.932017 -2.0808 0
M  V30 5545 C 522.225 1.27141 -0.986098 0
M  V30 5546 O 523.417 1.25373 -1.24943 0
M  V30 5547 C 520.546 2.20665 -2.62986 0
M  V30 5548 C 519.632 1.89462 -3.79427 0
M  V30 5549 N 520.023 1.28621 -4.89173 0
M  V30 5550 C 518.321 2.19327 -3.88345 0
M  V30 5551 C 519.022 1.15062 -5.70207 0
M  V30 5552 N 517.998 1.65372 -5.17835 0
M  V30 5553 H 521.8 0.456964 -2.90326 0
M  V30 5554 H 519.314 0.152619 -1.61681 0
M  V30 5555 H 521.311 2.92044 -2.97516 0
M  V30 5556 H 519.971 2.68776 -1.8218 0
M  V30 5557 H 520.982 0.958341 -5.08956 0
M  V30 5558 H 517.659 2.69955 -3.18482 0
M  V30 5559 H 519.049 0.678243 -6.68468 0
M  V30 5560 N 521.769 1.56035 0.221574 0
M  V30 5561 C 522.732 1.91584 1.2581 0
M  V30 5562 C 523.732 0.794425 1.39805 0
M  V30 5563 O 524.922 1.06217 1.38071 0
M  V30 5564 C 522.054 2.16663 2.63192 0
M  V30 5565 H 523.247 2.8429 0.954935 0
M  V30 5566 H 520.8 1.49316 0.461988 0
M  V30 5567 H 521.535 1.26508 2.98607 0
M  V30 5568 H 521.32 2.98358 2.5441 0
M  V30 5569 H 522.81 2.45262 3.37988 0
M  V30 5570 N 523.247 -0.488276 1.49845 0
M  V30 5571 C 524.494 -1.24157 1.59973 0
M  V30 5572 C 524.822 -1.92293 0.292182 0
M  V30 5573 O 524.077 -1.81942 -0.720813 0
M  V30 5574 C 524.376 -2.32152 2.71735 0
M  V30 5575 C 524.042 -1.81387 4.12807 0
M  V30 5576 C 522.704 -1.67262 4.51195 0
M  V30 5577 C 525.056 -1.43537 5.01045 0
M  V30 5578 C 522.384 -1.13685 5.7558 0
M  V30 5579 C 524.736 -0.914081 6.25961 0
M  V30 5580 C 523.4 -0.759327 6.63167 0
M  V30 5581 H 522.67 -0.454322 0.585383 0
M  V30 5582 H 525.317 -0.540261 1.83721 0
M  V30 5583 H 523.622 -3.08122 2.42008 0
M  V30 5584 H 525.319 -2.90164 2.76778 0
M  V30 5585 H 521.909 -1.93344 3.82513 0
M  V30 5586 H 526.093 -1.53292 4.72033 0
M  V30 5587 H 521.349 -1.00426 6.03096 0
M  V30 5588 H 525.523 -0.612066 6.93705 0
M  V30 5589 H 523.15 -0.342002 7.5943 0
M  V30 5590 N 524.725 -1.39134 -0.740242 0
M  V30 5591 C 526.141 -1.20623 -1.0451 0
M  V30 5592 C 526.341 -0.0641651 -2.01398 0
M  V30 5593 O 525.397 0.585843 -2.4561 0
M  V30 5594 C 526.71 -2.53815 -1.6124 0
M  V30 5595 C 528.258 -2.60615 -1.73346 0
M  V30 5596 C 528.733 -3.94015 -2.33486 0
M  V30 5597 N 530.224 -3.95627 -2.40902 0
M  V30 5598 C 530.959 -4.95616 -2.88361 0
M  V30 5599 N 530.455 -6.06003 -3.35756 0
M  V30 5600 N 532.248 -4.82998 -2.87523 0
M  V30 5601 H 524.399 -2.12176 -0.0975576 0
M  V30 5602 H 526.662 -0.942066 -0.105904 0
M  V30 5603 H 526.368 -3.37911 -0.975144 0
M  V30 5604 H 526.242 -2.73162 -2.6012 0
M  V30 5605 H 528.629 -1.76906 -2.36195 0
M  V30 5606 H 528.71 -2.45123 -0.731336 0
M  V30 5607 H 528.354 -4.78153 -1.71267 0
M  V30 5608 H 528.284 -4.06825 -3.34366 0
M  V30 5609 H 530.775 -3.15903 -2.07398 0
M  V30 5610 H 531.088 -6.78215 -3.70464 0
M  V30 5611 H 529.433 -6.09604 -3.33778 0
M  V30 5612 H 532.624 -3.95866 -2.49816 0
M  V30 5613 H 532.797 -5.61072 -3.24196 0
M  V30 5614 N 526.204 0.969867 -1.24223 0
M  V30 5615 C 527.152 2.08535 -1.03034 0
M  V30 5616 C 528.146 1.69366 0.0340379 0
M  V30 5617 O 529.352 1.79597 -0.12034 0
M  V30 5618 H 525.727 0.682313 -0.316154 0
M  V30 5619 H 527.698 2.23569 -1.97635 0
M  V30 5620 C 526.447 3.4158 -0.649509 0
M  V30 5621 H 525.77 3.72177 -1.46028 0
M  V30 5622 H 527.21 4.20536 -0.540841 0
M  V30 5623 C 525.669 3.30703 0.643194 0
M  V30 5624 O 526.199 3.64443 1.68951 0
M  V30 5625 N 524.405 2.83841 0.623095 0
M  V30 5626 H 523.952 2.56583 -0.228719 0
M  V30 5627 H 523.91 2.76946 1.48823 0
M  V30 5628 N 527.682 1.05563 1.17022 0
M  V30 5629 C 528.612 0.681026 2.23348 0
M  V30 5630 C 529.593 -0.322983 1.67005 0
M  V30 5631 O 530.778 -0.199746 1.9317 0
M  V30 5632 C 527.908 0.0589053 3.4725 0
M  V30 5633 C 526.862 0.988082 4.16438 0
M  V30 5634 C 526.188 0.229646 5.34207 0
M  V30 5635 C 527.488 2.31388 4.68249 0
M  V30 5636 H 529.182 1.56993 2.54938 0
M  V30 5637 H 526.728 0.756302 1.2254 0
M  V30 5638 H 528.681 -0.214982 4.20851 0
M  V30 5639 H 527.405 -0.864968 3.14938 0
M  V30 5640 H 526.064 1.24659 3.44754 0
M  V30 5641 H 525.712 -0.697111 4.98146 0
M  V30 5642 H 525.412 0.848815 5.81437 0
M  V30 5643 H 526.936 -0.0368694 6.10589 0
M  V30 5644 H 528.35 2.09964 5.33468 0
M  V30 5645 H 526.747 2.88736 5.26072 0
M  V30 5646 H 527.817 2.94982 3.84855 0
M  V30 5647 N 529.16 -1.33526 0.837174 0
M  V30 5648 C 530.388 -2.02047 0.445494 0
M  V30 5649 C 530.803 -1.62995 -0.952788 0
M  V30 5650 O 530.16 -0.842447 -1.61892 0
M  V30 5651 C 530.211 -3.57221 0.554577 0
M  V30 5652 O 529.932 -3.94863 1.89776 0
M  V30 5653 C 531.433 -4.43012 0.159634 0
M  V30 5654 H 528.653 -0.647221 0.177048 0
M  V30 5655 H 531.197 -1.70492 1.12928 0
M  V30 5656 H 529.352 -3.87315 -0.0812781 0
M  V30 5657 H 529.766 -4.89569 1.88208 0
M  V30 5658 H 531.24 -5.51253 0.28701 0
M  V30 5659 H 531.717 -4.29916 -0.898289 0
M  V30 5660 H 532.323 -4.18274 0.769855 0
M  V30 5661 N 530.638 -0.59345 -1.46 0
M  V30 5662 C 531.885 -0.0831523 -2.02329 0
M  V30 5663 C 532.213 1.28093 -1.46364 0
M  V30 5664 O 531.468 1.85526 -0.622793 0
M  V30 5665 C 531.767 0.021178 -3.57394 0
M  V30 5666 C 531.433 -1.27671 -4.32448 0
M  V30 5667 C 530.095 -1.63227 -4.5267 0
M  V30 5668 C 532.447 -2.13511 -4.7546 0
M  V30 5669 C 529.775 -2.84401 -5.1316 0
M  V30 5670 C 532.127 -3.33922 -5.37289 0
M  V30 5671 C 530.791 -3.69747 -5.55737 0
M  V30 5672 H 530.061 -0.0304276 -0.740375 0
M  V30 5673 H 532.708 -0.772239 -1.75239 0
M  V30 5674 H 531.013 0.793454 -3.83682 0
M  V30 5675 H 532.71 0.431942 -3.98667 0
M  V30 5676 H 529.3 -0.989937 -4.17011 0
M  V30 5677 H 533.484 -1.87344 -4.59582 0
M  V30 5678 H 528.74 -3.12282 -5.25633 0
M  V30 5679 H 532.914 -4.00698 -5.69574 0
M  V30 5680 H 530.541 -4.6373 -6.02377 0
M  V30 5681 N 532.116 1.54067 -0.331816 0
M  V30 5682 C 533.026 2.28322 0.539104 0
M  V30 5683 C 534.042 1.32985 1.1221 0
M  V30 5684 O 535.218 1.6601 1.1403 0
M  V30 5685 C 532.283 3.03277 1.68 0
M  V30 5686 C 531.344 4.14216 1.12798 0
M  V30 5687 C 530.577 4.85588 2.2145 0
M  V30 5688 O 530.8 4.56536 3.41952 0
M  V30 5689 O 529.734 5.72309 1.86404 0
M  V30 5690 H 533.56 3.03632 -0.0641692 0
M  V30 5691 H 531.145 1.49083 -0.0972365 0
M  V30 5692 H 533.027 3.50189 2.34405 0
M  V30 5693 H 531.702 2.30834 2.2693 0
M  V30 5694 H 530.609 3.71635 0.428782 0
M  V30 5695 H 531.942 4.88727 0.583698 0
M  V30 5696 N 533.594 0.0601682 1.57485 0
M  V30 5697 C 534.842 -0.610386 1.92662 0
M  V30 5698 C 535.163 -1.70849 0.939981 0
M  V30 5699 O 534.433 -1.95895 -0.0137455 0
M  V30 5700 H 533.013 -0.228457 0.711208 0
M  V30 5701 H 535.675 0.115288 1.94559 0
M  V30 5702 H 534.771 -1.0432 2.94149 0
M  V30 5703 N 535.072 -1.5615 -0.213296 0
M  V30 5704 C 536.302 -1.83372 -0.951757 0
M  V30 5705 C 536.71 -0.638158 -1.78113 0
M  V30 5706 O 536.053 0.402609 -1.79234 0
M  V30 5707 C 536.115 -3.04444 -1.91192 0
M  V30 5708 C 535.779 -4.39107 -1.26627 0
M  V30 5709 C 536.776 -5.15794 -0.652087 0
M  V30 5710 C 534.461 -4.85834 -1.27556 0
M  V30 5711 C 536.455 -6.37376 -0.055814 0
M  V30 5712 C 534.142 -6.07356 -0.675451 0
M  V30 5713 C 535.14 -6.82967 -0.0666367 0
M  V30 5714 O 534.828 -8.0219 0.524119 0
M  V30 5715 H 534.56 -0.613398 -0.284111 0
M  V30 5716 H 537.114 -2.04096 -0.231112 0
M  V30 5717 H 535.344 -2.79559 -2.67178 0
M  V30 5718 H 537.033 -3.18466 -2.51662 0
M  V30 5719 H 537.799 -4.80796 -0.637172 0
M  V30 5720 H 533.678 -4.26949 -1.73883 0
M  V30 5721 H 537.222 -6.96334 0.420004 0
M  V30 5722 H 533.119 -6.41825 -0.687806 0
M  V30 5723 H 533.887 -8.17426 0.419243 0
M  V30 5724 N 536.55 0.480323 -1.50102 0
M  V30 5725 C 537.827 1.24159 -1.51142 0
M  V30 5726 C 538.207 2.09605 -0.250818 0
M  V30 5727 O 537.555 2.15274 0.766118 0
M  V30 5728 C 537.765 2.08057 -2.80202 0
M  V30 5729 C 539.113 2.66556 -3.30504 0
M  V30 5730 O 540.137 2.18308 -2.81461 0
M  V30 5731 O 538.996 3.54442 -4.15973 0
M  V30 5732 H 536.09 0.562928 -0.605839 0
M  V30 5733 H 538.636 0.492899 -1.62384 0
M  V30 5734 H 537.408 1.45032 -3.6343 0
M  V30 5735 H 537.031 2.90079 -2.71919 0
M  V30 5736 N 538.028 1.39524 0.732853 0
M  V30 5737 C 539.276 1.36594 1.48951 0
M  V30 5738 C 539.597 -0.0367507 1.94965 0
M  V30 5739 O 538.867 -0.988391 1.69138 0
M  V30 5740 H 537.447 0.502673 0.552566 0
M  V30 5741 H 540.109 1.74411 0.869869 0
M  V30 5742 H 539.205 2.03 2.3706 0
M  V30 5743 N 539.506 -0.963266 1.24736 0
M  V30 5744 C 540.917 -1.52145 1.08207 0
M  V30 5745 C 541.268 -1.93142 -0.345061 0
M  V30 5746 O 540.393 -1.77769 -1.23399 0
M  V30 5747 C 540.988 -2.76486 1.95808 0
M  V30 5748 C 539.547 -3.28646 1.8349 0
M  V30 5749 C 538.694 -2.01529 1.90476 0
M  V30 5750 H 541.645 -0.781083 1.38148 0
M  V30 5751 H 541.666 -3.49986 1.49297 0
M  V30 5752 H 541.178 -2.46617 2.99669 0
M  V30 5753 H 539.279 -3.63357 0.824787 0
M  V30 5754 H 539.392 -3.97246 2.67829 0
M  V30 5755 H 537.756 -2.16442 1.34258 0
M  V30 5756 H 538.539 -1.7402 2.95926 0
M  V30 5757 N 540.985 -1.06182 -1.16461 0
M  V30 5758 C 542.231 -0.779015 -1.87241 0
M  V30 5759 C 542.564 0.692715 -1.81425 0
M  V30 5760 O 541.839 1.5074 -1.22913 0
M  V30 5761 C 542.122 -1.2728 -3.36856 0
M  V30 5762 C 541.975 -2.80821 -3.51368 0
M  V30 5763 C 543.294 -0.879799 -4.31216 0
M  V30 5764 H 540.413 -0.284464 -0.679889 0
M  V30 5765 H 543.055 -1.31755 -1.36896 0
M  V30 5766 H 541.205 -0.814673 -3.79862 0
M  V30 5767 H 542.877 -3.34833 -3.17308 0
M  V30 5768 H 541.12 -3.19606 -2.93316 0
M  V30 5769 H 541.791 -3.10435 -4.56436 0
M  V30 5770 H 544.267 -1.27436 -3.96105 0
M  V30 5771 H 543.143 -1.25278 -5.34412 0
M  V30 5772 H 543.404 0.215372 -4.41575 0
M  V30 5773 N 542.463 1.3308 -0.844243 0
M  V30 5774 C 543.691 2.01808 -0.456203 0
M  V30 5775 C 544.106 1.63498 0.944131 0
M  V30 5776 O 543.463 0.85102 1.61443 0
M  V30 5777 C 543.514 3.56922 -0.573513 0
M  V30 5778 O 543.235 3.93851 -1.91868 0
M  V30 5779 C 544.736 4.42922 -0.183125 0
M  V30 5780 H 541.956 0.646273 -0.180477 0
M  V30 5781 H 544.5 1.69891 -1.1383 0
M  V30 5782 H 542.655 3.87352 0.0607367 0
M  V30 5783 H 543.069 4.88564 -1.90802 0
M  V30 5784 H 544.543 5.51093 -0.316241 0
M  V30 5785 H 545.02 4.30386 0.875477 0
M  V30 5786 H 545.626 4.1786 -0.792027 0
M  V30 5787 N 543.941 0.601185 1.45683 0
M  V30 5788 C 544.871 -0.108824 2.33246 0
M  V30 5789 C 545.852 -0.865223 1.46451 0
M  V30 5790 O 547.037 -0.83704 1.75235 0
M  V30 5791 C 544.167 -1.11101 3.2905 0
M  V30 5792 C 543.121 -0.468244 4.25431 0
M  V30 5793 C 542.447 -1.57822 5.10878 0
M  V30 5794 C 543.747 0.606469 5.18767 0
M  V30 5795 H 545.441 0.622306 2.92861 0
M  V30 5796 H 542.987 0.300714 1.40825 0
M  V30 5797 H 544.94 -1.61622 3.89174 0
M  V30 5798 H 543.664 -1.87265 2.67581 0
M  V30 5799 H 542.323 0.0160484 3.66596 0
M  V30 5800 H 541.971 -2.32998 4.45781 0
M  V30 5801 H 541.671 -1.15369 5.76163 0
M  V30 5802 H 543.195 -2.08583 5.73869 0
M  V30 5803 H 544.609 0.185589 5.73 0
M  V30 5804 H 543.006 0.952381 5.92494 0
M  V30 5805 H 544.076 1.48559 4.61582 0
M  V30 5806 N 545.419 -1.53889 0.339982 0
M  V30 5807 C 546.696 -1.93084 -0.312719 0
M  V30 5808 C 547.076 -1.2712 -1.68534 0
M  V30 5809 O 546.424 -0.420835 -2.24591 0
M  V30 5810 C 546.634 -3.4683 -0.388558 0
M  V30 5811 C 547.982 -4.19732 -0.641088 0
M  V30 5812 O 549.006 -3.53075 -0.470818 0
M  V30 5813 O 547.865 -5.3781 -0.970685 0
M  V30 5814 H 544.959 -0.806784 -0.18174 0
M  V30 5815 H 547.505 -1.65137 0.390898 0
M  V30 5816 H 546.277 -3.87055 0.574821 0
M  V30 5817 H 545.9 -3.80933 -1.1391 0
M  V30 5818 N 546.897 -0.0685191 -1.57451 0
M  V30 5819 C 548.174 0.642167 -1.84758 0
M  V30 5820 C 548.554 1.87991 -0.960344 0
M  V30 5821 O 547.902 2.28485 -0.0257894 0
M  V30 5822 C 548.112 0.982946 -3.34872 0
M  V30 5823 C 549.46 1.35784 -4.02303 0
M  V30 5824 O 550.484 1.07477 -3.39598 0
M  V30 5825 O 549.343 1.88681 -5.12895 0
M  V30 5826 H 546.437 0.318625 -0.763156 0
M  V30 5827 H 548.983 -0.0992015 -1.6941 0
M  V30 5828 H 547.755 0.10372 -3.91163 0
M  V30 5829 H 547.378 1.78119 -3.55471 0
M  V30 5830 N 548.375 1.56261 0.205012 0
M  V30 5831 C 549.621 1.81211 0.923805 0
M  V30 5832 C 549.976 0.644065 1.813 0
M  V30 5833 O 549.269 -0.361208 1.88164 0
M  V30 5834 C 549.463 3.09722 1.78345 0
M  V30 5835 C 549.292 4.38915 0.978979 0
M  V30 5836 C 548.062 5.00874 0.667332 0
M  V30 5837 C 550.26 5.13199 0.336386 0
M  V30 5838 N 548.242 6.137 -0.156814 0
M  V30 5839 C 549.613 6.19009 -0.350402 0
M  V30 5840 C 551.668 4.97266 0.251101 0
M  V30 5841 C 550.371 7.10616 -1.11434 0
M  V30 5842 C 552.397 5.89288 -0.499413 0
M  V30 5843 C 551.759 6.94536 -1.17468 0
M  V30 5844 H 547.858 0.714528 0.317764 0
M  V30 5845 H 550.442 1.93738 0.193317 0
M  V30 5846 H 548.613 2.98448 2.48563 0
M  V30 5847 H 550.345 3.22798 2.44098 0
M  V30 5848 H 547.1 4.63151 0.989366 0
M  V30 5849 H 547.524 6.74695 -0.558206 0
M  V30 5850 H 552.166 4.15935 0.758823 0
M  V30 5851 H 549.884 7.91417 -1.63353 0
M  V30 5852 H 553.47 5.79034 -0.566627 0
M  V30 5853 H 552.35 7.64513 -1.74613 0
M  V30 5854 N 549.853 -0.472356 1.50355 0
M  V30 5855 C 551.101 -1.22211 1.60962 0
M  V30 5856 C 551.422 -1.92497 0.311439 0
M  V30 5857 O 550.692 -1.8405 -0.671002 0
M  V30 5858 H 549.272 -0.454092 0.593135 0
M  V30 5859 H 551.934 -0.544977 1.87126 0
M  V30 5860 H 551.03 -1.9707 2.42012 0
M  V30 5861 N 551.331 -1.39911 -0.725443 0
M  V30 5862 C 552.608 -1.28158 -1.47766 0
M  V30 5863 C 552.988 0.104545 -2.10841 0
M  V30 5864 O 552.336 1.11657 -1.99361 0
M  V30 5865 C 552.546 -2.41306 -2.52135 0
M  V30 5866 C 553.894 -2.81076 -3.18247 0
M  V30 5867 O 554.918 -2.40827 -2.62452 0
M  V30 5868 O 553.777 -3.50581 -4.19231 0
M  V30 5869 H 550.871 -0.502761 -0.656628 0
M  V30 5870 H 553.417 -1.51808 -0.758456 0
M  V30 5871 H 552.189 -3.33932 -2.03974 0
M  V30 5872 H 551.812 -2.19374 -3.31603 0
M  V30 5873 N 552.809 0.956637 -1.25245 0
M  V30 5874 C 554.055 1.70352 -1.10036 0
M  V30 5875 C 554.388 1.90869 0.358156 0
M  V30 5876 O 553.663 1.47819 1.26411 0
M  V30 5877 C 553.946 3.08766 -1.85298 0
M  V30 5878 C 553.799 2.95672 -3.38966 0
M  V30 5879 C 555.118 4.08622 -1.63451 0
M  V30 5880 H 552.237 0.618279 -0.401123 0
M  V30 5881 H 554.879 1.11212 -1.54051 0
M  V30 5882 H 553.029 3.59252 -1.47887 0
M  V30 5883 H 554.701 2.52527 -3.86041 0
M  V30 5884 H 552.944 2.31634 -3.6678 0
M  V30 5885 H 553.615 3.93776 -3.86839 0
M  V30 5886 H 556.091 3.67038 -1.96015 0
M  V30 5887 H 554.967 5.03514 -2.18551 0
M  V30 5888 H 555.228 4.3834 -0.575357 0
M  V30 5889 N 554.287 1.06798 1.15896 0
M  V30 5890 C 555.564 0.701057 1.82605 0
M  V30 5891 C 555.944 -0.817066 1.94646 0
M  V30 5892 O 555.292 -1.72933 1.49353 0
M  V30 5893 C 555.502 1.40895 3.19296 0
M  V30 5894 C 556.85 1.55744 3.95005 0
M  V30 5895 O 557.874 1.36927 3.28831 0
M  V30 5896 O 556.733 1.86658 5.13635 0
M  V30 5897 H 553.827 0.248791 0.78869 0
M  V30 5898 H 556.373 1.16857 1.23055 0
M  V30 5899 H 555.145 2.4439 3.05596 0
M  V30 5900 H 554.768 0.931847 3.86526 0
M  V30 5901 N 555.766 -1.3263 0.851289 0
M  V30 5902 C 556.991 -2.02097 0.466006 0
M  V30 5903 C 557.416 -1.63574 -0.928709 0
M  V30 5904 O 556.774 -0.834665 -1.60944 0
M  V30 5905 C 556.822 -3.55425 0.608737 0
M  V30 5906 O 555.926 -4.10827 -0.359878 0
M  V30 5907 H 555.267 -0.636911 0.187724 0
M  V30 5908 H 557.797 -1.69253 1.14955 0
M  V30 5909 H 557.807 -4.04986 0.495006 0
M  V30 5910 H 556.482 -3.82806 1.62581 0
M  V30 5911 H 555.059 -3.72349 -0.202666 0
M  V30 5912 N 557.244 -0.608902 -1.45362 0
M  V30 5913 C 558.472 -0.111013 -2.06602 0
M  V30 5914 C 558.887 1.20516 -1.45332 0
M  V30 5915 O 558.244 1.73437 -0.567978 0
M  V30 5916 C 558.295 0.033688 -3.61484 0
M  V30 5917 O 558.016 -1.23041 -4.20467 0
M  V30 5918 C 559.517 0.562882 -4.39712 0
M  V30 5919 H 556.737 -0.0694453 -0.667397 0
M  V30 5920 H 559.281 -0.837008 -1.86586 0
M  V30 5921 H 557.436 0.710016 -3.80838 0
M  V30 5922 H 557.85 -1.06094 -5.13658 0
M  V30 5923 H 559.324 0.613213 -5.48583 0
M  V30 5924 H 559.801 1.58543 -4.09586 0
M  V30 5925 H 560.407 -0.0794454 -4.25226 0
M  V30 5926 N 558.722 1.53707 -0.348139 0
M  V30 5927 C 559.655 2.21481 0.549667 0
M  V30 5928 C 560.633 1.20046 1.09671 0
M  V30 5929 O 561.817 1.48883 1.15612 0
M  V30 5930 C 558.944 2.89585 1.75664 0
M  V30 5931 C 557.99 4.04948 1.33864 0
M  V30 5932 S 558.823 5.34325 0.354577 0
M  V30 5933 C 559.979 6.05934 1.56828 0
M  V30 5934 H 560.212 2.97289 -0.0259755 0
M  V30 5935 H 557.745 1.53833 -0.132216 0
M  V30 5936 H 559.703 3.29441 2.44906 0
M  V30 5937 H 558.364 2.13535 2.30351 0
M  V30 5938 H 557.557 4.51552 2.23868 0
M  V30 5939 H 557.159 3.66893 0.725651 0
M  V30 5940 H 559.451 6.29606 2.50205 0
M  V30 5941 H 560.394 6.98799 1.14395 0
M  V30 5942 H 560.802 5.36151 1.76642 0
M  V30 5943 N 560.2 0.0768682 1.57412 0
M  V30 5944 C 561.446 -0.591961 1.93968 0
M  V30 5945 C 561.779 -1.68954 0.9575 0
M  V30 5946 O 561.054 -1.94496 -0.0124675 0
M  V30 5947 C 561.337 -1.16418 3.40762 0
M  V30 5948 C 561.19 -0.0728933 4.49741 0
M  V30 5949 C 562.509 -2.06814 3.88479 0
M  V30 5950 H 559.628 -0.213716 0.705333 0
M  V30 5951 H 562.27 0.14387 1.89455 0
M  V30 5952 H 560.42 -1.79128 3.4474 0
M  V30 5953 H 562.092 0.560446 4.57883 0
M  V30 5954 H 560.335 0.595859 4.29688 0
M  V30 5955 H 561.006 -0.513755 5.49604 0
M  V30 5956 H 563.482 -1.54033 3.8654 0
M  V30 5957 H 562.358 -2.43785 4.91793 0
M  V30 5958 H 562.619 -2.97844 3.26713 0
M  V30 5959 N 561.678 -1.56367 -0.196722 0
M  V30 5960 C 562.608 -1.97442 -1.24655 0
M  V30 5961 C 563.589 -0.846147 -1.47561 0
M  V30 5962 O 564.774 -1.11035 -1.59326 0
M  V30 5963 C 561.904 -2.31253 -2.59112 0
M  V30 5964 C 560.858 -3.46804 -2.50821 0
M  V30 5965 C 560.184 -3.66286 -3.89536 0
M  V30 5966 C 561.484 -4.8104 -2.03465 0
M  V30 5967 H 563.178 -2.85388 -0.905216 0
M  V30 5968 H 560.724 -1.37304 -0.434002 0
M  V30 5969 H 562.677 -2.58583 -3.32736 0
M  V30 5970 H 561.401 -1.40188 -2.94983 0
M  V30 5971 H 560.06 -3.19563 -1.79653 0
M  V30 5972 H 559.708 -2.72555 -4.22756 0
M  V30 5973 H 559.408 -4.4402 -3.84864 0
M  V30 5974 H 560.932 -3.9599 -4.64784 0
M  V30 5975 H 562.346 -5.07411 -2.66846 0
M  V30 5976 H 560.743 -5.62232 -2.09798 0
M  V30 5977 H 561.813 -4.74732 -0.98781 0
M  V30 5978 N 563.156 0.464375 -1.50603 0
M  V30 5979 C 564.086 1.56944 -1.72889 0
M  V30 5980 C 565.067 1.59979 -0.577997 0
M  V30 5981 O 566.252 1.76138 -0.817855 0
M  V30 5982 C 563.382 2.95225 -1.8292 0
M  V30 5983 C 562.336 3.07056 -2.98162 0
M  V30 5984 C 561.662 4.47051 -2.93343 0
M  V30 5985 C 562.962 2.83648 -4.38567 0
M  V30 5986 H 564.656 1.38547 -2.65415 0
M  V30 5987 H 562.202 0.665082 -1.27721 0
M  V30 5988 H 564.155 3.72467 -1.97095 0
M  V30 5989 H 562.879 3.14793 -0.870209 0
M  V30 5990 H 561.538 2.32248 -2.83648 0
M  V30 5991 H 561.186 4.63547 -1.95276 0
M  V30 5992 H 560.886 4.55902 -3.70712 0
M  V30 5993 H 562.41 5.26304 -3.09575 0
M  V30 5994 H 563.824 3.50636 -4.53572 0
M  V30 5995 H 562.221 3.03937 -5.17438 0
M  V30 5996 H 563.291 1.79451 -4.50472 0
M  V30 5997 N 564.634 1.40294 0.718013 0
M  V30 5998 C 565.864 1.41544 1.50495 0
M  V30 5999 C 566.272 0.0127877 1.89196 0
M  V30 6000 O 565.615 -0.97305 1.55812 0
M  V30 6001 C 565.677 2.24021 2.81167 0
M  V30 6002 C 565.341 3.72463 2.64803 0
M  V30 6003 C 566.338 4.65154 2.32223 0
M  V30 6004 C 564.023 4.1625 2.81143 0
M  V30 6005 C 566.017 5.99618 2.16189 0
M  V30 6006 C 563.704 5.50784 2.64727 0
M  V30 6007 C 564.702 6.42283 2.32297 0
M  V30 6008 O 564.39 7.74337 2.16004 0
M  V30 6009 H 564.122 0.484819 0.471091 0
M  V30 6010 H 566.676 1.84948 0.893488 0
M  V30 6011 H 564.906 1.75393 3.44636 0
M  V30 6012 H 566.595 2.17243 3.42871 0
M  V30 6013 H 567.361 4.32622 2.19234 0
M  V30 6014 H 563.24 3.45352 3.05373 0
M  V30 6015 H 566.784 6.71 1.90799 0
M  V30 6016 H 562.681 5.82902 2.773 0
M  V30 6017 H 563.449 7.85244 2.30942 0
M  V30 6018 N 566.112 -0.949982 1.2575 0
M  V30 6019 C 567.34 -1.72972 1.13527 0
M  V30 6020 C 567.755 -1.8623 -0.310453 0
M  V30 6021 O 567.112 -1.36336 -1.2132 0
M  V30 6022 C 567.163 -3.14108 1.78936 0
M  V30 6023 O 566.884 -3.01493 3.17858 0
M  V30 6024 C 568.385 -4.08338 1.72554 0
M  V30 6025 H 565.605 -0.541864 0.395758 0
M  V30 6026 H 568.149 -1.19151 1.66202 0
M  V30 6027 H 566.304 -3.64858 1.30221 0
M  V30 6028 H 566.718 -3.90559 3.50092 0
M  V30 6029 H 568.192 -5.04963 2.22973 0
M  V30 6030 H 568.669 -4.33742 0.690251 0
M  V30 6031 H 569.275 -3.63506 2.2078 0
M  V30 6032 N 567.59 -1.07411 -1.15328 0
M  V30 6033 C 568.815 -0.818856 -1.90551 0
M  V30 6034 C 569.24 0.622194 -1.77512 0
M  V30 6035 O 568.598 1.43484 -1.10824 0
M  V30 6036 C 568.646 -1.23267 -3.38877 0
M  V30 6037 O 567.75 -0.378345 -4.10661 0
M  V30 6038 H 567.091 -0.29827 -0.593238 0
M  V30 6039 H 569.621 -1.43289 -1.46046 0
M  V30 6040 H 569.631 -1.20912 -3.89672 0
M  V30 6041 H 568.306 -2.28226 -3.47686 0
M  V30 6042 H 566.883 -0.464437 -3.69996 0
M  V30 6043 N 569.068 1.32177 -0.85831 0
M  V30 6044 C 570.314 1.97417 -0.46417 0
M  V30 6045 C 570.647 1.67746 0.978514 0
M  V30 6046 O 569.922 0.967654 1.68721 0
M  V30 6047 C 570.205 3.53069 -0.708094 0
M  V30 6048 C 570.058 3.92357 -2.19946 0
M  V30 6049 C 571.377 4.39783 -0.166881 0
M  V30 6050 H 568.496 0.717097 -0.17012 0
M  V30 6051 H 571.138 1.56499 -1.07741 0
M  V30 6052 H 569.288 3.88054 -0.186128 0
M  V30 6053 H 570.96 3.67533 -2.78779 0
M  V30 6054 H 569.203 3.41384 -2.67656 0
M  V30 6055 H 569.874 5.00841 -2.32082 0
M  V30 6056 H 572.35 4.11556 -0.613285 0
M  V30 6057 H 571.226 5.47671 -0.367093 0
M  V30 6058 H 571.487 4.32196 0.930559 0
M  V30 6059 N 570.547 0.616602 1.45037 0
M  V30 6060 C 571.824 0.0469086 1.95544 0
M  V30 6061 C 572.204 -1.42345 1.55888 0
M  V30 6062 O 571.552 -2.13055 0.825824 0
M  V30 6063 C 571.762 0.254489 3.48071 0
M  V30 6064 C 573.11 0.140025 4.24369 0
M  V30 6065 O 574.134 0.185084 3.55719 0
M  V30 6066 O 572.993 0.0327034 5.4649 0
M  V30 6067 H 570.087 -0.0306051 0.826433 0
M  V30 6068 H 572.633 0.687293 1.55159 0
M  V30 6069 H 571.405 1.27532 3.69934 0
M  V30 6070 H 571.028 -0.42073 3.95368 0
M  V30 6071 N 572.025 -1.5352 0.356285 0
M  V30 6072 C 573.253 -2.05534 -0.237328 0
M  V30 6073 C 573.668 -1.23043 -1.43199 0
M  V30 6074 O 573.025 -0.268821 -1.80509 0
M  V30 6075 C 573.076 -3.55791 -0.639933 0
M  V30 6076 O 572.797 -4.35154 0.507233 0
M  V30 6077 C 574.298 -4.24027 -1.29292 0
M  V30 6078 H 571.518 -0.669585 -0.0435572 0
M  V30 6079 H 574.062 -1.97988 0.511963 0
M  V30 6080 H 572.217 -3.63518 -1.33915 0
M  V30 6081 H 572.631 -5.24178 0.18375 0
M  V30 6082 H 574.105 -5.30509 -1.52527 0
M  V30 6083 H 574.582 -3.77166 -2.25039 0
M  V30 6084 H 575.188 -4.20527 -0.63539 0
M  V30 6085 N 573.503 -0.0852151 -1.57369 0
M  V30 6086 C 574.45 0.877268 -2.13478 0
M  V30 6087 C 575.42 1.28642 -1.05073 0
M  V30 6088 O 576.605 1.36992 -1.32808 0
M  V30 6089 C 573.745 2.13464 -2.71159 0
M  V30 6090 C 572.858 1.77691 -3.93764 0
M  V30 6091 C 571.993 2.98139 -4.39643 0
M  V30 6092 C 571.032 2.58447 -5.54862 0
M  V30 6093 N 570.169 3.71698 -5.95639 0
M  V30 6094 H 575.009 0.391933 -2.95411 0
M  V30 6095 H 572.546 0.181796 -1.45972 0
M  V30 6096 H 574.504 2.87086 -3.02717 0
M  V30 6097 H 573.134 2.59514 -1.91969 0
M  V30 6098 H 572.186 0.940768 -3.68583 0
M  V30 6099 H 573.498 1.44497 -4.77412 0
M  V30 6100 H 572.652 3.80026 -4.72933 0
M  V30 6101 H 571.391 3.34536 -3.54876 0
M  V30 6102 H 570.396 1.74984 -5.21211 0
M  V30 6103 H 571.621 2.23205 -6.41371 0
M  V30 6104 H 569.567 4.07831 -5.13819 0
M  V30 6105 H 569.484 3.42317 -6.74059 0
M  V30 6106 H 570.752 4.54123 -6.33555 0
M  V30 6107 N 574.981 1.5647 0.188427 0
M  V30 6108 C 575.928 1.95073 1.23349 0
M  V30 6109 C 576.898 0.812238 1.44886 0
M  V30 6110 O 578.083 1.07095 1.57909 0
M  V30 6111 C 575.223 2.30124 2.57171 0
M  V30 6112 C 574.336 3.57069 2.43157 0
M  V30 6113 C 573.471 3.81411 3.69729 0
M  V30 6114 C 572.51 5.0176 3.50575 0
M  V30 6115 N 571.647 5.22321 4.69175 0
M  V30 6116 H 576.487 2.84171 0.89728 0
M  V30 6117 H 574.024 1.40623 0.431683 0
M  V30 6118 H 575.982 2.48463 3.35145 0
M  V30 6119 H 574.612 1.44159 2.88822 0
M  V30 6120 H 573.664 3.4674 1.56447 0
M  V30 6121 H 574.976 4.452 2.24942 0
M  V30 6122 H 574.13 4.00026 4.56141 0
M  V30 6123 H 572.869 2.91624 3.90905 0
M  V30 6124 H 571.874 4.83061 2.62549 0
M  V30 6125 H 573.099 5.93063 3.30837 0
M  V30 6126 H 571.045 4.35483 4.90602 0
M  V30 6127 H 570.962 6.04643 4.53809 0
M  V30 6128 H 572.23 5.45401 5.56919 0
M  V30 6129 N 576.459 -0.456382 1.50847 0
M  V30 6130 C 577.689 -1.22848 1.66108 0
M  V30 6131 C 578.097 -1.85936 0.349897 0
M  V30 6132 O 577.44 -1.70664 -0.679665 0
M  V30 6133 C 577.502 -2.36722 2.70561 0
M  V30 6134 C 577.166 -1.94154 4.13707 0
M  V30 6135 C 578.163 -1.4557 4.99105 0
M  V30 6136 C 575.848 -2.02426 4.59705 0
M  V30 6137 C 577.842 -1.0582 6.28555 0
M  V30 6138 C 575.529 -1.62287 5.89157 0
M  V30 6139 C 576.527 -1.14064 6.73408 0
M  V30 6140 O 576.215 -0.744873 8.00442 0
M  V30 6141 H 575.947 -0.377105 0.561042 0
M  V30 6142 H 578.501 -0.549431 1.97915 0
M  V30 6143 H 576.731 -3.07844 2.34027 0
M  V30 6144 H 578.42 -2.98646 2.74892 0
M  V30 6145 H 579.186 -1.38589 4.64777 0
M  V30 6146 H 575.065 -2.38908 3.94264 0
M  V30 6147 H 578.609 -0.6811 6.94267 0
M  V30 6148 H 574.506 -1.68932 6.23003 0
M  V30 6149 H 575.274 -0.87242 8.13837 0
M  V30 6150 N 577.937 -1.40673 -0.710563 0
M  V30 6151 C 578.884 -1.41336 -1.82463 0
M  V30 6152 C 579.854 -0.269648 -1.63897 0
M  V30 6153 O 581.039 -0.468463 -1.8496 0
M  V30 6154 C 578.179 -1.28665 -3.20218 0
M  V30 6155 C 577.292 -2.52784 -3.5032 0
M  V30 6156 C 576.427 -2.32517 -4.77608 0
M  V30 6157 C 575.466 -3.52187 -5.0063 0
M  V30 6158 N 574.603 -3.31084 -6.19135 0
M  V30 6159 H 579.443 -2.36558 -1.8123 0
M  V30 6160 H 576.98 -1.17483 -0.885226 0
M  V30 6161 H 578.938 -1.19324 -3.99772 0
M  V30 6162 H 577.568 -0.370602 -3.20666 0
M  V30 6163 H 576.62 -2.72634 -2.65283 0
M  V30 6164 H 577.932 -3.41845 -3.63241 0
M  V30 6165 H 577.086 -2.20558 -5.65189 0
M  V30 6166 H 575.825 -1.40889 -4.66906 0
M  V30 6167 H 574.83 -3.64617 -4.11502 0
M  V30 6168 H 576.055 -4.44749 -5.13201 0
M  V30 6169 H 574.001 -2.42143 -6.09674 0
M  V30 6170 H 573.918 -4.13713 -6.32754 0
M  V30 6171 H 575.186 -3.22868 -7.0949 0
M  V30 6172 N 579.415 0.9433 -1.26252 0
M  V30 6173 C 580.661 1.69175 -1.11837 0
M  V30 6174 C 580.994 1.91238 0.337891 0
M  V30 6175 O 580.269 1.49152 1.24836 0
M  V30 6176 C 580.552 3.06783 -1.88563 0
M  V30 6177 C 580.405 2.9206 -3.42083 0
M  V30 6178 C 581.724 4.06865 -1.67776 0
M  V30 6179 H 578.843 0.61399 -0.407658 0
M  V30 6180 H 581.485 1.09572 -1.55222 0
M  V30 6181 H 579.635 3.57663 -1.51689 0
M  V30 6182 H 581.307 2.48419 -3.88698 0
M  V30 6183 H 579.55 2.27731 -3.69217 0
M  V30 6184 H 580.221 3.89651 -3.90994 0
M  V30 6185 H 582.697 3.64939 -1.99897 0
M  V30 6186 H 581.573 5.01168 -2.23879 0
M  V30 6187 H 581.834 4.37705 -0.621816 0
M  V30 6188 N 580.893 1.08022 1.14757 0
M  V30 6189 C 581.823 0.728248 2.21853 0
M  V30 6190 C 582.804 -0.287486 1.67653 0
M  V30 6191 O 583.989 -0.158727 1.9355 0
M  V30 6192 C 581.119 0.132549 3.47047 0
M  V30 6193 C 580.073 1.07619 4.14249 0
M  V30 6194 C 579.399 0.342907 5.33599 0
M  V30 6195 C 580.699 2.41268 4.63235 0
M  V30 6196 H 582.393 1.62365 2.51551 0
M  V30 6197 H 579.939 0.782125 1.20908 0
M  V30 6198 H 581.892 -0.125665 4.21213 0
M  V30 6199 H 580.616 -0.797971 3.16702 0
M  V30 6200 H 579.275 1.31944 3.42033 0
M  V30 6201 H 578.923 -0.59129 4.99513 0
M  V30 6202 H 578.623 0.971955 5.79506 0
M  V30 6203 H 580.147 0.0926538 6.1053 0
M  V30 6204 H 581.561 2.21232 5.28894 0
M  V30 6205 H 579.958 2.9983 5.19829 0
M  V30 6206 H 581.028 3.03079 3.78512 0
M  V30 6207 N 582.371 -1.3172 0.865308 0
M  V30 6208 C 583.301 -2.31109 0.333302 0
M  V30 6209 C 584.282 -1.60148 -0.573301 0
M  V30 6210 O 585.467 -1.87882 -0.491305 0
M  V30 6211 C 582.597 -3.44104 -0.470078 0
M  V30 6212 C 581.551 -4.26623 0.343021 0
M  V30 6213 C 580.877 -5.31482 -0.585756 0
M  V30 6214 C 582.177 -4.98001 1.57456 0
M  V30 6215 H 583.871 -2.75855 1.1638 0
M  V30 6216 H 581.417 -1.3262 0.561069 0
M  V30 6217 H 583.37 -4.12682 -0.852752 0
M  V30 6218 H 582.094 -2.98112 -1.33404 0
M  V30 6219 H 580.753 -3.59707 0.707583 0
M  V30 6220 H 580.401 -4.81741 -1.44686 0
M  V30 6221 H 580.101 -5.87582 -0.0456494 0
M  V30 6222 H 581.625 -6.0292 -0.965375 0
M  V30 6223 H 583.039 -5.59201 1.26359 0
M  V30 6224 H 581.436 -5.63876 2.05339 0
M  V30 6225 H 582.506 -4.25253 2.32997 0
M  V30 6226 N 583.85 -0.624285 -1.44708 0
M  V30 6227 C 585.077 -0.132919 -2.06473 0
M  V30 6228 C 585.493 1.18967 -1.46602 0
M  V30 6229 O 584.85 1.72824 -0.586341 0
M  V30 6230 C 584.901 -0.00465418 -3.615 0
M  V30 6231 O 584.622 -1.27494 -4.19138 0
M  V30 6232 C 586.123 0.516213 -4.40284 0
M  V30 6233 H 583.343 -0.0765201 -0.666623 0
M  V30 6234 H 585.887 -0.856751 -1.85688 0
M  V30 6235 H 584.042 0.669583 -3.8157 0
M  V30 6236 H 584.456 -1.11536 -5.12504 0
M  V30 6237 H 585.93 0.554994 -5.49203 0
M  V30 6238 H 586.407 1.5419 -4.11245 0
M  V30 6239 H 587.013 -0.124542 -4.25118 0
M  V30 6240 N 585.328 1.53329 -0.364422 0
M  V30 6241 C 586.558 2.05359 0.226096 0
M  V30 6242 C 586.966 1.23777 1.43094 0
M  V30 6243 O 586.309 0.271139 1.81688 0
M  V30 6244 C 586.371 3.52918 0.684794 0
M  V30 6245 C 586.035 4.55218 -0.403206 0
M  V30 6246 C 587.032 5.04583 -1.2527 0
M  V30 6247 C 584.717 4.99134 -0.563117 0
M  V30 6248 C 586.711 5.96463 -2.24745 0
M  V30 6249 C 584.398 5.9082 -1.56124 0
M  V30 6250 C 585.396 6.39375 -2.40184 0
M  V30 6251 O 585.084 7.29255 -3.38293 0
M  V30 6252 H 584.816 0.674588 0.0436772 0
M  V30 6253 H 587.37 1.98688 -0.520782 0
M  V30 6254 H 585.6 3.57122 1.48326 0
M  V30 6255 H 587.289 3.87812 1.19818 0
M  V30 6256 H 588.055 4.71403 -1.14034 0
M  V30 6257 H 583.934 4.60928 0.0813909 0
M  V30 6258 H 587.478 6.34285 -2.90393 0
M  V30 6259 H 583.375 6.23414 -1.67407 0
M  V30 6260 H 584.143 7.47249 -3.34009 0
M  V30 6261 N 586.806 0.0935595 1.57322 0
M  V30 6262 C 588.083 -0.612692 1.85756 0
M  V30 6263 C 588.463 -1.86439 0.99013 0
M  V30 6264 O 587.811 -2.28416 0.0621362 0
M  V30 6265 C 588.021 -0.929547 3.36393 0
M  V30 6266 C 589.369 -1.29366 4.04413 0
M  V30 6267 O 590.393 -1.02061 3.41265 0
M  V30 6268 O 589.252 -1.80498 5.15832 0
M  V30 6269 H 586.346 -0.306444 0.768128 0
M  V30 6270 H 588.892 0.126141 1.69231 0
M  V30 6271 H 587.664 -0.0414766 3.91278 0
M  V30 6272 H 587.287 -1.72441 3.5826 0
M  V30 6273 N 588.284 -1.56567 -0.180126 0
M  V30 6274 C 589.512 -1.85618 -0.913972 0
M  V30 6275 C 589.927 -0.677892 -1.7621 0
M  V30 6276 O 589.284 0.353171 -1.7905 0
M  V30 6277 C 589.335 -3.13619 -1.79793 0
M  V30 6278 O 589.056 -4.26906 -0.98402 0
M  V30 6279 C 590.557 -3.55954 -2.64219 0
M  V30 6280 H 587.777 -0.616043 -0.265954 0
M  V30 6281 H 590.321 -2.03681 -0.182872 0
M  V30 6282 H 588.476 -2.97409 -2.48247 0
M  V30 6283 H 588.89 -4.9989 -1.58776 0
M  V30 6284 H 590.364 -4.48444 -3.21873 0
M  V30 6285 H 590.841 -2.79653 -3.38661 0
M  V30 6286 H 591.447 -3.74746 -2.01111 0
M  V30 6287 N 589.762 0.448376 -1.51087 0
M  V30 6288 C 590.712 1.54156 -1.67988 0
M  V30 6289 C 591.696 1.5178 -0.534015 0
M  V30 6290 O 592.888 1.58419 -0.789448 0
M  V30 6291 C 590.017 2.92437 -1.79822 0
M  V30 6292 C 589.103 2.99611 -3.00157 0
M  V30 6293 N 589.494 2.7655 -4.23502 0
M  V30 6294 C 587.792 3.30764 -2.99184 0
M  V30 6295 C 588.493 2.89281 -5.0467 0
M  V30 6296 N 587.469 3.20473 -4.39088 0
M  V30 6297 H 591.271 1.35061 -2.61028 0
M  V30 6298 H 588.785 0.655504 -1.48583 0
M  V30 6299 H 590.782 3.71068 -1.90037 0
M  V30 6300 H 589.442 3.1256 -0.879554 0
M  V30 6301 H 590.453 2.5169 -4.52628 0
M  V30 6302 H 587.13 3.56732 -2.16907 0
M  V30 6303 H 588.52 2.75499 -6.12821 0
M  V30 6304 N 591.24 1.41047 0.703093 0
M  V30 6305 C 592.486 1.40207 1.46526 0
M  V30 6306 C 592.819 0.00847763 1.94198 0
M  V30 6307 O 592.094 -0.962437 1.69019 0
M  V30 6308 C 592.377 2.40238 2.6825 0
M  V30 6309 C 592.23 3.88674 2.26391 0
M  V30 6310 C 593.549 2.37627 3.70434 0
M  V30 6311 H 590.668 0.510594 0.531472 0
M  V30 6312 H 593.31 1.72271 0.801422 0
M  V30 6313 H 591.46 2.13026 3.24888 0
M  V30 6314 H 593.132 4.2676 1.75138 0
M  V30 6315 H 591.375 4.03903 1.58255 0
M  V30 6316 H 592.046 4.542 3.13698 0
M  V30 6317 H 594.522 2.61759 3.23452 0
M  V30 6318 H 593.398 3.09645 4.53223 0
M  V30 6319 H 593.659 1.39223 4.19606 0
M  V30 6320 N 592.718 -0.936591 1.26751 0
M  V30 6321 C 593.666 -2.0573 1.08527 0
M  V30 6322 C 594.66 -1.69397 0.0108784 0
M  V30 6323 O 595.866 -1.79215 0.167915 0
M  V30 6324 H 592.241 -0.673691 0.334133 0
M  V30 6325 H 594.212 -2.1825 2.03493 0
M  V30 6326 C 592.961 -3.39738 0.739845 0
M  V30 6327 H 592.284 -3.68174 1.55845 0
M  V30 6328 H 593.724 -4.18955 0.652149 0
M  V30 6329 C 592.183 -3.32292 -0.555288 0
M  V30 6330 O 592.713 -3.68794 -1.59229 0
M  V30 6331 N 590.919 -2.85394 -0.54762 0
M  V30 6332 H 590.466 -2.55886 0.296667 0
M  V30 6333 H 590.424 -2.80795 -1.41427 0
M  V30 6334 N 594.196 -1.08629 -1.14182 0
M  V30 6335 C 595.143 -0.718299 -2.19338 0
M  V30 6336 C 596.113 0.296587 -1.63431 0
M  V30 6337 O 597.298 0.180079 -1.89948 0
M  V30 6338 C 594.438 -0.136203 -3.44831 0
M  V30 6339 C 593.551 -1.20414 -4.14879 0
M  V30 6340 C 592.686 -0.585666 -5.27962 0
M  V30 6341 C 591.725 -1.63548 -5.89846 0
M  V30 6342 N 590.862 -1.03864 -6.94375 0
M  V30 6343 H 595.702 -1.61932 -2.50164 0
M  V30 6344 H 593.239 -0.80919 -1.22844 0
M  V30 6345 H 595.197 0.219021 -4.16625 0
M  V30 6346 H 593.827 0.728121 -3.14481 0
M  V30 6347 H 592.879 -1.67676 -3.41451 0
M  V30 6348 H 594.191 -1.99959 -4.56966 0
M  V30 6349 H 593.345 -0.178818 -6.06436 0
M  V30 6350 H 592.084 0.24142 -4.87102 0
M  V30 6351 H 591.089 -2.05197 -5.10073 0
M  V30 6352 H 592.314 -2.46509 -6.3278 0
M  V30 6353 H 590.26 -0.232687 -6.55587 0
M  V30 6354 H 590.177 -1.77116 -7.3496 0
M  V30 6355 H 591.445 -0.657724 -7.7672 0
M  V30 6356 N 595.674 1.31259 -0.872281 0
M  V30 6357 C 596.902 2.00795 -0.498907 0
M  V30 6358 C 597.317 1.65464 0.909238 0
M  V30 6359 O 596.674 0.885073 1.59602 0
M  V30 6360 C 596.725 3.55625 -0.649092 0
M  V30 6361 O 596.446 3.89692 -2.00179 0
M  V30 6362 C 597.947 4.42434 -0.277034 0
M  V30 6363 H 595.167 0.642299 -0.194145 0
M  V30 6364 H 597.711 1.67438 -1.17408 0
M  V30 6365 H 595.866 3.87394 -0.0214402 0
M  V30 6366 H 596.28 4.84407 -2.01122 0
M  V30 6367 H 597.754 5.50299 -0.433064 0
M  V30 6368 H 598.231 4.32146 0.783989 0
M  V30 6369 H 598.837 4.16086 -0.880483 0
M  V30 6370 N 597.152 0.631951 1.44375 0
M  V30 6371 C 598.382 0.143658 2.061 0
M  V30 6372 C 598.79 -1.18733 1.47306 0
M  V30 6373 O 598.133 -1.73943 0.590724 0
M  V30 6374 C 598.195 -0.0446102 3.59472 0
M  V30 6375 C 597.859 1.20835 4.40736 0
M  V30 6376 C 598.856 2.13224 4.74164 0
M  V30 6377 C 596.541 1.44399 4.81097 0
M  V30 6378 C 598.535 3.27487 5.46838 0
M  V30 6379 C 596.222 2.58959 5.53519 0
M  V30 6380 C 597.22 3.50329 5.86309 0
M  V30 6381 O 596.908 4.62891 6.57257 0
M  V30 6382 H 596.64 0.0772939 0.671567 0
M  V30 6383 H 599.194 0.866677 1.8622 0
M  V30 6384 H 597.424 -0.822783 3.77845 0
M  V30 6385 H 599.113 -0.487561 4.02961 0
M  V30 6386 H 599.879 1.96253 4.4352 0
M  V30 6387 H 595.758 0.741696 4.54994 0
M  V30 6388 H 599.302 3.98826 5.72349 0
M  V30 6389 H 595.199 2.75873 5.83579 0
M  V30 6390 H 595.967 4.61883 6.75726 0
M  V30 6391 N 598.631 -1.53133 0.372548 0
M  V30 6392 C 600.042 -1.86404 -0.105155 0
M  V30 6393 C 600.393 -1.29289 -1.47576 0
M  V30 6394 O 599.518 -0.617646 -2.07398 0
M  V30 6395 C 600.113 -3.38223 -0.197588 0
M  V30 6396 C 598.672 -3.71266 -0.619556 0
M  V30 6397 C 597.819 -2.76353 0.228919 0
M  V30 6398 H 600.77 -1.47282 0.591077 0
M  V30 6399 H 600.791 -3.66577 -1.01987 0
M  V30 6400 H 600.303 -3.79763 0.800099 0
M  V30 6401 H 598.404 -3.35287 -1.62522 0
M  V30 6402 H 598.517 -4.77515 -0.389332 0
M  V30 6403 H 596.881 -2.52888 -0.303271 0
M  V30 6404 H 597.664 -3.20728 1.22428 0
M  V30 6405 N 600.109 -0.101901 -1.5727 0
M  V30 6406 C 601.355 0.561027 -1.94885 0
M  V30 6407 C 601.688 1.6741 -0.984258 0
M  V30 6408 O 600.963 1.94491 -0.0184767 0
M  V30 6409 C 601.246 1.10982 -3.42571 0
M  V30 6410 C 601.099 0.00133418 -4.498 0
M  V30 6411 C 602.418 2.00608 -3.9172 0
M  V30 6412 H 599.537 0.202467 -0.708644 0
M  V30 6413 H 602.179 -0.173992 -1.89202 0
M  V30 6414 H 600.329 1.73621 -3.47546 0
M  V30 6415 H 602.001 -0.63322 -4.56933 0
M  V30 6416 H 600.244 -0.664143 -4.28686 0
M  V30 6417 H 600.915 0.426253 -5.50352 0
M  V30 6418 H 603.391 1.47864 -3.88941 0
M  V30 6419 H 602.267 2.3593 -4.95609 0
M  V30 6420 H 602.528 2.92608 -3.3141 0
M  V30 6421 N 601.587 1.56661 0.17182 0
M  V30 6422 C 602.864 1.72838 0.915778 0
M  V30 6423 C 603.244 0.66316 2.00413 0
M  V30 6424 O 602.592 -0.322123 2.26218 0
M  V30 6425 C 602.802 3.16019 1.48097 0
M  V30 6426 C 604.15 3.76962 1.95408 0
M  V30 6427 O 605.174 3.19294 1.57892 0
M  V30 6428 O 604.033 4.78219 2.64516 0
M  V30 6429 H 601.127 0.705797 0.431021 0
M  V30 6430 H 603.673 1.68947 0.159689 0
M  V30 6431 H 602.445 3.85031 0.697618 0
M  V30 6432 H 602.068 3.24234 2.30126 0
M  V30 6433 N 603.065 -0.440357 1.51323 0
M  V30 6434 C 603.998 -1.55414 1.67098 0
M  V30 6435 C 604.976 -1.54108 0.518599 0
M  V30 6436 O 606.16 -1.7328 0.742054 0
M  V30 6437 C 603.287 -2.93996 1.68179 0
M  V30 6438 C 602.333 -3.13338 2.89347 0
M  V30 6439 S 603.166 -2.89957 4.50206 0
M  V30 6440 C 604.322 -4.30826 4.54027 0
M  V30 6441 H 604.555 -1.41798 2.61306 0
M  V30 6442 H 602.088 -0.629841 1.40969 0
M  V30 6443 H 604.046 -3.73878 1.69487 0
M  V30 6444 H 602.707 -3.04976 0.751542 0
M  V30 6445 H 601.9 -4.14652 2.86495 0
M  V30 6446 H 601.502 -2.41276 2.85766 0
M  V30 6447 H 603.794 -5.23977 4.29481 0
M  V30 6448 H 604.737 -4.38712 5.55822 0
M  V30 6449 H 605.145 -4.1434 3.83384 0
M  V30 6450 N 604.543 -1.41418 -0.695603 0
M  V30 6451 C 605.768 -1.44329 -1.48942 0
M  V30 6452 C 606.193 -0.0501579 -1.88033 0
M  V30 6453 O 605.551 0.946598 -1.54626 0
M  V30 6454 C 605.599 -2.3578 -2.72837 0
M  V30 6455 O 604.703 -1.81482 -3.70322 0
M  V30 6456 H 604.044 -0.489838 -0.44828 0
M  V30 6457 H 606.574 -1.85878 -0.855014 0
M  V30 6458 H 606.584 -2.51654 -3.21145 0
M  V30 6459 H 605.259 -3.37005 -2.43722 0
M  V30 6460 H 603.836 -1.75058 -3.29255 0
M  V30 6461 N 606.021 0.929856 -1.27246 0
M  V30 6462 C 607.432 1.49223 -1.12203 0
M  V30 6463 C 607.783 1.93989 0.293731 0
M  V30 6464 O 606.908 1.80978 1.18642 0
M  V30 6465 C 607.503 2.71198 -2.0307 0
M  V30 6466 C 606.062 3.23666 -1.92139 0
M  V30 6467 C 605.209 1.96409 -1.95752 0
M  V30 6468 H 608.16 0.744181 -1.4017 0
M  V30 6469 H 608.181 3.45905 -1.58524 0
M  V30 6470 H 607.693 2.38585 -3.06102 0
M  V30 6471 H 605.794 3.61042 -0.920834 0
M  V30 6472 H 605.907 3.90006 -2.78267 0
M  V30 6473 H 604.271 2.12806 -1.39949 0
M  V30 6474 H 605.054 1.66113 -3.00436 0
M  V30 6475 N 607.499 1.09233 1.13605 0
M  V30 6476 C 608.727 0.848908 1.88683 0
M  V30 6477 C 609.142 -0.599667 1.79024 0
M  V30 6478 O 608.499 -1.41265 1.15544 0
M  V30 6479 C 608.55 1.27273 3.38355 0
M  V30 6480 O 608.271 2.66449 3.47759 0
M  V30 6481 C 609.772 1.0614 4.30406 0
M  V30 6482 H 606.992 0.305549 0.597395 0
M  V30 6483 H 609.536 1.4538 1.43823 0
M  V30 6484 H 607.691 0.711776 3.80805 0
M  V30 6485 H 608.105 2.84264 4.40788 0
M  V30 6486 H 609.579 1.40725 5.33761 0
M  V30 6487 H 610.056 -0.000960332 4.392 0
M  V30 6488 H 610.662 1.60821 3.93722 0
M  V30 6489 N 608.977 -1.30795 0.87923 0
M  V30 6490 C 610.224 -1.96362 0.494786 0
M  V30 6491 C 610.552 -1.69448 -0.954868 0
M  V30 6492 O 609.807 -0.988711 -1.68888 0
M  V30 6493 C 610.106 -3.50287 0.709476 0
M  V30 6494 C 609.772 -3.9724 2.13333 0
M  V30 6495 C 608.434 -4.09772 2.52271 0
M  V30 6496 C 610.786 -4.21807 3.06151 0
M  V30 6497 C 608.114 -4.44227 3.83248 0
M  V30 6498 C 610.466 -4.5773 4.36654 0
M  V30 6499 C 609.13 -4.68469 4.75492 0
M  V30 6500 H 608.4 -0.71854 0.181055 0
M  V30 6501 H 611.047 -1.55764 1.11399 0
M  V30 6502 H 609.352 -3.91799 0.0072 0
M  V30 6503 H 611.049 -3.99082 0.391703 0
M  V30 6504 H 607.639 -3.87988 1.82107 0
M  V30 6505 H 611.823 -4.11611 2.77291 0
M  V30 6506 H 607.079 -4.50741 4.13089 0
M  V30 6507 H 611.253 -4.7569 5.08617 0
M  V30 6508 H 608.88 -4.94923 5.77022 0
M  V30 6509 N 610.455 -0.639598 -1.44038 0
M  V30 6510 C 611.683 -0.154811 -2.0632 0
M  V30 6511 C 612.098 1.17406 -1.47856 0
M  V30 6512 O 611.455 1.72193 -0.604638 0
M  V30 6513 C 611.506 -0.0429958 -3.61474 0
M  V30 6514 O 611.227 -1.31932 -4.17763 0
M  V30 6515 C 612.728 0.469486 -4.40807 0
M  V30 6516 H 609.948 -0.0835862 -0.665773 0
M  V30 6517 H 612.492 -0.876397 -1.84769 0
M  V30 6518 H 610.647 0.629075 -3.82258 0
M  V30 6519 H 611.061 -1.16965 -5.11292 0
M  V30 6520 H 612.535 0.496712 -5.49761 0
M  V30 6521 H 613.012 1.49819 -4.12857 0
M  V30 6522 H 613.618 -0.169624 -4.24962 0
M  V30 6523 N 611.933 1.52934 -0.380664 0
M  V30 6524 C 613.179 2.02443 0.197089 0
M  V30 6525 C 613.534 1.26249 1.45186 0
M  V30 6526 O 612.827 0.351964 1.8834 0
M  V30 6527 C 613.021 3.5349 0.527199 0
M  V30 6528 C 612.85 4.44312 -0.694027 0
M  V30 6529 C 611.62 4.90582 -1.21068 0
M  V30 6530 C 613.818 4.8995 -1.56377 0
M  V30 6531 N 611.8 5.65451 -2.39036 0
M  V30 6532 C 613.171 5.63313 -2.58995 0
M  V30 6533 C 615.226 4.72002 -1.58488 0
M  V30 6534 C 613.929 6.20635 -3.63599 0
M  V30 6535 C 615.955 5.30201 -2.61995 0
M  V30 6536 C 615.317 6.03463 -3.63335 0
M  V30 6537 H 611.416 0.781241 0.0344357 0
M  V30 6538 H 614 1.87387 -0.528609 0
M  V30 6539 H 612.171 3.68677 1.22196 0
M  V30 6540 H 613.903 3.89707 1.09135 0
M  V30 6541 H 610.658 4.67249 -0.772995 0
M  V30 6542 H 611.082 6.07541 -2.98701 0
M  V30 6543 H 615.724 4.14873 -0.814891 0
M  V30 6544 H 613.442 6.76852 -4.41472 0
M  V30 6545 H 617.028 5.182 -2.645 0
M  V30 6546 H 615.908 6.47693 -4.42113 0
M  V30 6547 N 613.412 0.11024 1.57214 0
M  V30 6548 C 614.359 -0.843195 2.14846 0
M  V30 6549 C 615.329 -1.26954 1.07107 0
M  V30 6550 O 616.514 -1.34861 1.34971 0
M  V30 6551 C 613.654 -2.09123 2.74521 0
M  V30 6552 C 612.767 -1.71404 3.96541 0
M  V30 6553 C 611.902 -2.91107 4.44331 0
M  V30 6554 C 610.941 -2.49586 5.58903 0
M  V30 6555 N 610.078 -3.62175 6.01477 0
M  V30 6556 H 614.918 -0.344886 2.95998 0
M  V30 6557 H 612.455 -0.15855 1.46243 0
M  V30 6558 H 614.413 -2.82234 3.07246 0
M  V30 6559 H 613.043 -2.56427 1.96074 0
M  V30 6560 H 612.095 -0.88201 3.70033 0
M  V30 6561 H 613.407 -1.36884 4.7965 0
M  V30 6562 H 612.561 -3.72454 4.78919 0
M  V30 6563 H 611.3 -3.28848 3.60153 0
M  V30 6564 H 610.305 -1.6667 5.23929 0
M  V30 6565 H 611.53 -2.12973 6.4484 0
M  V30 6566 H 609.476 -3.99605 5.20242 0
M  V30 6567 H 609.393 -3.3155 6.79419 0
M  V30 6568 H 610.661 -4.43987 6.407 0
M  V30 6569 N 614.89 -1.56749 -0.16351 0
M  V30 6570 C 615.838 -1.97939 -1.22159 0
M  V30 6571 C 616.832 -0.869288 -1.45395 0
M  V30 6572 O 618.038 -1.05443 -1.45883 0
M  V30 6573 H 614.413 -0.629869 -0.410815 0
M  V30 6574 H 616.384 -2.86115 -0.847381 0
M  V30 6575 C 615.133 -2.36206 -2.55151 0
M  V30 6576 H 614.456 -3.2117 -2.38097 0
M  V30 6577 H 615.896 -2.68863 -3.27854 0
M  V30 6578 C 614.355 -1.20841 -3.14482 0
M  V30 6579 O 614.885 -0.500258 -3.98573 0
M  V30 6580 N 613.091 -0.976943 -2.73686 0
M  V30 6581 H 612.638 -1.55457 -2.05404 0
M  V30 6582 H 612.596 -0.206912 -3.13718 0
M  V30 6583 N 616.368 0.432326 -1.51554 0
M  V30 6584 C 617.593 1.20824 -1.68571 0
M  V30 6585 C 618.018 1.84126 -0.384596 0
M  V30 6586 O 617.376 1.69025 0.655751 0
M  V30 6587 C 617.424 2.26429 -2.80646 0
M  V30 6588 O 616.528 3.32032 -2.44598 0
M  V30 6589 H 615.869 0.353765 -0.561913 0
M  V30 6590 H 618.399 0.509916 -1.98144 0
M  V30 6591 H 618.409 2.71133 -3.04878 0
M  V30 6592 H 617.084 1.79733 -3.75058 0
M  V30 6593 H 615.661 2.92769 -2.30956 0
M  V30 6594 N 617.846 1.41785 0.688094 0
M  V30 6595 C 618.793 1.44221 1.80191 0
M  V30 6596 C 619.763 0.295688 1.63447 0
M  V30 6597 O 620.948 0.49783 1.84191 0
M  V30 6598 C 618.088 1.33743 3.1813 0
M  V30 6599 C 617.201 2.58325 3.46254 0
M  V30 6600 C 616.336 2.40086 4.73848 0
M  V30 6601 C 615.375 3.60107 4.94964 0
M  V30 6602 N 614.512 3.40892 6.13789 0
M  V30 6603 H 619.352 2.39411 1.77444 0
M  V30 6604 H 616.889 1.18876 0.866423 0
M  V30 6605 H 618.847 1.25669 3.97823 0
M  V30 6606 H 617.477 0.42157 3.20035 0
M  V30 6607 H 616.529 2.7682 2.60912 0
M  V30 6608 H 617.841 3.4758 3.57756 0
M  V30 6609 H 616.995 2.29522 5.61609 0
M  V30 6610 H 615.734 1.483 4.64606 0
M  V30 6611 H 614.739 3.71118 4.05649 0
M  V30 6612 H 615.964 4.52857 5.06061 0
M  V30 6613 H 613.91 2.51812 6.05745 0
M  V30 6614 H 613.827 4.23727 6.26092 0
M  V30 6615 H 615.095 3.34114 7.04264 0
M  V30 6616 N 619.324 -0.923095 1.27737 0
M  V30 6617 C 620.254 -2.04124 1.13383 0
M  V30 6618 C 621.235 -1.70066 0.0340658 0
M  V30 6619 O 622.42 -1.93068 0.209383 0
M  V30 6620 C 619.55 -3.3831 0.785097 0
M  V30 6621 C 618.504 -3.86496 1.8386 0
M  V30 6622 C 617.83 -5.1754 1.34373 0
M  V30 6623 C 619.13 -4.09381 3.24353 0
M  V30 6624 H 620.824 -2.1639 2.06919 0
M  V30 6625 H 618.37 -1.03976 0.996243 0
M  V30 6626 H 620.323 -4.16016 0.671485 0
M  V30 6627 H 619.047 -3.2607 -0.185969 0
M  V30 6628 H 617.706 -3.10987 1.9412 0
M  V30 6629 H 617.354 -5.01696 0.361989 0
M  V30 6630 H 617.054 -5.50751 2.04811 0
M  V30 6631 H 618.578 -5.97811 1.24315 0
M  V30 6632 H 619.992 -4.77641 3.17067 0
M  V30 6633 H 618.389 -4.53906 3.92542 0
M  V30 6634 H 619.459 -3.14515 3.69064 0
M  V30 6635 N 620.802 -1.09834 -1.13024 0
M  V30 6636 C 622.213 -0.855651 -1.65938 0
M  V30 6637 C 622.564 0.615159 -1.86307 0
M  V30 6638 O 621.689 1.47335 -1.58497 0
M  V30 6639 C 622.284 -1.5467 -3.01434 0
M  V30 6640 C 620.843 -1.35088 -3.51323 0
M  V30 6641 C 619.99 -1.6001 -2.26478 0
M  V30 6642 H 622.941 -1.25691 -0.968889 0
M  V30 6643 H 622.962 -0.982179 -3.67605 0
M  V30 6644 H 622.474 -2.61715 -2.86578 0
M  V30 6645 H 620.575 -0.30179 -3.71376 0
M  V30 6646 H 620.688 -2.0886 -4.31178 0
M  V30 6647 H 619.052 -1.02246 -2.33276 0
M  V30 6648 H 619.835 -2.68293 -2.14182 0
M  V30 6649 N 622.28 1.30327 -0.886154 0
M  V30 6650 C 623.228 2.30052 -0.343317 0
M  V30 6651 C 624.222 1.60212 0.550305 0
M  V30 6652 O 625.428 1.74674 0.434609 0
M  V30 6653 H 621.803 0.746306 -0.0923681 0
M  V30 6654 H 623.774 2.73294 -1.19804 0
M  V30 6655 C 622.523 3.45079 0.426107 0
M  V30 6656 H 621.846 3.99003 -0.25227 0
M  V30 6657 H 623.286 4.16931 0.771009 0
M  V30 6658 C 621.745 2.95195 1.62363 0
M  V30 6659 O 622.275 2.95323 2.723 0
M  V30 6660 N 620.481 2.51192 1.4612 0
M  V30 6661 H 620.028 2.51286 0.566832 0
M  V30 6662 H 619.986 2.18173 2.2638 0
M  V30 6663 N 623.758 0.647228 1.43697 0
M  V30 6664 C 625.035 0.0883758 1.954 0
M  V30 6665 C 625.415 -1.39006 1.58873 0
M  V30 6666 O 624.763 -2.11255 0.87083 0
M  V30 6667 C 624.973 0.328263 3.47453 0
M  V30 6668 C 626.321 0.230009 4.23977 0
M  V30 6669 O 627.345 0.260496 3.55246 0
M  V30 6670 O 626.204 0.148615 5.46298 0
M  V30 6671 H 623.298 -0.0130683 0.826897 0
M  V30 6672 H 625.844 0.72005 1.53666 0
M  V30 6673 H 624.616 1.3535 3.67146 0
M  V30 6674 H 624.239 -0.336772 3.96171 0
M  V30 6675 N 625.236 -1.5273 0.388769 0
M  V30 6676 C 626.485 -2.00757 -0.194833 0
M  V30 6677 C 626.798 -1.27951 -1.47946 0
M  V30 6678 O 628.004 -1.66686 -2.14308 0
M  V30 6679 C 626.46 -3.57695 -0.397762 0
M  V30 6680 C 626.068 -4.394 0.873583 0
M  V30 6681 C 627.812 -4.14012 -0.937759 0
M  V30 6682 C 625.719 -5.87938 0.638962 0
M  V30 6683 H 624.649 -0.750101 -0.0765845 0
M  V30 6684 H 627.3 -1.76239 0.511086 0
M  V30 6685 H 625.682 -3.7846 -1.16552 0
M  V30 6686 H 626.856 -4.30403 1.64591 0
M  V30 6687 H 625.171 -3.94301 1.33849 0
M  V30 6688 H 627.768 -5.22645 -1.12899 0
M  V30 6689 H 628.111 -3.7007 -1.90666 0
M  V30 6690 H 628.644 -3.97137 -0.229588 0
M  V30 6691 H 625.383 -6.36202 1.57885 0
M  V30 6692 H 624.903 -5.99726 -0.094443 0
M  V30 6693 H 626.582 -6.46423 0.273299 0
M  V30 6694 N 626.714 -0.118576 -1.57153 0
M  V30 6695 C 627.942 0.54726 -1.99531 0
M  V30 6696 C 628.357 1.60251 -0.998246 0
M  V30 6697 O 627.714 1.82498 0.00893106 0
M  V30 6698 C 627.765 1.17378 -3.41913 0
M  V30 6699 O 627.486 0.160703 -4.37805 0
M  V30 6700 C 628.987 1.92297 -3.9942 0
M  V30 6701 H 626.207 0.144919 -0.655164 0
M  V30 6702 H 628.751 -0.20479 -2.03472 0
M  V30 6703 H 626.906 1.87661 -3.38913 0
M  V30 6704 H 627.32 0.61586 -5.20872 0
M  V30 6705 H 628.794 2.31462 -5.01128 0
M  V30 6706 H 629.271 2.79801 -3.38538 0
M  V30 6707 H 629.877 1.26777 -4.05965 0
M  V30 6708 N 628.193 1.56834 0.155195 0
M  V30 6709 C 629.441 1.82536 0.867462 0
M  V30 6710 C 629.762 0.698168 1.82073 0
M  V30 6711 O 629.032 -0.280807 1.93877 0
M  V30 6712 H 627.612 0.673401 0.323327 0
M  V30 6713 H 630.274 1.94313 0.151156 0
M  V30 6714 H 629.37 2.77171 1.43466 0
M  V30 6715 N 629.671 -0.424282 1.51781 0
M  V30 6716 C 631.087 -0.761768 1.40247 0
M  V30 6717 C 631.287 -1.95324 0.495041 0
M  V30 6718 O 630.343 -2.5246 -0.0448949 0
M  V30 6719 C 631.656 -1.0299 2.82513 0
M  V30 6720 C 633.204 -1.13354 2.91753 0
M  V30 6721 C 633.679 -1.43453 4.34954 0
M  V30 6722 N 635.17 -1.5035 4.3812 0
M  V30 6723 C 635.905 -1.75236 5.45967 0
M  V30 6724 N 635.401 -1.97827 6.63955 0
M  V30 6725 N 637.194 -1.77126 5.33463 0
M  V30 6726 H 629.345 0.360228 2.09323 0
M  V30 6727 H 631.608 0.0988128 0.942836 0
M  V30 6728 H 631.314 -0.226961 3.50967 0
M  V30 6729 H 631.188 -1.95411 3.22637 0
M  V30 6730 H 633.575 -1.92709 2.23489 0
M  V30 6731 H 633.656 -0.188041 2.55108 0
M  V30 6732 H 633.3 -0.646209 5.03772 0
M  V30 6733 H 633.23 -2.3923 4.69123 0
M  V30 6734 H 635.721 -1.34742 3.53062 0
M  V30 6735 H 636.034 -2.16223 7.41935 0
M  V30 6736 H 634.379 -1.95123 6.67047 0
M  V30 6737 H 637.57 -1.59005 4.40267 0
M  V30 6738 H 637.743 -1.96182 6.17589 0
M  V30 6739 N 631.149 -1.42148 -0.680565 0
M  V30 6740 C 632.397 -1.42029 -1.43779 0
M  V30 6741 C 632.718 -0.0356347 -1.94967 0
M  V30 6742 O 631.988 0.924936 -1.7269 0
M  V30 6743 H 630.568 -0.522835 -0.533529 0
M  V30 6744 H 633.23 -1.7752 -0.804538 0
M  V30 6745 H 632.326 -2.11658 -2.29363 0
M  V30 6746 N 632.627 0.916307 -1.28225 0
M  V30 6747 C 634.038 1.48024 -1.13779 0
M  V30 6748 C 634.389 1.94289 0.273139 0
M  V30 6749 O 633.514 1.82226 1.16716 0
M  V30 6750 C 634.109 2.69029 -2.05935 0
M  V30 6751 C 632.668 3.2161 -1.95561 0
M  V30 6752 C 631.815 1.94321 -1.97825 0
M  V30 6753 H 634.766 0.729272 -1.40951 0
M  V30 6754 H 634.787 3.44204 -1.62184 0
M  V30 6755 H 634.299 2.35325 -3.08616 0
M  V30 6756 H 632.4 3.60045 -0.959076 0
M  V30 6757 H 632.513 3.87032 -2.82388 0
M  V30 6758 H 630.877 2.1131 -1.42198 0
M  V30 6759 H 631.66 1.62917 -3.0218 0
M  V30 6760 N 634.105 1.10431 1.1244 0
M  V30 6761 C 635.037 0.710945 2.17895 0
M  V30 6762 C 636.05 -0.252315 1.60833 0
M  V30 6763 O 637.239 -0.03679 1.78462 0
M  V30 6764 C 634.339 0.0284262 3.38888 0
M  V30 6765 C 633.512 1.01585 4.2544 0
M  V30 6766 C 632.571 0.364826 5.24934 0
M  V30 6767 O 631.597 1.01561 5.60066 0
M  V30 6768 N 632.799 -0.87674 5.73841 0
M  V30 6769 H 635.564 1.61826 2.52255 0
M  V30 6770 H 633.125 0.993132 1.27861 0
M  V30 6771 H 635.117 -0.418568 4.0253 0
M  V30 6772 H 633.687 -0.781294 3.02679 0
M  V30 6773 H 632.907 1.64111 3.58415 0
M  V30 6774 H 634.195 1.68425 4.80115 0
M  V30 6775 H 633.593 -1.42483 5.47462 0
M  V30 6776 H 632.15 -1.26688 6.39369 0
M  V30 6777 N 635.583 -1.29855 0.893053 0
M  V30 6778 C 636.832 -1.95104 0.511597 0
M  V30 6779 C 637.145 -1.71226 -0.945567 0
M  V30 6780 O 638.351 -2.30525 -1.43424 0
M  V30 6781 C 636.807 -3.49374 0.864034 0
M  V30 6782 C 636.415 -3.82061 2.33952 0
M  V30 6783 C 638.159 -4.20894 0.552167 0
M  V30 6784 C 636.066 -5.29546 2.63316 0
M  V30 6785 H 634.996 -0.73029 0.187597 0
M  V30 6786 H 637.647 -1.47682 1.08914 0
M  V30 6787 H 636.029 -3.95413 0.215493 0
M  V30 6788 H 637.203 -3.46904 3.03305 0
M  V30 6789 H 635.518 -3.23665 2.61973 0
M  V30 6790 H 638.115 -5.29435 0.748489 0
M  V30 6791 H 638.458 -4.13178 -0.508924 0
M  V30 6792 H 638.991 -3.80564 1.15825 0
M  V30 6793 H 635.73 -5.4232 3.68197 0
M  V30 6794 H 635.25 -5.65974 1.9858 0
M  V30 6795 H 636.929 -5.97068 2.49236 0
M  V30 6796 N 637.061 -0.65484 -1.43351 0
M  V30 6797 C 637.991 0.0221809 -2.33489 0
M  V30 6798 C 638.972 0.810272 -1.49561 0
M  V30 6799 O 640.157 0.771426 -1.78221 0
M  V30 6800 C 637.287 0.988117 -3.32947 0
M  V30 6801 C 636.241 0.310026 -4.26876 0
M  V30 6802 C 635.567 1.38752 -5.16384 0
M  V30 6803 C 636.867 -0.798589 -5.16159 0
M  V30 6804 H 638.561 -0.730571 -2.9035 0
M  V30 6805 H 636.107 -0.352773 -1.39612 0
M  V30 6806 H 638.06 1.47067 -3.94904 0
M  V30 6807 H 636.784 1.77205 -2.74346 0
M  V30 6808 H 635.443 -0.152097 -3.66284 0
M  V30 6809 H 635.091 2.16293 -4.54121 0
M  V30 6810 H 634.791 0.939051 -5.80048 0
M  V30 6811 H 636.315 1.87141 -5.81215 0
M  V30 6812 H 637.729 -0.398126 -5.71916 0
M  V30 6813 H 636.126 -1.17163 -5.88552 0
M  V30 6814 H 637.196 -1.65588 -4.55751 0
M  V30 6815 N 638.539 1.52521 -0.396863 0
M  V30 6816 C 639.472 2.23118 0.478926 0
M  V30 6817 C 640.45 1.23475 1.05796 0
M  V30 6818 O 641.634 1.52486 1.10817 0
M  V30 6819 C 638.761 2.95028 1.66362 0
M  V30 6820 C 637.807 4.09002 1.20913 0
M  V30 6821 S 638.64 5.35182 0.184407 0
M  V30 6822 C 639.796 6.10616 1.37471 0
M  V30 6823 H 640.029 2.97056 -0.120542 0
M  V30 6824 H 637.562 1.53334 -0.18109 0
M  V30 6825 H 639.52 3.37066 2.34301 0
M  V30 6826 H 638.181 2.20756 2.23441 0
M  V30 6827 H 637.374 4.58445 2.09389 0
M  V30 6828 H 636.976 3.69016 0.608559 0
M  V30 6829 H 639.268 6.37247 2.30048 0
M  V30 6830 H 640.211 7.02084 0.921051 0
M  V30 6831 H 640.619 5.41499 1.59495 0
M  V30 6832 N 640.017 0.126909 1.57088 0
M  V30 6833 C 641.266 -0.529024 1.94639 0
M  V30 6834 C 641.579 -1.67323 1.01304 0
M  V30 6835 O 642.785 -2.39245 1.28352 0
M  V30 6836 C 641.241 -0.992483 3.45945 0
M  V30 6837 C 640.849 0.123691 4.47829 0
M  V30 6838 C 642.593 -1.61934 3.924 0
M  V30 6839 C 640.5 -0.356911 5.90322 0
M  V30 6840 H 639.43 -0.201397 0.726605 0
M  V30 6841 H 642.081 0.208032 1.82317 0
M  V30 6842 H 640.463 -1.7842 3.53528 0
M  V30 6843 H 641.637 0.900168 4.51922 0
M  V30 6844 H 639.952 0.657699 4.11173 0
M  V30 6845 H 642.549 -1.9902 4.96281 0
M  V30 6846 H 642.892 -2.50075 3.32819 0
M  V30 6847 H 643.425 -0.892894 3.8765 0
M  V30 6848 H 640.164 0.488636 6.53676 0
M  V30 6849 H 639.684 -1.0997 5.89633 0
M  V30 6850 H 641.363 -0.815547 6.41839 0
M  V30 6851 N 641.495 -1.56914 -0.146875 0
M  V30 6852 C 642.458 -1.97368 -1.16526 0
M  V30 6853 C 643.458 -0.860223 -1.35856 0
M  V30 6854 O 644.648 -1.12684 -1.32846 0
M  V30 6855 C 641.78 -2.28974 -2.52555 0
M  V30 6856 H 642.973 -2.88523 -0.818209 0
M  V30 6857 H 640.526 -1.5135 -0.390221 0
M  V30 6858 H 641.261 -1.40611 -2.92231 0
M  V30 6859 H 641.046 -3.10157 -2.39886 0
M  V30 6860 H 642.536 -2.61109 -3.25902 0
M  V30 6861 N 642.974 0.416227 -1.52004 0
M  V30 6862 C 644.22 1.16555 -1.6596 0
M  V30 6863 C 644.553 1.90347 -0.384906 0
M  V30 6864 O 643.828 1.84474 0.616405 0
M  V30 6865 C 644.111 2.1657 -2.87696 0
M  V30 6866 C 643.964 1.46722 -4.25197 0
M  V30 6867 C 645.283 3.17321 -3.04951 0
M  V30 6868 H 642.402 0.422369 -0.603965 0
M  V30 6869 H 645.044 0.452141 -1.84542 0
M  V30 6870 H 643.194 2.77411 -2.71985 0
M  V30 6871 H 644.866 0.89056 -4.52622 0
M  V30 6872 H 643.109 0.769263 -4.26925 0
M  V30 6873 H 643.78 2.19665 -5.0641 0
M  V30 6874 H 646.256 2.66552 -3.19514 0
M  V30 6875 H 645.132 3.84573 -3.91656 0
M  V30 6876 H 645.393 3.84643 -2.17951 0
M  V30 6877 N 644.452 1.42507 0.673017 0
M  V30 6878 C 645.699 1.43072 1.43306 0
M  V30 6879 C 646.027 0.0478004 1.94441 0
M  V30 6880 O 645.282 -0.944106 1.71421 0
M  V30 6881 C 645.581 2.40351 2.64511 0
M  V30 6882 C 645.247 3.8669 2.31908 0
M  V30 6883 C 643.909 4.26551 2.22728 0
M  V30 6884 C 646.261 4.78991 2.05467 0
M  V30 6885 C 643.589 5.56691 1.85234 0
M  V30 6886 C 645.941 6.09476 1.69477 0
M  V30 6887 C 644.605 6.48334 1.58808 0
M  V30 6888 H 643.875 0.523536 0.524395 0
M  V30 6889 H 646.522 1.75459 0.76723 0
M  V30 6890 H 644.827 2.01297 3.36135 0
M  V30 6891 H 646.524 2.38051 3.22696 0
M  V30 6892 H 643.114 3.55132 2.39956 0
M  V30 6893 H 647.298 4.48982 2.11492 0
M  V30 6894 H 642.554 5.85657 1.75545 0
M  V30 6895 H 646.728 6.80482 1.48043 0
M  V30 6896 H 644.355 7.49084 1.29525 0
M  V30 6897 N 645.93 -0.909495 1.28709 0
M  V30 6898 C 647.158 -1.69272 1.18973 0
M  V30 6899 C 647.573 -1.87123 -0.251048 0
M  V30 6900 O 646.93 -1.40127 -1.16922 0
M  V30 6901 C 646.981 -3.08257 1.88839 0
M  V30 6902 O 646.702 -2.91228 3.27289 0
M  V30 6903 C 648.203 -4.02642 1.85457 0
M  V30 6904 H 645.423 -0.528999 0.412797 0
M  V30 6905 H 647.967 -1.13803 1.69909 0
M  V30 6906 H 646.122 -3.6053 1.41762 0
M  V30 6907 H 646.536 -3.79223 3.6234 0
M  V30 6908 H 648.01 -4.97613 2.38925 0
M  V30 6909 H 648.487 -4.31327 0.827893 0
M  V30 6910 H 649.093 -3.56298 2.32233 0
M  V30 6911 N 647.408 -1.11026 -1.11852 0
M  V30 6912 C 648.338 -0.786812 -2.19844 0
M  V30 6913 C 649.319 0.242935 -1.68356 0
M  V30 6914 O 650.504 0.107355 -1.93903 0
M  V30 6915 C 647.634 -0.224516 -3.46574 0
M  V30 6916 C 646.588 -1.18564 -4.1125 0
M  V30 6917 C 645.914 -0.484261 -5.32503 0
M  V30 6918 C 647.214 -2.53465 -4.56676 0
M  V30 6919 H 648.908 -1.68978 -2.47158 0
M  V30 6920 H 646.454 -0.813906 -1.18792 0
M  V30 6921 H 648.407 0.0139435 -4.21398 0
M  V30 6922 H 647.131 0.713722 -3.18706 0
M  V30 6923 H 645.79 -1.40966 -3.38414 0
M  V30 6924 H 645.438 0.458646 -5.00905 0
M  V30 6925 H 645.138 -1.12526 -5.76725 0
M  V30 6926 H 646.662 -0.254492 -6.10069 0
M  V30 6927 H 648.076 -2.35177 -5.22843 0
M  V30 6928 H 646.473 -3.13507 -5.11697 0
M  V30 6929 H 647.543 -3.13008 -3.70343 0
M  V30 6930 N 648.886 1.2938 -0.899927 0
M  V30 6931 C 650.114 1.99691 -0.541386 0
M  V30 6932 C 650.529 1.67355 0.873936 0
M  V30 6933 O 649.886 0.918728 1.57688 0
M  V30 6934 C 649.937 3.54168 -0.72438 0
M  V30 6935 O 649.658 3.85359 -2.08399 0
M  V30 6936 C 651.159 4.41746 -0.370819 0
M  V30 6937 H 648.379 0.638037 -0.207726 0
M  V30 6938 H 650.923 1.6491 -1.20934 0
M  V30 6939 H 649.078 3.87261 -0.103607 0
M  V30 6940 H 649.492 4.80032 -2.11352 0
M  V30 6941 H 650.966 5.49256 -0.549693 0
M  V30 6942 H 651.443 4.33712 0.692148 0
M  V30 6943 H 652.049 4.14125 -0.968543 0
M  V30 6944 N 650.364 0.662433 1.43002 0
M  V30 6945 C 651.612 0.179237 2.01304 0
M  V30 6946 C 651.933 -1.21428 1.52579 0
M  V30 6947 O 651.203 -1.81294 0.742252 0
M  V30 6948 H 649.783 0.0632725 0.744316 0
M  V30 6949 H 652.445 0.856169 1.75088 0
M  V30 6950 H 651.541 0.170957 3.11631 0
M  V30 6951 N 651.842 -1.52309 0.404946 0
M  V30 6952 C 652.805 -2.25491 -0.410651 0
M  V30 6953 C 653.805 -1.27704 -0.977154 0
M  V30 6954 O 654.995 -1.51679 -0.856691 0
M  V30 6955 C 652.127 -3.02197 -1.57765 0
M  V30 6956 H 653.32 -2.99015 0.230277 0
M  V30 6957 H 650.873 -1.55506 0.157377 0
M  V30 6958 H 651.608 -2.33013 -2.25556 0
M  V30 6959 H 651.393 -3.73987 -1.17797 0
M  V30 6960 H 652.883 -3.57719 -2.15469 0
M  V30 6961 N 653.32 -0.135238 -1.57019 0
M  V30 6962 C 654.566 0.519563 -1.96032 0
M  V30 6963 C 654.899 1.65284 -1.01955 0
M  V30 6964 O 654.174 1.94408 -0.059727 0
M  V30 6965 C 654.457 1.0369 -3.44848 0
M  V30 6966 C 654.31 -0.0940754 -4.49702 0
M  V30 6967 C 655.629 1.92254 -3.95887 0
M  V30 6968 H 652.748 0.18739 -0.712779 0
M  V30 6969 H 655.39 -0.214086 -1.8879 0
M  V30 6970 H 653.54 1.66209 -3.5115 0
M  V30 6971 H 655.212 -0.73 -4.55487 0
M  V30 6972 H 653.455 -0.754924 -4.27181 0
M  V30 6973 H 654.126 0.309419 -5.51132 0
M  V30 6974 H 656.602 1.39581 -3.9199 0
M  V30 6975 H 655.478 2.25364 -5.00502 0
M  V30 6976 H 655.739 2.85513 -3.37543 0
M  V30 6977 N 654.798 1.5699 0.138552 0
M  V30 6978 C 656.044 1.84081 0.85099 0
M  V30 6979 C 656.377 0.718107 1.80435 0
M  V30 6980 O 655.652 -0.277633 1.92508 0
M  V30 6981 C 655.935 3.21699 1.61808 0
M  V30 6982 C 655.788 4.44544 0.685633 0
M  V30 6983 C 657.107 3.5664 2.57868 0
M  V30 6984 H 654.226 0.669592 0.307922 0
M  V30 6985 H 656.868 1.89646 0.11588 0
M  V30 6986 H 655.018 3.17086 2.24474 0
M  V30 6987 H 656.69 4.61248 0.0693179 0
M  V30 6988 H 654.933 4.338 -0.00421993 0
M  V30 6989 H 655.604 5.3746 1.25858 0
M  V30 6990 H 658.08 3.61918 2.05316 0
M  V30 6991 H 656.956 4.53946 3.08584 0
M  V30 6992 H 657.217 2.83036 3.39622 0
M  V30 6993 N 656.276 -0.40816 1.52223 0
M  V30 6994 C 657.206 -1.5042 1.78595 0
M  V30 6995 C 658.187 -1.57723 0.636974 0
M  V30 6996 O 659.372 -1.72982 0.882664 0
M  V30 6997 C 656.502 -2.88232 1.93751 0
M  V30 6998 C 655.456 -2.95779 3.09352 0
M  V30 6999 C 654.782 -4.35855 3.09732 0
M  V30 7000 C 656.082 -2.67175 4.48793 0
M  V30 7001 H 657.776 -1.28601 2.70374 0
M  V30 7002 H 655.322 -0.617221 1.30101 0
M  V30 7003 H 657.275 -3.64895 2.10783 0
M  V30 7004 H 655.999 -3.11347 0.986443 0
M  V30 7005 H 654.658 -2.21561 2.92072 0
M  V30 7006 H 654.306 -4.55981 2.12346 0
M  V30 7007 H 654.006 -4.41829 3.87377 0
M  V30 7008 H 655.53 -5.14451 3.28895 0
M  V30 7009 H 656.944 -3.3356 4.66273 0
M  V30 7010 H 655.341 -2.84523 5.28362 0
M  V30 7011 H 656.411 -1.62609 4.56822 0
M  V30 7012 N 657.755 -1.42862 -0.66545 0
M  V30 7013 C 658.685 -1.49867 -1.79059 0
M  V30 7014 C 659.666 -0.354394 -1.66367 0
M  V30 7015 O 660.851 -0.569969 -1.85647 0
M  V30 7016 C 657.981 -1.40943 -3.17415 0
M  V30 7017 C 656.935 -2.53495 -3.44854 0
M  V30 7018 C 656.261 -2.29626 -4.82883 0
M  V30 7019 C 657.561 -3.95781 -3.40815 0
M  V30 7020 H 659.255 -2.44037 -1.73453 0
M  V30 7021 H 656.801 -1.17456 -0.833071 0
M  V30 7022 H 658.754 -1.4445 -3.95869 0
M  V30 7023 H 657.478 -0.432716 -3.23721 0
M  V30 7024 H 656.137 -2.4932 -2.68766 0
M  V30 7025 H 655.785 -1.30226 -4.8585 0
M  V30 7026 H 655.485 -3.05065 -5.02204 0
M  V30 7027 H 657.009 -2.34897 -5.63609 0
M  V30 7028 H 658.423 -4.01508 -4.09224 0
M  V30 7029 H 656.82 -4.71148 -3.71672 0
M  V30 7030 H 657.89 -4.21786 -2.39216 0
M  V30 7031 N 659.233 0.902656 -1.29189 0
M  V30 7032 C 660.163 2.02294 -1.16616 0
M  V30 7033 C 661.144 1.6999 -0.0611175 0
M  V30 7034 O 662.329 1.9271 -0.240072 0
M  V30 7035 C 659.459 3.37018 -0.83882 0
M  V30 7036 C 658.413 3.83522 -1.89986 0
M  V30 7037 C 657.739 5.15337 -1.42589 0
M  V30 7038 C 659.039 4.04169 -3.30824 0
M  V30 7039 H 660.733 2.13071 -2.10336 0
M  V30 7040 H 658.279 1.02378 -1.01266 0
M  V30 7041 H 660.232 4.14895 -0.737584 0
M  V30 7042 H 658.956 3.26325 0.134071 0
M  V30 7043 H 657.615 3.07859 -1.99043 0
M  V30 7044 H 657.263 5.01056 -0.441759 0
M  V30 7045 H 656.963 5.47423 -2.13547 0
M  V30 7046 H 658.487 5.95758 -1.3381 0
M  V30 7047 H 659.901 4.72537 -3.24626 0
M  V30 7048 H 658.298 4.47604 -3.99713 0
M  V30 7049 H 659.368 3.08604 -3.74021 0
M  V30 7050 N 660.711 1.11618 1.11262 0
M  V30 7051 C 661.641 0.79846 2.19424 0
M  V30 7052 C 662.622 -0.234003 1.68483 0
M  V30 7053 O 663.807 -0.0970704 1.93957 0
M  V30 7054 C 660.937 0.242892 3.4645 0
M  V30 7055 C 659.891 1.20744 4.10615 0
M  V30 7056 C 659.217 0.512494 5.32238 0
M  V30 7057 C 660.517 2.55884 4.55325 0
M  V30 7058 H 662.211 1.70286 2.46258 0
M  V30 7059 H 659.757 0.820195 1.18359 0
M  V30 7060 H 661.71 0.00840447 4.21399 0
M  V30 7061 H 660.434 -0.696811 3.1908 0
M  V30 7062 H 659.093 1.42759 3.37662 0
M  V30 7063 H 658.741 -0.432075 5.01141 0
M  V30 7064 H 658.441 1.15583 5.7612 0
M  V30 7065 H 659.965 0.286842 6.09926 0
M  V30 7066 H 661.379 2.37946 5.21588 0
M  V30 7067 H 659.776 3.16216 5.10027 0
M  V30 7068 H 660.846 3.14968 3.68678 0
M  V30 7069 N 662.189 -1.289 0.906776 0
M  V30 7070 C 663.435 -1.95558 0.53712 0
M  V30 7071 C 663.768 -1.71262 -0.915582 0
M  V30 7072 O 663.043 -1.02961 -1.65013 0
M  V30 7073 C 663.326 -3.50198 0.838645 0
M  V30 7074 C 663.179 -3.83923 2.34357 0
M  V30 7075 C 664.498 -4.38861 0.329988 0
M  V30 7076 H 661.617 -0.710289 0.196617 0
M  V30 7077 H 664.259 -1.52392 1.13475 0
M  V30 7078 H 662.409 -3.87096 0.330024 0
M  V30 7079 H 664.081 -3.56933 2.92227 0
M  V30 7080 H 662.324 -3.31215 2.80141 0
M  V30 7081 H 662.995 -4.91883 2.5051 0
M  V30 7082 H 665.471 -4.08996 0.765609 0
M  V30 7083 H 664.347 -5.45931 0.570105 0
M  V30 7084 H 664.608 -4.35352 -0.769511 0
M  V30 7085 N 663.667 -0.670007 -1.42649 0
M  V30 7086 C 664.63 0.00204659 -2.292 0
M  V30 7087 C 665.63 0.733817 -1.4308 0
M  V30 7088 O 666.82 0.57254 -1.64522 0
M  V30 7089 C 663.952 1.01359 -3.25483 0
M  V30 7090 H 665.145 -0.759696 -2.90118 0
M  V30 7091 H 662.698 -0.432105 -1.50208 0
M  V30 7092 H 663.433 1.80399 -2.69493 0
M  V30 7093 H 663.218 0.492323 -3.88997 0
M  V30 7094 H 664.708 1.4824 -3.90403 0
M  V30 7095 N 665.145 1.52092 -0.413018 0
M  V30 7096 C 666.075 2.30021 0.401567 0
M  V30 7097 C 667.056 1.34395 1.04269 0
M  V30 7098 O 668.241 1.63304 1.05097 0
M  V30 7099 C 665.371 3.12447 1.51638 0
M  V30 7100 C 664.325 4.16153 1.00005 0
M  V30 7101 C 663.651 4.86948 2.20875 0
M  V30 7102 C 664.951 5.22275 0.0513757 0
M  V30 7103 H 666.645 2.98365 -0.248704 0
M  V30 7104 H 664.191 1.4349 -0.121052 0
M  V30 7105 H 666.144 3.65733 2.09326 0
M  V30 7106 H 664.868 2.41879 2.19458 0
M  V30 7107 H 663.527 3.63882 0.445549 0
M  V30 7108 H 663.175 4.12905 2.8726 0
M  V30 7109 H 662.875 5.57057 1.86978 0
M  V30 7110 H 664.399 5.43048 2.79162 0
M  V30 7111 H 665.813 5.70778 0.537176 0
M  V30 7112 H 664.21 5.9977 -0.198977 0
M  V30 7113 H 665.28 4.76611 -0.892736 0
M  V30 7114 N 666.623 0.143563 1.56945 0
M  V30 7115 C 667.553 -0.7936 2.196 0
M  V30 7116 C 668.534 -1.25955 1.14321 0
M  V30 7117 O 669.719 -1.31773 1.42651 0
M  V30 7118 C 666.849 -2.03424 2.81489 0
M  V30 7119 C 665.803 -1.70519 3.92565 0
M  V30 7120 C 665.129 -3.01817 4.41373 0
M  V30 7121 C 666.429 -0.95449 5.13504 0
M  V30 7122 H 668.123 -0.271423 2.98167 0
M  V30 7123 H 665.669 -0.12911 1.4342 0
M  V30 7124 H 667.622 -2.69463 3.23987 0
M  V30 7125 H 666.346 -2.58008 2.00248 0
M  V30 7126 H 665.005 -1.06859 3.5068 0
M  V30 7127 H 664.653 -3.54386 3.56959 0
M  V30 7128 H 664.353 -2.80565 5.16292 0
M  V30 7129 H 665.877 -3.68934 4.86539 0
M  V30 7130 H 667.291 -1.5169 5.52868 0
M  V30 7131 H 665.688 -0.842035 5.94163 0
M  V30 7132 H 666.758 0.0544033 4.84869 0
M  V30 7133 N 668.101 -1.57061 -0.130224 0
M  V30 7134 C 669.034 -1.94698 -1.19029 0
M  V30 7135 C 670.012 -0.815074 -1.40696 0
M  V30 7136 O 671.196 -1.07223 -1.55034 0
M  V30 7137 C 668.323 -2.23352 -2.5462 0
M  V30 7138 C 667.369 -3.45945 -2.49448 0
M  V30 7139 S 668.202 -4.98927 -1.94505 0
M  V30 7140 C 669.358 -5.30721 -3.31792 0
M  V30 7141 H 669.591 -2.84308 -0.869272 0
M  V30 7142 H 667.124 -1.50688 -0.336531 0
M  V30 7143 H 669.082 -2.40539 -3.32643 0
M  V30 7144 H 667.743 -1.34376 -2.83905 0
M  V30 7145 H 666.936 -3.63324 -3.49302 0
M  V30 7146 H 666.538 -3.28086 -1.79543 0
M  V30 7147 H 668.83 -5.25215 -4.27966 0
M  V30 7148 H 669.773 -6.32048 -3.19251 0
M  V30 7149 H 670.181 -4.5821 -3.29703 0
M  V30 7150 N 669.579 0.400081 -1.52437 0
M  V30 7151 C 670.509 1.4947 -1.7939 0
M  V30 7152 C 671.49 1.57383 -0.645329 0
M  V30 7153 O 672.675 1.72511 -0.891826 0
M  V30 7154 C 669.805 2.87201 -1.95276 0
M  V30 7155 C 668.759 2.94134 -3.10917 0
M  V30 7156 C 668.085 4.34207 -3.1204 0
M  V30 7157 C 669.385 2.64791 -4.50203 0
M  V30 7158 H 671.079 1.27165 -2.71052 0
M  V30 7159 H 668.625 0.610312 -1.30427 0
M  V30 7160 H 670.578 3.63772 -2.12715 0
M  V30 7161 H 669.302 3.10819 -1.00294 0
M  V30 7162 H 667.961 2.20009 -2.93243 0
M  V30 7163 H 667.609 4.54848 -2.14761 0
M  V30 7164 H 667.309 4.39768 -3.89715 0
M  V30 7165 H 668.833 5.127 -3.31619 0
M  V30 7166 H 670.247 3.31083 -4.68035 0
M  V30 7167 H 668.644 2.81717 -5.29864 0
M  V30 7168 H 669.714 1.60184 -4.57678 0
M  V30 7169 N 671.057 1.43213 0.657864 0
M  V30 7170 C 672.473 1.26511 0.972992 0
M  V30 7171 C 672.673 0.181477 2.00681 0
M  V30 7172 O 671.729 -0.441649 2.48608 0
M  V30 7173 C 673.042 2.62784 1.46168 0
M  V30 7174 C 674.59 2.70278 1.57857 0
M  V30 7175 C 675.065 4.06958 2.10117 0
M  V30 7176 N 676.556 4.08999 2.17426 0
M  V30 7177 C 677.291 5.11585 2.58975 0
M  V30 7178 N 676.787 6.24548 2.99853 0
M  V30 7179 N 678.58 4.9894 2.58873 0
M  V30 7180 H 670.731 2.12384 -0.0263129 0
M  V30 7181 H 672.994 0.946638 0.0507992 0
M  V30 7182 H 672.7 3.43022 0.776474 0
M  V30 7183 H 672.574 2.87863 2.43751 0
M  V30 7184 H 674.961 1.90376 2.25479 0
M  V30 7185 H 675.042 2.4897 0.587179 0
M  V30 7186 H 674.686 4.87325 1.43098 0
M  V30 7187 H 674.616 4.25628 3.10078 0
M  V30 7188 H 677.107 3.27457 1.88627 0
M  V30 7189 H 677.42 6.98661 3.30292 0
M  V30 7190 H 675.765 6.28027 2.97669 0
M  V30 7191 H 678.956 4.09757 2.26311 0
M  V30 7192 H 679.129 5.79019 2.90932 0
M  V30 7193 N 672.536 -0.895792 1.29666 0
M  V30 7194 C 673.483 -2.00035 1.15129 0
M  V30 7195 C 674.453 -1.66043 0.0435819 0
M  V30 7196 O 675.638 -1.89621 0.211811 0
M  V30 7197 C 672.778 -3.34774 0.83787 0
M  V30 7198 C 671.891 -3.81525 2.0264 0
M  V30 7199 C 671.026 -5.04858 1.65201 0
M  V30 7200 C 670.065 -5.43988 2.80612 0
M  V30 7201 N 669.202 -6.58507 2.43544 0
M  V30 7202 H 674.042 -2.11802 2.09628 0
M  V30 7203 H 671.579 -1.03719 1.04311 0
M  V30 7204 H 673.537 -4.12311 0.636824 0
M  V30 7205 H 672.167 -3.22724 -0.0702314 0
M  V30 7206 H 671.219 -2.9999 2.33903 0
M  V30 7207 H 672.531 -4.06472 2.89106 0
M  V30 7208 H 671.685 -5.8999 1.41408 0
M  V30 7209 H 670.424 -4.81759 0.758893 0
M  V30 7210 H 669.429 -4.57388 3.05083 0
M  V30 7211 H 670.654 -5.69066 3.70595 0
M  V30 7212 H 668.6 -6.37004 1.56724 0
M  V30 7213 H 668.517 -6.83269 3.23542 0
M  V30 7214 H 669.785 -7.46897 2.2308 0
M  V30 7215 N 674.014 -1.12206 -1.10668 0
M  V30 7216 C 675.244 -0.897332 -1.86095 0
M  V30 7217 C 675.652 0.556778 -1.80822 0
M  V30 7218 O 674.995 1.39658 -1.19337 0
M  V30 7219 C 675.057 -1.29095 -3.35522 0
M  V30 7220 C 674.721 -2.75586 -3.64556 0
M  V30 7221 C 675.718 -3.73785 -3.6136 0
M  V30 7222 C 673.403 -3.12432 -3.93309 0
M  V30 7223 C 675.397 -5.06845 -3.86506 0
M  V30 7224 C 673.084 -4.45675 -4.18111 0
M  V30 7225 C 674.082 -5.42691 -4.147 0
M  V30 7226 O 673.77 -6.73532 -4.38873 0
M  V30 7227 H 673.502 -0.320704 -0.595084 0
M  V30 7228 H 676.056 -1.49517 -1.40833 0
M  V30 7229 H 674.286 -0.636299 -3.81429 0
M  V30 7230 H 675.975 -1.04073 -3.92331 0
M  V30 7231 H 676.741 -3.46664 -3.39189 0
M  V30 7232 H 672.62 -2.3753 -3.95096 0
M  V30 7233 H 676.164 -5.82559 -3.83758 0
M  V30 7234 H 672.061 -4.72526 -4.39761 0
M  V30 7235 H 672.829 -6.79442 -4.564 0
M  V30 7236 N 675.492 1.28418 -0.913599 0
M  V30 7237 C 676.908 1.47411 -0.611728 0
M  V30 7238 C 677.108 1.83018 0.843008 0
M  V30 7239 O 676.164 1.93505 1.6221 0
M  V30 7240 C 677.477 2.57703 -1.5495 0
M  V30 7241 C 679.025 2.71572 -1.5562 0
M  V30 7242 C 679.5 3.85008 -2.48058 0
M  V30 7243 N 680.991 3.92361 -2.46184 0
M  V30 7244 C 681.726 4.79516 -3.14407 0
M  V30 7245 N 681.222 5.71262 -3.91958 0
M  V30 7246 N 683.015 4.73125 -3.03495 0
M  V30 7247 H 675.166 1.03585 -1.85429 0
M  V30 7248 H 677.429 0.515907 -0.795326 0
M  V30 7249 H 677.135 2.38298 -2.58663 0
M  V30 7250 H 677.009 3.54801 -1.28048 0
M  V30 7251 H 679.396 2.90366 -0.526441 0
M  V30 7252 H 679.477 1.75006 -1.86565 0
M  V30 7253 H 679.121 3.66969 -3.51136 0
M  V30 7254 H 679.051 4.80971 -2.14416 0
M  V30 7255 H 681.542 3.26749 -1.89851 0
M  V30 7256 H 681.855 6.34593 -4.41034 0
M  V30 7257 H 680.2 5.71103 -3.96063 0
M  V30 7258 H 683.391 4.00442 -2.42413 0
M  V30 7259 H 683.564 5.40834 -3.56935 0
M  V30 7260 N 676.97 0.677563 1.42291 0
M  V30 7261 C 677.917 0.000947061 2.308 0
M  V30 7262 C 678.887 -0.789889 1.46116 0
M  V30 7263 O 680.072 -0.761578 1.74942 0
M  V30 7264 C 677.212 -0.942387 3.31984 0
M  V30 7265 C 676.325 -0.14508 4.31756 0
M  V30 7266 C 675.46 -1.08442 5.20013 0
M  V30 7267 C 674.499 -0.278958 6.11464 0
M  V30 7268 N 673.636 -1.17115 6.92263 0
M  V30 7269 H 678.476 0.761521 2.88106 0
M  V30 7270 H 676.013 0.38727 1.41911 0
M  V30 7271 H 677.971 -1.50317 3.89179 0
M  V30 7272 H 676.601 -1.66956 2.76271 0
M  V30 7273 H 675.653 0.532368 3.76656 0
M  V30 7274 H 676.965 0.48015 4.96484 0
M  V30 7275 H 676.119 -1.71504 5.81955 0
M  V30 7276 H 674.858 -1.74353 4.55469 0
M  V30 7277 H 673.863 0.364856 5.48588 0
M  V30 7278 H 675.088 0.376099 6.78058 0
M  V30 7279 H 673.034 -1.81661 6.30345 0
M  V30 7280 H 672.951 -0.601063 7.53607 0
M  V30 7281 H 674.219 -1.78915 7.58689 0
M  V30 7282 N 678.448 -1.51871 0.421078 0
M  V30 7283 C 679.725 -1.9447 -0.20993 0
M  V30 7284 C 680.105 -1.35875 -1.61558 0
M  V30 7285 O 679.453 -0.539294 -2.22045 0
M  V30 7286 C 679.663 -3.48402 -0.204165 0
M  V30 7287 C 681.011 -4.2254 -0.417696 0
M  V30 7288 O 682.035 -3.55074 -0.282999 0
M  V30 7289 O 680.894 -5.422 -0.684239 0
M  V30 7290 H 677.988 -0.815283 -0.138718 0
M  V30 7291 H 680.534 -1.62832 0.477884 0
M  V30 7292 H 679.306 -3.83464 0.779183 0
M  V30 7293 H 678.929 -3.86436 -0.935576 0
M  V30 7294 N 679.926 -0.151884 -1.56866 0
M  V30 7295 C 681.156 0.504081 -2.00356 0
M  V30 7296 C 681.564 1.58639 -1.03103 0
M  V30 7297 O 680.907 1.83688 -0.0207931 0
M  V30 7298 C 680.969 1.15975 -3.40279 0
M  V30 7299 C 680.633 0.221453 -4.56463 0
M  V30 7300 C 681.63 -0.552766 -5.16953 0
M  V30 7301 C 679.315 0.122936 -5.0215 0
M  V30 7302 C 681.309 -1.4129 -6.21543 0
M  V30 7303 C 678.996 -0.740801 -6.06593 0
M  V30 7304 C 679.994 -1.50732 -6.6616 0
M  V30 7305 O 679.682 -2.35666 -7.68581 0
M  V30 7306 H 679.414 0.135279 -0.662326 0
M  V30 7307 H 681.968 -0.244916 -2.03935 0
M  V30 7308 H 680.198 1.95649 -3.33554 0
M  V30 7309 H 681.887 1.71594 -3.67846 0
M  V30 7310 H 682.653 -0.486716 -4.82552 0
M  V30 7311 H 678.532 0.70931 -4.5551 0
M  V30 7312 H 682.076 -2.01166 -6.67966 0
M  V30 7313 H 677.973 -0.808125 -6.40421 0
M  V30 7314 H 678.741 -2.28967 -7.85822 0
M  V30 7315 N 681.404 1.57128 0.121893 0
M  V30 7316 C 682.314 2.03425 1.16857 0
M  V30 7317 C 683.33 0.954108 1.45509 0
M  V30 7318 O 684.506 1.26541 1.56682 0
M  V30 7319 C 681.571 2.42685 2.47599 0
M  V30 7320 C 680.632 3.64767 2.2637 0
M  V30 7321 C 679.865 4.02145 3.50878 0
M  V30 7322 O 680.088 3.39897 4.58068 0
M  V30 7323 O 679.022 4.95262 3.42051 0
M  V30 7324 H 682.848 2.92825 0.80544 0
M  V30 7325 H 680.433 1.45654 0.332477 0
M  V30 7326 H 682.315 2.68684 3.24634 0
M  V30 7327 H 680.99 1.56432 2.83392 0
M  V30 7328 H 679.897 3.43922 1.47203 0
M  V30 7329 H 681.23 4.51716 1.95482 0
M  V30 7330 N 682.882 -0.391992 1.52647 0
M  V30 7331 C 683.812 -1.48517 1.8018 0
M  V30 7332 C 684.793 -1.57039 0.653667 0
M  V30 7333 O 685.978 -1.72036 0.900962 0
M  V30 7334 C 683.108 -2.86161 1.96797 0
M  V30 7335 C 682.062 -2.92481 3.12472 0
M  V30 7336 C 681.388 -4.32546 3.14338 0
M  V30 7337 C 682.688 -2.624 4.51601 0
M  V30 7338 H 684.382 -1.25726 2.71723 0
M  V30 7339 H 681.928 -0.603387 1.30749 0
M  V30 7340 H 683.881 -3.62639 2.14641 0
M  V30 7341 H 682.605 -3.10283 1.01941 0
M  V30 7342 H 681.264 -2.18451 2.94406 0
M  V30 7343 H 680.912 -4.53703 2.1717 0
M  V30 7344 H 680.612 -4.37695 3.92042 0
M  V30 7345 H 682.136 -5.10934 3.34333 0
M  V30 7346 H 683.55 -3.28596 4.69785 0
M  V30 7347 H 681.947 -2.78903 5.3135 0
M  V30 7348 H 683.017 -1.57754 4.58521 0
M  V30 7349 N 684.36 -1.4356 -0.65026 0
M  V30 7350 C 685.776 -1.27025 -0.966269 0
M  V30 7351 C 685.976 -0.192117 -2.00582 0
M  V30 7352 O 685.032 0.428459 -2.48838 0
M  V30 7353 C 686.345 -2.63556 -1.44772 0
M  V30 7354 C 687.893 -2.71111 -1.56421 0
M  V30 7355 C 688.368 -4.08067 -2.07956 0
M  V30 7356 N 689.859 -4.10146 -2.15254 0
M  V30 7357 C 690.594 -5.12952 -2.56258 0
M  V30 7358 N 690.09 -6.26129 -2.96537 0
M  V30 7359 N 691.883 -5.00306 -2.56224 0
M  V30 7360 H 684.034 -2.12367 0.0375758 0
M  V30 7361 H 686.297 -0.946894 -0.0457782 0
M  V30 7362 H 686.003 -3.43429 -0.758271 0
M  V30 7363 H 685.877 -2.89152 -2.42221 0
M  V30 7364 H 688.264 -1.91569 -2.24467 0
M  V30 7365 H 688.345 -2.49277 -0.573967 0
M  V30 7366 H 687.989 -4.88077 -1.40511 0
M  V30 7367 H 687.919 -4.27266 -3.07817 0
M  V30 7368 H 690.41 -3.28453 -1.86887 0
M  V30 7369 H 690.723 -7.00403 -3.26582 0
M  V30 7370 H 689.068 -6.29597 -2.94334 0
M  V30 7371 H 692.259 -4.10952 -2.24135 0
M  V30 7372 H 692.432 -5.80553 -2.87857 0
M  V30 7373 N 685.838 0.888903 -1.30139 0
M  V30 7374 C 686.77 1.99972 -1.11999 0
M  V30 7375 C 687.783 1.62673 -0.0643619 0
M  V30 7376 O 688.972 1.75788 -0.309983 0
M  V30 7377 C 686.072 3.31904 -0.685059 0
M  V30 7378 C 685.245 3.97665 -1.82158 0
M  V30 7379 C 684.304 5.07894 -1.37585 0
M  V30 7380 O 683.33 5.2974 -2.08241 0
M  V30 7381 N 684.532 5.7995 -0.252697 0
M  V30 7382 H 687.297 2.16085 -2.07671 0
M  V30 7383 H 684.858 1.06175 -1.22223 0
M  V30 7384 H 686.85 4.03005 -0.369964 0
M  V30 7385 H 685.42 3.12084 0.179507 0
M  V30 7386 H 684.64 3.19787 -2.305 0
M  V30 7387 H 685.928 4.3834 -2.58332 0
M  V30 7388 H 685.326 5.647 0.336141 0
M  V30 7389 H 683.883 6.518 0.00296813 0
M  V30 7390 N 687.317 1.12792 1.10072 0
M  V30 7391 C 688.264 0.79921 2.16521 0
M  V30 7392 C 689.234 -0.235726 1.64419 0
M  V30 7393 O 690.419 -0.109457 1.90486 0
M  V30 7394 C 687.559 0.264091 3.44088 0
M  V30 7395 C 686.672 1.35729 4.10124 0
M  V30 7396 C 685.807 0.781212 5.25424 0
M  V30 7397 C 684.846 1.85327 5.8337 0
M  V30 7398 N 683.983 1.29564 6.90042 0
M  V30 7399 H 688.823 1.71105 2.43981 0
M  V30 7400 H 686.36 0.854225 1.19756 0
M  V30 7401 H 688.318 -0.0642423 4.17151 0
M  V30 7402 H 686.948 -0.610901 3.16967 0
M  V30 7403 H 686 1.80234 3.34993 0
M  V30 7404 H 687.312 2.16782 4.4923 0
M  V30 7405 H 686.466 0.403769 6.05355 0
M  V30 7406 H 685.205 -0.0604686 4.87663 0
M  V30 7407 H 684.21 2.23986 5.02106 0
M  V30 7408 H 685.435 2.69824 6.23195 0
M  V30 7409 H 683.381 0.475844 6.54272 0
M  V30 7410 H 683.298 2.04271 7.2788 0
M  V30 7411 H 684.566 0.945545 7.73744 0
M  V30 7412 N 688.795 -1.27931 0.920396 0
M  V30 7413 C 689.742 -2.27085 0.412422 0
M  V30 7414 C 690.712 -1.57858 -0.516725 0
M  V30 7415 O 691.897 -1.85717 -0.437475 0
M  V30 7416 C 689.037 -3.43466 -0.335399 0
M  V30 7417 C 688.15 -4.27425 0.627017 0
M  V30 7418 C 687.285 -5.31016 -0.139916 0
M  V30 7419 C 686.324 -6.06641 0.815683 0
M  V30 7420 N 685.461 -7.02052 0.0818439 0
M  V30 7421 H 690.301 -2.69913 1.26298 0
M  V30 7422 H 687.838 -1.32732 0.634076 0
M  V30 7423 H 689.796 -4.09744 -0.785226 0
M  V30 7424 H 688.426 -3.01611 -1.15025 0
M  V30 7425 H 687.478 -3.6113 1.19537 0
M  V30 7426 H 688.79 -4.79969 1.35763 0
M  V30 7427 H 687.944 -6.03208 -0.649998 0
M  V30 7428 H 686.683 -4.79257 -0.903543 0
M  V30 7429 H 685.688 -5.33294 1.33708 0
M  V30 7430 H 686.913 -6.60489 1.57897 0
M  V30 7431 H 684.859 -6.52634 -0.663671 0
M  V30 7432 H 684.776 -7.52249 0.752163 0
M  V30 7433 H 686.044 -7.78432 -0.407825 0
M  V30 7434 N 690.273 -0.685099 -1.4193 0
M  V30 7435 C 691.519 -0.220688 -2.02199 0
M  V30 7436 C 691.874 1.16329 -1.5325 0
M  V30 7437 O 691.167 1.77175 -0.729345 0
M  V30 7438 C 691.361 -0.206154 -3.56805 0
M  V30 7439 C 691.19 -1.58718 -4.2076 0
M  V30 7440 C 689.96 -2.18747 -4.55497 0
M  V30 7441 C 692.158 -2.53182 -4.47664 0
M  V30 7442 N 690.14 -3.49523 -5.04685 0
M  V30 7443 C 691.511 -3.68625 -4.98514 0
M  V30 7444 C 693.566 -2.51582 -4.29664 0
M  V30 7445 C 692.269 -4.82734 -5.33255 0
M  V30 7446 C 694.295 -3.64795 -4.65487 0
M  V30 7447 C 693.657 -4.78967 -5.16498 0
M  V30 7448 H 689.756 -0.12591 -0.771797 0
M  V30 7449 H 692.34 -0.900316 -1.72634 0
M  V30 7450 H 690.511 0.442923 -3.85866 0
M  V30 7451 H 692.243 0.272103 -4.03784 0
M  V30 7452 H 688.998 -1.71135 -4.41599 0
M  V30 7453 H 689.422 -4.1653 -5.33696 0
M  V30 7454 H 694.064 -1.64535 -3.89472 0
M  V30 7455 H 691.782 -5.7045 -5.72375 0
M  V30 7456 H 695.368 -3.64796 -4.53227 0
M  V30 7457 H 694.248 -5.6512 -5.437 0
M  V30 7458 N 691.751 1.51645 -0.429126 0
M  V30 7459 C 692.976 2.06917 0.141399 0
M  V30 7460 C 693.401 1.29527 1.36398 0
M  V30 7461 O 692.759 0.33094 1.78254 0
M  V30 7462 C 692.807 3.57776 0.4504 0
M  V30 7463 O 691.911 3.82639 1.53821 0
M  V30 7464 H 691.252 0.663978 0.0054647 0
M  V30 7465 H 693.782 1.95355 -0.608093 0
M  V30 7466 H 693.792 4.01894 0.703249 0
M  V30 7467 H 692.467 4.13532 -0.443213 0
M  V30 7468 H 691.044 3.5039 1.27597 0
M  V30 7469 N 693.229 0.160201 1.56784 0
M  V30 7470 C 694.179 -0.786461 2.14007 0
M  V30 7471 C 695.163 -1.20046 1.07134 0
M  V30 7472 O 696.355 -1.16468 1.33283 0
M  V30 7473 C 693.484 -2.02024 2.77563 0
M  V30 7474 C 692.57 -1.62874 3.91578 0
M  V30 7475 N 692.961 -0.946176 4.96871 0
M  V30 7476 C 691.259 -1.92054 4.02531 0
M  V30 7477 C 691.96 -0.755084 5.76778 0
M  V30 7478 N 690.936 -1.29307 5.27997 0
M  V30 7479 H 694.738 -0.255879 2.92784 0
M  V30 7480 H 692.252 -0.0408778 1.62349 0
M  V30 7481 H 694.249 -2.70855 3.16928 0
M  V30 7482 H 692.909 -2.55587 2.00263 0
M  V30 7483 H 693.92 -0.605455 5.14349 0
M  V30 7484 H 690.597 -2.47374 3.36322 0
M  V30 7485 H 691.987 -0.216138 6.71552 0
M  V30 7486 N 694.707 -1.5719 -0.113559 0
M  V30 7487 C 695.956 -1.84325 -0.818984 0
M  V30 7488 C 696.269 -0.746685 -1.80787 0
M  V30 7489 O 697.475 -0.904596 -2.55987 0
M  V30 7490 C 695.931 -3.26818 -1.50724 0
M  V30 7491 C 695.539 -4.44498 -0.559065 0
M  V30 7492 C 697.283 -3.63196 -2.19748 0
M  V30 7493 C 695.19 -5.7802 -1.25086 0
M  V30 7494 H 694.12 -0.687507 -0.309596 0
M  V30 7495 H 696.771 -1.8336 -0.0717621 0
M  V30 7496 H 695.153 -3.22269 -2.30128 0
M  V30 7497 H 696.327 -4.60356 0.202146 0
M  V30 7498 H 694.642 -4.16393 0.024495 0
M  V30 7499 H 697.239 -4.60226 -2.72206 0
M  V30 7500 H 697.582 -2.90899 -2.97798 0
M  V30 7501 H 698.115 -3.69553 -1.47226 0
M  V30 7502 H 694.854 -6.53501 -0.511539 0
M  V30 7503 H 694.374 -5.66038 -1.98395 0
M  V30 7504 H 696.053 -6.2196 -1.78253 0
M  V30 7505 N 696.185 0.383891 -1.52853 0
M  V30 7506 C 697.596 0.961591 -1.60032 0
M  V30 7507 C 697.947 1.90819 -0.456333 0
M  V30 7508 O 697.072 2.12288 0.419873 0
M  V30 7509 C 697.667 1.75078 -2.90057 0
M  V30 7510 C 696.226 2.2781 -2.99632 0
M  V30 7511 C 695.373 1.08512 -2.55187 0
M  V30 7512 H 698.324 0.163269 -1.57858 0
M  V30 7513 H 698.345 2.61046 -2.7683 0
M  V30 7514 H 697.857 1.06157 -3.73299 0
M  V30 7515 H 695.958 3.00028 -2.20939 0
M  V30 7516 H 696.071 2.56947 -4.0437 0
M  V30 7517 H 694.435 1.44667 -2.09627 0
M  V30 7518 H 695.218 0.41118 -3.40829 0
M  V30 7519 N 697.663 1.43903 0.642637 0
M  V30 7520 C 699.074 1.40975 1.22404 0
M  V30 7521 C 699.425 0.1192 1.95838 0
M  V30 7522 O 698.55 -0.780939 2.01818 0
M  V30 7523 C 699.145 2.5538 2.22636 0
M  V30 7524 C 697.704 2.55684 2.76229 0
M  V30 7525 C 696.851 2.32556 1.51039 0
M  V30 7526 H 699.802 1.5265 0.434006 0
M  V30 7527 H 699.823 2.27474 3.05017 0
M  V30 7528 H 699.335 3.49294 1.69161 0
M  V30 7529 H 697.436 1.65679 3.33738 0
M  V30 7530 H 697.549 3.53799 3.23053 0
M  V30 7531 H 695.913 1.81427 1.78764 0
M  V30 7532 H 696.696 3.28569 0.99484 0
M  V30 7533 N 699.141 -0.881989 1.30609 0
M  V30 7534 C 700.051 -2.02076 1.19174 0
M  V30 7535 C 701.067 -1.73645 0.11102 0
M  V30 7536 O 702.243 -1.98735 0.326528 0
M  V30 7537 C 699.308 -3.3515 0.887438 0
M  V30 7538 C 698.369 -3.76983 2.05383 0
M  V30 7539 C 697.602 -5.03707 1.76395 0
M  V30 7540 O 697.825 -5.66171 0.693302 0
M  V30 7541 O 696.759 -5.42019 2.61723 0
M  V30 7542 H 700.585 -2.14652 2.14845 0
M  V30 7543 H 698.17 -1.00843 1.10232 0
M  V30 7544 H 700.052 -4.14975 0.73306 0
M  V30 7545 H 698.727 -3.23676 -0.0393354 0
M  V30 7546 H 697.634 -2.97849 2.26355 0
M  V30 7547 H 698.967 -3.93066 2.96243 0
M  V30 7548 N 700.619 -1.13374 -1.09472 0
M  V30 7549 C 701.567 -0.806105 -2.18185 0
M  V30 7550 C 702.561 0.21136 -1.68076 0
M  V30 7551 O 703.767 0.0685558 -1.79869 0
M  V30 7552 H 700.142 -0.242901 -0.71169 0
M  V30 7553 H 702.113 -1.73115 -2.43051 0
M  V30 7554 C 700.862 -0.287928 -3.46506 0
M  V30 7555 H 700.185 -1.06217 -3.85432 0
M  V30 7556 H 701.625 -0.0971054 -4.23889 0
M  V30 7557 C 700.084 0.986256 -3.22141 0
M  V30 7558 O 700.614 2.06217 -3.44728 0
M  V30 7559 N 698.82 0.917153 -2.75747 0
M  V30 7560 H 698.367 0.0414609 -2.57567 0
M  V30 7561 H 698.325 1.77029 -2.59823 0
M  V30 7562 N 702.098 1.27442 -0.927168 0
M  V30 7563 C 703.347 1.93679 -0.563146 0
M  V30 7564 C 703.66 1.73673 0.899837 0
M  V30 7565 O 704.866 2.34247 1.37262 0
M  V30 7566 C 703.322 3.46961 -0.95636 0
M  V30 7567 C 702.93 3.75724 -2.43999 0
M  V30 7568 C 704.674 4.19282 -0.663565 0
M  V30 7569 C 702.581 5.22378 -2.77263 0
M  V30 7570 H 701.511 0.725059 -0.206894 0
M  V30 7571 H 704.162 1.44743 -1.12791 0
M  V30 7572 H 702.544 3.94703 -0.320254 0
M  V30 7573 H 703.718 3.38741 -3.12396 0
M  V30 7574 H 702.033 3.16605 -2.70463 0
M  V30 7575 H 704.63 5.27265 -0.888596 0
M  V30 7576 H 704.973 4.14382 0.399198 0
M  V30 7577 H 705.506 3.7736 -1.25875 0
M  V30 7578 H 702.245 5.32367 -3.82446 0
M  V30 7579 H 701.765 5.6051 -2.13516 0
M  V30 7580 H 703.444 5.9025 -2.64979 0
M  V30 7581 N 703.576 0.692616 1.41565 0
M  V30 7582 C 704.823 0.222335 2.01276 0
M  V30 7583 C 705.151 -1.17706 1.5484 0
M  V30 7584 O 704.406 -1.80795 0.749118 0
M  V30 7585 C 704.705 0.225073 3.56691 0
M  V30 7586 C 704.371 1.57158 4.22625 0
M  V30 7587 C 703.033 1.94022 4.40351 0
M  V30 7588 C 705.385 2.45758 4.59622 0
M  V30 7589 C 702.713 3.19076 4.92349 0
M  V30 7590 C 705.065 3.70141 5.13009 0
M  V30 7591 C 703.729 4.07152 5.28946 0
M  V30 7592 H 702.999 0.0813581 0.73652 0
M  V30 7593 H 705.646 0.891123 1.69503 0
M  V30 7594 H 703.951 -0.527259 3.88236 0
M  V30 7595 H 705.648 -0.156283 4.00695 0
M  V30 7596 H 702.238 1.27486 4.09201 0
M  V30 7597 H 706.422 2.18558 4.45585 0
M  V30 7598 H 701.678 3.4775 5.02872 0
M  V30 7599 H 705.852 4.38983 5.40617 0
M  V30 7600 H 703.479 5.04125 5.69001 0
M  V30 7601 N 705.054 -1.51416 0.437162 0
M  V30 7602 C 706.465 -1.86682 -0.0260005 0
M  V30 7603 C 706.816 -1.35432 -1.4196 0
M  V30 7604 O 705.941 -0.705055 -2.04592 0
M  V30 7605 C 706.536 -3.38757 -0.0539577 0
M  V30 7606 C 705.095 -3.7356 -0.461532 0
M  V30 7607 C 704.242 -2.75134 0.345924 0
M  V30 7608 H 707.193 -1.44642 0.653013 0
M  V30 7609 H 707.214 -3.70573 -0.863478 0
M  V30 7610 H 706.726 -3.76028 0.96045 0
M  V30 7611 H 704.827 -3.41878 -1.48155 0
M  V30 7612 H 704.94 -4.78737 -0.186451 0
M  V30 7613 H 703.304 -2.53947 -0.195739 0
M  V30 7614 H 704.087 -3.15247 1.35921 0
M  V30 7615 N 706.532 -0.168513 -1.56696 0
M  V30 7616 C 707.462 0.758563 -2.20835 0
M  V30 7617 C 708.443 1.24121 -1.1631 0
M  V30 7618 O 709.628 1.29487 -1.4473 0
M  V30 7619 C 706.758 1.9892 -2.8469 0
M  V30 7620 C 705.712 1.64252 -3.95228 0
M  V30 7621 C 705.038 2.94757 -4.46119 0
M  V30 7622 C 706.338 0.872675 -5.14958 0
M  V30 7623 H 708.032 0.223953 -2.98561 0
M  V30 7624 H 705.578 0.106277 -1.43607 0
M  V30 7625 H 707.531 2.64275 -3.28233 0
M  V30 7626 H 706.255 2.5479 -2.04327 0
M  V30 7627 H 704.914 1.01266 -3.52336 0
M  V30 7628 H 704.562 3.48662 -3.62552 0
M  V30 7629 H 704.262 2.72316 -5.2069 0
M  V30 7630 H 705.786 3.61147 -4.92347 0
M  V30 7631 H 707.2 1.42875 -5.55211 0
M  V30 7632 H 705.597 0.747402 -5.95428 0
M  V30 7633 H 706.667 -0.131535 -4.84722 0
M  V30 7634 N 708.01 1.57248 0.105221 0
M  V30 7635 C 708.92 2.04653 1.14693 0
M  V30 7636 C 709.936 0.969488 1.44489 0
M  V30 7637 O 711.112 1.28196 1.55331 0
M  V30 7638 C 708.177 2.45297 2.45011 0
M  V30 7639 C 707.238 3.67148 2.22489 0
M  V30 7640 C 706.471 4.05844 3.46592 0
M  V30 7641 O 706.694 3.44736 4.54437 0
M  V30 7642 O 705.628 4.98862 3.36779 0
M  V30 7643 H 709.454 2.93663 0.774336 0
M  V30 7644 H 707.039 1.45998 0.31701 0
M  V30 7645 H 708.921 2.72112 3.21766 0
M  V30 7646 H 707.596 1.59429 2.81717 0
M  V30 7647 H 706.503 3.45463 1.43547 0
M  V30 7648 H 707.836 4.53764 1.9068 0
M  V30 7649 N 709.488 -0.375779 1.53054 0
M  V30 7650 C 710.716 -1.14036 1.72637 0
M  V30 7651 C 711.131 -1.83342 0.450687 0
M  V30 7652 O 710.488 -1.7318 -0.575749 0
M  V30 7653 C 710.539 -2.17841 2.88492 0
M  V30 7654 O 710.26 -1.51358 4.11123 0
M  V30 7655 C 711.761 -3.06924 3.19863 0
M  V30 7656 H 708.981 -0.341386 0.577665 0
M  V30 7657 H 711.525 -0.437809 1.99759 0
M  V30 7658 H 709.68 -2.8371 2.63794 0
M  V30 7659 H 710.094 -2.20439 4.75928 0
M  V30 7660 H 711.568 -3.75763 4.04359 0
M  V30 7661 H 712.045 -3.71169 2.34798 0
M  V30 7662 H 712.651 -2.46684 3.46449 0
M  V30 7663 N 710.966 -1.44241 -0.634997 0
M  V30 7664 C 711.914 -1.51103 -1.76835 0
M  V30 7665 C 712.908 -0.383051 -1.65012 0
M  V30 7666 O 714.114 -0.557832 -1.71138 0
M  V30 7667 H 710.489 -0.474076 -0.583743 0
M  V30 7668 H 712.46 -2.46499 -1.68169 0
M  V30 7669 C 711.209 -1.4687 -3.15158 0
M  V30 7670 H 710.532 -2.32979 -3.24901 0
M  V30 7671 H 711.972 -1.55731 -3.94365 0
M  V30 7672 C 710.431 -0.188884 -3.3637 0
M  V30 7673 O 710.961 0.742487 -3.94778 0
M  V30 7674 N 709.167 -0.0932516 -2.9045 0
M  V30 7675 H 708.714 -0.852004 -2.43102 0
M  V30 7676 H 708.672 0.762308 -3.05018 0
M  V30 7677 N 712.444 0.87505 -1.31075 0
M  V30 7678 C 713.354 2.01441 -1.20244 0
M  V30 7679 C 714.37 1.73584 -0.120227 0
M  V30 7680 O 715.546 1.98559 -0.337063 0
M  V30 7681 C 712.611 3.34675 -0.905199 0
M  V30 7682 C 711.672 3.75889 -2.0738 0
M  V30 7683 C 710.905 5.02764 -1.79064 0
M  V30 7684 O 711.128 5.65795 -0.723318 0
M  V30 7685 O 710.062 5.40623 -2.64594 0
M  V30 7686 H 713.888 2.13509 -2.1598 0
M  V30 7687 H 711.473 1.00257 -1.10765 0
M  V30 7688 H 713.355 4.1458 -0.755057 0
M  V30 7689 H 712.03 3.23692 0.0221695 0
M  V30 7690 H 710.937 2.96645 -2.27931 0
M  V30 7691 H 712.27 3.91489 -2.98324 0
M  V30 7692 N 713.922 1.13953 1.08869 0
M  V30 7693 C 715.15 0.92817 1.84912 0
M  V30 7694 C 715.565 -0.523197 1.81406 0
M  V30 7695 O 714.922 -1.36237 1.21432 0
M  V30 7696 C 714.973 1.41509 3.32652 0
M  V30 7697 O 714.694 2.80959 3.36145 0
M  V30 7698 C 716.195 1.243 4.25517 0
M  V30 7699 H 713.415 0.330612 0.583898 0
M  V30 7700 H 715.959 1.51349 1.37527 0
M  V30 7701 H 714.114 0.872648 3.77444 0
M  V30 7702 H 714.528 3.02704 4.28335 0
M  V30 7703 H 716.002 1.63237 5.27312 0
M  V30 7704 H 716.479 0.18532 4.38809 0
M  V30 7705 H 717.085 1.77375 3.86546 0
M  V30 7706 N 715.4 -1.26948 0.933913 0
M  V30 7707 C 716.348 -2.2862 0.428463 0
M  V30 7708 C 717.342 -1.62144 -0.490464 0
M  V30 7709 O 718.548 -1.76167 -0.36948 0
M  V30 7710 H 714.923 -0.742363 0.120003 0
M  V30 7711 H 716.894 -2.68659 1.29865 0
M  V30 7712 C 715.643 -3.46423 -0.29774 0
M  V30 7713 H 714.966 -3.97792 0.400183 0
M  V30 7714 H 716.406 -4.19505 -0.615736 0
M  V30 7715 C 714.865 -3.01017 -1.51295 0
M  V30 7716 O 715.395 -3.05226 -2.61151 0
M  V30 7717 N 713.601 -2.56442 -1.36696 0
M  V30 7718 H 713.148 -2.53217 -0.473178 0
M  V30 7719 H 713.106 -2.26424 -2.18127 0
M  V30 7720 N 716.879 -0.700114 -1.41195 0
M  V30 7721 C 717.829 -0.0144098 -2.27995 0
M  V30 7722 C 718.813 0.748249 -1.42443 0
M  V30 7723 O 720.005 0.622995 -1.65674 0
M  V30 7724 C 717.134 0.917938 -3.308 0
M  V30 7725 C 716.22 0.151286 -4.2383 0
M  V30 7726 N 716.611 -0.85732 -4.98481 0
M  V30 7727 C 714.909 0.386108 -4.44326 0
M  V30 7728 C 715.61 -1.31663 -5.66604 0
M  V30 7729 N 714.586 -0.641689 -5.39799 0
M  V30 7730 H 718.388 -0.787662 -2.83149 0
M  V30 7731 H 715.902 -0.531344 -1.53462 0
M  V30 7732 H 717.899 1.42437 -3.91813 0
M  V30 7733 H 716.559 1.69074 -2.77208 0
M  V30 7734 H 717.57 -1.2377 -5.02893 0
M  V30 7735 H 714.247 1.13644 -4.01735 0
M  V30 7736 H 715.637 -2.15384 -6.36443 0
M  V30 7737 N 718.357 1.51182 -0.445186 0
M  V30 7738 C 719.603 2.02452 0.11882 0
M  V30 7739 C 719.936 1.32824 1.41673 0
M  V30 7740 O 719.211 0.445637 1.89326 0
M  V30 7741 C 719.494 3.5859 0.329475 0
M  V30 7742 C 719.347 4.38823 -0.987638 0
M  V30 7743 C 720.666 4.26241 1.09575 0
M  V30 7744 H 717.785 0.735819 0.0417092 0
M  V30 7745 H 720.427 1.80747 -0.585718 0
M  V30 7746 H 718.577 3.77214 0.9296 0
M  V30 7747 H 720.249 4.3183 -1.62235 0
M  V30 7748 H 718.492 4.03594 -1.59041 0
M  V30 7749 H 719.163 5.46257 -0.794192 0
M  V30 7750 H 721.639 4.11934 0.587328 0
M  V30 7751 H 720.515 5.35354 1.21191 0
M  V30 7752 H 720.776 3.87635 2.12584 0
M  V30 7753 N 719.835 0.176821 1.56605 0
M  V30 7754 C 721.06 -0.47599 2.01864 0
M  V30 7755 C 721.485 -1.55645 1.05623 0
M  V30 7756 O 720.843 -1.81263 0.0366729 0
M  V30 7757 C 720.891 -1.02619 3.4569 0
M  V30 7758 O 719.995 -2.13996 3.52533 0
M  V30 7759 H 719.336 -0.113363 0.654251 0
M  V30 7760 H 721.866 0.28233 2.02643 0
M  V30 7761 H 721.876 -1.34742 3.85109 0
M  V30 7762 H 720.551 -0.235138 4.15235 0
M  V30 7763 H 719.128 -1.82876 3.24978 0
M  V30 7764 N 721.313 -1.57302 -0.09688 0
M  V30 7765 C 722.243 -2.0497 -1.11846 0
M  V30 7766 C 723.224 -0.938278 -1.41882 0
M  V30 7767 O 724.409 -1.20943 -1.51942 0
M  V30 7768 C 721.539 -2.47264 -2.43881 0
M  V30 7769 C 720.493 -3.62053 -2.28257 0
M  V30 7770 C 719.819 -3.90318 -3.65453 0
M  V30 7771 C 721.119 -4.93005 -1.72461 0
M  V30 7772 H 722.813 -2.90567 -0.721888 0
M  V30 7773 H 720.359 -1.39786 -0.345803 0
M  V30 7774 H 722.312 -2.7922 -3.15617 0
M  V30 7775 H 721.036 -1.58664 -2.8547 0
M  V30 7776 H 719.695 -3.30341 -1.58967 0
M  V30 7777 H 719.343 -2.98889 -4.04567 0
M  V30 7778 H 719.043 -4.67597 -3.55846 0
M  V30 7779 H 720.567 -4.24747 -4.3866 0
M  V30 7780 H 721.981 -5.23354 -2.34036 0
M  V30 7781 H 720.378 -5.74436 -1.73618 0
M  V30 7782 H 721.448 -4.80053 -0.683898 0
M  V30 7783 N 722.791 0.367657 -1.53252 0
M  V30 7784 C 723.738 1.45028 -1.79543 0
M  V30 7785 C 724.708 1.53288 -0.63969 0
M  V30 7786 O 725.893 1.69209 -0.881653 0
M  V30 7787 C 723.033 2.82 -1.98923 0
M  V30 7788 C 722.146 2.82722 -3.26638 0
M  V30 7789 C 721.281 4.11257 -3.36216 0
M  V30 7790 C 720.32 4.06113 -4.57972 0
M  V30 7791 N 719.457 5.26293 -4.64715 0
M  V30 7792 H 724.297 1.21908 -2.71923 0
M  V30 7793 H 721.834 0.591011 -1.34705 0
M  V30 7794 H 723.792 3.61568 -2.08146 0
M  V30 7795 H 722.422 3.03523 -1.09881 0
M  V30 7796 H 721.474 1.95399 -3.26379 0
M  V30 7797 H 722.786 2.74794 -4.16281 0
M  V30 7798 H 721.94 4.99239 -3.44739 0
M  V30 7799 H 720.679 4.21935 -2.44586 0
M  V30 7800 H 719.684 3.16517 -4.49552 0
M  V30 7801 H 720.909 3.97039 -5.50942 0
M  V30 7802 H 718.855 5.37561 -3.75985 0
M  V30 7803 H 718.772 5.20526 -5.4826 0
M  V30 7804 H 720.04 6.16113 -4.77519 0
M  V30 7805 N 724.269 1.44576 0.627338 0
M  V30 7806 C 725.518 1.46837 1.38281 0
M  V30 7807 C 725.831 0.10635 1.95311 0
M  V30 7808 O 727.037 0.00651084 2.71499 0
M  V30 7809 C 725.493 2.58527 2.50384 0
M  V30 7810 C 725.101 4.00953 1.99851 0
M  V30 7811 C 726.845 2.70013 3.27557 0
M  V30 7812 C 724.752 5.0406 3.09318 0
M  V30 7813 H 723.682 0.546319 0.519664 0
M  V30 7814 H 726.333 1.70654 0.674497 0
M  V30 7815 H 724.715 2.27957 3.23808 0
M  V30 7816 H 725.889 4.41108 1.33267 0
M  V30 7817 H 724.204 3.93743 1.35482 0
M  V30 7818 H 726.801 3.44217 4.09168 0
M  V30 7819 H 727.144 1.75961 3.77284 0
M  V30 7820 H 727.677 3.00011 2.61224 0
M  V30 7821 H 724.416 5.99753 2.6453 0
M  V30 7822 H 723.936 4.68493 3.74532 0
M  V30 7823 H 725.615 5.2793 3.74031 0
M  V30 7824 N 725.747 -0.868086 1.31537 0
M  V30 7825 C 727.024 -1.60384 1.11965 0
M  V30 7826 C 727.404 -2.08584 -0.324949 0
M  V30 7827 O 726.752 -1.86561 -1.31937 0
M  V30 7828 C 726.962 -2.76038 2.13551 0
M  V30 7829 C 728.31 -3.45954 2.46173 0
M  V30 7830 O 729.334 -2.86247 2.11993 0
M  V30 7831 O 728.193 -4.53666 3.04711 0
M  V30 7832 H 725.287 -0.705705 0.431172 0
M  V30 7833 H 727.833 -0.913385 1.43022 0
M  V30 7834 H 726.605 -2.37849 3.10714 0
M  V30 7835 H 726.228 -3.52769 1.83411 0
M  V30 7836 N 727.225 -1.14528 -1.08264 0
M  V30 7837 C 728.502 -0.825185 -1.77342 0
M  V30 7838 C 728.882 0.681037 -1.99813 0
M  V30 7839 O 728.23 1.62234 -1.60912 0
M  V30 7840 C 728.44 -1.62556 -3.08831 0
M  V30 7841 C 729.788 -1.82585 -3.83338 0
M  V30 7842 O 730.812 -1.59254 -3.18617 0
M  V30 7843 O 729.671 -2.21598 -4.99556 0
M  V30 7844 H 726.765 -0.302531 -0.769678 0
M  V30 7845 H 729.311 -1.25056 -1.14713 0
M  V30 7846 H 728.083 -2.64862 -2.88035 0
M  V30 7847 H 727.706 -1.1959 -3.79189 0
M  V30 7848 N 728.703 1.26451 -0.940633 0
M  V30 7849 C 729.98 1.88947 -0.505811 0
M  V30 7850 C 730.36 1.85011 1.01657 0
M  V30 7851 O 729.708 1.30406 1.87634 0
M  V30 7852 C 729.918 3.32304 -1.06654 0
M  V30 7853 C 731.266 4.09153 -1.13486 0
M  V30 7854 O 732.29 3.41371 -1.01708 0
M  V30 7855 O 731.149 5.30369 -1.31797 0
M  V30 7856 H 728.243 0.810422 -0.164759 0
M  V30 7857 H 730.789 1.34625 -1.03316 0
M  V30 7858 H 729.561 3.29527 -2.11015 0
M  V30 7859 H 729.184 3.94164 -0.521603 0
M  V30 7860 N 730.181 0.707592 1.40822 0
M  V30 7861 C 731.128 0.0499029 2.30746 0
M  V30 7862 C 732.098 -0.758718 1.47759 0
M  V30 7863 O 733.283 -0.724299 1.76518 0
M  V30 7864 C 730.423 -0.871756 3.33908 0
M  V30 7865 C 729.536 -0.0534655 4.31967 0
M  V30 7866 C 728.671 -0.973869 5.22197 0
M  V30 7867 C 727.71 -0.149194 6.11918 0
M  V30 7868 N 726.847 -1.02404 6.94592 0
M  V30 7869 H 731.687 0.822461 2.86426 0
M  V30 7870 H 729.224 0.417285 1.41057 0
M  V30 7871 H 731.182 -1.42028 3.9228 0
M  V30 7872 H 729.812 -1.61058 2.7975 0
M  V30 7873 H 728.864 0.612142 3.75442 0
M  V30 7874 H 730.176 0.585354 4.95353 0
M  V30 7875 H 729.33 -1.59121 5.85462 0
M  V30 7876 H 728.069 -1.64652 4.59065 0
M  V30 7877 H 727.074 0.481137 5.47691 0
M  V30 7878 H 728.299 0.519841 6.77107 0
M  V30 7879 H 726.245 -1.6825 6.34057 0
M  V30 7880 H 726.162 -0.441076 7.54712 0
M  V30 7881 H 727.43 -1.62782 7.62314 0
M  V30 7882 N 731.66 -1.50943 0.453197 0
M  V30 7883 C 733.076 -1.59245 0.106342 0
M  V30 7884 C 733.276 -1.46287 -1.38572 0
M  V30 7885 O 732.332 -1.31219 -2.15726 0
M  V30 7886 C 733.645 -2.93797 0.640595 0
M  V30 7887 C 735.193 -3.07148 0.602435 0
M  V30 7888 C 735.668 -4.44247 1.11393 0
M  V30 7889 N 737.159 -4.50611 1.07258 0
M  V30 7890 C 737.894 -5.55049 1.43905 0
M  V30 7891 N 737.39 -6.66828 1.87914 0
M  V30 7892 N 739.183 -5.45494 1.35621 0
M  V30 7893 H 731.334 -1.5761 1.42382 0
M  V30 7894 H 733.597 -0.74384 0.587713 0
M  V30 7895 H 733.303 -3.087 1.68515 0
M  V30 7896 H 733.177 -3.77127 0.0742272 0
M  V30 7897 H 735.564 -2.91903 -0.433171 0
M  V30 7898 H 735.645 -2.25619 1.20539 0
M  V30 7899 H 735.289 -4.60239 2.14808 0
M  V30 7900 H 735.219 -5.2434 0.487353 0
M  V30 7901 H 737.71 -3.70391 0.749585 0
M  V30 7902 H 738.023 -7.42558 2.14072 0
M  V30 7903 H 736.368 -6.67995 1.91853 0
M  V30 7904 H 739.559 -4.57053 1.01093 0
M  V30 7905 H 739.732 -6.2677 1.64508 0
M  V30 7906 N 733.138 -0.185124 -1.56509 0
M  V30 7907 C 734.554 0.170865 -1.58683 0
M  V30 7908 C 734.754 1.61799 -1.20098 0
M  V30 7909 O 733.81 2.35181 -0.919038 0
M  V30 7910 C 735.123 -0.122459 -3.00451 0
M  V30 7911 C 736.671 -0.0617699 -3.12939 0
M  V30 7912 C 737.146 -0.328269 -4.56822 0
M  V30 7913 N 738.637 -0.276533 -4.62374 0
M  V30 7914 C 739.372 -0.456722 -5.71578 0
M  V30 7915 N 738.868 -0.69672 -6.89288 0
M  V30 7916 N 740.661 -0.391669 -5.60734 0
M  V30 7917 H 732.812 -1.12956 -1.79874 0
M  V30 7918 H 735.075 -0.45011 -0.834329 0
M  V30 7919 H 734.781 -1.12546 -3.33206 0
M  V30 7920 H 734.655 0.579578 -3.72721 0
M  V30 7921 H 737.042 0.931826 -2.80002 0
M  V30 7922 H 737.123 -0.796732 -2.43076 0
M  V30 7923 H 736.767 -1.31914 -4.9047 0
M  V30 7924 H 736.697 0.427465 -5.24862 0
M  V30 7925 H 739.188 -0.0972458 -3.77775 0
M  V30 7926 H 739.501 -0.823291 -7.68402 0
M  V30 7927 H 737.846 -0.733497 -6.91119 0
M  V30 7928 H 741.037 -0.204663 -4.67652 0
M  V30 7929 H 741.21 -0.535518 -6.45783 0
M  V30 7930 N 734.616 1.57351 0.0885366 0
M  V30 7931 C 735.893 1.77449 0.822873 0
M  V30 7932 C 736.273 0.768463 1.96616 0
M  V30 7933 O 735.621 -0.201757 2.27608 0
M  V30 7934 C 735.831 3.23425 1.31137 0
M  V30 7935 C 737.179 3.86791 1.75152 0
M  V30 7936 O 738.203 3.27215 1.40745 0
M  V30 7937 O 737.062 4.91568 2.38794 0
M  V30 7938 H 734.156 0.727653 0.393002 0
M  V30 7939 H 736.702 1.69556 0.0699095 0
M  V30 7940 H 735.474 3.88188 0.49254 0
M  V30 7941 H 735.097 3.35977 2.12615 0
M  V30 7942 N 736.094 -0.359525 1.53444 0
M  V30 7943 C 737.322 -1.12198 1.73837 0
M  V30 7944 C 737.737 -1.82854 0.470107 0
M  V30 7945 O 737.094 -1.73781 -0.557349 0
M  V30 7946 C 737.145 -2.14769 2.90786 0
M  V30 7947 O 736.866 -1.46989 4.12706 0
M  V30 7948 C 738.367 -3.03514 3.231 0
M  V30 7949 H 735.587 -0.33524 0.581253 0
M  V30 7950 H 738.131 -0.416598 2.00212 0
M  V30 7951 H 736.286 -2.80896 2.66788 0
M  V30 7952 H 736.7 -2.15378 4.78239 0
M  V30 7953 H 738.174 -3.71453 4.08322 0
M  V30 7954 H 738.651 -3.68658 2.38721 0
M  V30 7955 H 739.257 -2.42996 3.49046 0
M  V30 7956 N 737.572 -1.44907 -0.619662 0
M  V30 7957 C 738.821 -1.47569 -1.37501 0
M  V30 7958 C 739.134 -0.116707 -1.95252 0
M  V30 7959 O 740.34 -0.020909 -2.71492 0
M  V30 7960 C 738.796 -2.59851 -2.49009 0
M  V30 7961 C 738.404 -4.02008 -1.97722 0
M  V30 7962 C 740.148 -2.71746 -3.2612 0
M  V30 7963 C 738.055 -5.05693 -3.0664 0
M  V30 7964 H 736.985 -0.549068 -0.51676 0
M  V30 7965 H 739.636 -1.71009 -0.665437 0
M  V30 7966 H 738.018 -2.29671 -3.22594 0
M  V30 7967 H 739.192 -4.41809 -1.30925 0
M  V30 7968 H 737.507 -3.94456 -1.33392 0
M  V30 7969 H 740.104 -3.46382 -4.07337 0
M  V30 7970 H 740.447 -1.77959 -3.76346 0
M  V30 7971 H 740.98 -3.01392 -2.5963 0
M  V30 7972 H 737.719 -6.01148 -2.61345 0
M  V30 7973 H 737.239 -4.70473 -3.72042 0
M  V30 7974 H 738.918 -5.29906 -3.71226 0
M  V30 7975 N 739.05 0.861098 -1.31996 0
M  V30 7976 C 739.982 1.97551 -1.16216 0
M  V30 7977 C 740.995 1.625 -0.0988527 0
M  V30 7978 O 742.184 1.75091 -0.3472 0
M  V30 7979 C 739.284 3.30376 -0.755307 0
M  V30 7980 C 738.457 3.93711 -1.90552 0
M  V30 7981 C 737.516 5.04862 -1.48328 0
M  V30 7982 O 736.542 5.25204 -2.19431 0
M  V30 7983 N 737.744 5.79283 -0.375656 0
M  V30 7984 H 740.509 2.11632 -2.12208 0
M  V30 7985 H 738.07 1.03559 -1.24448 0
M  V30 7986 H 740.062 4.0213 -0.455364 0
M  V30 7987 H 738.632 3.12395 0.113269 0
M  V30 7988 H 737.852 3.14825 -2.37231 0
M  V30 7989 H 739.14 4.32762 -2.67571 0
M  V30 7990 H 738.538 5.65286 0.216284 0
M  V30 7991 H 737.095 6.5166 -0.135289 0
M  V30 7992 N 740.528 1.15101 1.07655 0
M  V30 7993 C 741.944 0.893004 1.32279 0
M  V30 7994 C 742.144 -0.461701 1.96139 0
M  V30 7995 O 741.2 -1.20431 2.21929 0
M  V30 7996 C 742.513 2.03161 2.21689 0
M  V30 7997 C 744.061 2.06579 2.35147 0
M  V30 7998 C 744.536 3.19754 3.27905 0
M  V30 7999 N 746.027 3.19382 3.35484 0
M  V30 8000 C 746.762 4.03592 4.07309 0
M  V30 8001 N 746.258 4.97859 4.81776 0
M  V30 8002 N 748.051 3.91626 4.03219 0
M  V30 8003 H 740.202 2.02341 0.645886 0
M  V30 8004 H 742.465 0.882127 0.347211 0
M  V30 8005 H 742.171 3.00934 1.82021 0
M  V30 8006 H 742.045 1.96132 3.22199 0
M  V30 8007 H 744.432 1.09408 2.74069 0
M  V30 8008 H 744.513 2.17676 1.34353 0
M  V30 8009 H 744.157 4.17175 2.89702 0
M  V30 8010 H 744.087 3.05893 4.28645 0
M  V30 8011 H 746.578 2.51112 2.82403 0
M  V30 8012 H 746.891 5.58563 5.34067 0
M  V30 8013 H 745.236 5.0185 4.80803 0
M  V30 8014 H 748.427 3.17295 3.44154 0
M  V30 8015 H 748.6 4.57479 4.5893 0
M  V30 8016 N 742.006 -1.2595 0.947325 0
M  V30 8017 C 742.936 -2.28521 0.479604 0
M  V30 8018 C 743.917 -1.63469 -0.470293 0
M  V30 8019 O 745.102 -1.90627 -0.370824 0
M  V30 8020 C 742.232 -3.46397 -0.250289 0
M  V30 8021 C 741.186 -4.23578 0.613643 0
M  V30 8022 C 740.512 -5.34131 -0.246568 0
M  V30 8023 C 741.812 -4.86979 1.88809 0
M  V30 8024 H 743.506 -2.67895 1.33688 0
M  V30 8025 H 741.052 -1.28783 0.644274 0
M  V30 8026 H 743.005 -4.17269 -0.588576 0
M  V30 8027 H 741.729 -3.05993 -1.14175 0
M  V30 8028 H 740.388 -3.54478 0.93491 0
M  V30 8029 H 740.036 -4.89968 -1.13756 0
M  V30 8030 H 739.736 -5.86683 0.328123 0
M  V30 8031 H 741.26 -6.07839 -0.579986 0
M  V30 8032 H 742.674 -5.50034 1.61666 0
M  V30 8033 H 741.071 -5.49675 2.40784 0
M  V30 8034 H 742.141 -4.09575 2.5957 0
M  V30 8035 N 743.484 -0.715051 -1.40445 0
M  V30 8036 C 744.9 -0.388555 -1.54798 0
M  V30 8037 C 745.1 1.10271 -1.68649 0
M  V30 8038 O 744.156 1.88875 -1.67578 0
M  V30 8039 C 745.469 -1.15414 -2.77669 0
M  V30 8040 C 747.017 -1.14039 -2.91486 0
M  V30 8041 C 747.492 -1.88812 -4.1727 0
M  V30 8042 N 748.983 -1.85878 -4.24268 0
M  V30 8043 C 749.718 -2.40558 -5.20499 0
M  V30 8044 N 749.214 -3.03791 -6.22642 0
M  V30 8045 N 751.007 -2.30703 -5.12574 0
M  V30 8046 H 743.158 -1.68201 -1.297 0
M  V30 8047 H 745.421 -0.710915 -0.627139 0
M  V30 8048 H 745.127 -2.20853 -2.7371 0
M  V30 8049 H 745.001 -0.745412 -3.69761 0
M  V30 8050 H 747.388 -0.0941996 -2.9495 0
M  V30 8051 H 747.469 -1.58834 -2.00513 0
M  V30 8052 H 747.113 -2.93422 -4.14568 0
M  V30 8053 H 747.043 -1.41438 -5.0725 0
M  V30 8054 H 749.534 -1.39794 -3.51093 0
M  V30 8055 H 749.847 -3.43032 -6.92495 0
M  V30 8056 H 748.192 -3.07875 -6.23087 0
M  V30 8057 H 751.383 -1.80961 -4.31707 0
M  V30 8058 H 751.556 -2.73618 -5.87398 0
M  V30 8059 N 744.962 1.50701 -0.461195 0
M  V30 8060 C 745.894 2.26124 0.374244 0
M  V30 8061 C 746.907 1.31064 0.965715 0
M  V30 8062 O 748.096 1.56647 0.855801 0
M  V30 8063 C 745.196 3.01996 1.5379 0
M  V30 8064 C 744.369 4.24336 1.06101 0
M  V30 8065 C 743.428 4.82585 2.09756 0
M  V30 8066 O 742.454 5.43775 1.68219 0
M  V30 8067 N 743.656 4.68712 3.42475 0
M  V30 8068 H 746.421 2.9846 -0.2723 0
M  V30 8069 H 743.982 1.59256 -0.291415 0
M  V30 8070 H 745.974 3.37846 2.22806 0
M  V30 8071 H 744.544 2.32521 2.08933 0
M  V30 8072 H 743.764 3.93707 0.197085 0
M  V30 8073 H 745.052 5.03678 0.720156 0
M  V30 8074 H 744.45 4.20026 3.78938 0
M  V30 8075 H 743.007 5.08858 4.07317 0
M  V30 8076 N 746.441 0.193421 1.56409 0
M  V30 8077 C 747.681 -0.447977 1.9943 0
M  V30 8078 C 748.045 -1.58915 1.07751 0
M  V30 8079 O 749.246 -2.29462 1.40002 0
M  V30 8080 C 747.517 -0.89793 3.45936 0
M  V30 8081 S 749.076 -1.5374 4.10986 0
M  V30 8082 H 745.894 -0.143316 0.696406 0
M  V30 8083 H 748.496 0.296093 1.93245 0
M  V30 8084 H 747.2 -0.0572927 4.1036 0
M  V30 8085 H 746.731 -1.67551 3.55936 0
M  V30 8086 H 748.746 -2.82612 4.07854 0
M  V30 8087 N 747.919 -1.57396 -0.0801906 0
M  V30 8088 C 748.866 -2.03107 -1.09618 0
M  V30 8089 C 749.836 -0.910118 -1.38946 0
M  V30 8090 O 751.021 -1.17719 -1.50156 0
M  V30 8091 C 748.161 -2.47293 -2.40708 0
M  V30 8092 C 747.274 -3.72972 -2.17982 0
M  V30 8093 C 746.409 -4.05975 -3.42576 0
M  V30 8094 C 745.448 -5.24719 -3.15177 0
M  V30 8095 N 744.585 -5.53401 -4.32078 0
M  V30 8096 H 749.425 -2.89677 -0.69939 0
M  V30 8097 H 746.962 -1.43263 -0.333785 0
M  V30 8098 H 748.92 -2.7096 -3.17232 0
M  V30 8099 H 747.55 -1.63713 -2.78205 0
M  V30 8100 H 746.602 -3.56693 -1.32189 0
M  V30 8101 H 747.914 -4.59638 -1.93738 0
M  V30 8102 H 747.068 -4.30498 -4.275 0
M  V30 8103 H 745.807 -3.17859 -3.69887 0
M  V30 8104 H 744.812 -5 -2.28648 0
M  V30 8105 H 746.037 -6.14445 -2.89197 0
M  V30 8106 H 743.983 -4.68245 -4.59437 0
M  V30 8107 H 743.9 -6.34469 -4.11078 0
M  V30 8108 H 745.168 -5.8247 -5.18024 0
M  V30 8109 N 749.397 0.351382 -1.53633 0
M  V30 8110 C 750.627 1.11113 -1.74176 0
M  V30 8111 C 751.035 1.83084 -0.477154 0
M  V30 8112 O 750.378 1.74941 0.560483 0
M  V30 8113 C 750.44 2.17521 -2.86225 0
M  V30 8114 C 750.104 1.65193 -4.26099 0
M  V30 8115 C 751.101 1.10842 -5.07947 0
M  V30 8116 C 748.786 1.70277 -4.72558 0
M  V30 8117 C 750.78 0.622689 -6.34351 0
M  V30 8118 C 748.467 1.21316 -5.98937 0
M  V30 8119 C 749.465 0.674033 -6.79666 0
M  V30 8120 O 749.153 0.191696 -8.03671 0
M  V30 8121 H 748.885 0.33756 -0.585687 0
M  V30 8122 H 751.439 0.411786 -2.0123 0
M  V30 8123 H 749.669 2.90991 -2.54678 0
M  V30 8124 H 751.358 2.78999 -2.94812 0
M  V30 8125 H 752.124 1.06243 -4.7322 0
M  V30 8126 H 748.003 2.11181 -4.09785 0
M  V30 8127 H 751.547 0.201216 -6.9731 0
M  V30 8128 H 747.444 1.25613 -6.3316 0
M  V30 8129 H 748.212 0.309712 -8.17914 0
M  V30 8130 N 750.875 1.45233 0.611969 0
M  V30 8131 C 752.152 1.39495 1.37115 0
M  V30 8132 C 752.532 0.0633303 2.11005 0
M  V30 8133 O 751.88 -0.954617 2.07604 0
M  V30 8134 C 752.09 2.60579 2.32163 0
M  V30 8135 C 753.438 3.05477 2.94905 0
M  V30 8136 O 754.462 2.60921 2.42485 0
M  V30 8137 O 753.321 3.82787 3.90047 0
M  V30 8138 H 750.415 0.55335 0.614599 0
M  V30 8139 H 752.961 1.57355 0.635423 0
M  V30 8140 H 751.733 3.49085 1.76793 0
M  V30 8141 H 751.356 2.45031 3.13122 0
M  V30 8142 N 752.353 -0.854086 1.3245 0
M  V30 8143 C 753.3 -1.96271 1.21434 0
M  V30 8144 C 754.27 -1.6582 0.0963851 0
M  V30 8145 O 755.455 -1.88851 0.27203 0
M  V30 8146 C 752.595 -3.31939 0.943952 0
M  V30 8147 C 751.708 -3.74885 2.14675 0
M  V30 8148 C 750.843 -4.99347 1.81179 0
M  V30 8149 C 749.882 -5.34785 2.97777 0
M  V30 8150 N 749.019 -6.50425 2.6437 0
M  V30 8151 H 753.859 -2.05025 2.16261 0
M  V30 8152 H 751.396 -1.00348 1.07558 0
M  V30 8153 H 753.354 -4.10076 0.767675 0
M  V30 8154 H 751.984 -3.22784 0.0324763 0
M  V30 8155 H 751.036 -2.92396 2.43328 0
M  V30 8156 H 752.348 -3.97068 3.01891 0
M  V30 8157 H 751.502 -5.85193 1.60107 0
M  V30 8158 H 750.241 -4.79101 0.911777 0
M  V30 8159 H 749.246 -4.47451 3.1948 0
M  V30 8160 H 750.471 -5.56988 3.88511 0
M  V30 8161 H 748.417 -6.31695 1.7691 0
M  V30 8162 H 748.334 -6.7263 3.45116 0
M  V30 8163 H 749.602 -7.39422 2.46729 0
M  V30 8164 N 753.831 -1.1567 -1.07043 0
M  V30 8165 C 754.778 -0.856336 -2.14326 0
M  V30 8166 C 755.748 0.192051 -1.64986 0
M  V30 8167 O 756.933 0.0589148 -1.90709 0
M  V30 8168 C 754.073 -0.355227 -3.43267 0
M  V30 8169 C 753.186 -1.46555 -4.06381 0
M  V30 8170 C 752.321 -0.920245 -5.23168 0
M  V30 8171 C 751.36 -2.00729 -5.78251 0
M  V30 8172 N 750.497 -1.47813 -6.86364 0
M  V30 8173 H 755.337 -1.77514 -2.39359 0
M  V30 8174 H 752.874 -0.885676 -1.17449 0
M  V30 8175 H 754.832 -0.0463804 -4.17174 0
M  V30 8176 H 753.462 0.526649 -3.18475 0
M  V30 8177 H 752.514 -1.89052 -3.30096 0
M  V30 8178 H 753.826 -2.28616 -4.43324 0
M  V30 8179 H 752.98 -0.564127 -6.04072 0
M  V30 8180 H 751.719 -0.0688477 -4.87651 0
M  V30 8181 H 750.724 -2.3722 -4.95991 0
M  V30 8182 H 751.949 -2.86252 -6.15822 0
M  V30 8183 H 749.895 -0.649145 -6.5278 0
M  V30 8184 H 749.812 -2.23498 -7.22208 0
M  V30 8185 H 751.08 -1.15036 -7.70965 0
M  V30 8186 N 755.309 1.25446 -0.953992 0
M  V30 8187 C 756.725 1.4539 -0.658316 0
M  V30 8188 C 756.925 1.85607 0.784356 0
M  V30 8189 O 755.981 1.98568 1.55972 0
M  V30 8190 C 757.294 2.52643 -1.6307 0
M  V30 8191 C 758.842 2.66484 -1.64181 0
M  V30 8192 C 759.317 3.76921 -2.60182 0
M  V30 8193 N 760.808 3.84331 -2.58542 0
M  V30 8194 C 761.543 4.69271 -3.29503 0
M  V30 8195 N 761.039 5.58503 -4.09934 0
M  V30 8196 N 762.832 4.6323 -3.18393 0
M  V30 8197 H 754.983 0.976337 -1.8863 0
M  V30 8198 H 757.246 0.490343 -0.811337 0
M  V30 8199 H 756.952 2.29949 -2.66114 0
M  V30 8200 H 756.826 3.50547 -1.39271 0
M  V30 8201 H 759.213 2.88545 -0.618552 0
M  V30 8202 H 759.294 1.68982 -1.92038 0
M  V30 8203 H 758.938 3.55612 -3.62633 0
M  V30 8204 H 758.868 4.73906 -2.29609 0
M  V30 8205 H 761.359 3.20544 -2.0015 0
M  V30 8206 H 761.672 6.20241 -4.61 0
M  V30 8207 H 760.017 5.58214 -4.14032 0
M  V30 8208 H 763.208 3.92527 -2.5503 0
M  V30 8209 H 763.381 5.29204 -3.73961 0
M  V30 8210 N 756.787 0.722489 1.40064 0
M  V30 8211 C 758.033 0.265371 2.01056 0
M  V30 8212 C 758.366 -1.14062 1.57174 0
M  V30 8213 O 757.641 -1.77514 0.794916 0
M  V30 8214 C 757.924 0.353157 3.58364 0
M  V30 8215 C 757.777 1.79802 4.123 0
M  V30 8216 C 759.096 -0.271677 4.39261 0
M  V30 8217 H 756.215 0.0979002 0.730469 0
M  V30 8218 H 758.857 0.916289 1.66446 0
M  V30 8219 H 757.007 -0.201037 3.87979 0
M  V30 8220 H 758.679 2.40813 3.93455 0
M  V30 8221 H 756.922 2.32348 3.66329 0
M  V30 8222 H 757.593 1.81079 5.21454 0
M  V30 8223 H 760.069 0.200607 4.15616 0
M  V30 8224 H 758.945 -0.179843 5.48605 0
M  V30 8225 H 759.206 -1.35611 4.20787 0
M  V30 8226 N 758.265 -1.50454 0.469181 0
M  V30 8227 C 759.514 -2.01507 -0.0881425 0
M  V30 8228 C 759.827 -1.35613 -1.40956 0
M  V30 8229 O 761.033 -1.77812 -2.05171 0
M  V30 8230 C 759.489 -3.59301 -0.207596 0
M  V30 8231 C 759.097 -4.34152 1.10527 0
M  V30 8232 C 760.841 -4.18401 -0.716981 0
M  V30 8233 C 758.748 -5.83725 0.949717 0
M  V30 8234 H 757.678 -0.753106 -0.0367156 0
M  V30 8235 H 760.329 -1.73282 0.603788 0
M  V30 8236 H 758.711 -3.84106 -0.963265 0
M  V30 8237 H 759.885 -4.21073 1.87175 0
M  V30 8238 H 758.2 -3.86652 1.54562 0
M  V30 8239 H 760.797 -5.27895 -0.850363 0
M  V30 8240 H 761.14 -3.79657 -1.70782 0
M  V30 8241 H 761.673 -3.97796 -0.0187511 0
M  V30 8242 H 758.412 -6.26938 1.91387 0
M  V30 8243 H 757.932 -5.99383 0.223591 0
M  V30 8244 H 759.611 -6.44065 0.61557 0
M  V30 8245 N 759.743 -0.201713 -1.56304 0
M  V30 8246 C 760.673 0.71155 -2.22394 0
M  V30 8247 C 761.654 1.21625 -1.18917 0
M  V30 8248 O 762.839 1.26388 -1.47444 0
M  V30 8249 C 759.969 1.92837 -2.88845 0
M  V30 8250 C 758.923 1.55831 -3.98623 0
M  V30 8251 C 758.249 2.85228 -4.52271 0
M  V30 8252 C 759.549 0.763249 -5.16693 0
M  V30 8253 H 761.243 0.160573 -2.98969 0
M  V30 8254 H 758.789 0.0757916 -1.438 0
M  V30 8255 H 760.742 2.57253 -3.33764 0
M  V30 8256 H 759.466 2.50398 -2.09686 0
M  V30 8257 H 758.125 0.9377 -3.54405 0
M  V30 8258 H 757.773 3.40893 -3.69866 0
M  V30 8259 H 757.473 2.6121 -5.26349 0
M  V30 8260 H 758.997 3.50622 -4.99897 0
M  V30 8261 H 760.411 1.31066 -5.58117 0
M  V30 8262 H 758.808 0.620935 -5.96879 0
M  V30 8263 H 759.878 -0.234322 -4.84334 0
M  V30 8264 N 761.222 1.57436 0.0718424 0
M  V30 8265 C 762.169 2.03686 1.08539 0
M  V30 8266 C 763.139 0.917474 1.38462 0
M  V30 8267 O 764.324 1.18513 1.4953 0
M  V30 8268 C 761.464 2.48566 2.39393 0
M  V30 8269 C 760.577 3.74122 2.16001 0
M  V30 8270 C 759.712 4.07786 3.40418 0
M  V30 8271 C 758.751 5.26383 3.1239 0
M  V30 8272 N 757.888 5.55685 4.29138 0
M  V30 8273 H 762.728 2.90043 0.684018 0
M  V30 8274 H 760.265 1.43438 0.326183 0
M  V30 8275 H 762.223 2.72639 3.15791 0
M  V30 8276 H 760.853 1.65186 2.77333 0
M  V30 8277 H 759.905 3.57389 1.30296 0
M  V30 8278 H 761.217 4.60659 1.91298 0
M  V30 8279 H 760.371 4.32759 4.25211 0
M  V30 8280 H 759.11 3.19817 3.68197 0
M  V30 8281 H 758.115 5.01206 2.25993 0
M  V30 8282 H 759.34 6.1597 2.85934 0
M  V30 8283 H 757.286 4.70675 4.56948 0
M  V30 8284 H 757.203 6.3664 4.07708 0
M  V30 8285 H 758.471 5.85209 5.14928 0
M  V30 8286 N 762.7 -0.34323 1.53817 0
M  V30 8287 C 763.977 -1.10047 1.61706 0
M  V30 8288 C 764.357 -2.06495 0.438514 0
M  V30 8289 O 763.705 -2.21297 -0.569188 0
M  V30 8290 C 763.915 -1.81985 2.97796 0
M  V30 8291 C 765.263 -2.35717 3.53161 0
M  V30 8292 O 766.287 -1.9208 2.99973 0
M  V30 8293 O 765.146 -3.15551 4.46195 0
M  V30 8294 H 762.24 -0.506096 0.654061 0
M  V30 8295 H 764.786 -0.344697 1.66162 0
M  V30 8296 H 763.558 -1.11722 3.75012 0
M  V30 8297 H 763.181 -2.64419 2.96931 0
M  V30 8298 N 764.178 -1.45556 -0.604258 0
M  V30 8299 C 765.108 -1.57327 -1.72541 0
M  V30 8300 C 766.089 -0.424637 -1.64714 0
M  V30 8301 O 767.274 -0.648196 -1.83063 0
M  V30 8302 C 764.404 -1.54279 -3.11152 0
M  V30 8303 C 763.358 -2.67893 -3.33792 0
M  V30 8304 C 762.684 -2.499 -4.72709 0
M  V30 8305 C 763.984 -4.0988 -3.23722 0
M  V30 8306 H 765.678 -2.51175 -1.62947 0
M  V30 8307 H 763.224 -1.20884 -0.782504 0
M  V30 8308 H 765.177 -1.6111 -3.89386 0
M  V30 8309 H 763.901 -0.569627 -3.21594 0
M  V30 8310 H 762.56 -2.60495 -2.57949 0
M  V30 8311 H 762.208 -1.50715 -4.79889 0
M  V30 8312 H 761.908 -3.26091 -4.88813 0
M  V30 8313 H 763.432 -2.5859 -5.5314 0
M  V30 8314 H 764.846 -4.18503 -3.91826 0
M  V30 8315 H 763.243 -4.86487 -3.51355 0
M  V30 8316 H 764.313 -4.31553 -2.21111 0
M  V30 8317 N 765.656 0.84705 -1.32902 0
M  V30 8318 C 766.603 1.95624 -1.22473 0
M  V30 8319 C 767.573 1.65767 -0.105178 0
M  V30 8320 O 768.758 1.88704 -0.282042 0
M  V30 8321 C 765.898 3.31434 -0.961542 0
M  V30 8322 C 765.011 3.73741 -2.1666 0
M  V30 8323 C 764.146 4.98379 -1.83825 0
M  V30 8324 C 763.185 5.33199 -3.00609 0
M  V30 8325 N 762.322 6.49014 -2.67816 0
M  V30 8326 H 767.162 2.03875 -2.17345 0
M  V30 8327 H 764.699 0.997764 -1.08088 0
M  V30 8328 H 766.657 4.09663 -0.789411 0
M  V30 8329 H 765.287 3.22762 -0.0495938 0
M  V30 8330 H 764.339 2.91102 -2.44875 0
M  V30 8331 H 765.651 3.95462 -3.03993 0
M  V30 8332 H 764.805 5.84336 -1.63208 0
M  V30 8333 H 763.544 4.78611 -0.937172 0
M  V30 8334 H 762.549 4.4575 -3.21849 0
M  V30 8335 H 763.774 5.5492 -3.9146 0
M  V30 8336 H 761.72 6.30748 -1.80258 0
M  V30 8337 H 761.637 6.7079 -3.48679 0
M  V30 8338 H 762.905 7.38103 -2.50647 0
M  V30 8339 N 767.134 1.16236 1.06428 0
M  V30 8340 C 768.084 0.835994 2.12121 0
M  V30 8341 C 769.068 -0.183955 1.59845 0
M  V30 8342 O 770.26 0.0166741 1.76992 0
M  V30 8343 C 767.389 0.337333 3.41639 0
M  V30 8344 C 766.475 1.38798 4.00744 0
M  V30 8345 N 766.866 2.59799 4.3398 0
M  V30 8346 C 765.164 1.24292 4.28331 0
M  V30 8347 C 765.865 3.27213 4.80943 0
M  V30 8348 N 764.841 2.54594 4.80294 0
M  V30 8349 H 768.643 1.75615 2.35662 0
M  V30 8350 H 766.157 1.04921 1.23957 0
M  V30 8351 H 768.154 0.0851274 4.16813 0
M  V30 8352 H 766.814 -0.57677 3.19536 0
M  V30 8353 H 767.825 2.96867 4.24371 0
M  V30 8354 H 764.502 0.389464 4.15679 0
M  V30 8355 H 765.892 4.30492 5.15874 0
M  V30 8356 N 768.612 -1.24939 0.960631 0
M  V30 8357 C 769.56 -2.27659 0.47686 0
M  V30 8358 C 770.554 -1.63148 -0.455961 0
M  V30 8359 O 771.76 -1.76911 -0.332029 0
M  V30 8360 H 768.135 -0.739651 0.135723 0
M  V30 8361 H 770.106 -2.65844 1.35534 0
M  V30 8362 C 768.855 -3.46976 -0.224191 0
M  V30 8363 H 768.178 -3.96854 0.484471 0
M  V30 8364 H 769.618 -4.20717 -0.526615 0
M  V30 8365 C 768.077 -3.04159 -1.44876 0
M  V30 8366 O 768.607 -3.10697 -2.54618 0
M  V30 8367 N 766.813 -2.59284 -1.31226 0
M  V30 8368 H 766.36 -2.54164 -0.419361 0
M  V30 8369 H 766.318 -2.31 -2.13275 0
M  V30 8370 N 770.09 -0.729906 -1.39679 0
M  V30 8371 C 771.367 -0.202149 -1.94553 0
M  V30 8372 C 771.747 1.29507 -1.66707 0
M  V30 8373 O 771.095 2.05819 -0.992517 0
M  V30 8374 C 771.305 -0.530279 -3.44948 0
M  V30 8375 C 772.653 -0.476808 -4.21914 0
M  V30 8376 O 773.677 -0.467171 -3.53123 0
M  V30 8377 O 772.536 -0.466869 -5.44502 0
M  V30 8378 H 769.63 -0.0351644 -0.826252 0
M  V30 8379 H 772.176 -0.808417 -1.49207 0
M  V30 8380 H 770.948 -1.56526 -3.5863 0
M  V30 8381 H 770.571 0.10522 -3.97461 0
M  V30 8382 N 771.568 1.50203 -0.477153 0
M  V30 8383 C 772.816 2.01959 0.0755889 0
M  V30 8384 C 773.137 1.3608 1.39668 0
M  V30 8385 O 772.407 0.508136 1.89195 0
M  V30 8386 H 770.987 0.74636 0.0309248 0
M  V30 8387 H 773.649 1.84473 -0.628959 0
M  V30 8388 H 772.745 3.11305 0.222683 0
M  V30 8389 N 773.046 0.209999 1.56195 0
M  V30 8390 C 773.994 -0.721416 2.2113 0
M  V30 8391 C 774.988 -1.20852 1.18706 0
M  V30 8392 O 776.194 -1.16968 1.36815 0
M  V30 8393 H 772.569 -0.251033 0.708863 0
M  V30 8394 H 774.54 -0.150193 2.98022 0
M  V30 8395 C 773.289 -1.92392 2.89621 0
M  V30 8396 H 772.612 -1.5582 3.68185 0
M  V30 8397 H 774.052 -2.55367 3.38473 0
M  V30 8398 C 772.511 -2.77208 1.91461 0
M  V30 8399 O 773.041 -3.75603 1.42426 0
M  V30 8400 N 771.247 -2.43006 1.59363 0
M  V30 8401 H 770.794 -1.63047 1.99433 0
M  V30 8402 H 770.752 -3.00036 0.939449 0
M  V30 8403 N 774.524 -1.57472 -0.0634922 0
M  V30 8404 C 775.771 -1.87654 -0.761066 0
M  V30 8405 C 776.099 -0.802847 -1.77157 0
M  V30 8406 O 775.354 0.200244 -1.94673 0
M  V30 8407 C 775.653 -3.24521 -1.49736 0
M  V30 8408 C 775.319 -4.46532 -0.626065 0
M  V30 8409 C 773.981 -4.7965 -0.385978 0
M  V30 8410 C 776.333 -5.21195 -0.0224001 0
M  V30 8411 C 773.661 -5.84837 0.467118 0
M  V30 8412 C 776.013 -6.27286 0.818198 0
M  V30 8413 C 774.677 -6.58899 1.06808 0
M  V30 8414 H 773.947 -0.686675 -0.278494 0
M  V30 8415 H 776.594 -1.91488 -0.0216348 0
M  V30 8416 H 774.899 -3.16516 -2.30921 0
M  V30 8417 H 776.596 -3.45111 -2.04204 0
M  V30 8418 H 773.186 -4.20618 -0.823325 0
M  V30 8419 H 777.37 -4.95917 -0.194985 0
M  V30 8420 H 772.626 -6.07725 0.669375 0
M  V30 8421 H 776.8 -6.84298 1.29265 0
M  V30 8422 H 774.427 -7.40233 1.73088 0
M  V30 8423 N 776.003 0.335068 -1.53997 0
M  V30 8424 C 777.231 1.09418 -1.756 0
M  V30 8425 C 777.646 1.82083 -0.499138 0
M  V30 8426 O 777.003 1.74646 0.529631 0
M  V30 8427 C 777.054 2.10115 -2.94166 0
M  V30 8428 O 776.775 1.40404 -4.14992 0
M  V30 8429 C 778.276 2.98336 -3.27888 0
M  V30 8430 H 775.496 0.32595 -0.586513 0
M  V30 8431 H 778.04 0.384693 -2.00849 0
M  V30 8432 H 776.195 2.76616 -2.71224 0
M  V30 8433 H 776.609 2.07743 -4.81605 0
M  V30 8434 H 778.083 3.6491 -4.1418 0
M  V30 8435 H 778.56 3.64814 -2.44556 0
M  V30 8436 H 779.166 2.37412 -3.52868 0
M  V30 8437 N 777.481 1.45874 0.596531 0
M  V30 8438 C 778.391 1.57947 1.73464 0
M  V30 8439 C 779.407 0.463461 1.67714 0
M  V30 8440 O 780.583 0.725685 1.87872 0
M  V30 8441 C 777.648 1.55348 3.09948 0
M  V30 8442 C 776.709 2.78074 3.27068 0
M  V30 8443 C 775.942 2.75589 4.57041 0
M  V30 8444 O 776.165 1.83545 5.40063 0
M  V30 8445 O 775.099 3.66945 4.77111 0
M  V30 8446 H 778.925 2.54169 1.66228 0
M  V30 8447 H 776.51 1.2851 0.76194 0
M  V30 8448 H 778.392 1.56545 3.91244 0
M  V30 8449 H 777.067 0.622811 3.17652 0
M  V30 8450 H 775.974 2.82435 2.45319 0
M  V30 8451 H 777.307 3.70303 3.24248 0
M  V30 8452 N 778.959 -0.83999 1.33349 0
M  V30 8453 C 779.906 -1.94972 1.23509 0
M  V30 8454 C 780.876 -1.65709 0.113967 0
M  V30 8455 O 782.061 -1.88552 0.292045 0
M  V30 8456 C 779.201 -3.30919 0.979105 0
M  V30 8457 C 778.314 -3.72587 2.18639 0
M  V30 8458 C 777.449 -4.97397 1.86465 0
M  V30 8459 C 776.488 -5.31597 3.03432 0
M  V30 8460 N 775.625 -6.47584 2.71254 0
M  V30 8461 H 780.465 -2.0272 2.18423 0
M  V30 8462 H 778.002 -0.992017 1.08616 0
M  V30 8463 H 779.96 -4.09239 0.811126 0
M  V30 8464 H 778.59 -3.22731 0.0667099 0
M  V30 8465 H 777.642 -2.89799 2.46416 0
M  V30 8466 H 778.954 -3.93844 3.06086 0
M  V30 8467 H 778.108 -5.83462 1.66305 0
M  V30 8468 H 776.847 -4.78107 0.96254 0
M  V30 8469 H 775.852 -4.44037 3.24208 0
M  V30 8470 H 777.077 -5.52836 3.94397 0
M  V30 8471 H 775.023 -6.29783 1.836 0
M  V30 8472 H 774.94 -6.68931 3.52231 0
M  V30 8473 H 776.208 -7.36764 2.54558 0
M  V30 8474 N 780.437 -1.16799 -1.0581 0
M  V30 8475 C 781.369 -0.836774 -2.13379 0
M  V30 8476 C 782.382 0.158116 -1.6203 0
M  V30 8477 O 783.571 -0.0673211 -1.78373 0
M  V30 8478 C 780.671 -0.225959 -3.38146 0
M  V30 8479 C 779.844 -1.26217 -4.18794 0
M  V30 8480 C 778.903 -0.670257 -5.21914 0
M  V30 8481 O 777.929 -1.34042 -5.53192 0
M  V30 8482 N 779.131 0.540683 -5.77977 0
M  V30 8483 H 781.896 -1.76257 -2.42391 0
M  V30 8484 H 779.457 -1.06599 -1.21853 0
M  V30 8485 H 781.449 0.18317 -4.04285 0
M  V30 8486 H 780.019 0.603494 -3.06719 0
M  V30 8487 H 779.239 -1.84729 -3.48237 0
M  V30 8488 H 780.527 -1.9613 -4.69479 0
M  V30 8489 H 779.925 1.10322 -5.54838 0
M  V30 8490 H 778.482 0.891958 -6.45668 0
M  V30 8491 N 781.915 1.24427 -0.967243 0
M  V30 8492 C 782.862 2.25398 -0.496419 0
M  V30 8493 C 783.832 1.59667 0.457781 0
M  V30 8494 O 785.017 1.87213 0.368246 0
M  V30 8495 C 782.157 3.44474 0.207693 0
M  V30 8496 C 781.27 4.24804 -0.785221 0
M  V30 8497 C 780.405 5.31169 -0.0572631 0
M  V30 8498 C 779.444 6.03195 -1.04027 0
M  V30 8499 N 778.581 7.01265 -0.34235 0
M  V30 8500 H 783.421 2.65039 -1.36229 0
M  V30 8501 H 780.958 1.30288 -0.682902 0
M  V30 8502 H 782.916 4.12376 0.632612 0
M  V30 8503 H 781.546 3.05672 1.03752 0
M  V30 8504 H 780.598 3.56445 -1.32858 0
M  V30 8505 H 781.91 4.74599 -1.53483 0
M  V30 8506 H 781.064 6.05205 0.425674 0
M  V30 8507 H 779.803 4.8228 0.725047 0
M  V30 8508 H 778.808 5.27964 -1.53409 0
M  V30 8509 H 780.033 6.54173 -1.82302 0
M  V30 8510 H 777.979 6.54648 0.420993 0
M  V30 8511 H 777.896 7.48939 -1.03084 0
M  V30 8512 H 779.164 7.7941 0.118634 0
M  V30 8513 N 783.393 0.737304 1.3929 0
M  V30 8514 C 784.642 0.283129 1.99703 0
M  V30 8515 C 784.955 -1.13677 1.59176 0
M  V30 8516 O 786.161 -1.69058 2.12442 0
M  V30 8517 C 784.617 0.455262 3.57009 0
M  V30 8518 C 784.225 1.88319 4.06497 0
M  V30 8519 C 785.969 0.0629786 4.24453 0
M  V30 8520 C 783.876 2.00475 5.56385 0
M  V30 8521 H 782.806 0.102106 0.747054 0
M  V30 8522 H 785.457 0.911515 1.5926 0
M  V30 8523 H 783.839 -0.242057 3.9526 0
M  V30 8524 H 785.013 2.61265 3.79575 0
M  V30 8525 H 783.328 2.2289 3.51723 0
M  V30 8526 H 785.925 0.132787 5.34535 0
M  V30 8527 H 786.268 -0.982128 4.04549 0
M  V30 8528 H 786.801 0.71154 3.91385 0
M  V30 8529 H 783.54 3.03182 5.81172 0
M  V30 8530 H 783.06 1.31969 5.85102 0
M  V30 8531 H 784.739 1.787 6.21832 0
M  V30 8532 N 784.871 -1.49948 0.485112 0
M  V30 8533 C 785.781 -2.32587 -0.306697 0
M  V30 8534 C 786.797 -1.43598 -0.982632 0
M  V30 8535 O 787.973 -1.76638 -0.967519 0
M  V30 8536 C 785.038 -3.18638 -1.3664 0
M  V30 8537 C 784.099 -4.23462 -0.705589 0
M  V30 8538 C 783.332 -5.05401 -1.7148 0
M  V30 8539 O 783.555 -4.88618 -2.94293 0
M  V30 8540 O 782.489 -5.88157 -1.27889 0
M  V30 8541 H 786.315 -3.01447 0.369272 0
M  V30 8542 H 783.9 -1.47349 0.246709 0
M  V30 8543 H 785.782 -3.71992 -1.9799 0
M  V30 8544 H 784.457 -2.52491 -2.02559 0
M  V30 8545 H 783.364 -3.74063 -0.0527733 0
M  V30 8546 H 784.697 -4.92119 -0.0891187 0
M  V30 8547 N 786.349 -0.21828 -1.56081 0
M  V30 8548 C 787.279 0.687922 -2.23136 0
M  V30 8549 C 788.26 1.20357 -1.202 0
M  V30 8550 O 789.445 1.24817 -1.48776 0
M  V30 8551 C 786.575 1.89762 -2.90874 0
M  V30 8552 C 785.529 1.51595 -4.00254 0
M  V30 8553 C 784.855 2.80415 -4.55271 0
M  V30 8554 C 786.155 0.708404 -5.17474 0
M  V30 8555 H 787.849 0.128854 -2.99123 0
M  V30 8556 H 785.395 0.0605354 -1.43873 0
M  V30 8557 H 787.348 2.53699 -3.36474 0
M  V30 8558 H 786.072 2.4816 -2.1233 0
M  V30 8559 H 784.731 0.900058 -3.55379 0
M  V30 8560 H 784.379 3.36951 -3.73461 0
M  V30 8561 H 784.079 2.55613 -5.2909 0
M  V30 8562 H 785.603 3.453 -5.03587 0
M  V30 8563 H 787.017 1.2514 -5.59476 0
M  V30 8564 H 785.414 0.557593 -5.97504 0
M  V30 8565 H 786.484 -0.285679 -4.84058 0
M  V30 8566 N 787.827 1.57504 0.0551401 0
M  V30 8567 C 788.775 2.05884 1.08233 0
M  V30 8568 C 789.769 0.967383 1.39061 0
M  V30 8569 O 790.975 1.15242 1.38273 0
M  V30 8570 H 787.35 0.656673 0.366449 0
M  V30 8571 H 789.321 2.91273 0.648269 0
M  V30 8572 C 788.07 2.53221 2.38273 0
M  V30 8573 H 787.393 3.36809 2.15406 0
M  V30 8574 H 788.833 2.9081 3.08554 0
M  V30 8575 C 787.292 1.42218 3.05411 0
M  V30 8576 O 787.822 0.773638 3.9418 0
M  V30 8577 N 786.028 1.16316 2.66306 0
M  V30 8578 H 785.575 1.69237 1.94207 0
M  V30 8579 H 785.533 0.422534 3.11548 0
M  V30 8580 N 789.305 -0.326896 1.54172 0
M  V30 8581 C 790.252 -1.40216 1.83325 0
M  V30 8582 C 791.222 -1.51538 0.680107 0
M  V30 8583 O 792.407 -1.66811 0.926206 0
M  V30 8584 C 789.547 -2.76626 2.0633 0
M  V30 8585 C 788.66 -2.73963 3.34019 0
M  V30 8586 C 787.795 -4.02198 3.47002 0
M  V30 8587 C 786.834 -3.93828 4.68578 0
M  V30 8588 N 785.971 -5.13787 4.78506 0
M  V30 8589 H 790.811 -1.14656 2.7506 0
M  V30 8590 H 788.348 -0.555089 1.36225 0
M  V30 8591 H 790.306 -3.55922 2.17659 0
M  V30 8592 H 788.936 -3.00503 1.1789 0
M  V30 8593 H 787.988 -1.86677 3.31445 0
M  V30 8594 H 789.3 -2.6366 4.2342 0
M  V30 8595 H 788.454 -4.89923 3.57855 0
M  V30 8596 H 787.193 -4.15302 2.55687 0
M  V30 8597 H 786.198 -3.04487 4.57786 0
M  V30 8598 H 787.423 -3.82292 5.61275 0
M  V30 8599 H 785.369 -5.27403 3.90105 0
M  V30 8600 H 785.286 -5.05807 5.61868 0
M  V30 8601 H 786.554 -6.03236 4.93686 0
M  V30 8602 N 790.784 -1.46188 -0.588786 0
M  V30 8603 C 791.714 -1.59148 -1.70863 0
M  V30 8604 C 792.695 -0.442083 -1.64255 0
M  V30 8605 O 793.88 -0.667575 -1.82365 0
M  V30 8606 C 791.01 -1.5757 -3.09498 0
M  V30 8607 C 789.964 -2.71418 -3.30932 0
M  V30 8608 C 789.29 -2.549 -4.70032 0
M  V30 8609 C 790.59 -4.1329 -3.19356 0
M  V30 8610 H 792.284 -2.52889 -1.60274 0
M  V30 8611 H 789.83 -1.21707 -0.769638 0
M  V30 8612 H 791.783 -1.65231 -3.87655 0
M  V30 8613 H 790.507 -0.603705 -3.20972 0
M  V30 8614 H 789.166 -2.63216 -2.55172 0
M  V30 8615 H 788.814 -1.55797 -4.78264 0
M  V30 8616 H 788.514 -3.31257 -4.85327 0
M  V30 8617 H 790.038 -2.64443 -5.50366 0
M  V30 8618 H 791.452 -4.22636 -3.87365 0
M  V30 8619 H 789.849 -4.90187 -3.46175 0
M  V30 8620 H 790.919 -4.33874 -2.16522 0
M  V30 8621 N 792.262 0.832906 -1.33792 0
M  V30 8622 C 793.192 1.95828 -1.27176 0
M  V30 8623 C 794.173 1.69427 -0.15114 0
M  V30 8624 O 795.358 1.91167 -0.341886 0
M  V30 8625 C 792.488 3.32098 -1.01629 0
M  V30 8626 C 791.442 3.72912 -2.10049 0
M  V30 8627 C 790.768 5.07054 -1.69706 0
M  V30 8628 C 792.068 3.86064 -3.51783 0
M  V30 8629 H 793.762 2.01622 -2.21334 0
M  V30 8630 H 791.308 0.96866 -1.0655 0
M  V30 8631 H 793.261 4.10402 -0.956474 0
M  V30 8632 H 791.985 3.26577 -0.0390956 0
M  V30 8633 H 790.644 2.96876 -2.15082 0
M  V30 8634 H 790.292 4.9801 -0.706737 0
M  V30 8635 H 789.992 5.35333 -2.42264 0
M  V30 8636 H 791.516 5.87827 -1.65202 0
M  V30 8637 H 792.93 4.54665 -3.49218 0
M  V30 8638 H 791.327 4.25787 -4.22878 0
M  V30 8639 H 792.397 2.88344 -3.89854 0
M  V30 8640 N 793.74 1.17359 1.05189 0
M  V30 8641 C 794.672 0.848078 2.12933 0
M  V30 8642 C 795.685 -0.149521 1.62112 0
M  V30 8643 O 796.874 0.0767797 1.78335 0
M  V30 8644 C 793.974 0.243889 3.38021 0
M  V30 8645 C 793.147 1.28436 4.18118 0
M  V30 8646 C 792.206 0.697926 5.21551 0
M  V30 8647 O 791.232 1.36973 5.52473 0
M  V30 8648 N 792.434 -0.510024 5.78255 0
M  V30 8649 H 795.199 1.7754 2.41453 0
M  V30 8650 H 792.76 1.07244 1.21286 0
M  V30 8651 H 794.752 -0.161727 4.04377 0
M  V30 8652 H 793.322 -0.58722 3.07035 0
M  V30 8653 H 792.542 1.86573 3.47252 0
M  V30 8654 H 793.83 1.98617 4.68432 0
M  V30 8655 H 793.228 -1.07378 5.55416 0
M  V30 8656 H 791.785 -0.857705 6.46132 0
M  V30 8657 N 795.218 -1.23913 0.973828 0
M  V30 8658 C 796.467 -1.91455 0.63464 0
M  V30 8659 C 796.78 -1.76893 -0.834759 0
M  V30 8660 O 797.986 -2.3918 -1.28473 0
M  V30 8661 C 796.442 -3.43172 1.08447 0
M  V30 8662 C 796.05 -3.66409 2.57776 0
M  V30 8663 C 797.794 -4.1653 0.818721 0
M  V30 8664 C 795.701 -5.11728 2.9646 0
M  V30 8665 H 794.631 -0.716881 0.233661 0
M  V30 8666 H 797.282 -1.40457 1.18085 0
M  V30 8667 H 795.664 -3.93242 0.466524 0
M  V30 8668 H 796.838 -3.26913 3.24753 0
M  V30 8669 H 795.153 -3.06349 2.82027 0
M  V30 8670 H 797.75 -5.23603 1.08367 0
M  V30 8671 H 798.093 -4.15578 -0.245128 0
M  V30 8672 H 798.626 -3.72428 1.39793 0
M  V30 8673 H 795.365 -5.17806 4.01941 0
M  V30 8674 H 794.885 -5.52199 2.34172 0
M  V30 8675 H 796.564 -5.80009 2.86703 0
M  V30 8676 N 796.696 -0.74468 -1.38897 0
M  V30 8677 C 797.973 -0.222773 -1.94327 0
M  V30 8678 C 798.353 1.27731 -1.68071 0
M  V30 8679 O 797.701 2.04754 -1.01429 0
M  V30 8680 C 797.911 -0.566836 -3.44366 0
M  V30 8681 C 799.259 -0.521531 -4.21385 0
M  V30 8682 O 800.283 -0.504599 -3.52608 0
M  V30 8683 O 799.142 -0.524595 -5.43976 0
M  V30 8684 H 796.236 -0.0439259 -0.825833 0
M  V30 8685 H 798.782 -0.824197 -1.48341 0
M  V30 8686 H 797.554 -1.60321 -3.56949 0
M  V30 8687 H 797.177 0.0630577 -3.9755 0
M  V30 8688 N 798.174 1.49689 -0.493057 0
M  V30 8689 C 799.404 2.06536 0.0512397 0
M  V30 8690 C 799.812 1.35459 1.32089 0
M  V30 8691 O 799.155 0.424145 1.78736 0
M  V30 8692 C 799.217 3.57452 0.383231 0
M  V30 8693 C 798.881 4.50163 -0.787555 0
M  V30 8694 C 799.878 4.92151 -1.67582 0
M  V30 8695 C 797.563 4.92565 -0.984109 0
M  V30 8696 C 799.557 5.7527 -2.74487 0
M  V30 8697 C 797.244 5.75463 -2.05634 0
M  V30 8698 C 798.242 6.16719 -2.93507 0
M  V30 8699 O 797.93 6.97961 -3.98881 0
M  V30 8700 H 797.662 0.675862 -0.0136516 0
M  V30 8701 H 800.216 1.9356 -0.687298 0
M  V30 8702 H 798.446 3.68408 1.17526 0
M  V30 8703 H 800.135 3.96572 0.8652 0
M  V30 8704 H 800.901 4.60043 -1.53575 0
M  V30 8705 H 796.78 4.5996 -0.309541 0
M  V30 8706 H 800.324 6.07392 -3.43104 0
M  V30 8707 H 796.221 6.06983 -2.19639 0
M  V30 8708 H 796.989 7.16253 -3.96137 0
M  V30 8709 N 799.652 0.226554 1.55963 0
M  V30 8710 C 800.882 -0.407915 2.02533 0
M  V30 8711 C 801.29 -1.53539 1.10554 0
M  V30 8712 O 800.633 -1.8338 0.108409 0
M  V30 8713 C 800.695 -0.996081 3.45425 0
M  V30 8714 C 800.359 -0.00341651 4.57 0
M  V30 8715 C 801.356 0.798782 5.13727 0
M  V30 8716 C 799.041 0.116786 5.02164 0
M  V30 8717 C 801.035 1.70784 6.14094 0
M  V30 8718 C 798.722 1.02937 6.02368 0
M  V30 8719 C 799.72 1.82344 6.5821 0
M  V30 8720 O 799.408 2.72067 7.56462 0
M  V30 8721 H 799.14 -0.103524 0.668026 0
M  V30 8722 H 801.694 0.341937 2.02534 0
M  V30 8723 H 799.924 -1.79512 3.42509 0
M  V30 8724 H 801.613 -1.53848 3.75614 0
M  V30 8725 H 802.379 0.716393 4.7968 0
M  V30 8726 H 798.258 -0.491172 4.58376 0
M  V30 8727 H 801.802 2.32807 6.57607 0
M  V30 8728 H 797.699 1.11276 6.35836 0
M  V30 8729 H 798.467 2.66199 7.74003 0
M  V30 8730 N 801.13 -1.57531 -0.0467866 0
M  V30 8731 C 802.078 -2.06455 -1.0714 0
M  V30 8732 C 803.072 -0.974744 -1.38546 0
M  V30 8733 O 804.278 -1.15974 -1.37659 0
M  V30 8734 H 800.653 -0.658607 -0.362962 0
M  V30 8735 H 802.624 -2.91613 -0.632813 0
M  V30 8736 C 801.373 -2.54481 -2.36927 0
M  V30 8737 H 800.696 -3.37946 -2.13617 0
M  V30 8738 H 802.136 -2.92442 -3.07007 0
M  V30 8739 C 800.595 -1.43836 -3.04652 0
M  V30 8740 O 801.125 -0.794531 -3.93764 0
M  V30 8741 N 799.331 -1.17727 -2.65686 0
M  V30 8742 H 798.878 -1.70265 -1.93307 0
M  V30 8743 H 798.836 -0.439051 -3.11319 0
M  V30 8744 N 802.608 0.318715 -1.54344 0
M  V30 8745 C 803.538 1.39751 -1.87061 0
M  V30 8746 C 804.519 1.53741 -0.727848 0
M  V30 8747 O 805.704 1.67541 -0.982016 0
M  V30 8748 C 802.834 2.76446 -2.10226 0
M  V30 8749 C 801.788 2.77239 -3.26071 0
M  V30 8750 C 801.114 4.17056 -3.34617 0
M  V30 8751 C 802.414 2.40555 -4.63606 0
M  V30 8752 H 804.108 1.12619 -2.77412 0
M  V30 8753 H 801.654 0.540318 -1.33479 0
M  V30 8754 H 803.607 3.51985 -2.31699 0
M  V30 8755 H 802.331 3.05066 -1.16629 0
M  V30 8756 H 800.99 2.04155 -3.04493 0
M  V30 8757 H 800.638 4.42824 -2.3857 0
M  V30 8758 H 800.338 4.18492 -4.12478 0
M  V30 8759 H 801.862 4.94401 -3.5833 0
M  V30 8760 H 803.276 3.05808 -4.84927 0
M  V30 8761 H 801.673 2.53234 -5.44052 0
M  V30 8762 H 802.743 1.35698 -4.65526 0
M  V30 8763 N 804.086 1.46499 0.581025 0
M  V30 8764 C 805.314 1.5547 1.36517 0
M  V30 8765 C 805.729 0.196407 1.87776 0
M  V30 8766 O 805.086 -0.806577 1.63709 0
M  V30 8767 C 805.137 2.56084 2.55154 0
M  V30 8768 O 804.858 3.86637 2.06018 0
M  V30 8769 C 806.359 2.75011 3.47683 0
M  V30 8770 H 803.579 0.525703 0.416986 0
M  V30 8771 H 806.123 1.9192 0.706177 0
M  V30 8772 H 804.278 2.22633 3.17039 0
M  V30 8773 H 804.692 4.41413 2.83292 0
M  V30 8774 H 806.166 3.49329 4.27403 0
M  V30 8775 H 806.643 1.81978 3.99726 0
M  V30 8776 H 807.249 3.09565 2.91632 0
M  V30 8777 N 805.565 -0.825799 1.34232 0
M  V30 8778 C 806.512 -1.93651 1.2557 0
M  V30 8779 C 807.482 -1.65578 0.131536 0
M  V30 8780 O 808.667 -1.88231 0.312027 0
M  V30 8781 C 805.807 -3.29862 1.01415 0
M  V30 8782 C 804.92 -3.70247 2.22579 0
M  V30 8783 C 804.055 -4.95392 1.91731 0
M  V30 8784 C 803.094 -5.28349 3.09053 0
M  V30 8785 N 802.231 -6.44671 2.78107 0
M  V30 8786 H 807.071 -2.00392 2.20561 0
M  V30 8787 H 804.608 -0.980441 1.09662 0
M  V30 8788 H 806.566 -4.08356 0.854485 0
M  V30 8789 H 805.196 -3.22642 0.100936 0
M  V30 8790 H 804.248 -2.87169 2.49476 0
M  V30 8791 H 805.56 -3.90575 3.10246 0
M  V30 8792 H 804.714 -5.81665 1.72484 0
M  V30 8793 H 803.453 -4.77059 1.0132 0
M  V30 8794 H 802.458 -4.40574 3.289 0
M  V30 8795 H 803.683 -5.48622 4.00239 0
M  V30 8796 H 801.629 -6.278 1.9027 0
M  V30 8797 H 801.546 -6.65158 3.59306 0
M  V30 8798 H 802.814 -7.34022 2.62358 0
M  V30 8799 N 807.043 -1.17915 -1.04565 0
M  V30 8800 C 808.29 -0.971424 -1.77678 0
M  V30 8801 C 808.618 0.499401 -1.87979 0
M  V30 8802 O 807.873 1.38695 -1.38066 0
M  V30 8803 C 808.172 -1.56528 -3.213 0
M  V30 8804 C 807.838 -3.06138 -3.31044 0
M  V30 8805 C 806.5 -3.46974 -3.33411 0
M  V30 8806 C 808.852 -4.02151 -3.31548 0
M  V30 8807 C 806.18 -4.82406 -3.33918 0
M  V30 8808 C 808.532 -5.37492 -3.33595 0
M  V30 8809 C 807.196 -5.77782 -3.34251 0
M  V30 8810 H 806.466 -0.355469 -0.650171 0
M  V30 8811 H 809.113 -1.46902 -1.22849 0
M  V30 8812 H 807.418 -0.98955 -3.79098 0
M  V30 8813 H 809.115 -1.38003 -3.76505 0
M  V30 8814 H 805.705 -2.73589 -3.29919 0
M  V30 8815 H 809.889 -3.71656 -3.28916 0
M  V30 8816 H 805.145 -5.12927 -3.3274 0
M  V30 8817 H 809.319 -6.1166 -3.32934 0
M  V30 8818 H 806.946 -6.82702 -3.34397 0
M  V30 8819 N 808.521 1.23394 -0.980386 0
M  V30 8820 C 809.751 1.9556 -0.666319 0
M  V30 8821 C 810.159 1.72786 0.770815 0
M  V30 8822 O 809.502 1.0162 1.53033 0
M  V30 8823 C 809.564 3.48643 -0.876825 0
M  V30 8824 C 809.228 3.95135 -2.29602 0
M  V30 8825 C 810.225 4.03806 -3.2747 0
M  V30 8826 C 807.91 4.28122 -2.62711 0
M  V30 8827 C 809.904 4.44818 -4.56526 0
M  V30 8828 C 807.591 4.68814 -3.9199 0
M  V30 8829 C 808.589 4.77129 -4.88709 0
M  V30 8830 O 808.277 5.16908 -6.15679 0
M  V30 8831 H 808.009 0.629422 -0.246585 0
M  V30 8832 H 810.563 1.57839 -1.31438 0
M  V30 8833 H 808.793 3.86319 -0.171587 0
M  V30 8834 H 810.482 4.0202 -0.55992 0
M  V30 8835 H 811.248 3.78526 -3.03222 0
M  V30 8836 H 807.127 4.20861 -1.8814 0
M  V30 8837 H 810.671 4.51223 -5.32018 0
M  V30 8838 H 806.568 4.93545 -4.16033 0
M  V30 8839 H 807.336 5.3502 -6.19432 0
M  V30 8840 N 809.999 0.752036 1.385 0
M  V30 8841 C 811.247 0.306895 1.99756 0
M  V30 8842 C 811.568 -1.11478 1.59992 0
M  V30 8843 O 810.838 -1.76206 0.856045 0
M  V30 8844 H 809.418 0.11048 0.738785 0
M  V30 8845 H 812.08 0.965785 1.69289 0
M  V30 8846 H 811.176 0.368797 3.09913 0
M  V30 8847 N 811.477 -1.49425 0.500989 0
M  V30 8848 C 812.705 -2.06861 -0.0403443 0
M  V30 8849 C 813.12 -1.36132 -1.30819 0
M  V30 8850 O 812.477 -0.439647 -1.77125 0
M  V30 8851 C 812.528 -3.6027 -0.297902 0
M  V30 8852 O 812.249 -4.28338 0.919686 0
M  V30 8853 C 813.75 -4.34419 -0.882876 0
M  V30 8854 H 810.97 -0.670688 0.0204619 0
M  V30 8855 H 813.514 -1.92207 0.698342 0
M  V30 8856 H 811.669 -3.74627 -0.98657 0
M  V30 8857 H 812.083 -5.2004 0.682528 0
M  V30 8858 H 813.557 -5.42631 -1.01268 0
M  V30 8859 H 814.034 -3.96898 -1.88066 0
M  V30 8860 H 814.64 -4.24669 -0.231677 0
M  V30 8861 N 812.955 -0.234822 -1.55841 0
M  V30 8862 C 814.201 0.393843 -1.98939 0
M  V30 8863 C 814.534 1.58466 -1.1226 0
M  V30 8864 O 813.809 1.93635 -0.183242 0
M  V30 8865 C 814.092 0.815492 -3.50745 0
M  V30 8866 C 813.945 -0.379878 -4.48193 0
M  V30 8867 C 815.264 1.66687 -4.07312 0
M  V30 8868 H 812.383 0.141681 -0.723253 0
M  V30 8869 H 815.025 -0.333716 -1.87046 0
M  V30 8870 H 813.175 1.43541 -3.6101 0
M  V30 8871 H 814.847 -1.0182 -4.49923 0
M  V30 8872 H 813.09 -1.02507 -4.21515 0
M  V30 8873 H 813.761 -0.0417069 -5.51984 0
M  V30 8874 H 816.237 1.14369 -4.00074 0
M  V30 8875 H 815.113 1.93078 -5.13821 0
M  V30 8876 H 815.374 2.63468 -3.55017 0
M  V30 8877 N 814.433 1.57553 0.0384317 0
M  V30 8878 C 815.38 2.05942 1.04194 0
M  V30 8879 C 816.35 0.946637 1.36484 0
M  V30 8880 O 817.535 1.21658 1.46983 0
M  V30 8881 C 814.675 2.53588 2.34066 0
M  V30 8882 C 813.788 3.7862 2.08017 0
M  V30 8883 C 812.923 4.14915 3.31692 0
M  V30 8884 C 811.962 5.32891 3.01155 0
M  V30 8885 N 811.099 5.64662 4.17254 0
M  V30 8886 H 815.939 2.91429 0.622341 0
M  V30 8887 H 813.476 1.44098 0.295684 0
M  V30 8888 H 815.434 2.79276 3.09937 0
M  V30 8889 H 814.064 1.71031 2.73767 0
M  V30 8890 H 813.116 3.60073 1.22686 0
M  V30 8891 H 814.428 4.64613 1.81484 0
M  V30 8892 H 813.582 4.41681 4.15936 0
M  V30 8893 H 812.321 3.27555 3.6133 0
M  V30 8894 H 811.326 5.05887 2.15311 0
M  V30 8895 H 812.551 6.21896 2.72804 0
M  V30 8896 H 810.497 4.80261 4.46861 0
M  V30 8897 H 810.414 6.45145 3.94112 0
M  V30 8898 H 811.682 5.96 5.02399 0
M  V30 8899 N 815.911 -0.310526 1.54511 0
M  V30 8900 C 816.841 -1.38757 1.878 0
M  V30 8901 C 817.822 -1.53353 0.735991 0
M  V30 8902 O 819.007 -1.67018 0.990887 0
M  V30 8903 C 816.137 -2.75327 2.11689 0
M  V30 8904 C 815.091 -2.75506 3.27537 0
M  V30 8905 C 814.417 -4.15275 3.36824 0
M  V30 8906 C 815.717 -2.38093 4.64875 0
M  V30 8907 H 817.411 -1.11146 2.78005 0
M  V30 8908 H 814.957 -0.533232 1.33763 0
M  V30 8909 H 816.91 -3.50752 2.33562 0
M  V30 8910 H 815.634 -3.04443 1.18245 0
M  V30 8911 H 814.293 -2.02538 3.05572 0
M  V30 8912 H 813.941 -4.41553 2.40915 0
M  V30 8913 H 813.641 -4.16299 4.14692 0
M  V30 8914 H 815.165 -4.92493 3.60947 0
M  V30 8915 H 816.579 -3.03232 4.86542 0
M  V30 8916 H 814.976 -2.50345 5.45387 0
M  V30 8917 H 816.046 -1.33227 4.66239 0
M  V30 8918 N 817.389 -1.46805 -0.573248 0
M  V30 8919 C 818.666 -1.43082 -1.33368 0
M  V30 8920 C 819.046 -0.119252 -2.10763 0
M  V30 8921 O 818.394 0.899239 -2.10062 0
M  V30 8922 C 818.604 -2.66643 -2.25172 0
M  V30 8923 C 819.952 -3.13188 -2.86702 0
M  V30 8924 O 820.976 -2.67258 -2.35482 0
M  V30 8925 O 819.835 -3.92994 -3.79761 0
M  V30 8926 H 816.929 -0.569451 -0.599712 0
M  V30 8927 H 819.475 -1.58984 -0.59348 0
M  V30 8928 H 818.247 -3.53649 -1.67475 0
M  V30 8929 H 817.87 -2.53247 -3.06516 0
M  V30 8930 N 818.867 0.818669 -1.34668 0
M  V30 8931 C 820.095 1.60674 -1.30351 0
M  V30 8932 C 820.51 1.88408 0.121546 0
M  V30 8933 O 819.867 1.47849 1.06991 0
M  V30 8934 C 819.918 2.94516 -2.09625 0
M  V30 8935 O 819.639 2.6799 -3.46573 0
M  V30 8936 C 821.14 3.8891 -2.12754 0
M  V30 8937 H 818.36 0.499306 -0.448258 0
M  V30 8938 H 820.904 1.01828 -1.77345 0
M  V30 8939 H 819.059 3.49908 -1.66262 0
M  V30 8940 H 819.473 3.53361 -3.87603 0
M  V30 8941 H 820.947 4.79972 -2.72637 0
M  V30 8942 H 821.424 4.24599 -1.12306 0
M  V30 8943 H 822.03 3.39453 -2.56225 0
M  V30 8944 N 820.346 1.18468 1.03938 0
M  V30 8945 C 821.279 0.856251 2.11527 0
M  V30 8946 C 822.257 -0.182323 1.61575 0
M  V30 8947 O 823.441 -0.061 1.88401 0
M  V30 8948 C 820.568 0.279562 3.37544 0
M  V30 8949 C 819.614 1.29552 4.06348 0
M  V30 8950 S 820.447 2.85191 4.5324 0
M  V30 8951 C 821.603 2.29037 5.82489 0
M  V30 8952 H 821.836 1.76742 2.39059 0
M  V30 8953 H 819.369 1.01068 1.16725 0
M  V30 8954 H 821.327 -0.0466579 4.10473 0
M  V30 8955 H 819.988 -0.60975 3.08125 0
M  V30 8956 H 819.181 0.840922 4.96935 0
M  V30 8957 H 818.783 1.56804 3.39541 0
M  V30 8958 H 821.075 1.67376 6.565 0
M  V30 8959 H 822.018 3.17929 6.32714 0
M  V30 8960 H 822.426 1.72009 5.37655 0
M  V30 8961 N 821.824 -1.22873 0.986916 0
M  V30 8962 C 823.073 -1.90772 0.654911 0
M  V30 8963 C 823.386 -1.77768 -0.81595 0
M  V30 8964 O 824.592 -2.40529 -1.25929 0
M  V30 8965 C 823.048 -3.42003 1.12081 0
M  V30 8966 C 822.656 -3.63655 2.61647 0
M  V30 8967 C 824.4 -4.15638 0.862854 0
M  V30 8968 C 822.307 -5.08555 3.01871 0
M  V30 8969 H 821.237 -0.714362 0.241252 0
M  V30 8970 H 823.888 -1.39196 1.19568 0
M  V30 8971 H 822.27 -3.92725 0.508207 0
M  V30 8972 H 823.444 -3.2345 3.28202 0
M  V30 8973 H 821.759 -3.03341 2.8526 0
M  V30 8974 H 824.356 -5.22425 1.13915 0
M  V30 8975 H 824.699 -4.15814 -0.201036 0
M  V30 8976 H 825.232 -3.70924 1.43736 0
M  V30 8977 H 821.971 -5.13514 4.07411 0
M  V30 8978 H 821.491 -5.49684 2.40015 0
M  V30 8979 H 823.17 -5.76936 2.92839 0
M  V30 8980 N 823.302 -0.75937 -1.38099 0
M  V30 8981 C 824.549 -0.318113 -1.99986 0
M  V30 8982 C 824.877 1.10184 -1.6028 0
M  V30 8983 O 824.132 1.77015 -0.834524 0
M  V30 8984 C 824.431 -0.394999 -3.55211 0
M  V30 8985 C 824.097 -1.77143 -4.14646 0
M  V30 8986 C 822.759 -2.14811 -4.30592 0
M  V30 8987 C 825.111 -2.67407 -4.47373 0
M  V30 8988 C 822.439 -3.42203 -4.76565 0
M  V30 8989 C 824.791 -3.94196 -4.94765 0
M  V30 8990 C 823.455 -4.31925 -5.08918 0
M  V30 8991 H 822.725 -0.116406 -0.7318 0
M  V30 8992 H 825.372 -0.97098 -1.65058 0
M  V30 8993 H 823.677 0.341426 -3.9031 0
M  V30 8994 H 825.374 -0.0350722 -4.00985 0
M  V30 8995 H 821.964 -1.46864 -4.02652 0
M  V30 8996 H 826.148 -2.39569 -4.3465 0
M  V30 8997 H 821.404 -3.71346 -4.85708 0
M  V30 8998 H 825.578 -4.64276 -5.19057 0
M  V30 8999 H 823.205 -5.30699 -5.443 0
M  V30 9000 N 824.78 1.49157 -0.508906 0
M  V30 9001 C 826.028 2.02073 0.0327335 0
M  V30 9002 C 826.349 1.39012 1.3675 0
M  V30 9003 O 825.619 0.548153 1.88075 0
M  V30 9004 H 824.199 0.746848 0.0150864 0
M  V30 9005 H 826.861 1.83097 -0.667946 0
M  V30 9006 H 825.957 3.11707 0.1566 0
M  V30 9007 N 826.258 0.243083 1.55714 0
M  V30 9008 C 827.504 -0.383287 1.99145 0
M  V30 9009 C 827.837 -1.57868 1.13098 0
M  V30 9010 O 827.112 -1.93535 0.193509 0
M  V30 9011 C 827.395 -0.796879 3.51172 0
M  V30 9012 C 827.248 0.403642 4.47985 0
M  V30 9013 C 828.567 -1.64525 4.08191 0
M  V30 9014 H 825.686 -0.137843 0.723995 0
M  V30 9015 H 828.328 0.343631 1.86867 0
M  V30 9016 H 826.478 -1.41625 3.61766 0
M  V30 9017 H 828.15 1.04204 4.49376 0
M  V30 9018 H 826.393 1.04741 4.20965 0
M  V30 9019 H 827.064 0.0709794 5.51954 0
M  V30 9020 H 829.54 -1.12246 4.00674 0
M  V30 9021 H 828.416 -1.9035 5.14838 0
M  V30 9022 H 828.677 -2.61582 3.56409 0
M  V30 9023 N 827.736 -1.57571 -0.0300757 0
M  V30 9024 C 828.985 -1.88407 -0.720126 0
M  V30 9025 C 829.298 -0.841466 -1.76575 0
M  V30 9026 O 830.504 -1.03902 -2.50832 0
M  V30 9027 C 828.96 -3.34348 -1.33188 0
M  V30 9028 C 828.568 -4.46837 -0.32266 0
M  V30 9029 C 830.312 -3.74333 -2.00187 0
M  V30 9030 C 828.219 -5.83838 -0.942703 0
M  V30 9031 H 827.149 -0.702952 -0.272718 0
M  V30 9032 H 829.8 -1.83482 0.0255337 0
M  V30 9033 H 828.182 -3.34014 -2.12721 0
M  V30 9034 H 829.356 -4.58638 0.445887 0
M  V30 9035 H 827.671 -4.15678 0.245181 0
M  V30 9036 H 830.268 -4.74008 -2.47428 0
M  V30 9037 H 830.611 -3.06275 -2.81959 0
M  V30 9038 H 831.144 -3.76837 -1.2743 0
M  V30 9039 H 827.883 -6.55294 -0.164413 0
M  V30 9040 H 827.403 -5.75759 -1.68111 0
M  V30 9041 H 829.082 -6.30535 -1.45034 0
M  V30 9042 N 829.214 0.302327 -1.54673 0
M  V30 9043 C 830.124 1.39542 -1.88587 0
M  V30 9044 C 831.14 1.55543 -0.779895 0
M  V30 9045 O 832.316 1.70233 -1.07623 0
M  V30 9046 C 829.381 2.7394 -2.12504 0
M  V30 9047 C 828.442 2.66935 -3.3622 0
M  V30 9048 C 827.675 3.94923 -3.58987 0
M  V30 9049 O 827.898 4.94218 -2.84789 0
M  V30 9050 O 826.832 3.96896 -4.52501 0
M  V30 9051 H 830.658 1.13784 -2.81579 0
M  V30 9052 H 828.243 0.49827 -1.40846 0
M  V30 9053 H 830.125 3.5346 -2.29443 0
M  V30 9054 H 828.8 2.99544 -1.22698 0
M  V30 9055 H 827.707 1.85892 -3.24646 0
M  V30 9056 H 829.04 2.46283 -4.26152 0
M  V30 9057 N 830.692 1.47107 0.565454 0
M  V30 9058 C 831.922 1.56681 1.34664 0
M  V30 9059 C 832.33 0.213011 1.87997 0
M  V30 9060 O 831.673 -0.802629 1.65238 0
M  V30 9061 C 831.735 2.52528 2.55871 0
M  V30 9062 C 831.399 3.98403 2.23883 0
M  V30 9063 C 832.396 4.87125 1.81673 0
M  V30 9064 C 830.081 4.43674 2.35496 0
M  V30 9065 C 832.075 6.19135 1.51494 0
M  V30 9066 C 829.762 5.75714 2.0493 0
M  V30 9067 C 830.76 6.63266 1.62996 0
M  V30 9068 O 830.448 7.92853 1.32813 0
M  V30 9069 H 830.18 0.531967 0.417117 0
M  V30 9070 H 832.734 1.93368 0.692669 0
M  V30 9071 H 830.964 2.10893 3.24131 0
M  V30 9072 H 832.653 2.5232 3.17945 0
M  V30 9073 H 833.419 4.534 1.72201 0
M  V30 9074 H 829.298 3.7574 2.67096 0
M  V30 9075 H 832.842 6.87429 1.1869 0
M  V30 9076 H 828.739 6.08983 2.14031 0
M  V30 9077 H 829.507 8.0528 1.46513 0
M  V30 9078 N 832.17 -0.811516 1.35101 0
M  V30 9079 C 833.41 -1.58177 1.29458 0
M  V30 9080 C 833.774 -1.91555 -0.130688 0
M  V30 9081 O 834.975 -2.6699 -0.311428 0
M  V30 9082 C 833.246 -2.83896 2.17112 0
M  V30 9083 S 834.805 -3.74344 2.28936 0
M  V30 9084 H 831.623 -0.542021 0.460146 0
M  V30 9085 H 834.225 -0.957653 1.70438 0
M  V30 9086 H 832.929 -2.57391 3.19653 0
M  V30 9087 H 832.46 -3.51297 1.7707 0
M  V30 9088 H 834.475 -4.73909 1.47054 0
M  V30 9089 N 833.648 -1.19017 -1.03309 0
M  V30 9090 C 834.558 -0.939303 -2.14975 0
M  V30 9091 C 835.574 0.0992359 -1.73717 0
M  V30 9092 O 836.75 -0.0844362 -2.01223 0
M  V30 9093 C 833.815 -0.476712 -3.43407 0
M  V30 9094 C 832.876 -1.58413 -3.99003 0
M  V30 9095 C 832.109 -1.14352 -5.21305 0
M  V30 9096 O 832.332 -0.00534408 -5.704 0
M  V30 9097 O 831.266 -1.94436 -5.6963 0
M  V30 9098 H 835.092 -1.87386 -2.38998 0
M  V30 9099 H 832.677 -0.972635 -1.13403 0
M  V30 9100 H 834.559 -0.22718 -4.20787 0
M  V30 9101 H 833.234 0.429455 -3.20839 0
M  V30 9102 H 832.141 -1.88777 -3.22977 0
M  V30 9103 H 833.474 -2.4667 -4.25928 0
M  V30 9104 N 835.127 1.22348 -0.993418 0
M  V30 9105 C 836.543 1.43222 -0.704238 0
M  V30 9106 C 836.743 1.88009 0.724909 0
M  V30 9107 O 835.799 2.03429 1.49575 0
M  V30 9108 C 837.112 2.47328 -1.71025 0
M  V30 9109 C 838.66 2.61126 -1.72576 0
M  V30 9110 C 839.135 3.68453 -2.72041 0
M  V30 9111 N 840.626 3.75911 -2.70639 0
M  V30 9112 C 841.361 4.58551 -3.44266 0
M  V30 9113 N 840.857 5.45179 -4.27495 0
M  V30 9114 N 842.65 4.52866 -3.32969 0
M  V30 9115 H 834.801 0.915832 -1.91641 0
M  V30 9116 H 837.064 0.464283 -0.826526 0
M  V30 9117 H 836.77 2.21366 -2.73295 0
M  V30 9118 H 836.644 3.45939 -1.50353 0
M  V30 9119 H 839.031 2.86431 -0.710037 0
M  V30 9120 H 839.112 1.62787 -1.97317 0
M  V30 9121 H 838.756 3.43895 -3.73763 0
M  V30 9122 H 838.686 4.66362 -2.4457 0
M  V30 9123 H 841.177 3.14014 -2.10247 0
M  V30 9124 H 841.49 6.0526 -4.80499 0
M  V30 9125 H 839.835 5.44759 -4.31582 0
M  V30 9126 H 843.026 3.84215 -2.67389 0
M  V30 9127 H 843.199 5.17039 -3.90608 0
M  V30 9128 N 836.605 0.766683 1.37694 0
M  V30 9129 C 837.853 0.328065 1.9942 0
M  V30 9130 C 838.174 -1.09775 1.61166 0
M  V30 9131 O 837.444 -1.75288 0.874686 0
M  V30 9132 H 836.024 0.11831 0.737572 0
M  V30 9133 H 838.686 0.983686 1.68255 0
M  V30 9134 H 837.782 0.401647 3.09505 0
M  V30 9135 N 838.083 -1.48885 0.516809 0
M  V30 9136 C 839.308 -2.0739 -0.0205201 0
M  V30 9137 C 839.733 -1.37259 -1.28614 0
M  V30 9138 O 839.091 -0.434304 -1.76021 0
M  V30 9139 C 839.139 -3.59793 -0.24104 0
M  V30 9140 O 838.243 -3.90957 -1.31251 0
M  V30 9141 H 837.584 -0.663167 0.0332564 0
M  V30 9142 H 840.114 -1.91477 0.720956 0
M  V30 9143 H 840.124 -4.0531 -0.467737 0
M  V30 9144 H 838.799 -4.10244 0.68356 0
M  V30 9145 H 837.376 -3.57234 -1.06951 0
M  V30 9146 N 839.561 -0.251338 -1.55583 0
M  V30 9147 C 840.491 0.640437 -2.24545 0
M  V30 9148 C 841.472 1.17781 -1.22726 0
M  V30 9149 O 842.657 1.21633 -1.5139 0
M  V30 9150 C 839.787 1.8355 -2.94834 0
M  V30 9151 C 838.741 1.4307 -4.03379 0
M  V30 9152 C 838.067 2.70695 -4.61116 0
M  V30 9153 C 839.367 0.59848 -5.1886 0
M  V30 9154 H 841.061 0.0653772 -2.99329 0
M  V30 9155 H 838.607 0.0300042 -1.43969 0
M  V30 9156 H 840.56 2.46505 -3.4178 0
M  V30 9157 H 839.284 2.43601 -2.17546 0
M  V30 9158 H 837.943 0.824474 -3.57209 0
M  V30 9159 H 837.591 3.28954 -3.80524 0
M  V30 9160 H 837.291 2.44332 -5.34393 0
M  V30 9161 H 838.815 3.34541 -5.10798 0
M  V30 9162 H 840.229 1.13244 -5.62004 0
M  V30 9163 H 838.626 0.430728 -5.98552 0
M  V30 9164 H 839.696 -0.38829 -4.83343 0
M  V30 9165 N 841.039 1.57585 0.0217189 0
M  V30 9166 C 842.455 1.55072 0.377484 0
M  V30 9167 C 842.655 0.978423 1.76151 0
M  V30 9168 O 841.711 0.602688 2.45202 0
M  V30 9169 C 843.024 2.99462 0.272605 0
M  V30 9170 C 844.572 3.11047 0.349148 0
M  V30 9171 C 845.047 4.57182 0.273636 0
M  V30 9172 N 846.538 4.62007 0.332206 0
M  V30 9173 C 847.273 5.72631 0.296782 0
M  V30 9174 N 846.769 6.92472 0.21322 0
M  V30 9175 N 848.562 5.61028 0.347053 0
M  V30 9176 H 840.713 1.93133 -0.883925 0
M  V30 9177 H 842.976 0.886151 -0.33681 0
M  V30 9178 H 842.682 3.45088 -0.67878 0
M  V30 9179 H 842.556 3.61901 1.06335 0
M  V30 9180 H 844.943 2.65364 1.29097 0
M  V30 9181 H 845.024 2.51425 -0.471085 0
M  V30 9182 H 844.668 5.03534 -0.664548 0
M  V30 9183 H 844.598 5.14724 1.11207 0
M  V30 9184 H 847.089 3.75788 0.399003 0
M  V30 9185 H 847.402 7.72563 0.191492 0
M  V30 9186 H 845.747 6.94769 0.179161 0
M  V30 9187 H 848.938 4.66298 0.410378 0
M  V30 9188 H 849.111 6.47229 0.315979 0
M  V30 9189 N 842.517 -0.29412 1.54831 0
M  V30 9190 C 843.427 -1.3854 1.89325 0
M  V30 9191 C 844.443 -1.55127 0.788133 0
M  V30 9192 O 845.619 -1.6966 1.08524 0
M  V30 9193 C 842.684 -2.72809 2.13954 0
M  V30 9194 C 841.745 -2.65148 3.37631 0
M  V30 9195 C 840.978 -3.93014 3.61076 0
M  V30 9196 O 841.201 -4.927 2.87406 0
M  V30 9197 O 840.135 -3.94491 4.54599 0
M  V30 9198 H 843.961 -1.12289 2.82179 0
M  V30 9199 H 841.546 -0.490793 1.41108 0
M  V30 9200 H 843.428 -3.52238 2.31315 0
M  V30 9201 H 842.103 -2.9889 1.24285 0
M  V30 9202 H 841.01 -1.84168 3.25627 0
M  V30 9203 H 842.343 -2.4402 4.27452 0
M  V30 9204 N 843.995 -1.47404 -0.557645 0
M  V30 9205 C 845.241 -1.54235 -1.31679 0
M  V30 9206 C 845.574 -0.203782 -1.93128 0
M  V30 9207 O 844.849 0.787536 -1.77843 0
M  V30 9208 C 845.132 -2.66003 -2.42723 0
M  V30 9209 C 844.985 -4.09475 -1.86145 0
M  V30 9210 C 846.304 -2.73685 -3.44652 0
M  V30 9211 H 843.423 -0.561466 -0.477415 0
M  V30 9212 H 846.065 -1.79459 -0.624067 0
M  V30 9213 H 844.215 -2.44627 -3.01811 0
M  V30 9214 H 845.887 -4.42213 -1.31321 0
M  V30 9215 H 844.13 -4.17774 -1.16823 0
M  V30 9216 H 844.801 -4.83451 -2.66418 0
M  V30 9217 H 847.277 -2.92968 -2.95481 0
M  V30 9218 H 846.153 -3.53665 -4.19777 0
M  V30 9219 H 846.414 -1.80726 -4.03473 0
M  V30 9220 N 845.473 0.80434 -1.35529 0
M  V30 9221 C 846.403 1.93086 -1.31301 0
M  V30 9222 C 847.384 1.69068 -0.187044 0
M  V30 9223 O 848.569 1.90399 -0.382359 0
M  V30 9224 C 845.699 3.29867 -1.0865 0
M  V30 9225 C 844.653 3.68373 -2.17911 0
M  V30 9226 C 843.979 5.0334 -1.80423 0
M  V30 9227 C 845.279 3.78516 -3.59893 0
M  V30 9228 H 846.973 1.96882 -2.25561 0
M  V30 9229 H 844.519 0.945841 -1.08581 0
M  V30 9230 H 846.472 4.08281 -1.04331 0
M  V30 9231 H 845.196 3.2642 -0.108359 0
M  V30 9232 H 843.855 2.92247 -2.21331 0
M  V30 9233 H 843.503 4.96399 -0.812213 0
M  V30 9234 H 843.203 5.30074 -2.53565 0
M  V30 9235 H 844.727 5.84191 -1.77633 0
M  V30 9236 H 846.141 4.47155 -3.58783 0
M  V30 9237 H 844.538 4.16721 -4.31814 0
M  V30 9238 H 845.608 2.8001 -3.95882 0
M  V30 9239 N 846.951 1.19563 1.02676 0
M  V30 9240 C 847.899 0.931942 2.13114 0
M  V30 9241 C 848.893 -0.113007 1.69023 0
M  V30 9242 O 850.099 0.0364298 1.79963 0
M  V30 9243 H 846.474 0.283981 0.696318 0
M  V30 9244 H 848.445 1.86991 2.32545 0
M  V30 9245 C 847.194 0.489461 3.44238 0
M  V30 9246 H 846.517 1.28508 3.78584 0
M  V30 9247 H 847.957 0.34408 4.22602 0
M  V30 9248 C 846.416 -0.796761 3.27343 0
M  V30 9249 O 846.946 -1.85767 3.56165 0
M  V30 9250 N 845.152 -0.754824 2.80626 0
M  V30 9251 H 844.699 0.108778 2.5737 0
M  V30 9252 H 844.657 -1.6158 2.69702 0
M  V30 9253 N 848.429 -1.21819 0.999893 0
M  V30 9254 C 849.706 -1.86318 0.595384 0
M  V30 9255 C 850.086 -1.8965 -0.927143 0
M  V30 9256 O 849.434 -1.3921 -1.81199 0
M  V30 9257 C 849.644 -3.26837 1.22387 0
M  V30 9258 C 850.992 -4.03272 1.32878 0
M  V30 9259 O 852.016 -3.36129 1.1788 0
M  V30 9260 O 850.875 -5.23477 1.56952 0
M  V30 9261 H 847.969 -0.801638 0.203238 0
M  V30 9262 H 850.515 -1.29542 1.09622 0
M  V30 9263 H 849.287 -3.19084 2.26497 0
M  V30 9264 H 848.91 -3.91226 0.709069 0
M  V30 9265 N 849.908 -0.773975 -1.37286 0
M  V30 9266 C 851.136 -0.350758 -2.03905 0
M  V30 9267 C 851.551 1.02779 -1.58373 0
M  V30 9268 O 850.908 1.65646 -0.766009 0
M  V30 9269 C 850.959 -0.387335 -3.59419 0
M  V30 9270 O 850.68 -1.7115 -4.03286 0
M  V30 9271 C 852.181 0.047198 -4.43275 0
M  V30 9272 H 849.401 -0.146663 -0.654775 0
M  V30 9273 H 851.945 -1.04852 -1.75574 0
M  V30 9274 H 850.1 0.261865 -3.86514 0
M  V30 9275 H 850.514 -1.65166 -4.97816 0
M  V30 9276 H 851.988 -0.0295474 -5.51992 0
M  V30 9277 H 852.465 1.09786 -4.25257 0
M  V30 9278 H 853.071 -0.573899 -4.2141 0
M  V30 9279 N 851.386 1.48609 -0.524698 0
M  V30 9280 C 852.635 2.01696 0.0132937 0
M  V30 9281 C 852.948 1.40751 1.35825 0
M  V30 9282 O 854.154 1.85304 1.9843 0
M  V30 9283 C 852.61 3.59824 0.0741012 0
M  V30 9284 C 852.218 4.2975 -1.26564 0
M  V30 9285 C 853.962 4.20774 0.5612 0
M  V30 9286 C 851.869 5.79798 -1.16571 0
M  V30 9287 H 850.799 0.753949 0.00873931 0
M  V30 9288 H 853.45 1.70922 -0.667684 0
M  V30 9289 H 851.832 3.87416 0.820043 0
M  V30 9290 H 853.006 4.13836 -2.02674 0
M  V30 9291 H 851.321 3.80649 -1.68806 0
M  V30 9292 H 853.918 5.30687 0.653853 0
M  V30 9293 H 854.261 3.85734 1.56573 0
M  V30 9294 H 854.794 3.97591 -0.128901 0
M  V30 9295 H 851.533 6.19403 -2.14523 0
M  V30 9296 H 851.053 5.9814 -0.445894 0
M  V30 9297 H 852.732 6.41337 -0.854186 0
M  V30 9298 N 852.864 0.259585 1.55447 0
M  V30 9299 C 854.089 -0.368317 2.04103 0
M  V30 9300 C 854.514 -1.49827 1.13725 0
M  V30 9301 O 853.872 -1.80814 0.132705 0
M  V30 9302 C 853.92 -0.841506 3.50644 0
M  V30 9303 O 853.024 -1.95008 3.63381 0
M  V30 9304 H 852.365 -0.0785227 0.659341 0
M  V30 9305 H 854.895 0.389349 2.00861 0
M  V30 9306 H 854.905 -1.14138 3.9171 0
M  V30 9307 H 853.58 -0.0147001 4.15897 0
M  V30 9308 H 852.157 -1.65393 3.34215 0
M  V30 9309 N 854.342 -1.57594 -0.0133615 0
M  V30 9310 C 855.572 -1.93969 -0.711295 0
M  V30 9311 C 855.98 -0.859084 -1.68572 0
M  V30 9312 O 855.323 0.171842 -1.82894 0
M  V30 9313 C 855.385 -3.2625 -1.51001 0
M  V30 9314 C 855.049 -4.51628 -0.698645 0
M  V30 9315 C 856.046 -5.19899 0.00791185 0
M  V30 9316 C 853.731 -4.98095 -0.648553 0
M  V30 9317 C 855.725 -6.32928 0.753691 0
M  V30 9318 C 853.412 -6.11017 0.10096 0
M  V30 9319 C 854.41 -6.78289 0.800828 0
M  V30 9320 O 854.098 -7.89048 1.53814 0
M  V30 9321 H 853.83 -0.6445 -0.203951 0
M  V30 9322 H 856.384 -2.05378 0.0298267 0
M  V30 9323 H 854.614 -3.11211 -2.29531 0
M  V30 9324 H 856.303 -3.47835 -2.09202 0
M  V30 9325 H 857.069 -4.84995 -0.0217192 0
M  V30 9326 H 852.948 -4.45568 -1.18282 0
M  V30 9327 H 856.492 -6.85371 1.3005 0
M  V30 9328 H 852.389 -6.45364 0.132459 0
M  V30 9329 H 853.157 -8.05492 1.45345 0
M  V30 9330 N 855.82 0.285905 -1.54985 0
M  V30 9331 C 857.231 0.857869 -1.65824 0
M  V30 9332 C 857.582 1.87531 -0.576763 0
M  V30 9333 O 856.707 2.14528 0.284016 0
M  V30 9334 C 857.302 1.56277 -3.00604 0
M  V30 9335 C 855.861 2.08294 -3.13513 0
M  V30 9336 C 855.008 0.920633 -2.61571 0
M  V30 9337 H 857.959 0.0625463 -1.58577 0
M  V30 9338 H 857.98 2.42912 -2.92872 0
M  V30 9339 H 857.492 0.822017 -3.79295 0
M  V30 9340 H 855.593 2.8537 -2.39572 0
M  V30 9341 H 855.706 2.3071 -4.19892 0
M  V30 9342 H 854.07 1.31043 -2.18403 0
M  V30 9343 H 854.853 0.193594 -3.42754 0
M  V30 9344 N 857.298 1.47698 0.54982 0
M  V30 9345 C 858.575 1.45185 1.31075 0
M  V30 9346 C 858.955 0.152768 2.10547 0
M  V30 9347 O 858.303 -0.865706 2.11466 0
M  V30 9348 C 858.513 2.70192 2.20902 0
M  V30 9349 C 859.861 3.1771 2.81683 0
M  V30 9350 O 860.885 2.70971 2.312 0
M  V30 9351 O 859.744 3.98986 3.7346 0
M  V30 9352 H 856.838 0.57892 0.590577 0
M  V30 9353 H 859.384 1.59908 0.568112 0
M  V30 9354 H 858.156 3.56269 1.61828 0
M  V30 9355 H 857.779 2.58091 3.02448 0
M  V30 9356 N 858.776 -0.797141 1.35954 0
M  V30 9357 C 860.024 -1.55161 1.29497 0
M  V30 9358 C 860.345 -1.94582 -0.127659 0
M  V30 9359 O 859.615 -1.64343 -1.06622 0
M  V30 9360 H 858.195 -0.575413 0.47635 0
M  V30 9361 H 860.857 -0.950282 1.70164 0
M  V30 9362 H 859.953 -2.46272 1.9172 0
M  V30 9363 N 860.254 -1.20106 -1.0204 0
M  V30 9364 C 861.482 -1.0344 -1.79186 0
M  V30 9365 C 861.897 0.416542 -1.84148 0
M  V30 9366 O 861.254 1.28925 -1.29168 0
M  V30 9367 C 861.305 -1.60663 -3.23836 0
M  V30 9368 O 861.026 -3.00079 -3.19193 0
M  V30 9369 C 862.527 -1.48897 -4.17546 0
M  V30 9370 H 859.747 -0.364093 -0.563629 0
M  V30 9371 H 862.291 -1.5911 -1.28469 0
M  V30 9372 H 860.446 -1.09122 -3.71714 0
M  V30 9373 H 860.86 -3.27162 -4.09958 0
M  V30 9374 H 862.334 -1.93703 -5.16898 0
M  V30 9375 H 862.811 -0.440843 -4.36982 0
M  V30 9376 H 863.417 -1.9961 -3.75547 0
M  V30 9377 N 861.732 1.21287 -1.00634 0
M  V30 9378 C 862.979 1.90389 -0.6898 0
M  V30 9379 C 863.307 1.78193 0.779574 0
M  V30 9380 O 862.562 1.15358 1.58085 0
M  V30 9381 C 862.861 3.41374 -1.05824 0
M  V30 9382 C 862.527 3.73766 -2.5221 0
M  V30 9383 C 861.189 3.82317 -2.92211 0
M  V30 9384 C 863.541 3.88871 -3.47028 0
M  V30 9385 C 860.869 4.03423 -4.2599 0
M  V30 9386 C 863.221 4.11484 -4.80483 0
M  V30 9387 C 861.885 4.18263 -5.20204 0
M  V30 9388 H 861.155 0.696683 -0.252416 0
M  V30 9389 H 863.802 1.43769 -1.26502 0
M  V30 9390 H 862.107 3.8974 -0.401281 0
M  V30 9391 H 863.804 3.93118 -0.79116 0
M  V30 9392 H 860.394 3.67702 -2.20212 0
M  V30 9393 H 864.578 3.8163 -3.17289 0
M  V30 9394 H 859.834 4.06902 -4.56334 0
M  V30 9395 H 864.008 4.22115 -5.53888 0
M  V30 9396 H 861.635 4.34369 -6.23881 0
M  V30 9397 N 863.21 0.781244 1.36873 0
M  V30 9398 C 864.143 0.120106 2.27884 0
M  V30 9399 C 865.121 -0.698961 1.4681 0
M  V30 9400 O 866.305 -0.671694 1.76126 0
M  V30 9401 C 863.432 -0.835804 3.28226 0
M  V30 9402 C 862.478 -0.0995527 4.26384 0
M  V30 9403 S 863.311 1.21903 5.2144 0
M  V30 9404 C 864.467 0.266904 6.25331 0
M  V30 9405 H 864.7 0.891796 2.83609 0
M  V30 9406 H 862.233 0.575075 1.43291 0
M  V30 9407 H 864.191 -1.3819 3.86541 0
M  V30 9408 H 862.852 -1.58068 2.71428 0
M  V30 9409 H 862.045 -0.82457 4.97209 0
M  V30 9410 H 861.647 0.375818 3.72107 0
M  V30 9411 H 863.939 -0.55725 6.75204 0
M  V30 9412 H 864.882 0.943603 7.01785 0
M  V30 9413 H 865.29 -0.126121 5.64359 0
M  V30 9414 N 864.689 -1.48329 0.532571 0
M  V30 9415 C 865.966 -1.95492 -0.0650985 0
M  V30 9416 C 866.346 -1.47485 -1.51034 0
M  V30 9417 O 865.694 -0.702516 -2.17433 0
M  V30 9418 C 865.904 -3.48957 0.0548341 0
M  V30 9419 C 867.252 -4.24475 -0.103115 0
M  V30 9420 O 868.276 -3.56195 -0.0188343 0
M  V30 9421 O 867.135 -5.45781 -0.280164 0
M  V30 9422 H 864.229 -0.823327 -0.0778603 0
M  V30 9423 H 866.775 -1.58839 0.597353 0
M  V30 9424 H 865.547 -3.76628 1.06148 0
M  V30 9425 H 865.17 -3.92311 -0.64635 0
M  V30 9426 N 866.167 -0.267825 -1.55308 0
M  V30 9427 C 867.413 0.34458 -2.0046 0
M  V30 9428 C 867.768 1.54028 -1.15296 0
M  V30 9429 O 867.061 1.90409 -0.213316 0
M  V30 9430 C 867.255 0.784247 -3.48689 0
M  V30 9431 C 867.084 -0.367304 -4.48197 0
M  V30 9432 C 865.854 -0.848746 -4.98121 0
M  V30 9433 C 868.052 -1.20136 -5.00072 0
M  V30 9434 N 866.034 -1.97052 -5.81415 0
M  V30 9435 C 867.405 -2.17115 -5.80742 0
M  V30 9436 C 869.46 -1.23553 -4.82327 0
M  V30 9437 C 868.163 -3.17248 -6.45559 0
M  V30 9438 C 870.189 -2.22527 -5.47938 0
M  V30 9439 C 869.551 -3.1824 -6.28413 0
M  V30 9440 H 865.65 0.091465 -0.776633 0
M  V30 9441 H 868.234 -0.390184 -1.9075 0
M  V30 9442 H 866.405 1.48825 -3.58756 0
M  V30 9443 H 868.137 1.37337 -3.80684 0
M  V30 9444 H 864.892 -0.429291 -4.7165 0
M  V30 9445 H 865.316 -2.53481 -6.27755 0
M  V30 9446 H 869.958 -0.50937 -4.1972 0
M  V30 9447 H 867.676 -3.90801 -7.07319 0
M  V30 9448 H 871.262 -2.25904 -5.36152 0
M  V30 9449 H 870.142 -3.93573 -6.78285 0
M  V30 9450 N 867.645 1.57599 0.00500368 0
M  V30 9451 C 868.555 2.11532 1.01446 0
M  V30 9452 C 869.571 1.05941 1.3803 0
M  V30 9453 O 870.747 1.37815 1.46864 0
M  V30 9454 C 867.812 2.60382 2.28915 0
M  V30 9455 C 866.873 3.80554 1.98689 0
M  V30 9456 C 866.106 4.27064 3.20081 0
M  V30 9457 O 866.329 3.72939 4.31593 0
M  V30 9458 O 865.263 5.1927 3.04371 0
M  V30 9459 H 869.089 2.97993 0.586011 0
M  V30 9460 H 866.674 1.47718 0.223519 0
M  V30 9461 H 868.556 2.92024 3.03809 0
M  V30 9462 H 867.231 1.77022 2.71007 0
M  V30 9463 H 866.138 3.53893 1.21286 0
M  V30 9464 H 867.471 4.64972 1.61437 0
M  V30 9465 N 869.123 -0.277682 1.55134 0
M  V30 9466 C 870.37 -1.0099 1.7552 0
M  V30 9467 C 870.698 -1.86452 0.553712 0
M  V30 9468 O 869.953 -1.90122 -0.463896 0
M  V30 9469 C 870.252 -1.92599 3.01065 0
M  V30 9470 C 869.918 -1.22926 4.3382 0
M  V30 9471 C 868.58 -1.03659 4.69902 0
M  V30 9472 C 870.932 -0.733071 5.16019 0
M  V30 9473 C 868.26 -0.334933 5.85743 0
M  V30 9474 C 870.612 -0.0450319 6.32584 0
M  V30 9475 C 869.276 0.159393 6.6731 0
M  V30 9476 H 868.546 -0.36955 0.642273 0
M  V30 9477 H 871.193 -0.282611 1.89403 0
M  V30 9478 H 869.498 -2.71934 2.82062 0
M  V30 9479 H 871.195 -2.49367 3.14034 0
M  V30 9480 H 867.785 -1.38933 4.05457 0
M  V30 9481 H 871.969 -0.869565 4.88623 0
M  V30 9482 H 867.225 -0.165783 6.11175 0
M  V30 9483 H 871.399 0.34723 6.95534 0
M  V30 9484 H 869.026 0.70507 7.56923 0
M  V30 9485 N 870.601 -1.47988 -0.541979 0
M  V30 9486 C 871.548 -1.61615 -1.6477 0
M  V30 9487 C 872.518 -0.458602 -1.59644 0
M  V30 9488 O 873.703 -0.680585 -1.78249 0
M  V30 9489 C 870.843 -1.65066 -3.03063 0
M  V30 9490 C 869.956 -2.91845 -3.18513 0
M  V30 9491 C 869.091 -2.86534 -4.47294 0
M  V30 9492 C 868.13 -4.0807 -4.5623 0
M  V30 9493 N 867.267 -4.00905 -5.76385 0
M  V30 9494 H 872.107 -2.56046 -1.52461 0
M  V30 9495 H 869.644 -1.26989 -0.742449 0
M  V30 9496 H 871.602 -1.65049 -3.83164 0
M  V30 9497 H 870.232 -0.74136 -3.14171 0
M  V30 9498 H 869.284 -3.01661 -2.31743 0
M  V30 9499 H 870.596 -3.81804 -3.20978 0
M  V30 9500 H 869.75 -2.84851 -5.35672 0
M  V30 9501 H 868.489 -1.94283 -4.47332 0
M  V30 9502 H 867.494 -4.10041 -3.66261 0
M  V30 9503 H 868.719 -5.01465 -4.5794 0
M  V30 9504 H 866.665 -3.11467 -5.77342 0
M  V30 9505 H 866.582 -4.84557 -5.80293 0
M  V30 9506 H 867.85 -4.03263 -6.67083 0
M  V30 9507 N 872.079 0.78992 -1.36375 0
M  V30 9508 C 873.328 1.54296 -1.29906 0
M  V30 9509 C 873.641 1.95234 0.119651 0
M  V30 9510 O 874.847 2.69762 0.306708 0
M  V30 9511 C 873.303 2.78533 -2.27919 0
M  V30 9512 C 872.911 2.44767 -3.75224 0
M  V30 9513 C 874.655 3.56516 -2.30427 0
M  V30 9514 C 872.562 3.65397 -4.65015 0
M  V30 9515 H 871.492 0.579214 -0.482729 0
M  V30 9516 H 874.143 0.866845 -1.61735 0
M  V30 9517 H 872.525 3.47941 -1.89084 0
M  V30 9518 H 873.699 1.83259 -4.22792 0
M  V30 9519 H 872.014 1.79996 -3.75487 0
M  V30 9520 H 874.611 4.46143 -2.94722 0
M  V30 9521 H 874.954 3.95063 -1.31266 0
M  V30 9522 H 875.487 2.94087 -2.67876 0
M  V30 9523 H 872.226 3.31946 -5.65236 0
M  V30 9524 H 871.746 4.26072 -4.22164 0
M  V30 9525 H 873.425 4.32431 -4.81261 0
M  V30 9526 N 873.557 1.20646 1.01402 0
M  V30 9527 C 874.782 1.04462 1.79172 0
M  V30 9528 C 875.207 -0.401588 1.83763 0
M  V30 9529 O 874.565 -1.28934 1.27459 0
M  V30 9530 C 874.613 1.63583 3.21361 0
M  V30 9531 O 873.717 0.875198 4.03006 0
M  V30 9532 H 873.058 0.368235 0.552539 0
M  V30 9533 H 875.588 1.59994 1.27526 0
M  V30 9534 H 875.598 1.67426 3.72065 0
M  V30 9535 H 874.273 2.68835 3.17334 0
M  V30 9536 H 872.85 0.911172 3.61597 0
M  V30 9537 N 875.035 -1.20752 1.01276 0
M  V30 9538 C 876.281 -1.90302 0.700924 0
M  V30 9539 C 876.614 -1.78406 -0.767142 0
M  V30 9540 O 875.889 -1.16575 -1.55694 0
M  V30 9541 C 876.172 -3.41831 1.13242 0
M  V30 9542 C 876.025 -3.6268 2.66051 0
M  V30 9543 C 877.344 -4.34486 0.700738 0
M  V30 9544 H 874.463 -0.69107 0.256107 0
M  V30 9545 H 877.105 -1.42227 1.25982 0
M  V30 9546 H 875.255 -3.82906 0.656902 0
M  V30 9547 H 876.927 -3.30882 3.21426 0
M  V30 9548 H 875.17 -3.06281 3.07204 0
M  V30 9549 H 875.841 -4.68882 2.91296 0
M  V30 9550 H 878.317 -4.01036 1.10948 0
M  V30 9551 H 877.193 -5.39136 1.03073 0
M  V30 9552 H 877.454 -4.40307 -0.39778 0
M  V30 9553 N 876.513 -0.788492 -1.36457 0
M  V30 9554 C 877.443 -0.200468 -2.32638 0
M  V30 9555 C 878.424 0.664031 -1.56603 0
M  V30 9556 O 879.609 0.598045 -1.84762 0
M  V30 9557 C 876.739 0.666274 -3.40849 0
M  V30 9558 C 875.693 -0.0982574 -4.27887 0
M  V30 9559 C 875.019 0.889018 -5.27258 0
M  V30 9560 C 876.319 -1.28692 -5.06197 0
M  V30 9561 H 878.013 -1.00399 -2.82065 0
M  V30 9562 H 875.559 -0.484237 -1.35614 0
M  V30 9563 H 877.512 1.08757 -4.07124 0
M  V30 9564 H 876.236 1.50249 -2.89987 0
M  V30 9565 H 874.895 -0.500525 -3.63167 0
M  V30 9566 H 874.543 1.72024 -4.7267 0
M  V30 9567 H 874.243 0.381909 -5.86358 0
M  V30 9568 H 875.767 1.30891 -5.96406 0
M  V30 9569 H 877.181 -0.941429 -5.65517 0
M  V30 9570 H 875.578 -1.72726 -5.74705 0
M  V30 9571 H 876.648 -2.08273 -4.37893 0
M  V30 9572 N 877.991 1.48044 -0.54043 0
M  V30 9573 C 879.221 2.06595 -0.0144943 0
M  V30 9574 C 879.629 1.39593 1.27713 0
M  V30 9575 O 878.972 0.480794 1.77297 0
M  V30 9576 C 879.034 3.5849 0.269316 0
M  V30 9577 C 878.698 4.47429 -0.930372 0
M  V30 9578 C 879.695 4.8657 -1.83155 0
M  V30 9579 C 877.38 4.89185 -1.14032 0
M  V30 9580 C 879.374 5.66246 -2.92649 0
M  V30 9581 C 877.061 5.6863 -2.23838 0
M  V30 9582 C 878.059 6.07069 -3.12979 0
M  V30 9583 O 877.747 6.84917 -4.20884 0
M  V30 9584 H 877.479 0.675086 -0.0351467 0
M  V30 9585 H 880.033 1.91275 -0.74853 0
M  V30 9586 H 878.263 3.71961 1.05745 0
M  V30 9587 H 879.952 3.99124 0.738595 0
M  V30 9588 H 880.718 4.54924 -1.68134 0
M  V30 9589 H 876.597 4.58742 -0.455717 0
M  V30 9590 H 880.141 5.96169 -3.62254 0
M  V30 9591 H 876.038 5.99688 -2.38839 0
M  V30 9592 H 876.806 7.03287 -4.18723 0
M  V30 9593 N 879.47 0.276058 1.55163 0
M  V30 9594 C 880.747 -0.392292 1.91626 0
M  V30 9595 C 881.127 -1.73646 1.20043 0
M  V30 9596 O 880.475 -2.26139 0.327606 0
M  V30 9597 C 880.685 -0.531641 3.44927 0
M  V30 9598 C 882.033 -0.8141 4.16722 0
M  V30 9599 O 883.057 -0.616413 3.50826 0
M  V30 9600 O 881.916 -1.19224 5.33337 0
M  V30 9601 H 879.01 -0.214945 0.798579 0
M  V30 9602 H 881.556 0.32228 1.66612 0
M  V30 9603 H 880.328 0.414282 3.89101 0
M  V30 9604 H 879.951 -1.29564 3.75897 0
M  V30 9605 N 880.948 -1.576 0.00335426 0
M  V30 9606 C 882.197 -1.89892 -0.680001 0
M  V30 9607 C 882.51 -0.878731 -1.7475 0
M  V30 9608 O 883.716 -1.09199 -2.48572 0
M  V30 9609 C 882.172 -3.37098 -1.26066 0
M  V30 9610 C 881.78 -4.4742 -0.227807 0
M  V30 9611 C 883.524 -3.78495 -1.92202 0
M  V30 9612 C 881.431 -5.85706 -0.81865 0
M  V30 9613 H 880.361 -0.708578 -0.257746 0
M  V30 9614 H 883.012 -1.83387 0.0644472 0
M  V30 9615 H 881.394 -3.38451 -2.05589 0
M  V30 9616 H 882.568 -4.57589 0.54307 0
M  V30 9617 H 880.883 -4.15064 0.333297 0
M  V30 9618 H 883.48 -4.7915 -2.37318 0
M  V30 9619 H 883.823 -3.12187 -2.75399 0
M  V30 9620 H 884.356 -3.79456 -1.19408 0
M  V30 9621 H 881.095 -6.55495 -0.0253787 0
M  V30 9622 H 880.615 -5.79196 -1.55861 0
M  V30 9623 H 882.294 -6.33469 -1.31627 0
M  V30 9624 N 882.426 0.269451 -1.5528 0
M  V30 9625 C 883.389 1.31642 -1.87625 0
M  V30 9626 C 884.389 1.42182 -0.751058 0
M  V30 9627 O 885.579 1.41272 -1.01921 0
M  V30 9628 C 882.711 2.6973 -2.08467 0
M  V30 9629 H 883.904 1.0419 -2.81219 0
M  V30 9630 H 881.457 0.507685 -1.47825 0
M  V30 9631 H 882.192 3.02356 -1.17266 0
M  V30 9632 H 881.977 2.63465 -2.90394 0
M  V30 9633 H 883.467 3.4537 -2.34753 0
M  V30 9634 N 883.904 1.48273 0.534124 0
M  V30 9635 C 884.851 1.62487 1.6391 0
M  V30 9636 C 885.821 0.467062 1.59398 0
M  V30 9637 O 887.006 0.690029 1.77885 0
M  V30 9638 C 884.146 1.66671 3.02183 0
M  V30 9639 C 883.259 2.9353 3.16961 0
M  V30 9640 C 882.394 2.88902 4.45768 0
M  V30 9641 C 881.433 4.10483 4.54059 0
M  V30 9642 N 880.57 4.03956 5.74251 0
M  V30 9643 H 885.41 2.56851 1.51101 0
M  V30 9644 H 882.947 1.27381 0.735704 0
M  V30 9645 H 884.905 1.67079 3.82283 0
M  V30 9646 H 883.535 0.758011 3.13774 0
M  V30 9647 H 882.587 3.02886 2.3014 0
M  V30 9648 H 883.899 3.83501 3.18949 0
M  V30 9649 H 883.053 2.87688 5.34154 0
M  V30 9650 H 881.792 1.96652 4.46295 0
M  V30 9651 H 880.797 4.11977 3.64081 0
M  V30 9652 H 882.022 5.03887 4.55274 0
M  V30 9653 H 879.968 3.14525 5.75682 0
M  V30 9654 H 879.885 4.87628 5.77715 0
M  V30 9655 H 881.153 4.06795 6.64935 0
M  V30 9656 N 885.382 -0.782676 1.36792 0
M  V30 9657 C 886.63 -1.53778 1.31136 0
M  V30 9658 C 886.951 -1.94706 -0.107014 0
M  V30 9659 O 886.221 -1.65465 -1.04872 0
M  V30 9660 H 884.801 -0.570328 0.482426 0
M  V30 9661 H 887.463 -0.932181 1.71162 0
M  V30 9662 H 886.559 -2.44224 1.94321 0
M  V30 9663 N 886.86 -1.21182 -1.00761 0
M  V30 9664 C 887.793 -0.912033 -2.09182 0
M  V30 9665 C 888.771 0.139421 -1.62001 0
M  V30 9666 O 889.955 0.0110272 -1.88497 0
M  V30 9667 C 887.082 -0.368957 -3.36684 0
M  V30 9668 C 886.128 -1.4028 -4.0277 0
M  V30 9669 S 886.961 -2.97108 -4.45519 0
M  V30 9670 C 888.117 -2.444 -5.76211 0
M  V30 9671 H 888.35 -1.83019 -2.34289 0
M  V30 9672 H 885.883 -1.04127 -1.14004 0
M  V30 9673 H 887.841 -0.0621883 -4.10453 0
M  V30 9674 H 886.502 0.527841 -3.09633 0
M  V30 9675 H 885.695 -0.97238 -4.94531 0
M  V30 9676 H 885.297 -1.65752 -3.35265 0
M  V30 9677 H 887.589 -1.84723 -6.51831 0
M  V30 9678 H 888.532 -3.34593 -6.24062 0
M  V30 9679 H 888.94 -1.86203 -5.32906 0
M  V30 9680 N 888.338 1.20213 -1.01915 0
M  V30 9681 C 889.563 1.94163 -0.729076 0
M  V30 9682 C 889.988 1.74416 0.704323 0
M  V30 9683 O 889.346 1.0401 1.48498 0
M  V30 9684 C 889.394 3.44258 -1.07324 0
M  V30 9685 O 888.498 4.11979 -0.186367 0
M  V30 9686 H 887.839 0.606506 -0.270272 0
M  V30 9687 H 890.369 1.52571 -1.3632 0
M  V30 9688 H 890.379 3.94888 -1.02603 0
M  V30 9689 H 889.054 3.57954 -2.11759 0
M  V30 9690 H 887.631 3.7176 -0.291334 0
M  V30 9691 N 889.816 0.795718 1.36037 0
M  V30 9692 C 891.046 0.382597 2.03026 0
M  V30 9693 C 891.454 -1.00779 1.60126 0
M  V30 9694 O 890.797 -1.65884 0.78919 0
M  V30 9695 C 890.859 0.374145 3.57548 0
M  V30 9696 C 890.523 1.71318 4.23673 0
M  V30 9697 C 891.52 2.6697 4.4612 0
M  V30 9698 C 889.205 1.99421 4.61017 0
M  V30 9699 C 891.199 3.88916 5.04998 0
M  V30 9700 C 888.886 3.21632 5.19611 0
M  V30 9701 C 889.884 4.16198 5.41542 0
M  V30 9702 O 889.572 5.36254 5.98905 0
M  V30 9703 H 889.304 0.154944 0.658003 0
M  V30 9704 H 891.858 1.07756 1.74865 0
M  V30 9705 H 890.088 -0.377349 3.84854 0
M  V30 9706 H 891.777 -0.01517 4.05897 0
M  V30 9707 H 892.543 2.46548 4.17659 0
M  V30 9708 H 888.422 1.2663 4.43267 0
M  V30 9709 H 891.966 4.6274 5.22032 0
M  V30 9710 H 887.863 3.4193 5.47498 0
M  V30 9711 H 888.631 5.37403 6.17366 0
M  V30 9712 N 891.294 -1.47756 0.548274 0
M  V30 9713 C 892.224 -2.32702 -0.19284 0
M  V30 9714 C 893.205 -1.43237 -0.917457 0
M  V30 9715 O 894.39 -1.72103 -0.89967 0
M  V30 9716 C 891.52 -3.24831 -1.22891 0
M  V30 9717 C 890.474 -4.23466 -0.621312 0
M  V30 9718 C 889.8 -5.04856 -1.76137 0
M  V30 9719 C 891.1 -5.20616 0.419055 0
M  V30 9720 H 892.794 -2.94914 0.516323 0
M  V30 9721 H 890.34 -1.41818 0.24975 0
M  V30 9722 H 892.293 -3.83094 -1.75547 0
M  V30 9723 H 891.017 -2.60656 -1.9679 0
M  V30 9724 H 889.676 -3.66416 -0.116123 0
M  V30 9725 H 889.324 -4.37091 -2.48918 0
M  V30 9726 H 889.024 -5.71629 -1.36065 0
M  V30 9727 H 890.548 -5.65976 -2.29136 0
M  V30 9728 H 891.962 -5.73296 -0.0211034 0
M  V30 9729 H 890.359 -5.95543 0.738163 0
M  V30 9730 H 891.429 -4.66638 1.31822 0
M  V30 9731 N 892.772 -0.284283 -1.55015 0
M  V30 9732 C 893.722 0.613913 -2.19579 0
M  V30 9733 C 894.706 1.11153 -1.16335 0
M  V30 9734 O 895.898 1.05508 -1.42116 0
M  V30 9735 C 893.027 1.79329 -2.92739 0
M  V30 9736 C 892.113 1.31242 -4.03282 0
M  V30 9737 N 892.504 0.548344 -5.02819 0
M  V30 9738 C 890.802 1.5946 -4.1652 0
M  V30 9739 C 891.503 0.294358 -5.80955 0
M  V30 9740 N 890.479 0.869406 -5.36603 0
M  V30 9741 H 894.281 0.0224088 -2.93891 0
M  V30 9742 H 891.795 -0.0882619 -1.6216 0
M  V30 9743 H 893.792 2.44814 -3.37449 0
M  V30 9744 H 892.452 2.38865 -2.1994 0
M  V30 9745 H 893.463 0.194812 -5.17533 0
M  V30 9746 H 890.14 2.19866 -3.54916 0
M  V30 9747 H 891.53 -0.318195 -6.71146 0
M  V30 9748 N 894.251 1.57596 -0.0117121 0
M  V30 9749 C 895.476 1.95764 0.684938 0
M  V30 9750 C 895.901 0.887285 1.65858 0
M  V30 9751 O 895.259 -0.153508 1.80649 0
M  V30 9752 C 895.307 3.33031 1.38285 0
M  V30 9753 O 894.411 3.28163 2.49765 0
M  V30 9754 H 893.752 0.638767 0.181309 0
M  V30 9755 H 896.282 2.04486 -0.0683883 0
M  V30 9756 H 896.292 3.68866 1.74362 0
M  V30 9757 H 894.967 4.10483 0.669043 0
M  V30 9758 H 893.544 3.04021 2.15929 0
M  V30 9759 N 895.729 -0.261212 1.5542 0
M  V30 9760 C 896.954 -1.01341 1.80955 0
M  V30 9761 C 897.379 -1.78711 0.586849 0
M  V30 9762 O 896.737 -1.75266 -0.463837 0
M  V30 9763 C 896.785 -1.93835 3.04073 0
M  V30 9764 O 895.889 -3.02791 2.79985 0
M  V30 9765 H 895.23 -0.289123 0.597749 0
M  V30 9766 H 897.76 -0.286543 2.02584 0
M  V30 9767 H 897.77 -2.3557 3.33123 0
M  V30 9768 H 896.445 -1.36936 3.9271 0
M  V30 9769 H 895.022 -2.65287 2.62063 0
M  V30 9770 N 897.207 -1.48554 -0.526253 0
M  V30 9771 C 898.154 -1.63354 -1.63046 0
M  V30 9772 C 899.124 -0.475509 -1.59148 0
M  V30 9773 O 900.309 -0.699453 -1.77517 0
M  V30 9774 C 897.449 -1.68271 -3.01295 0
M  V30 9775 C 896.562 -2.95207 -3.15399 0
M  V30 9776 C 895.697 -2.91262 -4.4423 0
M  V30 9777 C 894.736 -4.12886 -4.51876 0
M  V30 9778 N 893.873 -4.06996 -5.721 0
M  V30 9779 H 898.713 -2.57649 -1.49737 0
M  V30 9780 H 896.25 -1.27769 -0.728938 0
M  V30 9781 H 898.208 -1.69104 -3.81392 0
M  V30 9782 H 896.838 -0.774641 -3.13367 0
M  V30 9783 H 895.89 -3.04102 -2.2853 0
M  V30 9784 H 897.202 -3.85187 -3.1691 0
M  V30 9785 H 896.356 -2.90516 -5.32621 0
M  V30 9786 H 895.095 -1.99016 -4.45246 0
M  V30 9787 H 894.1 -4.13902 -3.61891 0
M  V30 9788 H 895.325 -5.06294 -4.52596 0
M  V30 9789 H 893.271 -3.17573 -5.74006 0
M  V30 9790 H 893.188 -4.90685 -5.75121 0
M  V30 9791 H 894.456 -4.10315 -6.62768 0
M  V30 9792 N 898.685 0.775411 -1.37205 0
M  V30 9793 C 899.913 1.56446 -1.35397 0
M  V30 9794 C 900.328 1.887 0.0615437 0
M  V30 9795 O 899.685 1.51178 1.02233 0
M  V30 9796 C 899.736 2.87697 -2.18889 0
M  V30 9797 O 899.457 2.56828 -3.54924 0
M  V30 9798 C 900.958 3.81944 -2.25019 0
M  V30 9799 H 898.178 0.484792 -0.463916 0
M  V30 9800 H 900.722 0.961346 -1.80495 0
M  V30 9801 H 898.877 3.44442 -1.7731 0
M  V30 9802 H 899.291 3.40851 -3.98649 0
M  V30 9803 H 900.765 4.71055 -2.87769 0
M  V30 9804 H 901.242 4.20811 -1.25757 0
M  V30 9805 H 901.848 3.3113 -2.66895 0
M  V30 9806 N 900.163 1.21714 1.00117 0
M  V30 9807 C 901.073 0.99597 2.12409 0
M  V30 9808 C 902.089 -0.0531431 1.73919 0
M  V30 9809 O 903.265 0.137757 2.00928 0
M  V30 9810 C 900.33 0.567593 3.42022 0
M  V30 9811 C 899.391 1.68936 3.94663 0
M  V30 9812 C 898.624 1.28133 5.1809 0
M  V30 9813 O 898.847 0.156574 5.70185 0
M  V30 9814 O 897.781 2.0947 5.64275 0
M  V30 9815 H 901.607 1.93657 2.33946 0
M  V30 9816 H 899.192 1.00236 1.10784 0
M  V30 9817 H 901.074 0.338664 4.20037 0
M  V30 9818 H 899.749 -0.34424 3.21864 0
M  V30 9819 H 898.656 1.97274 3.17858 0
M  V30 9820 H 899.989 2.57876 4.19238 0
M  V30 9821 N 901.641 -1.19671 1.02551 0
M  V30 9822 C 902.887 -1.89548 0.721069 0
M  V30 9823 C 903.22 -1.79209 -0.748176 0
M  V30 9824 O 902.495 -1.1822 -1.54448 0
M  V30 9825 C 902.778 -3.4061 1.16861 0
M  V30 9826 C 902.631 -3.59838 2.69883 0
M  V30 9827 C 903.95 -4.33718 0.746782 0
M  V30 9828 H 901.069 -0.688315 0.263422 0
M  V30 9829 H 903.711 -1.40883 1.27483 0
M  V30 9830 H 901.861 -3.82188 0.697477 0
M  V30 9831 H 903.533 -3.27454 3.24917 0
M  V30 9832 H 901.776 -3.03005 3.10435 0
M  V30 9833 H 902.447 -4.65766 2.96253 0
M  V30 9834 H 904.923 -3.99837 1.15195 0
M  V30 9835 H 903.799 -5.38012 1.08786 0
M  V30 9836 H 904.06 -4.40704 -0.351057 0
M  V30 9837 N 903.119 -0.802921 -1.35613 0
M  V30 9838 C 904.069 -0.183492 -2.2726 0
M  V30 9839 C 905.053 0.640527 -1.47601 0
M  V30 9840 O 906.245 0.498386 -1.69838 0
M  V30 9841 C 903.374 0.67003 -3.36698 0
M  V30 9842 C 902.46 -0.163517 -4.23785 0
M  V30 9843 N 902.851 -1.22472 -4.90749 0
M  V30 9844 C 901.149 0.0554547 -4.45966 0
M  V30 9845 C 901.85 -1.73329 -5.55276 0
M  V30 9846 N 900.826 -1.04033 -5.33552 0
M  V30 9847 H 904.628 -0.995525 -2.76526 0
M  V30 9848 H 902.142 -0.643714 -1.49098 0
M  V30 9849 H 904.139 1.12981 -4.01299 0
M  V30 9850 H 902.799 1.48045 -2.88986 0
M  V30 9851 H 903.81 -1.60733 -4.92327 0
M  V30 9852 H 900.487 0.835312 -4.09058 0
M  V30 9853 H 901.877 -2.62 -6.18713 0
M  V30 9854 N 904.597 1.47463 -0.556102 0
M  V30 9855 C 905.845 2.02075 -0.0315712 0
M  V30 9856 C 906.166 1.43292 1.32259 0
M  V30 9857 O 905.436 0.60771 1.86236 0
M  V30 9858 H 904.016 0.74695 -0.0086816 0
M  V30 9859 H 906.678 1.80879 -0.725859 0
M  V30 9860 H 905.774 3.12047 0.0573538 0
M  V30 9861 N 906.075 0.2925 1.54862 0
M  V30 9862 C 907.491 -0.0611461 1.59483 0
M  V30 9863 C 907.691 -1.53141 1.30958 0
M  V30 9864 O 906.747 -2.28291 1.07887 0
M  V30 9865 C 908.06 0.329143 2.98893 0
M  V30 9866 C 909.608 0.2772 3.1177 0
M  V30 9867 C 910.083 0.642185 4.53475 0
M  V30 9868 N 911.574 0.594396 4.5937 0
M  V30 9869 C 912.309 0.849385 5.67074 0
M  V30 9870 N 911.805 1.1699 6.82851 0
M  V30 9871 N 913.598 0.777016 5.56704 0
M  V30 9872 H 905.749 1.25079 1.71665 0
M  V30 9873 H 908.012 0.506516 0.80134 0
M  V30 9874 H 907.718 1.35233 3.24661 0
M  V30 9875 H 907.592 -0.321442 3.75828 0
M  V30 9876 H 909.979 -0.736725 2.85756 0
M  V30 9877 H 910.06 0.962289 2.3701 0
M  V30 9878 H 909.704 1.65388 4.80218 0
M  V30 9879 H 909.634 -0.0648831 5.2656 0
M  V30 9880 H 912.125 0.357256 3.76208 0
M  V30 9881 H 912.438 1.35067 7.60905 0
M  V30 9882 H 910.783 1.20785 6.84424 0
M  V30 9883 H 913.974 0.526333 4.65132 0
M  V30 9884 H 914.147 0.979113 6.4056 0
M  V30 9885 N 907.553 -1.57587 0.0200696 0
M  V30 9886 C 908.483 -2.12702 -0.963333 0
M  V30 9887 C 909.464 -1.04094 -1.34531 0
M  V30 9888 O 910.649 -1.31881 -1.42552 0
M  V30 9889 C 907.779 -2.64673 -2.24868 0
M  V30 9890 C 906.733 -3.77987 -2.00772 0
M  V30 9891 C 906.059 -4.16351 -3.35494 0
M  V30 9892 C 907.359 -5.0444 -1.35416 0
M  V30 9893 H 909.053 -2.95121 -0.504363 0
M  V30 9894 H 906.599 -1.41966 -0.24116 0
M  V30 9895 H 908.552 -3.01862 -2.94036 0
M  V30 9896 H 907.276 -1.79403 -2.72914 0
M  V30 9897 H 905.935 -3.41223 -1.34025 0
M  V30 9898 H 905.583 -3.28075 -3.81282 0
M  V30 9899 H 905.283 -4.92705 -3.20181 0
M  V30 9900 H 906.807 -4.56115 -4.05945 0
M  V30 9901 H 908.221 -5.39273 -1.94571 0
M  V30 9902 H 906.618 -5.85732 -1.30529 0
M  V30 9903 H 907.688 -4.83803 -0.325923 0
M  V30 9904 N 909.032 0.252966 -1.55557 0
M  V30 9905 C 909.979 1.3131 -1.89806 0
M  V30 9906 C 910.949 1.48121 -0.751633 0
M  V30 9907 O 912.134 1.62202 -1.00474 0
M  V30 9908 C 909.274 2.66467 -2.19293 0
M  V30 9909 C 908.387 2.57714 -3.46709 0
M  V30 9910 C 907.522 3.85184 -3.65796 0
M  V30 9911 C 906.561 3.71023 -4.86835 0
M  V30 9912 N 905.698 4.90371 -5.02474 0
M  V30 9913 H 910.538 1.01402 -2.80217 0
M  V30 9914 H 908.075 0.489462 -1.38718 0
M  V30 9915 H 910.033 3.45132 -2.34392 0
M  V30 9916 H 908.663 2.94536 -1.32093 0
M  V30 9917 H 907.715 1.70651 -3.39974 0
M  V30 9918 H 909.027 2.43158 -4.35517 0
M  V30 9919 H 908.181 4.72292 -3.80822 0
M  V30 9920 H 906.92 4.0263 -2.7521 0
M  V30 9921 H 905.925 2.82299 -4.71792 0
M  V30 9922 H 907.15 3.55078 -5.78875 0
M  V30 9923 H 905.096 5.0819 -4.14824 0
M  V30 9924 H 905.013 4.78423 -5.85361 0
M  V30 9925 H 906.281 5.78995 -5.21905 0
M  V30 9926 N 910.51 1.48831 0.518367 0
M  V30 9927 C 911.735 1.61379 1.30275 0
M  V30 9928 C 912.16 0.278571 1.86026 0
M  V30 9929 O 911.518 -0.751427 1.64995 0
M  V30 9930 C 911.566 2.67225 2.42122 0
M  V30 9931 O 910.67 2.25192 3.45489 0
M  V30 9932 H 910.011 0.540742 0.385349 0
M  V30 9933 H 912.541 1.949 0.622498 0
M  V30 9934 H 912.551 2.88859 2.8814 0
M  V30 9935 H 911.226 3.64155 2.00907 0
M  V30 9936 H 909.803 2.13819 3.05509 0
M  V30 9937 N 911.988 -0.768124 1.37614 0
M  V30 9938 C 913.216 -1.55726 1.36224 0
M  V30 9939 C 913.631 -1.8873 -0.0515357 0
M  V30 9940 O 912.988 -1.51718 -1.0143 0
M  V30 9941 C 913.039 -2.86533 2.20412 0
M  V30 9942 O 912.76 -2.54942 3.56281 0
M  V30 9943 C 914.261 -3.80745 2.27041 0
M  V30 9944 H 911.481 -0.482325 0.46648 0
M  V30 9945 H 914.025 -0.95176 1.81002 0
M  V30 9946 H 912.18 -3.43496 1.79134 0
M  V30 9947 H 912.594 -3.38732 4.00451 0
M  V30 9948 H 914.068 -4.69523 2.90263 0
M  V30 9949 H 914.545 -4.20138 1.27987 0
M  V30 9950 H 915.151 -3.2971 2.68647 0
M  V30 9951 N 913.466 -1.22244 -0.994698 0
M  V30 9952 C 914.414 -0.988118 -2.10568 0
M  V30 9953 C 915.408 0.0681541 -1.69263 0
M  V30 9954 O 916.614 -0.0841311 -1.79803 0
M  V30 9955 H 912.989 -0.302343 -0.688544 0
M  V30 9956 H 914.96 -1.93091 -2.27505 0
M  V30 9957 C 913.709 -0.580557 -3.42819 0
M  V30 9958 H 913.032 -1.385 -3.75044 0
M  V30 9959 H 914.472 -0.456004 -4.21541 0
M  V30 9960 C 912.931 0.709692 -3.2934 0
M  V30 9961 O 913.461 1.76259 -3.60965 0
M  V30 9962 N 911.667 0.680155 -2.82528 0
M  V30 9963 H 911.214 -0.176977 -2.56991 0
M  V30 9964 H 911.172 1.54372 -2.73892 0
M  V30 9965 N 914.944 1.19125 -1.03184 0
M  V30 9966 C 916.184 1.90582 -0.738785 0
M  V30 9967 C 916.548 1.78004 0.719627 0
M  V30 9968 O 917.749 2.44084 1.12589 0
M  V30 9969 C 916.02 3.37319 -1.18114 0
M  V30 9970 S 917.579 4.26962 -1.01238 0
M  V30 9971 H 914.397 0.6582 -0.268875 0
M  V30 9972 H 916.999 1.43999 -1.32229 0
M  V30 9973 H 915.703 3.43999 -2.23814 0
M  V30 9974 H 915.234 3.88935 -0.591051 0
M  V30 9975 H 917.249 4.96143 0.0753558 0
M  V30 9976 N 916.422 0.810101 1.35185 0
M  V30 9977 C 917.668 0.392698 1.98962 0
M  V30 9978 C 918.001 -1.03835 1.64109 0
M  V30 9979 O 917.276 -1.721 0.9062 0
M  V30 9980 C 917.559 0.580349 3.55393 0
M  V30 9981 C 917.412 2.05658 4.00031 0
M  V30 9982 C 918.731 0.00822618 4.40099 0
M  V30 9983 H 915.85 0.144157 0.722764 0
M  V30 9984 H 918.492 1.02029 1.60281 0
M  V30 9985 H 916.642 0.0461106 3.88473 0
M  V30 9986 H 918.314 2.65348 3.77344 0
M  V30 9987 H 916.557 2.55174 3.50811 0
M  V30 9988 H 917.228 2.13875 5.08883 0
M  V30 9989 H 919.704 0.464517 4.13499 0
M  V30 9990 H 918.58 0.169414 5.48638 0
M  V30 9991 H 918.841 -1.08576 4.2856 0
M  V30 9992 N 917.9 -1.47166 0.563914 0
M  V30 9993 C 919.146 -2.02756 0.0424338 0
M  V30 9994 C 919.479 -1.43662 -1.3067 0
M  V30 9995 O 918.754 -0.594676 -1.85186 0
M  V30 9996 C 919.037 -3.60074 -0.0434793 0
M  V30 9997 C 918.89 -4.29587 1.33323 0
M  V30 9998 C 920.209 -4.336 -0.753568 0
M  V30 9999 H 917.328 -0.736806 0.0168946 0
M  V30 10000 H 919.97 -1.75521 0.727496 0
M  V30 10001 H 918.12 -3.83409 -0.626906 0
M  V30 10002 H 919.792 -4.17573 1.96037 0
M  V30 10003 H 918.035 -3.8968 1.9061 0
M  V30 10004 H 918.706 -5.38218 1.22576 0
M  V30 10005 H 921.182 -4.15299 -0.258126 0
M  V30 10006 H 920.058 -5.43291 -0.782659 0
M  V30 10007 H 920.319 -4.03302 -1.81108 0
M  V30 10008 N 919.378 -0.300708 -1.54705 0
M  V30 10009 C 920.655 0.361757 -1.92226 0
M  V30 10010 C 921.035 1.71714 -1.2279 0
M  V30 10011 O 920.383 2.2559 -0.363542 0
M  V30 10012 C 920.593 0.476699 -3.45729 0
M  V30 10013 C 921.941 0.7477 -4.17965 0
M  V30 10014 O 922.965 0.560521 -3.51762 0
M  V30 10015 O 921.824 1.10724 -5.35166 0
M  V30 10016 H 918.918 0.202213 -0.801897 0
M  V30 10017 H 921.464 -0.348746 -1.66078 0
M  V30 10018 H 920.236 -0.476132 -3.88392 0
M  V30 10019 H 919.859 1.23568 -3.77911 0
M  V30 10020 N 920.856 1.57574 -0.0284266 0
M  V30 10021 C 922.081 1.96479 0.664137 0
M  V30 10022 C 922.506 0.904826 1.64908 0
M  V30 10023 O 921.864 -0.134339 1.80802 0
M  V30 10024 C 921.912 3.34479 1.34745 0
M  V30 10025 O 921.016 3.30794 2.46271 0
M  V30 10026 H 920.357 0.640654 0.174524 0
M  V30 10027 H 922.887 2.04402 -0.0900729 0
M  V30 10028 H 922.897 3.70694 1.7044 0
M  V30 10029 H 921.572 4.1117 0.625468 0
M  V30 10030 H 920.149 3.06294 2.12693 0
M  V30 10031 N 922.334 -0.244713 1.55689 0
M  V30 10032 C 923.75 -0.593331 1.48161 0
M  V30 10033 C 923.95 -1.88234 0.719047 0
M  V30 10034 O 923.006 -2.51266 0.249292 0
M  V30 10035 C 924.319 -0.694032 2.92581 0
M  V30 10036 C 925.867 -0.786213 3.02965 0
M  V30 10037 C 926.342 -0.918457 4.48696 0
M  V30 10038 N 927.833 -0.983272 4.52643 0
M  V30 10039 C 928.568 -1.1049 5.62654 0
M  V30 10040 N 928.064 -1.19193 6.8247 0
M  V30 10041 N 929.857 -1.13823 5.50455 0
M  V30 10042 H 922.008 0.601446 2.03707 0
M  V30 10043 H 924.271 0.207894 0.924924 0
M  V30 10044 H 923.977 0.183133 3.51223 0
M  V30 10045 H 923.851 -1.56525 3.4319 0
M  V30 10046 H 926.238 -1.65383 2.44402 0
M  V30 10047 H 926.319 0.110202 2.55563 0
M  V30 10048 H 925.963 -0.0553881 5.0787 0
M  V30 10049 H 925.893 -1.82994 4.93782 0
M  V30 10050 H 928.384 -0.927269 3.66347 0
M  V30 10051 H 928.697 -1.28387 7.62061 0
M  V30 10052 H 927.042 -1.16147 6.85226 0
M  V30 10053 H 930.233 -1.06673 4.55783 0
M  V30 10054 H 930.406 -1.22957 6.36228 0
M  V30 10055 N 923.813 -1.49104 -0.510467 0
M  V30 10056 C 924.746 -1.59667 -1.63039 0
M  V30 10057 C 925.724 -0.446145 -1.5636 0
M  V30 10058 O 926.908 -0.660414 -1.76552 0
M  V30 10059 C 924.035 -1.54282 -3.01521 0
M  V30 10060 C 923.081 -2.74415 -3.26494 0
M  V30 10061 S 923.914 -4.3619 -3.10643 0
M  V30 10062 C 925.07 -4.33435 -4.51536 0
M  V30 10063 H 925.303 -2.54407 -1.53833 0
M  V30 10064 H 922.836 -1.37878 -0.694916 0
M  V30 10065 H 924.794 -1.51861 -3.81377 0
M  V30 10066 H 923.455 -0.608458 -3.0815 0
M  V30 10067 H 922.648 -2.66841 -4.27565 0
M  V30 10068 H 922.25 -2.74199 -2.54344 0
M  V30 10069 H 924.542 -4.04571 -5.43441 0
M  V30 10070 H 925.485 -5.34752 -4.64162 0
M  V30 10071 H 925.893 -3.63638 -4.31773 0
M  V30 10072 N 925.291 0.760815 -1.38019 0
M  V30 10073 C 926.537 1.52198 -1.34028 0
M  V30 10074 C 926.87 1.94067 0.0718309 0
M  V30 10075 O 926.145 1.64895 1.0315 0
M  V30 10076 C 926.428 2.77954 -2.2894 0
M  V30 10077 C 926.281 2.42269 -3.7898 0
M  V30 10078 C 927.6 3.79943 -2.22107 0
M  V30 10079 H 924.719 0.552131 -0.488181 0
M  V30 10080 H 927.361 0.871971 -1.6881 0
M  V30 10081 H 925.511 3.33419 -1.9941 0
M  V30 10082 H 927.183 1.92635 -4.19153 0
M  V30 10083 H 925.426 1.74822 -3.97014 0
M  V30 10084 H 926.097 3.32211 -4.4084 0
M  V30 10085 H 928.573 3.34 -2.4816 0
M  V30 10086 H 927.449 4.6564 -2.90639 0
M  V30 10087 H 927.71 4.25004 -1.21753 0
M  V30 10088 N 926.769 1.22769 0.988202 0
M  V30 10089 C 928.015 1.05665 1.73097 0
M  V30 10090 C 928.348 -0.406615 1.89895 0
M  V30 10091 O 927.623 -1.30132 1.44554 0
M  V30 10092 C 927.906 1.77381 3.13382 0
M  V30 10093 C 927.759 3.31332 3.04203 0
M  V30 10094 C 929.078 1.52999 4.12649 0
M  V30 10095 H 926.197 0.385258 0.628288 0
M  V30 10096 H 928.839 1.51171 1.15097 0
M  V30 10097 H 926.989 1.38696 3.62899 0
M  V30 10098 H 928.661 3.79489 2.6227 0
M  V30 10099 H 926.904 3.60767 2.40894 0
M  V30 10100 H 927.575 3.76692 4.03493 0
M  V30 10101 H 930.051 1.86611 3.71908 0
M  V30 10102 H 928.927 2.05666 5.08913 0
M  V30 10103 H 929.188 0.463615 4.39662 0
M  V30 10104 N 928.247 -1.18576 1.03814 0
M  V30 10105 C 929.194 -2.2212 0.626988 0
M  V30 10106 C 930.164 -1.62064 -0.363912 0
M  V30 10107 O 931.349 -1.89041 -0.258469 0
M  V30 10108 C 928.489 -3.45099 -0.00650133 0
M  V30 10109 C 927.602 -4.19503 1.03156 0
M  V30 10110 C 926.737 -5.29932 0.366852 0
M  V30 10111 C 925.776 -5.96104 1.39018 0
M  V30 10112 N 924.913 -6.98076 0.750625 0
M  V30 10113 H 929.753 -2.56646 1.51449 0
M  V30 10114 H 927.29 -1.26084 0.757702 0
M  V30 10115 H 929.248 -4.15363 -0.391108 0
M  V30 10116 H 927.878 -3.11201 -0.857536 0
M  V30 10117 H 926.93 -3.48092 1.53414 0
M  V30 10118 H 928.242 -4.64843 1.80893 0
M  V30 10119 H 927.396 -6.06657 -0.0720979 0
M  V30 10120 H 926.135 -4.85687 -0.442631 0
M  V30 10121 H 925.14 -5.18122 1.8393 0
M  V30 10122 H 926.365 -6.42432 2.20132 0
M  V30 10123 H 924.311 -6.55989 -0.0385981 0
M  V30 10124 H 924.228 -7.41655 1.46574 0
M  V30 10125 H 925.496 -7.78776 0.335986 0
M  V30 10126 N 929.725 -0.817259 -1.34754 0
M  V30 10127 C 930.974 -0.39908 -1.97713 0
M  V30 10128 C 931.287 1.04203 -1.65533 0
M  V30 10129 O 932.493 1.56384 -2.21937 0
M  V30 10130 C 930.949 -0.662634 -3.53747 0
M  V30 10131 C 930.557 -2.11699 -3.94826 0
M  V30 10132 C 932.301 -0.31034 -4.23364 0
M  V30 10133 C 930.208 -2.32573 -5.4375 0
M  V30 10134 H 929.138 -0.145488 -0.739831 0
M  V30 10135 H 931.789 -1.00282 -1.53674 0
M  V30 10136 H 930.171 0.0111972 -3.95998 0
M  V30 10137 H 931.345 -2.82951 -3.63697 0
M  V30 10138 H 929.66 -2.43017 -3.3813 0
M  V30 10139 H 932.257 -0.44421 -5.32852 0
M  V30 10140 H 932.6 0.744594 -4.09587 0
M  V30 10141 H 933.133 -0.938518 -3.8657 0
M  V30 10142 H 929.872 -3.36551 -5.62507 0
M  V30 10143 H 929.392 -1.65858 -5.76412 0
M  V30 10144 H 931.071 -2.14651 -6.10356 0
M  V30 10145 N 931.203 1.46865 -0.571711 0
M  V30 10146 C 932.431 2.06818 -0.0583975 0
M  V30 10147 C 932.846 1.42218 1.24175 0
M  V30 10148 O 932.203 0.523655 1.74826 0
M  V30 10149 C 932.254 3.61281 0.125673 0
M  V30 10150 O 931.975 4.23462 -1.123 0
M  V30 10151 C 933.476 4.38137 0.674604 0
M  V30 10152 H 930.696 0.668948 -0.052438 0
M  V30 10153 H 933.24 1.88656 -0.789251 0
M  V30 10154 H 931.395 3.78908 0.806707 0
M  V30 10155 H 931.809 5.16192 -0.929869 0
M  V30 10156 H 933.283 5.46845 0.752626 0
M  V30 10157 H 933.76 4.05419 1.68915 0
M  V30 10158 H 934.366 4.2529 0.0287979 0
M  V30 10159 N 932.681 0.308908 1.54543 0
M  V30 10160 C 933.958 -0.351558 1.92415 0
M  V30 10161 C 934.338 -1.71061 1.23699 0
M  V30 10162 O 933.686 -2.25394 0.3755 0
M  V30 10163 C 933.896 -0.458357 3.45977 0
M  V30 10164 C 935.244 -0.725524 4.18355 0
M  V30 10165 O 936.268 -0.541859 3.52054 0
M  V30 10166 O 935.127 -1.07884 5.35745 0
M  V30 10167 H 932.221 -0.197957 0.802958 0
M  V30 10168 H 934.767 0.357548 1.65891 0
M  V30 10169 H 933.539 0.496723 3.88134 0
M  V30 10170 H 933.162 -1.21562 3.78561 0
M  V30 10171 N 934.159 -1.57557 0.0367827 0
M  V30 10172 C 935.406 -1.92114 -0.640185 0
M  V30 10173 C 935.734 -0.913887 -1.71693 0
M  V30 10174 O 934.989 0.0760343 -1.95552 0
M  V30 10175 C 935.288 -3.33387 -1.28794 0
M  V30 10176 C 934.954 -4.4961 -0.340819 0
M  V30 10177 C 933.616 -4.81133 -0.0801574 0
M  V30 10178 C 935.968 -5.20283 0.309106 0
M  V30 10179 C 933.296 -5.80683 0.838107 0
M  V30 10180 C 935.648 -6.20813 1.21547 0
M  V30 10181 C 934.312 -6.50773 1.48495 0
M  V30 10182 H 933.582 -0.702996 -0.23426 0
M  V30 10183 H 936.229 -1.91238 0.100188 0
M  V30 10184 H 934.534 -3.30561 -2.10324 0
M  V30 10185 H 936.231 -3.57399 -1.81843 0
M  V30 10186 H 932.821 -4.25002 -0.554161 0
M  V30 10187 H 937.005 -4.96153 0.120794 0
M  V30 10188 H 932.261 -6.02238 1.05451 0
M  V30 10189 H 936.435 -6.74692 1.72522 0
M  V30 10190 H 934.062 -7.27727 2.19814 0
M  V30 10191 N 935.637 0.236453 -1.55816 0
M  V30 10192 C 936.885 0.96111 -1.77784 0
M  V30 10193 C 937.206 1.85454 -0.602648 0
M  V30 10194 O 936.476 1.92157 0.381137 0
M  V30 10195 H 935.056 0.35787 -0.655697 0
M  V30 10196 H 937.718 0.251888 -1.93265 0
M  V30 10197 H 936.814 1.5767 -2.69345 0
M  V30 10198 N 937.115 1.49373 0.502552 0
M  V30 10199 C 938.355 1.60398 1.26696 0
M  V30 10200 C 938.719 0.283599 1.89894 0
M  V30 10201 O 939.92 0.269022 2.6745 0
M  V30 10202 C 938.191 2.72998 2.30666 0
M  V30 10203 S 939.75 3.03964 3.16466 0
M  V30 10204 H 936.568 0.565781 0.430596 0
M  V30 10205 H 939.17 1.87024 0.569418 0
M  V30 10206 H 937.874 3.67458 1.82765 0
M  V30 10207 H 937.405 2.4836 3.05091 0
M  V30 10208 H 939.42 2.45367 4.31288 0
M  V30 10209 N 938.594 -0.753485 1.38421 0
M  V30 10210 C 939.542 -1.8886 1.35774 0
M  V30 10211 C 940.536 -1.67639 0.243608 0
M  V30 10212 O 941.742 -1.75206 0.412649 0
M  V30 10213 H 938.117 -0.62137 0.42356 0
M  V30 10214 H 940.088 -1.88209 2.3156 0
M  V30 10215 C 938.837 -3.26344 1.19979 0
M  V30 10216 H 938.16 -3.43259 2.04971 0
M  V30 10217 H 939.6 -4.06015 1.22181 0
M  V30 10218 C 938.059 -3.36771 -0.0932867 0
M  V30 10219 O 938.589 -3.8718 -1.07027 0
M  V30 10220 N 936.795 -2.90212 -0.150154 0
M  V30 10221 H 936.342 -2.4938 0.645562 0
M  V30 10222 H 936.3 -2.97569 -1.0149 0
M  V30 10223 N 940.072 -1.23292 -0.981677 0
M  V30 10224 C 941.297 -1.09176 -1.76339 0
M  V30 10225 C 941.722 0.352726 -1.84763 0
M  V30 10226 O 941.08 1.25509 -1.30832 0
M  V30 10227 C 941.128 -1.72046 -3.16911 0
M  V30 10228 O 940.232 -0.98174 -4.00544 0
M  V30 10229 H 939.573 -0.382755 -0.542581 0
M  V30 10230 H 942.103 -1.63319 -1.23239 0
M  V30 10231 H 942.113 -1.77232 -3.67495 0
M  V30 10232 H 940.788 -2.77154 -3.10095 0
M  V30 10233 H 939.365 -1.00672 -3.59054 0
M  V30 10234 N 941.55 1.18024 -1.04442 0
M  V30 10235 C 942.799 1.8743 -0.745185 0
M  V30 10236 C 943.112 1.81459 0.730206 0
M  V30 10237 O 944.318 2.46263 1.1431 0
M  V30 10238 C 942.774 3.36266 -1.28271 0
M  V30 10239 C 942.382 3.50757 -2.787 0
M  V30 10240 C 944.126 4.11048 -1.06018 0
M  V30 10241 C 942.033 4.93573 -3.25791 0
M  V30 10242 H 940.963 0.702038 -0.27506 0
M  V30 10243 H 943.614 1.33333 -1.26073 0
M  V30 10244 H 941.996 3.89853 -0.695002 0
M  V30 10245 H 943.17 3.07423 -3.43261 0
M  V30 10246 H 941.485 2.89385 -2.99408 0
M  V30 10247 H 944.082 5.16395 -1.38711 0
M  V30 10248 H 944.425 4.163 0.00241716 0
M  V30 10249 H 944.958 3.63644 -1.61269 0
M  V30 10250 H 941.697 4.93491 -4.31447 0
M  V30 10251 H 941.217 5.37607 -2.65968 0
M  V30 10252 H 942.896 5.62307 -3.20031 0
M  V30 10253 N 943.028 0.824394 1.34319 0
M  V30 10254 C 943.958 0.262077 2.32025 0
M  V30 10255 C 944.939 -0.622277 1.58309 0
M  V30 10256 O 946.124 -0.548848 1.86283 0
M  V30 10257 C 943.254 -0.57567 3.42496 0
M  V30 10258 C 942.208 0.21167 4.27476 0
M  V30 10259 C 941.534 -0.748913 5.29429 0
M  V30 10260 C 942.834 1.42068 5.02607 0
M  V30 10261 H 944.528 1.07842 2.79304 0
M  V30 10262 H 942.074 0.520022 1.34282 0
M  V30 10263 H 944.027 -0.979251 4.09864 0
M  V30 10264 H 942.751 -1.42508 2.93869 0
M  V30 10265 H 941.41 0.596636 3.61712 0
M  V30 10266 H 941.058 -1.59432 4.77064 0
M  V30 10267 H 940.758 -0.226313 5.87164 0
M  V30 10268 H 942.282 -1.15032 5.99667 0
M  V30 10269 H 943.696 1.09103 5.62823 0
M  V30 10270 H 942.093 1.87903 5.69923 0
M  V30 10271 H 943.163 2.1981 4.32217 0
M  V30 10272 N 944.506 -1.46559 0.579492 0
M  V30 10273 C 945.917 -1.8608 0.152052 0
M  V30 10274 C 946.268 -1.48346 -1.28405 0
M  V30 10275 O 945.393 -0.89685 -1.9694 0
M  V30 10276 C 945.988 -3.37729 0.269171 0
M  V30 10277 C 944.547 -3.76258 -0.103376 0
M  V30 10278 C 943.694 -2.70584 0.60659 0
M  V30 10279 H 946.645 -1.3776 0.787904 0
M  V30 10280 H 946.666 -3.77116 -0.506339 0
M  V30 10281 H 946.178 -3.65162 1.31448 0
M  V30 10282 H 944.279 -3.54443 -1.14895 0
M  V30 10283 H 944.392 -4.78335 0.270701 0
M  V30 10284 H 942.756 -2.54656 0.0471984 0
M  V30 10285 H 943.539 -3.00856 1.65349 0
M  V30 10286 N 945.984 -0.3171 -1.54377 0
M  V30 10287 C 947.395 0.172287 -1.85903 0
M  V30 10288 C 947.746 1.52141 -1.23885 0
M  V30 10289 O 946.871 2.0949 -0.542476 0
M  V30 10290 C 947.466 0.319392 -3.37291 0
M  V30 10291 C 946.025 0.752998 -3.68791 0
M  V30 10292 C 945.172 -0.129143 -2.76999 0
M  V30 10293 H 948.123 -0.537597 -1.49317 0
M  V30 10294 H 948.144 1.15137 -3.62662 0
M  V30 10295 H 947.656 -0.662671 -3.82401 0
M  V30 10296 H 945.757 1.74504 -3.2921 0
M  V30 10297 H 945.87 0.561228 -4.75801 0
M  V30 10298 H 944.234 0.394242 -2.5163 0
M  V30 10299 H 945.017 -1.10785 -3.24933 0
M  V30 10300 N 947.462 1.57535 -0.0451378 0
M  V30 10301 C 948.409 2.11176 0.931313 0
M  V30 10302 C 949.379 1.01765 1.31275 0
M  V30 10303 O 950.564 1.29279 1.40327 0
M  V30 10304 C 947.704 2.65639 2.20295 0
M  V30 10305 C 946.817 3.89114 1.87654 0
M  V30 10306 C 945.952 4.31914 3.09232 0
M  V30 10307 C 944.991 5.48105 2.72484 0
M  V30 10308 N 944.128 5.85986 3.86736 0
M  V30 10309 H 948.968 2.94318 0.466986 0
M  V30 10310 H 946.505 1.45462 0.218886 0
M  V30 10311 H 948.463 2.95312 2.94697 0
M  V30 10312 H 947.093 1.85303 2.64316 0
M  V30 10313 H 946.145 3.6607 1.03427 0
M  V30 10314 H 947.457 4.7358 1.56601 0
M  V30 10315 H 946.611 4.63108 3.91939 0
M  V30 10316 H 945.35 3.46247 3.43459 0
M  V30 10317 H 944.355 5.16589 1.88192 0
M  V30 10318 H 945.58 6.35482 2.39455 0
M  V30 10319 H 943.526 5.03273 4.20775 0
M  V30 10320 H 943.443 6.65129 3.5936 0
M  V30 10321 H 944.711 6.21793 4.701 0
M  V30 10322 N 948.94 -0.228186 1.55939 0
M  V30 10323 C 949.887 -1.28274 1.91871 0
M  V30 10324 C 950.857 -1.46906 0.775103 0
M  V30 10325 O 952.042 -1.60583 1.03042 0
M  V30 10326 C 949.182 -2.62945 2.23504 0
M  V30 10327 C 948.295 -2.52166 3.50766 0
M  V30 10328 C 947.43 -3.79316 3.71878 0
M  V30 10329 C 946.469 -3.63231 4.92676 0
M  V30 10330 N 945.606 -4.82315 5.10212 0
M  V30 10331 H 950.446 -0.96931 2.81795 0
M  V30 10332 H 947.983 -0.467331 1.39479 0
M  V30 10333 H 949.941 -3.41359 2.39854 0
M  V30 10334 H 948.571 -2.92397 1.36762 0
M  V30 10335 H 947.623 -1.65221 3.42646 0
M  V30 10336 H 948.935 -2.36199 4.39331 0
M  V30 10337 H 948.089 -4.66173 3.88288 0
M  V30 10338 H 946.828 -3.982 2.81581 0
M  V30 10339 H 945.833 -2.74757 4.76223 0
M  V30 10340 H 947.058 -3.45823 5.84451 0
M  V30 10341 H 945.004 -5.01526 4.22856 0
M  V30 10342 H 944.921 -4.6905 5.92898 0
M  V30 10343 H 946.189 -5.70618 5.31051 0
M  V30 10344 N 950.418 -1.49637 -0.494624 0
M  V30 10345 C 951.695 -1.4995 -1.25596 0
M  V30 10346 C 952.075 -0.230805 -2.09834 0
M  V30 10347 O 951.423 0.786625 -2.14533 0
M  V30 10348 C 951.633 -2.78204 -2.10721 0
M  V30 10349 C 952.981 -3.27946 -2.69698 0
M  V30 10350 O 954.005 -2.79365 -2.20984 0
M  V30 10351 O 952.864 -4.12571 -3.58395 0
M  V30 10352 H 949.958 -0.60044 -0.568684 0
M  V30 10353 H 952.504 -1.61906 -0.508371 0
M  V30 10354 H 951.276 -3.62029 -1.48494 0
M  V30 10355 H 950.899 -2.69139 -2.92661 0
M  V30 10356 N 951.896 0.746133 -1.38819 0
M  V30 10357 C 952.826 1.87344 -1.39372 0
M  V30 10358 C 953.807 1.68123 -0.258583 0
M  V30 10359 O 954.992 1.88606 -0.462769 0
M  V30 10360 C 952.122 3.24962 -1.22543 0
M  V30 10361 C 951.076 3.58799 -2.33339 0
M  V30 10362 C 950.402 4.95235 -2.01609 0
M  V30 10363 C 951.702 3.62911 -3.75624 0
M  V30 10364 H 953.396 1.87138 -2.33709 0
M  V30 10365 H 950.942 0.898937 -1.12495 0
M  V30 10366 H 952.895 4.03488 -1.21554 0
M  V30 10367 H 951.619 3.25667 -0.246707 0
M  V30 10368 H 950.278 2.82596 -2.33527 0
M  V30 10369 H 949.926 4.92508 -1.02202 0
M  V30 10370 H 949.626 5.18843 -2.75819 0
M  V30 10371 H 951.15 5.76131 -2.02251 0
M  V30 10372 H 952.564 4.31535 -3.77426 0
M  V30 10373 H 950.961 3.98031 -4.491 0
M  V30 10374 H 952.031 2.62967 -4.07402 0
M  V30 10375 N 953.375 1.23811 0.975125 0
M  V30 10376 C 954.621 1.08502 1.72043 0
M  V30 10377 C 954.976 -0.373437 1.88741 0
M  V30 10378 O 954.269 -1.27248 1.43243 0
M  V30 10379 C 954.463 1.74994 3.11628 0
M  V30 10380 C 954.292 3.27155 3.08544 0
M  V30 10381 C 953.062 3.96338 3.1344 0
M  V30 10382 C 955.26 4.23851 2.91299 0
M  V30 10383 N 953.242 5.35439 3.00297 0
M  V30 10384 C 954.613 5.499 2.86375 0
M  V30 10385 C 956.668 4.14519 2.75824 0
M  V30 10386 C 955.371 6.67687 2.67558 0
M  V30 10387 C 957.397 5.31975 2.58372 0
M  V30 10388 C 956.759 6.56953 2.5415 0
M  V30 10389 H 952.858 0.451607 0.638416 0
M  V30 10390 H 955.442 1.56617 1.15669 0
M  V30 10391 H 953.613 1.29404 3.66209 0
M  V30 10392 H 955.345 1.52614 3.74822 0
M  V30 10393 H 952.1 3.47453 3.21828 0
M  V30 10394 H 952.524 6.08381 2.96987 0
M  V30 10395 H 957.166 3.18662 2.77874 0
M  V30 10396 H 954.884 7.63673 2.64251 0
M  V30 10397 H 958.47 5.266 2.47354 0
M  V30 10398 H 957.35 7.46309 2.40817 0
M  V30 10399 N 954.853 -1.17469 1.05066 0
M  V30 10400 C 956.081 -1.9162 0.780334 0
M  V30 10401 C 956.496 -1.76745 -0.663817 0
M  V30 10402 O 955.853 -1.10377 -1.45338 0
M  V30 10403 C 955.904 -3.42723 1.14992 0
M  V30 10404 O 955.625 -3.57139 2.53739 0
M  V30 10405 C 957.126 -4.33952 0.905549 0
M  V30 10406 H 954.346 -0.608022 0.283814 0
M  V30 10407 H 956.89 -1.4897 1.401 0
M  V30 10408 H 955.045 -3.83124 0.57403 0
M  V30 10409 H 955.459 -4.5075 2.68189 0
M  V30 10410 H 956.933 -5.38487 1.21391 0
M  V30 10411 H 957.41 -4.38911 -0.159295 0
M  V30 10412 H 958.016 -3.99263 1.46522 0
M  V30 10413 N 956.331 -0.831506 -1.3388 0
M  V30 10414 C 957.294 -0.264773 -2.27666 0
M  V30 10415 C 958.294 0.562273 -1.50649 0
M  V30 10416 O 959.484 0.377131 -1.70069 0
M  V30 10417 C 956.616 0.627814 -3.35069 0
M  V30 10418 H 957.809 -1.09225 -2.79303 0
M  V30 10419 H 955.362 -0.604021 -1.44157 0
M  V30 10420 H 956.097 1.47802 -2.88661 0
M  V30 10421 H 955.882 0.0361552 -3.92083 0
M  V30 10422 H 957.372 1.01786 -4.05005 0
M  V30 10423 N 957.809 1.4625 -0.587256 0
M  V30 10424 C 959.22 1.85997 -0.161918 0
M  V30 10425 C 959.571 1.49025 1.27616 0
M  V30 10426 O 958.696 0.907282 1.96462 0
M  V30 10427 C 959.291 3.37582 -0.287077 0
M  V30 10428 C 957.85 3.76308 0.0834211 0
M  V30 10429 C 956.997 2.70259 -0.620932 0
M  V30 10430 H 959.948 1.3734 -0.795199 0
M  V30 10431 H 959.969 3.77379 0.486333 0
M  V30 10432 H 959.481 3.64459 -1.33383 0
M  V30 10433 H 957.582 3.55047 1.13013 0
M  V30 10434 H 957.695 4.78184 -0.296064 0
M  V30 10435 H 956.059 2.54628 -0.0607027 0
M  V30 10436 H 956.842 2.99975 -1.66942 0
M  V30 10437 N 959.287 0.325282 1.54207 0
M  V30 10438 C 960.197 -0.548778 2.28091 0
M  V30 10439 C 961.213 -1.12772 1.32508 0
M  V30 10440 O 962.389 -1.14732 1.65525 0
M  V30 10441 C 959.454 -1.69284 3.02562 0
M  V30 10442 C 958.515 -1.14553 4.13734 0
M  V30 10443 C 957.748 -2.23506 4.84645 0
M  V30 10444 O 957.971 -3.43884 4.55082 0
M  V30 10445 O 956.905 -1.88828 5.71513 0
M  V30 10446 H 960.731 0.0512974 3.03657 0
M  V30 10447 H 958.316 0.0909159 1.49123 0
M  V30 10448 H 960.198 -2.35887 3.49192 0
M  V30 10449 H 958.873 -2.27906 2.2987 0
M  V30 10450 H 957.78 -0.444532 3.71449 0
M  V30 10451 H 959.113 -0.60441 4.88475 0
M  V30 10452 N 960.765 -1.57509 0.0534917 0
M  V30 10453 C 961.715 -2.08179 -0.929802 0
M  V30 10454 C 962.699 -0.987451 -1.27036 0
M  V30 10455 O 963.891 -1.25076 -1.2524 0
M  V30 10456 C 961.02 -2.63221 -2.20385 0
M  V30 10457 C 960.106 -3.79629 -1.89058 0
M  V30 10458 N 960.497 -4.8931 -1.28101 0
M  V30 10459 C 958.795 -3.88578 -2.18914 0
M  V30 10460 C 959.496 -5.70329 -1.14455 0
M  V30 10461 N 958.472 -5.18011 -1.64821 0
M  V30 10462 H 962.274 -2.90374 -0.453874 0
M  V30 10463 H 959.788 -1.61697 -0.150899 0
M  V30 10464 H 961.785 -2.97827 -2.91727 0
M  V30 10465 H 960.445 -1.82466 -2.68582 0
M  V30 10466 H 961.456 -5.09058 -0.952924 0
M  V30 10467 H 958.133 -3.18769 -2.69616 0
M  V30 10468 H 959.523 -6.6854 -0.671129 0
M  V30 10469 N 962.243 0.219913 -1.56058 0
M  V30 10470 C 963.173 1.27572 -1.9557 0
M  V30 10471 C 964.154 1.48801 -0.824148 0
M  V30 10472 O 965.339 1.60957 -1.08658 0
M  V30 10473 C 962.469 2.62517 -2.27381 0
M  V30 10474 C 961.423 2.55941 -3.43042 0
M  V30 10475 C 960.749 3.94931 -3.60463 0
M  V30 10476 C 962.049 2.10584 -4.77966 0
M  V30 10477 H 963.743 0.947482 -2.84013 0
M  V30 10478 H 961.289 0.454337 -1.36645 0
M  V30 10479 H 963.242 3.36538 -2.53615 0
M  V30 10480 H 961.966 2.97031 -1.35794 0
M  V30 10481 H 960.625 1.84377 -3.1686 0
M  V30 10482 H 960.273 4.26756 -2.66249 0
M  V30 10483 H 959.973 3.91413 -4.38258 0
M  V30 10484 H 961.497 4.70611 -3.89046 0
M  V30 10485 H 962.911 2.74349 -5.03394 0
M  V30 10486 H 961.308 2.18122 -5.59055 0
M  V30 10487 H 962.378 1.05818 -4.73213 0
M  V30 10488 N 963.721 1.49897 0.486681 0
M  V30 10489 C 965.137 1.36977 0.819109 0
M  V30 10490 C 965.337 0.41385 1.97204 0
M  V30 10491 O 964.393 -0.149249 2.52059 0
M  V30 10492 C 965.706 2.78013 1.14584 0
M  V30 10493 C 967.254 2.86816 1.25321 0
M  V30 10494 C 967.729 4.28651 1.61316 0
M  V30 10495 N 969.22 4.31528 1.68337 0
M  V30 10496 C 969.955 5.38254 1.97662 0
M  V30 10497 N 969.451 6.55207 2.25113 0
M  V30 10498 N 971.244 5.25683 1.99033 0
M  V30 10499 H 963.395 2.10634 -0.273364 0
M  V30 10500 H 965.658 0.946116 -0.0597418 0
M  V30 10501 H 965.364 3.49728 0.371892 0
M  V30 10502 H 965.238 3.1428 2.08585 0
M  V30 10503 H 967.625 2.15329 2.01785 0
M  V30 10504 H 967.706 2.54112 0.293368 0
M  V30 10505 H 967.35 5.00669 0.853968 0
M  V30 10506 H 967.28 4.5883 2.58424 0
M  V30 10507 H 969.771 3.47189 1.49226 0
M  V30 10508 H 970.084 7.32359 2.46717 0
M  V30 10509 H 968.429 6.58408 2.22538 0
M  V30 10510 H 971.62 4.33316 1.77074 0
M  V30 10511 H 971.793 6.08949 2.21552 0
M  V30 10512 N 965.199 -0.738761 1.39212 0
M  V30 10513 C 966.131 -1.86286 1.3353 0
M  V30 10514 C 967.144 -1.6095 0.244755 0
M  V30 10515 O 968.333 -1.71254 0.50343 0
M  V30 10516 C 965.433 -3.22234 1.04969 0
M  V30 10517 C 964.606 -3.74956 2.25226 0
M  V30 10518 C 963.665 -4.89457 1.9318 0
M  V30 10519 O 962.691 -5.03314 2.65826 0
M  V30 10520 N 963.893 -5.73548 0.895679 0
M  V30 10521 H 966.658 -1.91666 2.304 0
M  V30 10522 H 964.219 -0.919338 1.33266 0
M  V30 10523 H 966.211 -3.96397 0.815566 0
M  V30 10524 H 964.781 -3.12146 0.168451 0
M  V30 10525 H 964.001 -2.92188 2.64612 0
M  V30 10526 H 965.289 -4.06914 3.05448 0
M  V30 10527 H 964.687 -5.64938 0.293541 0
M  V30 10528 H 963.244 -6.47795 0.721451 0
M  V30 10529 N 966.677 -1.24326 -0.968545 0
M  V30 10530 C 967.64 -1.03591 -2.04454 0
M  V30 10531 C 968.64 0.0064809 -1.60799 0
M  V30 10532 O 969.83 -0.234404 -1.72616 0
M  V30 10533 C 966.962 -0.56992 -3.36102 0
M  V30 10534 H 968.155 -1.99092 -2.24282 0
M  V30 10535 H 965.708 -1.06537 -1.14366 0
M  V30 10536 H 966.443 0.388325 -3.21967 0
M  V30 10537 H 966.228 -1.32227 -3.69132 0
M  V30 10538 H 967.718 -0.445854 -4.15213 0
M  V30 10539 N 968.156 1.1691 -1.05688 0
M  V30 10540 C 969.104 2.2315 -0.656262 0
M  V30 10541 C 970.098 1.66256 0.324873 0
M  V30 10542 O 971.304 1.7899 0.190397 0
M  V30 10543 H 967.679 0.726527 -0.19407 0
M  V30 10544 H 969.65 2.54233 -1.56231 0
M  V30 10545 C 968.399 3.47661 -0.0522431 0
M  V30 10546 H 967.722 3.91749 -0.798299 0
M  V30 10547 H 969.162 4.23571 0.190626 0
M  V30 10548 C 967.621 3.14709 1.20248 0
M  V30 10549 O 968.151 3.29947 2.29124 0
M  V30 10550 N 966.357 2.68892 1.10207 0
M  V30 10551 H 965.904 2.56692 0.216063 0
M  V30 10552 H 965.862 2.47218 1.94244 0
M  V30 10553 N 969.634 0.838594 1.33437 0
M  V30 10554 C 970.883 0.430484 1.97053 0
M  V30 10555 C 971.196 -1.01556 1.6717 0
M  V30 10556 O 972.402 -1.52834 2.24397 0
M  V30 10557 C 970.858 0.718828 3.52648 0
M  V30 10558 C 970.466 2.17953 3.91408 0
M  V30 10559 C 972.21 0.377654 4.22817 0
M  V30 10560 C 970.117 2.41194 5.39981 0
M  V30 10561 H 969.047 0.157239 0.737422 0
M  V30 10562 H 971.698 1.02714 1.5206 0
M  V30 10563 H 970.08 0.0518042 3.95966 0
M  V30 10564 H 971.254 2.88701 3.59149 0
M  V30 10565 H 969.569 2.48366 3.34221 0
M  V30 10566 H 972.166 0.528926 5.32077 0
M  V30 10567 H 972.509 -0.679338 4.1072 0
M  V30 10568 H 973.042 0.999899 3.85028 0
M  V30 10569 H 969.781 3.45457 5.57081 0
M  V30 10570 H 969.301 1.75007 5.73701 0
M  V30 10571 H 970.98 2.24334 6.06863 0
M  V30 10572 N 971.112 -1.45937 0.595003 0
M  V30 10573 C 972.337 -2.07207 0.0894416 0
M  V30 10574 C 972.762 -1.43884 -1.21157 0
M  V30 10575 O 972.12 -0.526998 -1.73472 0
M  V30 10576 C 972.168 -3.60565 -0.0499828 0
M  V30 10577 O 971.272 -3.97364 -1.10342 0
M  V30 10578 H 970.613 -0.660471 0.0683627 0
M  V30 10579 H 973.143 -1.87386 0.82144 0
M  V30 10580 H 973.153 -4.0722 -0.252234 0
M  V30 10581 H 971.828 -4.06044 0.90006 0
M  V30 10582 H 970.405 -3.62401 -0.878645 0
M  V30 10583 N 972.59 -0.333456 -1.54032 0
M  V30 10584 C 973.522 0.562174 -2.22199 0
M  V30 10585 C 974.535 1.07202 -1.22522 0
M  V30 10586 O 975.724 0.983897 -1.48935 0
M  V30 10587 C 972.824 1.78525 -2.88066 0
M  V30 10588 C 971.997 1.41242 -4.13968 0
M  V30 10589 C 971.056 2.49408 -4.63338 0
M  V30 10590 O 970.082 2.13138 -5.27789 0
M  V30 10591 N 971.284 3.805 -4.38406 0
M  V30 10592 H 974.049 -0.0215629 -2.99692 0
M  V30 10593 H 971.61 -0.157111 -1.61136 0
M  V30 10594 H 973.602 2.50298 -3.18014 0
M  V30 10595 H 972.172 2.2766 -2.14219 0
M  V30 10596 H 971.392 0.525887 -3.90676 0
M  V30 10597 H 972.68 1.13916 -4.95884 0
M  V30 10598 H 972.078 4.12761 -3.86839 0
M  V30 10599 H 970.635 4.48474 -4.72984 0
M  V30 10600 N 974.068 1.57479 -0.061844 0
M  V30 10601 C 975.015 2.12152 0.908862 0
M  V30 10602 C 975.985 1.03152 1.30188 0
M  V30 10603 O 977.17 1.3076 1.38948 0
M  V30 10604 C 974.31 2.6796 2.17465 0
M  V30 10605 C 973.423 3.91083 1.83517 0
M  V30 10606 C 972.558 4.35169 3.04633 0
M  V30 10607 C 971.597 5.50964 2.66655 0
M  V30 10608 N 970.734 5.90055 3.80499 0
M  V30 10609 H 975.574 2.94797 0.435743 0
M  V30 10610 H 973.111 1.45686 0.203445 0
M  V30 10611 H 975.069 2.98421 2.91548 0
M  V30 10612 H 973.699 1.88096 2.62335 0
M  V30 10613 H 972.751 3.67146 0.995381 0
M  V30 10614 H 974.063 4.75214 1.51569 0
M  V30 10615 H 973.217 4.67239 3.87005 0
M  V30 10616 H 971.956 3.49871 3.39767 0
M  V30 10617 H 970.961 5.18556 1.82703 0
M  V30 10618 H 972.186 6.37986 2.32702 0
M  V30 10619 H 970.132 5.07708 4.15414 0
M  V30 10620 H 970.049 6.68903 3.52285 0
M  V30 10621 H 971.317 6.26744 4.63479 0
M  V30 10622 N 975.546 -0.211634 1.56173 0
M  V30 10623 C 976.794 -0.932704 1.7929 0
M  V30 10624 C 977.115 -1.84472 0.632076 0
M  V30 10625 O 976.385 -1.92739 -0.350519 0
M  V30 10626 H 974.965 -0.347393 0.661307 0
M  V30 10627 H 977.627 -0.22111 1.93642 0
M  V30 10628 H 976.723 -1.53365 2.71819 0
M  V30 10629 N 977.024 -1.50153 -0.478725 0
M  V30 10630 C 978.301 -1.51274 -1.23999 0
M  V30 10631 C 978.681 -0.253048 -2.09578 0
M  V30 10632 O 978.029 0.763827 -2.15355 0
M  V30 10633 C 978.239 -2.80423 -2.07759 0
M  V30 10634 C 979.587 -3.30788 -2.66204 0
M  V30 10635 O 980.611 -2.81693 -2.18008 0
M  V30 10636 O 979.47 -4.1635 -3.53999 0
M  V30 10637 H 976.564 -0.606438 -0.562283 0
M  V30 10638 H 979.11 -1.62436 -0.491171 0
M  V30 10639 H 977.882 -3.63584 -1.44645 0
M  V30 10640 H 977.505 -2.72228 -2.89789 0
M  V30 10641 N 978.502 0.731368 -1.39602 0
M  V30 10642 C 979.748 1.49321 -1.37227 0
M  V30 10643 C 980.081 1.94176 0.0306502 0
M  V30 10644 O 979.356 1.67046 0.996294 0
M  V30 10645 C 979.639 2.73035 -2.34784 0
M  V30 10646 C 979.492 2.34176 -3.84033 0
M  V30 10647 C 980.811 3.75146 -2.30116 0
M  V30 10648 H 977.93 0.541652 -0.499783 0
M  V30 10649 H 980.572 0.835968 -1.70621 0
M  V30 10650 H 978.722 3.29114 -2.06437 0
M  V30 10651 H 980.394 1.83701 -4.23145 0
M  V30 10652 H 978.637 1.66361 -4.00633 0
M  V30 10653 H 979.308 3.22786 -4.47787 0
M  V30 10654 H 981.784 3.28661 -2.55189 0
M  V30 10655 H 980.66 4.5937 -3.00451 0
M  V30 10656 H 980.921 4.22326 -1.30741 0
M  V30 10657 N 979.98 1.24838 0.961938 0
M  V30 10658 C 981.21 1.11709 1.73795 0
M  V30 10659 C 981.618 -0.33263 1.86253 0
M  V30 10660 O 980.961 -1.24101 1.35443 0
M  V30 10661 C 981.023 1.68959 3.17322 0
M  V30 10662 C 980.687 3.17895 3.28316 0
M  V30 10663 C 981.684 4.14975 3.13196 0
M  V30 10664 C 979.369 3.57966 3.52372 0
M  V30 10665 C 981.363 5.50107 3.21965 0
M  V30 10666 C 979.05 4.93237 3.60778 0
M  V30 10667 C 980.048 5.89116 3.45588 0
M  V30 10668 O 979.736 7.21927 3.53662 0
M  V30 10669 H 979.468 0.390726 0.551642 0
M  V30 10670 H 982.022 1.65541 1.21594 0
M  V30 10671 H 980.252 1.09567 3.70853 0
M  V30 10672 H 981.941 1.51036 3.76753 0
M  V30 10673 H 982.707 3.85359 2.94489 0
M  V30 10674 H 978.586 2.83837 3.63259 0
M  V30 10675 H 982.13 6.24924 3.10025 0
M  V30 10676 H 978.027 5.22522 3.79 0
M  V30 10677 H 978.795 7.29925 3.7034 0
M  V30 10678 N 981.458 -1.16348 1.06306 0
M  V30 10679 C 982.683 -1.91323 0.800636 0
M  V30 10680 C 983.108 -1.7691 -0.639105 0
M  V30 10681 O 982.466 -1.0945 -1.44535 0
M  V30 10682 C 982.514 -3.40038 1.20027 0
M  V30 10683 O 981.618 -4.11003 0.339142 0
M  V30 10684 H 980.959 -0.596057 0.292595 0
M  V30 10685 H 983.489 -1.47406 1.41889 0
M  V30 10686 H 983.499 -3.90808 1.17188 0
M  V30 10687 H 982.174 -3.49848 2.24898 0
M  V30 10688 H 980.751 -3.70423 0.42911 0
M  V30 10689 N 982.937 -0.845659 -1.3299 0
M  V30 10690 C 984.167 -0.457686 -2.01467 0
M  V30 10691 C 984.575 0.947664 -1.63756 0
M  V30 10692 O 983.918 1.62841 -0.850213 0
M  V30 10693 C 983.98 -0.506589 -3.55913 0
M  V30 10694 C 983.644 -1.86924 -4.17023 0
M  V30 10695 C 984.641 -2.83344 -4.35904 0
M  V30 10696 C 982.326 -2.16394 -4.53298 0
M  V30 10697 C 984.32 -4.07391 -4.90216 0
M  V30 10698 C 982.007 -3.40695 -5.07316 0
M  V30 10699 C 983.005 -4.3601 -5.25722 0
M  V30 10700 O 982.693 -5.58112 -5.7859 0
M  V30 10701 H 982.425 -0.179258 -0.651799 0
M  V30 10702 H 984.979 -1.14172 -1.70745 0
M  V30 10703 H 983.209 0.234253 -3.8599 0
M  V30 10704 H 984.898 -0.135487 -4.05674 0
M  V30 10705 H 985.664 -2.61879 -4.08221 0
M  V30 10706 H 981.543 -1.42994 -4.38262 0
M  V30 10707 H 985.087 -4.81796 -5.04498 0
M  V30 10708 H 980.984 -3.62014 -5.3443 0
M  V30 10709 H 981.752 -5.59946 -5.96995 0
M  V30 10710 N 984.415 1.45619 -0.602734 0
M  V30 10711 C 985.663 2.01873 -0.095844 0
M  V30 10712 C 985.984 1.47427 1.27633 0
M  V30 10713 O 985.254 0.666652 1.84208 0
M  V30 10714 H 983.834 0.746295 -0.0324408 0
M  V30 10715 H 986.496 1.78478 -0.783037 0
M  V30 10716 H 985.592 3.12072 -0.0419507 0
M  V30 10717 N 985.893 0.34162 1.53853 0
M  V30 10718 C 987.142 -0.256475 2.00063 0
M  V30 10719 C 987.455 -1.51811 1.23341 0
M  V30 10720 O 988.661 -2.19332 1.60017 0
M  V30 10721 C 987.117 -0.507567 3.56303 0
M  V30 10722 C 986.725 0.738052 4.41879 0
M  V30 10723 C 988.469 -1.06463 4.10933 0
M  V30 10724 C 986.376 0.457865 5.89625 0
M  V30 10725 H 985.306 -0.0996143 0.747391 0
M  V30 10726 H 987.957 0.456649 1.77727 0
M  V30 10727 H 986.339 -1.28134 3.74697 0
M  V30 10728 H 987.513 1.51278 4.3526 0
M  V30 10729 H 985.828 1.21661 3.98231 0
M  V30 10730 H 988.425 -1.28918 5.18926 0
M  V30 10731 H 988.768 -2.01956 3.64032 0
M  V30 10732 H 989.301 -0.351601 3.96243 0
M  V30 10733 H 986.04 1.38247 6.40756 0
M  V30 10734 H 985.56 -0.278818 5.99152 0
M  V30 10735 H 987.239 0.0743914 6.46957 0
M  V30 10736 N 987.371 -1.57444 0.0701946 0
M  V30 10737 C 988.62 -1.92605 -0.598849 0
M  V30 10738 C 988.933 -0.952058 -1.70866 0
M  V30 10739 O 990.139 -1.19643 -2.43716 0
M  V30 10740 C 988.595 -3.42142 -1.11655 0
M  V30 10741 C 988.203 -4.47984 -0.0378355 0
M  V30 10742 C 989.947 -3.86307 -1.75975 0
M  V30 10743 C 987.854 -5.88652 -0.569495 0
M  V30 10744 H 986.784 -0.718873 -0.22746 0
M  V30 10745 H 989.435 -1.82948 0.14217 0
M  V30 10746 H 987.817 -3.46866 -1.91049 0
M  V30 10747 H 988.991 -4.54874 0.736661 0
M  V30 10748 H 987.306 -4.13277 0.50904 0
M  V30 10749 H 989.903 -4.88784 -2.16782 0
M  V30 10750 H 990.246 -3.23587 -2.61911 0
M  V30 10751 H 990.779 -3.84179 -1.03206 0
M  V30 10752 H 987.518 -6.55013 0.252662 0
M  V30 10753 H 987.038 -5.85285 -1.31155 0
M  V30 10754 H 988.717 -6.38482 -1.04641 0
M  V30 10755 N 988.849 0.203349 -1.56283 0
M  V30 10756 C 989.812 1.23566 -1.93039 0
M  V30 10757 C 990.812 1.38869 -0.810687 0
M  V30 10758 O 992.002 1.36822 -1.07821 0
M  V30 10759 C 989.134 2.60645 -2.1972 0
M  V30 10760 H 990.327 0.921692 -2.85385 0
M  V30 10761 H 987.88 0.44453 -1.49845 0
M  V30 10762 H 988.615 2.9711 -1.29985 0
M  V30 10763 H 988.4 2.50911 -3.01307 0
M  V30 10764 H 989.89 3.35103 -2.4919 0
M  V30 10765 N 990.327 1.50405 0.470755 0
M  V30 10766 C 991.259 1.65447 1.58619 0
M  V30 10767 C 992.272 0.535949 1.53725 0
M  V30 10768 O 993.461 0.80914 1.59107 0
M  V30 10769 C 990.561 1.62318 2.975 0
M  V30 10770 C 989.734 2.90207 3.27259 0
M  V30 10771 C 988.793 2.79717 4.45696 0
M  V30 10772 O 987.819 3.53672 4.45987 0
M  V30 10773 N 989.021 1.93296 5.47373 0
M  V30 10774 H 991.786 2.61659 1.46132 0
M  V30 10775 H 989.347 1.47873 0.659178 0
M  V30 10776 H 991.339 1.52912 3.747 0
M  V30 10777 H 989.909 0.738392 3.03754 0
M  V30 10778 H 989.129 3.13737 2.38669 0
M  V30 10779 H 990.417 3.74931 3.43953 0
M  V30 10780 H 989.815 1.32524 5.49958 0
M  V30 10781 H 988.372 1.89793 6.23556 0
M  V30 10782 N 991.805 -0.723954 1.39988 0
M  V30 10783 C 992.715 -1.86829 1.41887 0
M  V30 10784 C 993.731 -1.71173 0.312401 0
M  V30 10785 O 994.907 -1.93583 0.555651 0
M  V30 10786 C 991.972 -3.22541 1.27154 0
M  V30 10787 C 991.033 -3.50512 2.47871 0
M  V30 10788 C 990.266 -4.79749 2.33831 0
M  V30 10789 O 990.489 -5.54251 1.34765 0
M  V30 10790 O 989.423 -5.07868 3.23039 0
M  V30 10791 H 993.249 -1.88183 2.38371 0
M  V30 10792 H 990.834 -0.873259 1.21221 0
M  V30 10793 H 992.716 -4.0362 1.21114 0
M  V30 10794 H 991.391 -3.21933 0.337715 0
M  V30 10795 H 990.298 -2.69475 2.59488 0
M  V30 10796 H 991.631 -3.55909 3.39985 0
M  V30 10797 N 993.283 -1.25346 -0.955304 0
M  V30 10798 C 994.532 -1.0945 -1.69421 0
M  V30 10799 C 994.845 0.364459 -1.92175 0
M  V30 10800 O 996.051 0.643843 -2.63755 0
M  V30 10801 C 994.507 -1.91045 -3.05008 0
M  V30 10802 C 994.115 -3.41428 -2.90053 0
M  V30 10803 C 995.859 -1.83716 -3.82686 0
M  V30 10804 C 993.766 -4.1532 -4.21026 0
M  V30 10805 H 992.696 -0.405978 -0.635372 0
M  V30 10806 H 995.347 -1.49536 -1.06354 0
M  V30 10807 H 993.729 -1.43781 -3.68975 0
M  V30 10808 H 994.903 -3.9636 -2.35022 0
M  V30 10809 H 993.218 -3.49842 -2.25831 0
M  V30 10810 H 995.815 -2.36217 -4.79693 0
M  V30 10811 H 996.158 -0.804919 -4.08444 0
M  V30 10812 H 996.691 -2.28726 -3.25468 0
M  V30 10813 H 993.43 -5.18955 -4.00457 0
M  V30 10814 H 992.95 -3.65172 -4.75825 0
M  V30 10815 H 994.629 -4.22999 -4.89572 0
M  V30 10816 N 994.761 1.15782 -1.06922 0
M  V30 10817 C 996.01 1.85807 -0.784774 0
M  V30 10818 C 996.323 1.82967 0.691551 0
M  V30 10819 O 997.529 2.48632 1.0906 0
M  V30 10820 C 995.985 3.33469 -1.35375 0
M  V30 10821 C 995.593 3.44766 -2.86077 0
M  V30 10822 C 997.337 4.08707 -1.14713 0
M  V30 10823 C 995.244 4.86551 -3.36187 0
M  V30 10824 H 994.174 0.696046 -0.28989 0
M  V30 10825 H 996.825 1.30629 -1.28873 0
M  V30 10826 H 995.207 3.88292 -0.77754 0
M  V30 10827 H 996.381 3.00073 -3.49704 0
M  V30 10828 H 994.696 2.82969 -3.05479 0
M  V30 10829 H 997.293 5.13336 -1.49633 0
M  V30 10830 H 997.636 4.16211 -0.0858868 0
M  V30 10831 H 998.169 3.60142 -1.68946 0
M  V30 10832 H 994.908 4.84229 -4.41818 0
M  V30 10833 H 994.428 5.31844 -2.77312 0
M  V30 10834 H 996.107 5.55392 -3.31887 0
M  V30 10835 N 996.239 0.8527 1.3254 0
M  V30 10836 C 997.169 0.311234 2.31416 0
M  V30 10837 C 998.15 -0.588557 1.59593 0
M  V30 10838 O 999.335 -0.509211 1.87405 0
M  V30 10839 C 996.465 -0.502892 3.4364 0
M  V30 10840 C 995.419 0.302296 4.26931 0
M  V30 10841 C 994.745 -0.636445 5.30899 0
M  V30 10842 C 996.045 1.52697 4.99481 0
M  V30 10843 H 997.739 1.13742 2.76953 0
M  V30 10844 H 995.285 0.548389 1.33149 0
M  V30 10845 H 997.238 -0.892092 4.11849 0
M  V30 10846 H 995.962 -1.36242 2.96826 0
M  V30 10847 H 994.621 0.673226 3.60365 0
M  V30 10848 H 994.269 -1.49277 4.80339 0
M  V30 10849 H 993.969 -0.101716 5.87512 0
M  V30 10850 H 995.493 -1.02286 6.01972 0
M  V30 10851 H 996.907 1.21017 5.60382 0
M  V30 10852 H 995.304 1.9995 5.65809 0
M  V30 10853 H 996.374 2.28929 4.27457 0
M  V30 10854 N 997.718 -1.45297 0.610449 0
M  V30 10855 C 999.134 -1.57225 0.274332 0
M  V30 10856 C 999.334 -1.60136 -1.22306 0
M  V30 10857 O 998.39 -1.5332 -2.00622 0
M  V30 10858 C 999.703 -2.85365 0.948028 0
M  V30 10859 C 1001.25 -2.99044 0.924216 0
M  V30 10860 C 1001.73 -4.29958 1.57798 0
M  V30 10861 N 1003.22 -4.36723 1.5436 0
M  V30 10862 C 1003.95 -5.36695 2.01857 0
M  V30 10863 N 1003.45 -6.43187 2.57453 0
M  V30 10864 N 1005.24 -5.28071 1.92608 0
M  V30 10865 H 997.392 -1.41651 1.58268 0
M  V30 10866 H 999.655 -0.67744 0.663158 0
M  V30 10867 H 999.361 -2.89125 2.00249 0
M  V30 10868 H 999.235 -3.74222 0.473062 0
M  V30 10869 H 1001.62 -2.94849 -0.121709 0
M  V30 10870 H 1001.7 -2.1159 1.43748 0
M  V30 10871 H 1001.35 -4.34912 2.62325 0
M  V30 10872 H 1001.28 -5.16234 1.03972 0
M  V30 10873 H 1003.77 -3.60374 1.13749 0
M  V30 10874 H 1004.08 -7.15722 2.91482 0
M  V30 10875 H 1002.43 -6.4393 2.61493 0
M  V30 10876 H 1005.62 -4.43783 1.48912 0
M  V30 10877 H 1005.79 -6.05832 2.29938 0
M  V30 10878 N 999.196 -0.349774 -1.5367 0
M  V30 10879 C 1000.14 0.504121 -2.25227 0
M  V30 10880 C 1001.11 1.09048 -1.2529 0
M  V30 10881 O 1002.3 1.12594 -1.54037 0
M  V30 10882 C 999.438 1.64601 -3.03316 0
M  V30 10883 C 998.551 1.08635 -4.18118 0
M  V30 10884 C 997.686 2.19605 -4.83681 0
M  V30 10885 C 996.725 1.61023 -5.90541 0
M  V30 10886 N 995.862 2.6576 -6.49858 0
M  V30 10887 H 1000.7 -0.112621 -2.97787 0
M  V30 10888 H 998.239 -0.0673503 -1.46946 0
M  V30 10889 H 1000.2 2.31836 -3.46854 0
M  V30 10890 H 998.827 2.23364 -2.33041 0
M  V30 10891 H 997.879 0.304748 -3.79177 0
M  V30 10892 H 999.191 0.617911 -4.94958 0
M  V30 10893 H 998.345 2.94693 -5.30322 0
M  V30 10894 H 997.084 2.69795 -4.06278 0
M  V30 10895 H 996.089 0.844428 -5.43277 0
M  V30 10896 H 997.314 1.11677 -6.69855 0
M  V30 10897 H 995.26 3.15193 -5.75317 0
M  V30 10898 H 995.177 2.23557 -7.2219 0
M  V30 10899 H 996.445 3.40598 -7.01151 0
M  V30 10900 N 1000.67 1.57404 -0.0785433 0
M  V30 10901 C 1001.58 2.16612 0.900902 0
M  V30 10902 C 1002.6 1.13109 1.32221 0
M  V30 10903 O 1003.78 1.45406 1.39352 0
M  V30 10904 C 1000.84 2.7215 2.14791 0
M  V30 10905 C 999.902 3.90551 1.78237 0
M  V30 10906 C 999.135 4.43431 2.96993 0
M  V30 10907 O 999.358 3.95292 4.11218 0
M  V30 10908 O 998.292 5.34674 2.76418 0
M  V30 10909 H 1002.12 3.0068 0.427227 0
M  V30 10910 H 999.703 1.48696 0.144902 0
M  V30 10911 H 1001.58 3.07718 2.87902 0
M  V30 10912 H 1000.26 1.91139 2.61243 0
M  V30 10913 H 999.167 3.59825 1.02357 0
M  V30 10914 H 1000.5 4.72876 1.36562 0
M  V30 10915 N 1002.15 -0.195058 1.56388 0
M  V30 10916 C 1003.38 -0.931642 1.84738 0
M  V30 10917 C 1003.79 -1.76849 0.661046 0
M  V30 10918 O 1003.15 -1.78705 -0.370241 0
M  V30 10919 C 1003.2 -1.82777 3.11889 0
M  V30 10920 O 1002.92 -1.02471 4.25948 0
M  V30 10921 C 1004.42 -2.67603 3.53417 0
M  V30 10922 H 1001.64 -0.271821 0.613477 0
M  V30 10923 H 1004.19 -0.202299 2.03497 0
M  V30 10924 H 1002.34 -2.51074 2.95027 0
M  V30 10925 H 1002.76 -1.63539 4.98353 0
M  V30 10926 H 1004.23 -3.26138 4.45352 0
M  V30 10927 H 1004.71 -3.41314 2.76408 0
M  V30 10928 H 1005.31 -2.04678 3.7281 0
M  V30 10929 N 1003.63 -1.50653 -0.462772 0
M  V30 10930 C 1004.88 -1.62057 -1.21424 0
M  V30 10931 C 1005.2 -0.324778 -1.91769 0
M  V30 10932 O 1004.46 0.689828 -1.83139 0
M  V30 10933 C 1004.76 -2.75637 -2.27507 0
M  V30 10934 C 1004.42 -4.15826 -1.74354 0
M  V30 10935 C 1003.09 -4.53969 -1.5958 0
M  V30 10936 C 1005.44 -5.03409 -1.35012 0
M  V30 10937 C 1002.77 -5.77427 -1.03899 0
M  V30 10938 C 1005.12 -6.27422 -0.807704 0
M  V30 10939 C 1003.78 -6.6436 -0.646657 0
M  V30 10940 H 1003.05 -0.59301 -0.44432 0
M  V30 10941 H 1005.7 -1.84612 -0.508999 0
M  V30 10942 H 1004 -2.47203 -3.0397 0
M  V30 10943 H 1005.7 -2.81663 -2.85424 0
M  V30 10944 H 1002.29 -3.85739 -1.86823 0
M  V30 10945 H 1006.48 -4.74567 -1.45258 0
M  V30 10946 H 1001.73 -6.04713 -0.901751 0
M  V30 10947 H 1005.91 -6.94644 -0.494234 0
M  V30 10948 H 1003.53 -7.59901 -0.213053 0
M  V30 10949 N 1005.11 0.71652 -1.4037 0
M  V30 10950 C 1006.34 1.50344 -1.41704 0
M  V30 10951 C 1006.75 1.89194 -0.0148011 0
M  V30 10952 O 1006.09 1.55916 0.971391 0
M  V30 10953 C 1006.15 2.80928 -2.2432 0
M  V30 10954 C 1005.82 2.64406 -3.72744 0
M  V30 10955 C 1006.81 2.31727 -4.65401 0
M  V30 10956 C 1004.5 2.807 -4.16549 0
M  V30 10957 C 1006.49 2.15551 -5.99847 0
M  V30 10958 C 1004.18 2.64141 -5.51065 0
M  V30 10959 C 1005.18 2.31614 -6.42529 0
M  V30 10960 O 1004.86 2.15179 -7.74566 0
M  V30 10961 H 1004.6 0.470574 -0.48532 0
M  V30 10962 H 1007.15 0.89152 -1.85043 0
M  V30 10963 H 1005.38 3.4445 -1.75759 0
M  V30 10964 H 1007.07 3.4264 -2.17607 0
M  V30 10965 H 1007.84 2.18773 -4.32855 0
M  V30 10966 H 1003.71 3.05005 -3.45677 0
M  V30 10967 H 1007.26 1.90084 -6.71203 0
M  V30 10968 H 1003.16 2.76679 -5.83197 0
M  V30 10969 H 1003.92 2.30106 -7.85489 0
M  V30 10970 N 1006.59 1.25851 0.948643 0
M  V30 10971 C 1007.81 1.13711 1.72851 0
M  V30 10972 C 1008.23 -0.308471 1.86263 0
M  V30 10973 O 1007.59 -1.21175 1.36465 0
M  V30 10974 C 1007.64 1.79271 3.13918 0
M  V30 10975 O 1007.36 3.18179 3.01154 0
M  V30 10976 C 1008.86 1.72988 4.08154 0
M  V30 10977 H 1006.08 0.396334 0.541443 0
M  V30 10978 H 1008.62 1.66329 1.18974 0
M  V30 10979 H 1006.78 1.30609 3.64719 0
M  V30 10980 H 1007.19 3.50507 3.90186 0
M  V30 10981 H 1008.67 2.2351 5.04725 0
M  V30 10982 H 1009.14 0.694866 4.33668 0
M  V30 10983 H 1009.75 2.21166 3.63271 0
M  V30 10984 N 1008.06 -1.15214 1.07534 0
M  V30 10985 C 1008.99 -2.2216 0.718837 0
M  V30 10986 C 1009.98 -1.6753 -0.29459 0
M  V30 10987 O 1011.16 -1.93481 -0.166931 0
M  V30 10988 C 1008.29 -3.471 0.117836 0
M  V30 10989 C 1007.24 -4.14701 1.05862 0
M  V30 10990 C 1006.57 -5.3374 0.320284 0
M  V30 10991 C 1007.87 -4.64254 2.39302 0
M  V30 10992 H 1009.56 -2.52237 1.61297 0
M  V30 10993 H 1007.11 -1.21239 0.776992 0
M  V30 10994 H 1009.06 -4.21156 -0.143519 0
M  V30 10995 H 1007.79 -3.16361 -0.811389 0
M  V30 10996 H 1006.45 -3.42589 1.30493 0
M  V30 10997 H 1006.09 -4.99257 -0.61246 0
M  V30 10998 H 1005.79 -5.79912 0.947381 0
M  V30 10999 H 1007.32 -6.10563 0.0667721 0
M  V30 11000 H 1008.73 -5.29827 2.18988 0
M  V30 11001 H 1007.13 -5.21095 2.97623 0
M  V30 11002 H 1008.2 -3.79793 3.01472 0
M  V30 11003 N 1009.54 -0.859717 -1.32086 0
M  V30 11004 C 1010.77 -0.478865 -2.01796 0
M  V30 11005 C 1011.19 0.918274 -1.64163 0
M  V30 11006 O 1010.55 1.60409 -0.844896 0
M  V30 11007 C 1010.6 -0.631356 -3.5503 0
M  V30 11008 O 1009.7 0.333712 -4.11048 0
M  V30 11009 H 1009.04 -0.191775 -0.635703 0
M  V30 11010 H 1011.57 -1.16031 -1.68517 0
M  V30 11011 H 1011.58 -0.520783 -4.04663 0
M  V30 11012 H 1010.26 -1.65015 -3.81763 0
M  V30 11013 H 1008.84 0.178953 -3.7247 0
M  V30 11014 N 1011.02 1.44971 -0.618145 0
M  V30 11015 C 1012.26 2.04044 -0.120625 0
M  V30 11016 C 1012.62 1.47472 1.22947 0
M  V30 11017 O 1013.83 1.97965 1.81834 0
M  V30 11018 C 1012.1 3.57279 -0.0930863 0
M  V30 11019 S 1013.66 4.37468 0.341705 0
M  V30 11020 H 1010.47 0.708891 -0.0547272 0
M  V30 11021 H 1013.08 1.77535 -0.818621 0
M  V30 11022 H 1011.78 3.95961 -1.07903 0
M  V30 11023 H 1011.31 3.88378 0.62657 0
M  V30 11024 H 1013.33 4.70073 1.58888 0
M  V30 11025 N 1012.5 0.357919 1.53482 0
M  V30 11026 C 1013.91 0.00655107 1.59599 0
M  V30 11027 C 1014.11 -1.47449 1.37336 0
M  V30 11028 O 1013.17 -2.2351 1.17472 0
M  V30 11029 C 1014.48 0.455617 2.97228 0
M  V30 11030 C 1016.03 0.409183 3.10314 0
M  V30 11031 C 1016.51 0.833941 4.50344 0
M  V30 11032 N 1018 0.788695 4.56436 0
M  V30 11033 C 1018.73 1.08914 5.62961 0
M  V30 11034 N 1018.23 1.45847 6.77274 0
M  V30 11035 N 1020.02 1.01243 5.52907 0
M  V30 11036 H 1012.17 1.32248 1.66206 0
M  V30 11037 H 1014.44 0.540047 0.779136 0
M  V30 11038 H 1014.14 1.48881 3.18634 0
M  V30 11039 H 1014.02 -0.161751 3.76853 0
M  V30 11040 H 1016.4 -0.614863 2.88623 0
M  V30 11041 H 1016.48 1.06195 2.32715 0
M  V30 11042 H 1016.13 1.85607 4.72771 0
M  V30 11043 H 1016.06 0.158507 5.26361 0
M  V30 11044 H 1018.55 0.516497 3.74354 0
M  V30 11045 H 1018.86 1.67218 7.54492 0
M  V30 11046 H 1017.21 1.49705 6.78685 0
M  V30 11047 H 1020.4 0.723137 4.62481 0
M  V30 11048 H 1020.57 1.24991 6.35831 0
M  V30 11049 N 1013.98 -1.5736 0.0868897 0
M  V30 11050 C 1015.25 -1.85495 -0.620561 0
M  V30 11051 C 1015.63 -0.982218 -1.86857 0
M  V30 11052 O 1014.98 -0.0524529 -2.2844 0
M  V30 11053 C 1015.19 -3.35996 -0.943798 0
M  V30 11054 C 1016.54 -4.03861 -1.31079 0
M  V30 11055 O 1017.56 -3.4083 -1.03507 0
M  V30 11056 O 1016.42 -5.15062 -1.82683 0
M  V30 11057 H 1013.52 -0.766822 -0.309697 0
M  V30 11058 H 1016.06 -1.69282 0.118966 0
M  V30 11059 H 1014.83 -3.91257 -0.0580628 0
M  V30 11060 H 1014.46 -3.57525 -1.73958 0
M  V30 11061 N 1015.45 0.186762 -1.56489 0
M  V30 11062 C 1016.87 0.537933 -1.50261 0
M  V30 11063 C 1017.07 1.85435 -0.788414 0
M  V30 11064 O 1016.13 2.50168 -0.342377 0
M  V30 11065 C 1017.44 0.584965 -2.94955 0
M  V30 11066 C 1018.99 0.673228 -3.05674 0
M  V30 11067 C 1019.46 0.751294 -4.51796 0
M  V30 11068 N 1020.95 0.814599 -4.55981 0
M  V30 11069 C 1021.69 0.895313 -5.66367 0
M  V30 11070 N 1021.18 0.937814 -6.86423 0
M  V30 11071 N 1022.98 0.933145 -5.543 0
M  V30 11072 H 1015.13 -0.676636 -2.01334 0
M  V30 11073 H 1017.39 -0.242079 -0.916571 0
M  V30 11074 H 1017.1 -0.313361 -3.50301 0
M  V30 11075 H 1016.97 1.4368 -3.48763 0
M  V30 11076 H 1019.36 1.56198 -2.50372 0
M  V30 11077 H 1019.44 -0.204976 -2.54977 0
M  V30 11078 H 1019.08 -0.133143 -5.07725 0
M  V30 11079 H 1019.01 1.64542 -5.00233 0
M  V30 11080 H 1021.5 0.790662 -3.69536 0
M  V30 11081 H 1021.82 1.00015 -7.66301 0
M  V30 11082 H 1020.16 0.906351 -6.89065 0
M  V30 11083 H 1023.35 0.896836 -4.59428 0
M  V30 11084 H 1023.53 0.992588 -6.40353 0
M  V30 11085 N 1016.93 1.50896 0.454776 0
M  V30 11086 C 1017.88 1.71497 1.57136 0
M  V30 11087 C 1018.87 0.58098 1.59126 0
M  V30 11088 O 1020.08 0.761916 1.63079 0
M  V30 11089 H 1016.46 0.54158 0.521724 0
M  V30 11090 H 1018.43 2.65129 1.36928 0
M  V30 11091 C 1017.18 1.84125 2.94947 0
M  V30 11092 H 1016.5 2.7078 2.9414 0
M  V30 11093 H 1017.94 2.02558 3.72487 0
M  V30 11094 C 1016.4 0.596752 3.31573 0
M  V30 11095 O 1016.93 -0.256632 4.00879 0
M  V30 11096 N 1015.13 0.445958 2.87158 0
M  V30 11097 H 1014.68 1.14146 2.30929 0
M  V30 11098 H 1014.64 -0.385519 3.12027 0
M  V30 11099 N 1018.41 -0.709066 1.40748 0
M  V30 11100 C 1019.32 -1.85314 1.43861 0
M  V30 11101 C 1020.34 -1.70832 0.330539 0
M  V30 11102 O 1021.51 -1.92983 0.576152 0
M  V30 11103 C 1018.58 -3.21174 1.30568 0
M  V30 11104 C 1017.64 -3.47863 2.51574 0
M  V30 11105 C 1016.87 -4.77241 2.38906 0
M  V30 11106 O 1017.09 -5.52791 1.40636 0
M  V30 11107 O 1016.03 -5.04413 3.28407 0
M  V30 11108 H 1019.85 -1.85644 2.40354 0
M  V30 11109 H 1017.44 -0.860352 1.2214 0
M  V30 11110 H 1019.32 -4.02313 1.25388 0
M  V30 11111 H 1018 -3.21557 0.371841 0
M  V30 11112 H 1016.9 -2.66708 2.62331 0
M  V30 11113 H 1018.24 -3.52283 3.43741 0
M  V30 11114 N 1019.89 -1.26353 -0.941956 0
M  V30 11115 C 1020.84 -1.07842 -2.04056 0
M  V30 11116 C 1021.81 0.0163064 -1.66092 0
M  V30 11117 O 1022.99 -0.143313 -1.90261 0
M  V30 11118 C 1020.13 -0.716636 -3.37577 0
M  V30 11119 C 1019.24 -1.88754 -3.88582 0
M  V30 11120 C 1018.38 -1.46893 -5.10486 0
M  V30 11121 C 1017.42 -2.60819 -5.53751 0
M  V30 11122 N 1016.56 -2.19646 -6.66858 0
M  V30 11123 H 1021.4 -2.01856 -2.19221 0
M  V30 11124 H 1018.93 -1.00504 -1.07412 0
M  V30 11125 H 1020.89 -0.487768 -4.14339 0
M  V30 11126 H 1019.52 0.18653 -3.22261 0
M  V30 11127 H 1018.57 -2.22936 -3.08227 0
M  V30 11128 H 1019.88 -2.74264 -4.1663 0
M  V30 11129 H 1019.04 -1.20047 -5.94705 0
M  V30 11130 H 1017.78 -0.584721 -4.84182 0
M  V30 11131 H 1016.78 -2.88396 -4.6809 0
M  V30 11132 H 1018.01 -3.49838 -5.82057 0
M  V30 11133 H 1015.95 -1.33657 -6.4224 0
M  V30 11134 H 1015.87 -2.987 -6.94489 0
M  V30 11135 H 1017.14 -1.96009 -7.54454 0
M  V30 11136 N 1021.37 1.14642 -1.08144 0
M  V30 11137 C 1022.62 1.84964 -0.804437 0
M  V30 11138 C 1022.93 1.8369 0.672106 0
M  V30 11139 O 1024.14 2.49775 1.06417 0
M  V30 11140 C 1022.59 3.32015 -1.38904 0
M  V30 11141 C 1022.2 3.41713 -2.89718 0
M  V30 11142 C 1023.94 4.07467 -1.19041 0
M  V30 11143 C 1021.85 4.82958 -3.41329 0
M  V30 11144 H 1020.78 0.692932 -0.297256 0
M  V30 11145 H 1023.43 1.29255 -1.30251 0
M  V30 11146 H 1021.81 3.87445 -0.818679 0
M  V30 11147 H 1022.99 2.96347 -3.52867 0
M  V30 11148 H 1021.3 2.79713 -3.08463 0
M  V30 11149 H 1023.9 5.1172 -1.55069 0
M  V30 11150 H 1024.24 4.16097 -0.130027 0
M  V30 11151 H 1024.78 3.58329 -1.72757 0
M  V30 11152 H 1021.51 4.79515 -4.46929 0
M  V30 11153 H 1021.03 5.28873 -2.82937 0
M  V30 11154 H 1022.71 5.51841 -3.37759 0
M  V30 11155 N 1022.85 0.866709 1.31628 0
M  V30 11156 C 1024.09 0.476026 1.96825 0
M  V30 11157 C 1024.42 -0.970994 1.68529 0
M  V30 11158 O 1023.68 -1.69823 0.97255 0
M  V30 11159 C 1023.97 0.676018 3.50948 0
M  V30 11160 C 1023.64 2.09533 3.99258 0
M  V30 11161 C 1022.3 2.48349 4.1216 0
M  V30 11162 C 1024.65 3.02112 4.24709 0
M  V30 11163 C 1021.98 3.78991 4.47864 0
M  V30 11164 C 1024.33 4.32266 4.61875 0
M  V30 11165 C 1023 4.71 4.72985 0
M  V30 11166 H 1022.27 0.17419 0.720235 0
M  V30 11167 H 1024.92 1.09907 1.5682 0
M  V30 11168 H 1023.22 -0.0301867 3.91788 0
M  V30 11169 H 1024.92 0.353604 3.99438 0
M  V30 11170 H 1021.51 1.78396 3.89709 0
M  V30 11171 H 1025.69 2.73351 4.14238 0
M  V30 11172 H 1020.95 4.08769 4.54663 0
M  V30 11173 H 1025.12 5.04055 4.80522 0
M  V30 11174 H 1022.75 5.72273 5.00407 0
M  V30 11175 N 1024.32 -1.44642 0.625825 0
M  V30 11176 C 1025.74 -1.56925 0.290992 0
M  V30 11177 C 1025.94 -1.61424 -1.20601 0
M  V30 11178 O 1025 -1.55439 -1.98985 0
M  V30 11179 C 1026.31 -2.84343 0.978242 0
M  V30 11180 C 1027.86 -2.98047 0.955882 0
M  V30 11181 C 1028.33 -4.2826 1.62349 0
M  V30 11182 N 1029.82 -4.35062 1.58983 0
M  V30 11183 C 1030.56 -5.34524 2.07538 0
M  V30 11184 N 1030.05 -6.4042 2.6426 0
M  V30 11185 N 1031.85 -5.25998 1.98198 0
M  V30 11186 H 1024 -1.39965 1.59761 0
M  V30 11187 H 1026.26 -0.670368 0.670306 0
M  V30 11188 H 1025.97 -2.86985 2.03304 0
M  V30 11189 H 1025.84 -3.73699 0.512726 0
M  V30 11190 H 1028.23 -2.94961 -0.0904292 0
M  V30 11191 H 1028.31 -2.10053 1.45984 0
M  V30 11192 H 1027.95 -4.32105 2.66923 0
M  V30 11193 H 1027.88 -5.15102 1.09441 0
M  V30 11194 H 1030.37 -3.59147 1.17565 0
M  V30 11195 H 1030.69 -7.1259 2.99056 0
M  V30 11196 H 1029.03 -6.41121 2.68308 0
M  V30 11197 H 1032.22 -4.42178 1.5361 0
M  V30 11198 H 1032.4 -6.03359 2.3635 0
M  V30 11199 N 1025.8 -0.366053 -1.5329 0
M  V30 11200 C 1027.05 0.223824 -2.01561 0
M  V30 11201 C 1027.38 1.48382 -1.25286 0
M  V30 11202 O 1026.66 1.91385 -0.34669 0
M  V30 11203 C 1026.94 0.5153 -3.56394 0
M  V30 11204 C 1026.79 -0.758357 -4.43361 0
M  V30 11205 C 1028.11 1.31568 -4.19974 0
M  V30 11206 H 1025.23 0.0798751 -0.732659 0
M  V30 11207 H 1027.87 -0.491038 -1.83545 0
M  V30 11208 H 1026.02 1.12429 -3.71876 0
M  V30 11209 H 1027.69 -1.39584 -4.39675 0
M  V30 11210 H 1025.94 -1.37862 -4.11311 0
M  V30 11211 H 1026.61 -0.509366 -5.49645 0
M  V30 11212 H 1029.08 0.800514 -4.08327 0
M  V30 11213 H 1027.96 1.48837 -5.28336 0
M  V30 11214 H 1028.22 2.32432 -3.76069 0
M  V30 11215 N 1027.28 1.57312 -0.0952337 0
M  V30 11216 C 1028.19 2.17556 0.877877 0
M  V30 11217 C 1029.21 1.14505 1.31014 0
M  V30 11218 O 1030.38 1.46876 1.37802 0
M  V30 11219 C 1027.45 2.74413 2.11892 0
M  V30 11220 C 1026.51 3.92419 1.74085 0
M  V30 11221 C 1025.74 4.46556 2.92273 0
M  V30 11222 O 1025.96 3.99631 4.07002 0
M  V30 11223 O 1024.9 5.37576 2.70732 0
M  V30 11224 H 1028.72 3.01116 0.395312 0
M  V30 11225 H 1026.31 1.48841 0.129123 0
M  V30 11226 H 1028.19 3.10754 2.84622 0
M  V30 11227 H 1026.87 1.93899 2.59201 0
M  V30 11228 H 1025.77 3.6089 0.985346 0
M  V30 11229 H 1027.11 4.74298 1.31539 0
M  V30 11230 N 1028.76 -0.17846 1.56586 0
M  V30 11231 C 1029.71 -1.24042 1.96765 0
M  V30 11232 C 1030.7 -1.46218 0.855375 0
M  V30 11233 O 1031.91 -1.46882 1.04046 0
M  V30 11234 H 1028.28 -0.416807 0.62592 0
M  V30 11235 H 1030.25 -0.874644 2.85294 0
M  V30 11236 C 1029 -2.57394 2.3376 0
M  V30 11237 H 1028.32 -2.41151 3.18883 0
M  V30 11238 H 1029.76 -3.30405 2.65723 0
M  V30 11239 C 1028.22 -3.15621 1.17835 0
M  V30 11240 O 1028.75 -3.99032 0.462202 0
M  V30 11241 N 1026.96 -2.74606 0.950783 0
M  V30 11242 H 1026.51 -2.06878 1.5349 0
M  V30 11243 H 1026.46 -3.13902 0.176967 0
M  V30 11244 N 1030.24 -1.51135 -0.446768 0
M  V30 11245 C 1031.46 -1.67411 -1.22427 0
M  V30 11246 C 1031.89 -0.367009 -1.84485 0
M  V30 11247 O 1031.24 0.67185 -1.68392 0
M  V30 11248 C 1031.29 -2.78473 -2.29096 0
M  V30 11249 O 1030.4 -2.41419 -3.34351 0
M  V30 11250 H 1029.74 -0.558512 -0.359111 0
M  V30 11251 H 1032.27 -1.97648 -0.5288 0
M  V30 11252 H 1032.28 -3.02277 -2.7403 0
M  V30 11253 H 1030.95 -3.73326 -1.83304 0
M  V30 11254 H 1029.53 -2.28152 -2.9496 0
M  V30 11255 N 1031.71 0.701592 -1.41122 0
M  V30 11256 C 1032.66 1.83691 -1.4269 0
M  V30 11257 C 1033.66 1.6662 -0.305658 0
M  V30 11258 O 1034.86 1.73554 -0.477392 0
M  V30 11259 H 1031.24 0.605222 -0.44633 0
M  V30 11260 H 1033.21 1.79485 -2.38386 0
M  V30 11261 C 1031.96 3.21666 -1.32008 0
M  V30 11262 H 1031.28 3.35416 -2.17569 0
M  V30 11263 H 1032.72 4.012 -1.37165 0
M  V30 11264 C 1031.18 3.36885 -0.0317678 0
M  V30 11265 O 1031.71 3.90885 0.925836 0
M  V30 11266 N 1029.91 2.90569 0.0423401 0
M  V30 11267 H 1029.46 2.46812 -0.737673 0
M  V30 11268 H 1029.42 3.0113 0.903764 0
M  V30 11269 N 1033.19 1.2685 0.935242 0
M  V30 11270 C 1034.44 1.12522 1.67878 0
M  V30 11271 C 1034.76 -0.330894 1.92172 0
M  V30 11272 O 1034.03 -1.23259 1.52263 0
M  V30 11273 H 1032.61 0.413418 0.622169 0
M  V30 11274 H 1035.27 1.59267 1.12339 0
M  V30 11275 H 1034.37 1.64853 2.65009 0
M  V30 11276 N 1034.67 -1.14067 1.0875 0
M  V30 11277 C 1035.6 -2.18306 0.664652 0
M  V30 11278 C 1036.58 -1.59312 -0.325359 0
M  V30 11279 O 1037.77 -1.87111 -0.228385 0
M  V30 11280 C 1034.89 -3.38693 -0.0218723 0
M  V30 11281 C 1033.94 -4.16263 0.928844 0
M  V30 11282 S 1034.77 -4.76817 2.43734 0
M  V30 11283 C 1035.93 -6.00557 1.76302 0
M  V30 11284 H 1036.16 -2.53837 1.54772 0
M  V30 11285 H 1033.69 -1.25254 0.902817 0
M  V30 11286 H 1035.65 -4.0843 -0.411686 0
M  V30 11287 H 1034.31 -3.01478 -0.881481 0
M  V30 11288 H 1033.51 -5.02446 0.395446 0
M  V30 11289 H 1033.11 -3.52146 1.25972 0
M  V30 11290 H 1035.4 -6.68788 1.08301 0
M  V30 11291 H 1036.34 -6.58492 2.60373 0
M  V30 11292 H 1036.75 -5.50827 1.23489 0
M  V30 11293 N 1036.15 -0.873678 -1.31166 0
M  V30 11294 C 1037.1 -0.330288 -2.28424 0
M  V30 11295 C 1038.07 0.573299 -1.55893 0
M  V30 11296 O 1039.25 0.504143 -1.84019 0
M  V30 11297 C 1036.39 0.459004 -3.42034 0
M  V30 11298 C 1035.5 -0.472519 -4.29408 0
M  V30 11299 C 1034.64 0.331261 -5.30166 0
M  V30 11300 C 1033.68 -0.596453 -6.09187 0
M  V30 11301 N 1032.81 0.171305 -7.01891 0
M  V30 11302 H 1037.65 -1.16485 -2.7429 0
M  V30 11303 H 1035.19 -0.585813 -1.34932 0
M  V30 11304 H 1037.15 0.932432 -4.06647 0
M  V30 11305 H 1035.78 1.25824 -2.97268 0
M  V30 11306 H 1034.83 -1.06441 -3.65205 0
M  V30 11307 H 1036.14 -1.18372 -4.84551 0
M  V30 11308 H 1035.3 0.867038 -6.00473 0
M  V30 11309 H 1034.04 1.07573 -4.75688 0
M  V30 11310 H 1033.04 -1.14395 -5.37767 0
M  V30 11311 H 1034.27 -1.33983 -6.65752 0
M  V30 11312 H 1032.21 0.89852 -6.49817 0
M  V30 11313 H 1032.13 -0.480481 -7.54472 0
M  V30 11314 H 1033.4 0.688192 -7.76456 0
M  V30 11315 N 1037.63 1.44308 -0.633487 0
M  V30 11316 C 1039.04 1.85387 -0.221009 0
M  V30 11317 C 1039.39 1.5301 1.22811 0
M  V30 11318 O 1038.51 0.969325 1.93476 0
M  V30 11319 C 1039.11 3.36497 -0.394331 0
M  V30 11320 C 1037.67 3.76382 -0.0363405 0
M  V30 11321 C 1036.81 2.68146 -0.706598 0
M  V30 11322 H 1039.77 1.34741 -0.83849 0
M  V30 11323 H 1039.79 3.78735 0.366026 0
M  V30 11324 H 1039.3 3.60031 -1.44911 0
M  V30 11325 H 1037.4 3.58463 1.01661 0
M  V30 11326 H 1037.51 4.77 -0.448045 0
M  V30 11327 H 1035.88 2.54306 -0.14168 0
M  V30 11328 H 1036.66 2.94512 -1.76401 0
M  V30 11329 N 1039.1 0.374177 1.53094 0
M  V30 11330 C 1040.35 -0.212816 2.01379 0
M  V30 11331 C 1040.68 -1.48069 1.26118 0
M  V30 11332 O 1039.93 -1.92625 0.345561 0
M  V30 11333 C 1040.23 -0.542179 3.53264 0
M  V30 11334 C 1039.9 0.632375 4.46444 0
M  V30 11335 C 1038.56 0.954635 4.71636 0
M  V30 11336 C 1040.91 1.41887 5.01515 0
M  V30 11337 C 1038.24 2.06521 5.4915 0
M  V30 11338 C 1040.59 2.51993 5.80243 0
M  V30 11339 C 1039.26 2.84744 6.03719 0
M  V30 11340 H 1038.53 -0.0778749 0.736897 0
M  V30 11341 H 1041.17 0.508412 1.84628 0
M  V30 11342 H 1039.48 -1.34454 3.68007 0
M  V30 11343 H 1041.18 -1.00874 3.88105 0
M  V30 11344 H 1037.77 0.371179 4.2699 0
M  V30 11345 H 1041.95 1.18315 4.81991 0
M  V30 11346 H 1037.21 2.32284 5.65557 0
M  V30 11347 H 1041.38 3.13346 6.21922 0
M  V30 11348 H 1039.01 3.70921 6.63568 0
M  V30 11349 N 1040.58 -1.57259 0.103575 0
M  V30 11350 C 1042 -1.57581 -0.253062 0
M  V30 11351 C 1042.2 -1.11531 -1.67819 0
M  V30 11352 O 1041.25 -0.795632 -2.39637 0
M  V30 11353 C 1042.57 -3.00681 -0.0337753 0
M  V30 11354 C 1044.12 -3.12837 -0.10087 0
M  V30 11355 C 1044.59 -4.57911 0.0905295 0
M  V30 11356 N 1046.08 -4.63186 0.0359789 0
M  V30 11357 C 1046.82 -5.73179 0.159199 0
M  V30 11358 N 1046.31 -6.91976 0.337728 0
M  V30 11359 N 1048.11 -5.62011 0.0998662 0
M  V30 11360 H 1040.26 -1.85499 1.0346 0
M  V30 11361 H 1042.52 -0.856584 0.406163 0
M  V30 11362 H 1042.23 -3.38602 0.950858 0
M  V30 11363 H 1042.1 -3.69207 -0.772406 0
M  V30 11364 H 1044.49 -2.74783 -1.07601 0
M  V30 11365 H 1044.57 -2.46886 0.66939 0
M  V30 11366 H 1044.21 -4.9666 1.06258 0
M  V30 11367 H 1044.14 -5.21933 -0.699528 0
M  V30 11368 H 1046.63 -3.7777 -0.099121 0
M  V30 11369 H 1046.95 -7.71641 0.423032 0
M  V30 11370 H 1045.29 -6.93996 0.373504 0
M  V30 11371 H 1048.48 -4.68084 -0.0385356 0
M  V30 11372 H 1048.65 -6.47693 0.199342 0
M  V30 11373 N 1042.06 0.170153 -1.56679 0
M  V30 11374 C 1043.47 0.732502 -1.7173 0
M  V30 11375 C 1043.82 1.82736 -0.71428 0
M  V30 11376 O 1042.95 2.16044 0.124102 0
M  V30 11377 C 1043.54 1.33548 -3.11368 0
M  V30 11378 C 1042.1 1.84464 -3.281 0
M  V30 11379 C 1041.25 0.724069 -2.6768 0
M  V30 11380 H 1044.2 -0.0552543 -1.58604 0
M  V30 11381 H 1044.22 2.20519 -3.10083 0
M  V30 11382 H 1043.73 0.5384 -3.84347 0
M  V30 11383 H 1041.83 2.66813 -2.6008 0
M  V30 11384 H 1041.95 1.98928 -4.35849 0
M  V30 11385 H 1040.31 1.14481 -2.27522 0
M  V30 11386 H 1041.09 -0.0611861 -3.43245 0
M  V30 11387 N 1043.54 1.5137 0.438746 0
M  V30 11388 C 1044.82 1.54508 1.19944 0
M  V30 11389 C 1045.2 0.308525 2.08833 0
M  V30 11390 O 1044.54 -0.706461 2.17305 0
M  V30 11391 C 1044.75 2.85833 2.00251 0
M  V30 11392 C 1046.1 3.37729 2.5734 0
M  V30 11393 O 1047.13 2.87374 2.10463 0
M  V30 11394 O 1045.98 4.25589 3.42836 0
M  V30 11395 H 1043.08 0.621132 0.546007 0
M  V30 11396 H 1045.62 1.63682 0.447931 0
M  V30 11397 H 1044.4 3.67291 1.34955 0
M  V30 11398 H 1044.02 2.79815 2.8247 0
M  V30 11399 N 1045.02 -0.694098 1.41492 0
M  V30 11400 C 1045.95 -1.82042 1.46229 0
M  V30 11401 C 1046.93 -1.67047 0.320803 0
M  V30 11402 O 1048.11 -1.86758 0.53245 0
M  V30 11403 C 1045.24 -3.2019 1.34519 0
M  V30 11404 C 1044.2 -3.49892 2.46495 0
M  V30 11405 C 1043.52 -4.87411 2.1985 0
M  V30 11406 C 1044.82 -3.4872 3.88834 0
M  V30 11407 H 1046.52 -1.78335 2.40493 0
M  V30 11408 H 1044.06 -0.856566 1.15754 0
M  V30 11409 H 1046.02 -3.98699 1.36445 0
M  V30 11410 H 1044.74 -3.24527 0.367406 0
M  V30 11411 H 1043.4 -2.73734 2.43854 0
M  V30 11412 H 1043.05 -4.88375 1.20411 0
M  V30 11413 H 1042.75 -5.08248 2.94885 0
M  V30 11414 H 1044.27 -5.68228 2.23494 0
M  V30 11415 H 1045.68 -4.1723 3.93182 0
M  V30 11416 H 1044.08 -3.81089 4.63564 0
M  V30 11417 H 1045.15 -2.47665 4.16881 0
M  V30 11418 N 1046.49 -1.27344 -0.928501 0
M  V30 11419 C 1047.74 -1.13635 -1.6761 0
M  V30 11420 C 1048.07 0.317957 -1.91884 0
M  V30 11421 O 1047.32 1.24904 -1.50657 0
M  V30 11422 C 1047.62 -1.86439 -3.04918 0
M  V30 11423 C 1047.29 -3.36298 -3.00358 0
M  V30 11424 C 1045.95 -3.77173 -2.98821 0
M  V30 11425 C 1048.3 -4.31921 -2.91708 0
M  V30 11426 C 1045.63 -5.12037 -2.86417 0
M  V30 11427 C 1047.98 -5.66841 -2.80846 0
M  V30 11428 C 1046.65 -6.07011 -2.77659 0
M  V30 11429 H 1045.92 -0.415821 -0.61333 0
M  V30 11430 H 1048.56 -1.57943 -1.08288 0
M  V30 11431 H 1046.87 -1.34638 -3.6794 0
M  V30 11432 H 1048.57 -1.73261 -3.61637 0
M  V30 11433 H 1045.16 -3.0379 -3.0234 0
M  V30 11434 H 1049.34 -4.01314 -2.91994 0
M  V30 11435 H 1044.6 -5.42307 -2.82336 0
M  V30 11436 H 1048.77 -6.40608 -2.73119 0
M  V30 11437 H 1046.4 -7.11467 -2.67804 0
M  V30 11438 N 1047.97 1.13488 -1.09353 0
M  V30 11439 C 1048.9 2.20988 -0.75409 0
M  V30 11440 C 1049.88 1.67977 0.267901 0
M  V30 11441 O 1051.07 1.93722 0.136128 0
M  V30 11442 C 1048.2 3.46869 -0.173042 0
M  V30 11443 C 1047.15 4.12965 -1.12446 0
M  V30 11444 C 1046.48 5.33163 -0.405157 0
M  V30 11445 C 1047.78 4.60388 -2.46658 0
M  V30 11446 H 1049.47 2.49639 -1.6529 0
M  V30 11447 H 1047.02 1.19987 -0.796182 0
M  V30 11448 H 1048.97 4.21331 0.0764988 0
M  V30 11449 H 1047.7 3.17611 0.760956 0
M  V30 11450 H 1046.35 3.40469 -1.35927 0
M  V30 11451 H 1046 5.00169 0.532955 0
M  V30 11452 H 1045.7 5.78332 -1.03952 0
M  V30 11453 H 1047.23 6.1038 -0.163899 0
M  V30 11454 H 1048.64 5.26276 -2.27389 0
M  V30 11455 H 1047.04 5.16294 -3.05876 0
M  V30 11456 H 1048.11 3.74949 -3.07476 0
M  V30 11457 N 1049.45 0.880621 1.30701 0
M  V30 11458 C 1050.36 0.348034 2.32004 0
M  V30 11459 C 1051.38 -0.547508 1.65162 0
M  V30 11460 O 1052.55 -0.441673 1.96497 0
M  V30 11461 C 1049.62 -0.432585 3.43991 0
M  V30 11462 C 1048.68 0.492189 4.26469 0
M  V30 11463 C 1047.91 -0.25127 5.33108 0
M  V30 11464 O 1048.14 -1.47795 5.5092 0
M  V30 11465 O 1047.07 0.396376 6.00593 0
M  V30 11466 H 1050.9 1.18798 2.79501 0
M  V30 11467 H 1048.48 0.64432 1.34792 0
M  V30 11468 H 1050.36 -0.874733 4.12221 0
M  V30 11469 H 1049.04 -1.2489 2.98637 0
M  V30 11470 H 1047.94 0.983058 3.60953 0
M  V30 11471 H 1049.28 1.27439 4.75416 0
M  V30 11472 N 1050.93 -1.4397 0.641131 0
M  V30 11473 C 1052.16 -2.06303 0.157006 0
M  V30 11474 C 1052.57 -1.47981 -1.17248 0
M  V30 11475 O 1051.93 -0.606471 -1.72128 0
M  V30 11476 C 1051.98 -3.6147 0.0468425 0
M  V30 11477 O 1051.7 -4.17622 1.32376 0
M  V30 11478 C 1053.2 -4.40857 -0.464795 0
M  V30 11479 H 1050.42 -0.665684 0.0842946 0
M  V30 11480 H 1052.97 -1.84675 0.878363 0
M  V30 11481 H 1051.12 -3.82325 -0.625006 0
M  V30 11482 H 1051.54 -5.11167 1.17509 0
M  V30 11483 H 1053.01 -5.49813 -0.490862 0
M  V30 11484 H 1053.49 -4.13016 -1.4938 0
M  V30 11485 H 1054.09 -4.24943 0.174146 0
M  V30 11486 N 1052.41 -0.382291 -1.52893 0
M  V30 11487 C 1053.37 0.44408 -2.24857 0
M  V30 11488 C 1054.37 0.996004 -1.26239 0
M  V30 11489 O 1055.56 0.879114 -1.5039 0
M  V30 11490 C 1052.69 1.62234 -2.99822 0
M  V30 11491 H 1053.89 -0.185862 -2.99324 0
M  V30 11492 H 1051.44 -0.134275 -1.55722 0
M  V30 11493 H 1052.17 2.28991 -2.29638 0
M  V30 11494 H 1051.96 1.23336 -3.72197 0
M  V30 11495 H 1053.45 2.20756 -3.54481 0
M  V30 11496 N 1053.89 1.57202 -0.111913 0
M  V30 11497 C 1054.8 2.18475 0.854753 0
M  V30 11498 C 1055.81 1.15888 1.29792 0
M  V30 11499 O 1056.99 1.48329 1.36237 0
M  V30 11500 C 1054.05 2.76645 2.0897 0
M  V30 11501 C 1053.11 3.94244 1.69913 0
M  V30 11502 C 1052.35 4.49631 2.8752 0
M  V30 11503 O 1052.57 4.03926 4.02741 0
M  V30 11504 O 1051.5 5.40417 2.65015 0
M  V30 11505 H 1055.33 3.01519 0.363352 0
M  V30 11506 H 1052.91 1.4897 0.113329 0
M  V30 11507 H 1054.8 3.13755 2.81311 0
M  V30 11508 H 1053.47 1.96637 2.5713 0
M  V30 11509 H 1052.38 3.61915 0.947013 0
M  V30 11510 H 1053.71 4.75666 1.26501 0
M  V30 11511 N 1055.36 -0.161842 1.56767 0
M  V30 11512 C 1056.27 -1.21996 2.00385 0
M  V30 11513 C 1057.29 -1.4789 0.916768 0
M  V30 11514 O 1058.47 -1.59852 1.22513 0
M  V30 11515 C 1055.53 -2.53695 2.36305 0
M  V30 11516 C 1054.59 -2.3558 3.58888 0
M  V30 11517 C 1053.82 -3.60998 3.93085 0
M  V30 11518 O 1054.05 -4.6657 3.28129 0
M  V30 11519 O 1052.98 -3.54544 4.86397 0
M  V30 11520 H 1056.81 -0.879701 2.9068 0
M  V30 11521 H 1054.39 -0.369437 1.4476 0
M  V30 11522 H 1056.27 -3.31366 2.60335 0
M  V30 11523 H 1054.95 -2.87281 1.49169 0
M  V30 11524 H 1053.86 -1.55908 3.40064 0
M  V30 11525 H 1055.19 -2.06915 4.46595 0
M  V30 11526 N 1056.84 -1.516 -0.430713 0
M  V30 11527 C 1057.79 -1.73392 -1.52328 0
M  V30 11528 C 1058.76 -0.575758 -1.55802 0
M  V30 11529 O 1059.94 -0.810931 -1.72709 0
M  V30 11530 C 1057.08 -1.87092 -2.89984 0
M  V30 11531 C 1056.2 -3.14668 -2.95987 0
M  V30 11532 C 1055.33 -3.18923 -4.24807 0
M  V30 11533 C 1054.37 -4.40787 -4.24703 0
M  V30 11534 N 1053.51 -4.42556 -5.45059 0
M  V30 11535 H 1058.35 -2.6665 -1.33048 0
M  V30 11536 H 1055.88 -1.32146 -0.646207 0
M  V30 11537 H 1057.84 -1.93017 -3.69865 0
M  V30 11538 H 1056.47 -0.972363 -3.07807 0
M  V30 11539 H 1055.52 -3.1802 -2.08728 0
M  V30 11540 H 1056.84 -4.04562 -2.91772 0
M  V30 11541 H 1055.99 -3.23801 -5.13067 0
M  V30 11542 H 1054.73 -2.2693 -4.31688 0
M  V30 11543 H 1053.73 -4.36079 -3.34836 0
M  V30 11544 H 1054.96 -5.34053 -4.19481 0
M  V30 11545 H 1052.91 -3.53435 -5.52648 0
M  V30 11546 H 1052.82 -5.26267 -5.42751 0
M  V30 11547 H 1054.09 -4.51634 -6.35332 0
M  V30 11548 N 1058.32 0.686584 -1.41858 0
M  V30 11549 C 1059.23 1.83002 -1.46791 0
M  V30 11550 C 1060.25 1.70284 -0.357675 0
M  V30 11551 O 1061.42 1.92042 -0.606781 0
M  V30 11552 C 1058.49 3.19056 -1.35661 0
M  V30 11553 C 1057.55 3.43817 -2.57077 0
M  V30 11554 C 1056.78 4.7338 -2.46469 0
M  V30 11555 O 1057 5.50483 -1.49413 0
M  V30 11556 O 1055.94 4.99124 -3.36391 0
M  V30 11557 H 1059.76 1.81797 -2.43277 0
M  V30 11558 H 1057.35 0.840812 -1.23494 0
M  V30 11559 H 1059.23 4.00267 -1.31773 0
M  V30 11560 H 1057.91 3.20925 -0.422951 0
M  V30 11561 H 1056.81 2.625 -2.66541 0
M  V30 11562 H 1058.15 3.4677 -3.49302 0
M  V30 11563 N 1059.8 1.27835 0.921735 0
M  V30 11564 C 1060.73 1.136 2.04003 0
M  V30 11565 C 1061.71 0.0358756 1.70062 0
M  V30 11566 O 1062.89 0.211438 1.93046 0
M  V30 11567 C 1060.02 0.788697 3.38226 0
M  V30 11568 C 1058.98 1.84272 3.863 0
M  V30 11569 C 1058.3 1.34923 5.17397 0
M  V30 11570 C 1059.6 3.24788 4.09035 0
M  V30 11571 H 1061.3 2.07149 2.1617 0
M  V30 11572 H 1058.84 0.997349 1.0387 0
M  V30 11573 H 1060.8 0.675911 4.15944 0
M  V30 11574 H 1059.52 -0.182499 3.2609 0
M  V30 11575 H 1058.18 1.94451 3.1078 0
M  V30 11576 H 1057.83 0.367328 5.01657 0
M  V30 11577 H 1057.53 2.05397 5.50532 0
M  V30 11578 H 1059.05 1.24951 5.97678 0
M  V30 11579 H 1060.47 3.17575 4.77304 0
M  V30 11580 H 1058.86 3.93025 4.53488 0
M  V30 11581 H 1059.93 3.69398 3.14122 0
M  V30 11582 N 1061.28 -1.12907 1.09954 0
M  V30 11583 C 1062.19 -2.22082 0.756095 0
M  V30 11584 C 1063.2 -1.72277 -0.244272 0
M  V30 11585 O 1064.38 -2.01224 -0.0842637 0
M  V30 11586 C 1061.44 -3.46192 0.187642 0
M  V30 11587 C 1060.5 -4.10861 1.24465 0
M  V30 11588 C 1059.74 -5.29047 0.703227 0
M  V30 11589 O 1059.96 -5.68443 -0.472043 0
M  V30 11590 O 1058.89 -5.83904 1.46082 0
M  V30 11591 H 1062.72 -2.53842 1.66727 0
M  V30 11592 H 1060.3 -1.21145 0.874316 0
M  V30 11593 H 1062.19 -4.21212 -0.125774 0
M  V30 11594 H 1060.86 -3.16119 -0.696459 0
M  V30 11595 H 1059.77 -3.37643 1.61085 0
M  V30 11596 H 1061.1 -4.45078 2.10159 0
M  V30 11597 N 1062.75 -0.88754 -1.30232 0
M  V30 11598 C 1064 -0.508031 -1.96334 0
M  V30 11599 C 1064.33 0.940905 -1.69884 0
M  V30 11600 O 1063.61 1.66523 -1.005 0
M  V30 11601 C 1063.89 -0.786566 -3.51405 0
M  V30 11602 C 1063.74 -2.28632 -3.8736 0
M  V30 11603 C 1065.06 -0.264803 -4.39303 0
M  V30 11604 H 1062.18 -0.186051 -0.71313 0
M  V30 11605 H 1064.82 -1.112 -1.5406 0
M  V30 11606 H 1062.97 -0.272523 -3.87543 0
M  V30 11607 H 1064.65 -2.86896 -3.61231 0
M  V30 11608 H 1062.89 -2.75194 -3.35337 0
M  V30 11609 H 1063.56 -2.43181 -4.95547 0
M  V30 11610 H 1066.04 -0.704809 -4.10087 0
M  V30 11611 H 1064.91 -0.488998 -5.46717 0
M  V30 11612 H 1065.17 0.834055 -4.34161 0
M  V30 11613 N 1064.23 1.43628 -0.648757 0
M  V30 11614 C 1065.46 2.05918 -0.167701 0
M  V30 11615 C 1065.87 1.48681 1.17006 0
M  V30 11616 O 1065.21 0.610984 1.73242 0
M  V30 11617 C 1065.28 3.595 0.00265514 0
M  V30 11618 C 1064.94 4.39295 -1.2597 0
M  V30 11619 C 1065.94 4.71643 -2.18743 0
M  V30 11620 C 1063.62 4.79379 -1.50004 0
M  V30 11621 C 1065.62 5.42978 -3.33846 0
M  V30 11622 C 1063.3 5.50459 -2.65401 0
M  V30 11623 C 1064.3 5.82181 -3.57148 0
M  V30 11624 O 1063.99 6.5181 -4.7053 0
M  V30 11625 H 1063.72 0.670619 -0.0851261 0
M  V30 11626 H 1066.27 1.85196 -0.888351 0
M  V30 11627 H 1064.5 3.7878 0.77863 0
M  V30 11628 H 1066.19 4.03503 0.440501 0
M  V30 11629 H 1066.96 4.41199 -2.01416 0
M  V30 11630 H 1062.84 4.54098 -0.794745 0
M  V30 11631 H 1066.38 5.67656 -4.05479 0
M  V30 11632 H 1062.28 5.8032 -2.82664 0
M  V30 11633 H 1063.05 6.7029 -4.69738 0
M  V30 11634 N 1065.71 0.390394 1.52688 0
M  V30 11635 C 1066.64 -0.43567 2.294 0
M  V30 11636 C 1067.62 -1.06253 1.32832 0
M  V30 11637 O 1068.81 -1.07509 1.61726 0
M  V30 11638 C 1065.94 -1.56259 3.10162 0
M  V30 11639 C 1064.89 -1.06172 4.14622 0
M  V30 11640 C 1064.22 -2.2808 4.83615 0
M  V30 11641 C 1065.52 -0.128902 5.22141 0
M  V30 11642 H 1067.21 0.204384 2.98702 0
M  V30 11643 H 1064.76 0.0997377 1.43654 0
M  V30 11644 H 1066.71 -2.14732 3.62585 0
M  V30 11645 H 1065.43 -2.23025 2.38595 0
M  V30 11646 H 1064.09 -0.499518 3.63181 0
M  V30 11647 H 1063.74 -2.93358 4.08595 0
M  V30 11648 H 1063.44 -1.95227 5.5422 0
M  V30 11649 H 1064.96 -2.87193 5.38844 0
M  V30 11650 H 1066.38 -0.621849 5.69917 0
M  V30 11651 H 1064.78 0.109919 5.99999 0
M  V30 11652 H 1065.85 0.821884 4.77884 0
M  V30 11653 N 1067.19 -1.57141 0.120249 0
M  V30 11654 C 1068.12 -2.18398 -0.826112 0
M  V30 11655 C 1069.1 -1.12439 -1.27638 0
M  V30 11656 O 1070.28 -1.40679 -1.33877 0
M  V30 11657 C 1067.41 -2.78438 -2.0758 0
M  V30 11658 C 1066.37 -3.89991 -1.76327 0
M  V30 11659 C 1065.69 -4.36844 -3.08336 0
M  V30 11660 C 1066.99 -5.12031 -1.03062 0
M  V30 11661 H 1068.69 -2.97731 -0.315656 0
M  V30 11662 H 1066.23 -1.43213 -0.150387 0
M  V30 11663 H 1068.19 -3.19951 -2.74243 0
M  V30 11664 H 1066.91 -1.96396 -2.60953 0
M  V30 11665 H 1065.57 -3.49055 -1.12053 0
M  V30 11666 H 1065.22 -3.51659 -3.59646 0
M  V30 11667 H 1064.92 -5.1207 -2.88199 0
M  V30 11668 H 1066.44 -4.81009 -3.76116 0
M  V30 11669 H 1067.86 -5.50555 -1.59881 0
M  V30 11670 H 1066.25 -5.92848 -0.930146 0
M  V30 11671 H 1067.32 -4.84897 -0.017582 0
M  V30 11672 N 1068.67 0.153526 -1.5685 0
M  V30 11673 C 1069.91 0.868517 -1.83261 0
M  V30 11674 C 1070.25 1.81112 -0.700857 0
M  V30 11675 O 1069.52 1.92235 0.295989 0
M  V30 11676 C 1069.8 1.6487 -3.2014 0
M  V30 11677 C 1069.66 0.728021 -4.43869 0
M  V30 11678 C 1070.98 2.61259 -3.54163 0
M  V30 11679 H 1068.09 0.314297 -0.666623 0
M  V30 11680 H 1070.74 0.133971 -1.89527 0
M  V30 11681 H 1068.89 2.2749 -3.1493 0
M  V30 11682 H 1070.56 0.113328 -4.61161 0
M  V30 11683 H 1068.8 0.0371744 -4.33784 0
M  V30 11684 H 1069.47 1.30981 -5.36235 0
M  V30 11685 H 1071.95 2.0876 -3.59942 0
M  V30 11686 H 1070.82 3.12902 -4.50981 0
M  V30 11687 H 1071.09 3.42307 -2.79782 0
M  V30 11688 N 1070.14 1.51827 0.422667 0
M  V30 11689 C 1071.09 1.74198 1.51406 0
M  V30 11690 C 1072.06 0.584013 1.55494 0
M  V30 11691 O 1073.25 0.820079 1.72277 0
M  V30 11692 C 1070.39 1.88627 2.88988 0
M  V30 11693 C 1069.5 3.16233 2.94314 0
M  V30 11694 C 1068.63 3.21172 4.2311 0
M  V30 11695 C 1067.67 4.43033 4.2236 0
M  V30 11696 N 1066.81 4.4544 5.42704 0
M  V30 11697 H 1071.65 2.67352 1.31632 0
M  V30 11698 H 1069.19 1.32487 0.63919 0
M  V30 11699 H 1071.15 1.94976 3.68837 0
M  V30 11700 H 1069.78 0.988673 3.07287 0
M  V30 11701 H 1068.83 3.19123 2.07039 0
M  V30 11702 H 1070.14 4.06104 2.89623 0
M  V30 11703 H 1069.29 3.26517 5.11343 0
M  V30 11704 H 1068.03 2.29216 4.30478 0
M  V30 11705 H 1067.04 4.37849 3.32518 0
M  V30 11706 H 1068.26 5.3627 4.16643 0
M  V30 11707 H 1066.21 3.56361 5.50766 0
M  V30 11708 H 1066.13 5.29138 5.39953 0
M  V30 11709 H 1067.39 4.54997 6.32928 0
M  V30 11710 N 1071.62 -0.679052 1.4222 0
M  V30 11711 C 1072.57 -1.81398 1.45594 0
M  V30 11712 C 1073.56 -1.66112 0.332127 0
M  V30 11713 O 1074.77 -1.72772 0.504942 0
M  V30 11714 H 1071.15 -0.598045 0.455902 0
M  V30 11715 H 1073.12 -1.7567 2.41211 0
M  V30 11716 C 1071.87 -3.19525 1.37109 0
M  V30 11717 H 1071.19 -3.31912 2.22878 0
M  V30 11718 H 1072.63 -3.98967 1.43531 0
M  V30 11719 C 1071.09 -3.36792 0.0853593 0
M  V30 11720 O 1071.62 -3.92309 -0.863532 0
M  V30 11721 N 1069.82 -2.906 0.00389229 0
M  V30 11722 H 1069.37 -2.45607 0.776846 0
M  V30 11723 H 1069.33 -3.0253 -0.855742 0
M  V30 11724 N 1073.1 -1.28322 -0.914942 0
M  V30 11725 C 1074.34 -1.16657 -1.6784 0
M  V30 11726 C 1074.7 0.280473 -1.8994 0
M  V30 11727 O 1075.91 0.519801 -2.63726 0
M  V30 11728 C 1074.18 -1.94185 -3.00045 0
M  V30 11729 S 1075.74 -1.98881 -3.91141 0
M  V30 11730 H 1072.55 -0.416232 -0.57643 0
M  V30 11731 H 1075.16 -1.62405 -1.08834 0
M  V30 11732 H 1073.86 -2.98488 -2.81661 0
M  V30 11733 H 1073.39 -1.48982 -3.64099 0
M  V30 11734 H 1075.41 -1.09445 -4.8398 0
M  V30 11735 N 1074.58 1.12322 -1.10551 0
M  V30 11736 C 1075.82 1.84333 -0.859826 0
M  V30 11737 C 1076.18 1.82539 0.608052 0
M  V30 11738 O 1075.47 1.26086 1.44267 0
M  V30 11739 C 1075.67 3.31177 -1.34375 0
M  V30 11740 C 1075.5 3.47272 -2.85714 0
M  V30 11741 C 1074.27 3.60837 -3.5373 0
M  V30 11742 C 1076.46 3.42336 -3.83811 0
M  V30 11743 N 1074.45 3.65309 -4.93378 0
M  V30 11744 C 1075.82 3.53318 -5.09477 0
M  V30 11745 C 1077.87 3.25809 -3.76501 0
M  V30 11746 C 1076.57 3.49477 -6.28695 0
M  V30 11747 C 1078.6 3.23282 -4.9522 0
M  V30 11748 C 1077.96 3.34826 -6.19735 0
M  V30 11749 H 1074.06 0.690186 -0.367651 0
M  V30 11750 H 1076.65 1.34463 -1.40811 0
M  V30 11751 H 1074.82 3.79585 -0.822767 0
M  V30 11752 H 1076.55 3.91051 -1.04217 0
M  V30 11753 H 1073.3 3.63005 -3.04178 0
M  V30 11754 H 1073.73 3.71207 -5.66157 0
M  V30 11755 H 1078.37 3.15777 -2.81149 0
M  V30 11756 H 1076.09 3.5828 -7.24335 0
M  V30 11757 H 1079.67 3.11674 -4.91274 0
M  V30 11758 H 1078.55 3.32847 -7.10058 0
M  V30 11759 N 1076.06 0.894434 1.2976 0
M  V30 11760 C 1076.97 0.372622 2.31622 0
M  V30 11761 C 1077.98 -0.52996 1.65733 0
M  V30 11762 O 1079.16 -0.420807 1.96955 0
M  V30 11763 C 1076.22 -0.396076 3.4443 0
M  V30 11764 C 1075.28 0.537394 4.25923 0
M  V30 11765 C 1074.52 -0.194713 5.33345 0
M  V30 11766 O 1074.74 -1.41943 5.52457 0
M  V30 11767 O 1073.67 0.460055 6.00139 0
M  V30 11768 H 1077.5 1.21756 2.78225 0
M  V30 11769 H 1075.09 0.65858 1.34101 0
M  V30 11770 H 1076.97 -0.830962 4.13126 0
M  V30 11771 H 1075.64 -1.21716 2.99945 0
M  V30 11772 H 1074.55 1.02129 3.5989 0
M  V30 11773 H 1075.88 1.32475 4.74037 0
M  V30 11774 N 1077.53 -1.43282 0.656365 0
M  V30 11775 C 1078.44 -2.34576 -0.033864 0
M  V30 11776 C 1079.46 -1.5406 -0.808793 0
M  V30 11777 O 1080.64 -1.867 -0.755322 0
M  V30 11778 C 1077.7 -3.32378 -0.986197 0
M  V30 11779 C 1076.76 -4.28797 -0.207851 0
M  V30 11780 C 1076 -5.21927 -1.11482 0
M  V30 11781 O 1076.22 -5.19554 -2.35414 0
M  V30 11782 O 1075.15 -5.99045 -0.585536 0
M  V30 11783 H 1078.98 -2.95099 0.717668 0
M  V30 11784 H 1076.56 -1.43475 0.416556 0
M  V30 11785 H 1078.45 -3.9251 -1.53341 0
M  V30 11786 H 1077.12 -2.74354 -1.7179 0
M  V30 11787 H 1076.03 -3.72134 0.383022 0
M  V30 11788 H 1077.36 -4.89811 0.48435 0
M  V30 11789 N 1079.01 -0.398486 -1.52479 0
M  V30 11790 C 1080.29 0.238776 -1.94137 0
M  V30 11791 C 1080.67 1.63558 -1.33462 0
M  V30 11792 O 1080.02 2.22821 -0.506272 0
M  V30 11793 C 1080.23 0.255863 -3.48061 0
M  V30 11794 C 1081.58 0.480376 -4.21874 0
M  V30 11795 O 1082.6 0.335679 -3.54615 0
M  V30 11796 O 1081.46 0.764654 -5.41124 0
M  V30 11797 H 1078.55 0.150806 -0.813134 0
M  V30 11798 H 1081.1 -0.453659 -1.63524 0
M  V30 11799 H 1079.87 -0.722171 -3.84578 0
M  V30 11800 H 1079.49 0.99284 -3.85004 0
M  V30 11801 N 1080.49 1.57075 -0.12858 0
M  V30 11802 C 1081.9 1.82468 0.39526 0
M  V30 11803 C 1082.25 1.0463 1.65973 0
M  V30 11804 O 1081.38 0.285835 2.14504 0
M  V30 11805 C 1081.97 3.30976 0.723889 0
M  V30 11806 C 1080.53 3.57016 1.19232 0
M  V30 11807 C 1079.68 2.76534 0.205907 0
M  V30 11808 H 1082.63 1.54711 -0.353571 0
M  V30 11809 H 1082.65 3.46127 1.58039 0
M  V30 11810 H 1082.16 3.87602 -0.196595 0
M  V30 11811 H 1080.26 3.05758 2.12938 0
M  V30 11812 H 1080.38 4.65558 1.13103 0
M  V30 11813 H 1078.74 2.45038 0.694872 0
M  V30 11814 H 1079.52 3.35923 -0.707842 0
M  V30 11815 N 1081.97 -0.145205 1.5693 0
M  V30 11816 C 1082.88 -1.19864 2.01667 0
M  V30 11817 C 1083.9 -1.46909 0.932402 0
M  V30 11818 O 1085.07 -1.58543 1.24201 0
M  V30 11819 C 1082.14 -2.51174 2.38982 0
M  V30 11820 C 1081.2 -2.3176 3.61366 0
M  V30 11821 C 1080.43 -3.56809 3.96892 0
M  V30 11822 O 1080.65 -4.63063 3.33059 0
M  V30 11823 O 1079.59 -3.49366 4.9013 0
M  V30 11824 H 1083.41 -0.848821 2.91597 0
M  V30 11825 H 1081 -0.354063 1.45144 0
M  V30 11826 H 1082.88 -3.28587 2.63835 0
M  V30 11827 H 1081.56 -2.85683 1.52207 0
M  V30 11828 H 1080.46 -1.52293 3.41698 0
M  V30 11829 H 1081.8 -2.02167 4.48764 0
M  V30 11830 N 1083.45 -1.52049 -0.414609 0
M  V30 11831 C 1084.39 -1.74998 -1.5048 0
M  V30 11832 C 1085.36 -0.592251 -1.55182 0
M  V30 11833 O 1086.55 -0.829203 -1.7184 0
M  V30 11834 C 1083.69 -1.90157 -2.87983 0
M  V30 11835 C 1082.8 -3.17789 -2.92633 0
M  V30 11836 C 1081.94 -3.23411 -4.21401 0
M  V30 11837 C 1080.98 -4.45267 -4.20004 0
M  V30 11838 N 1080.11 -4.48312 -5.40334 0
M  V30 11839 H 1084.95 -2.68046 -1.30212 0
M  V30 11840 H 1082.49 -1.32824 -0.632154 0
M  V30 11841 H 1084.45 -1.96929 -3.67797 0
M  V30 11842 H 1083.08 -1.00496 -3.06758 0
M  V30 11843 H 1082.13 -3.20216 -2.05343 0
M  V30 11844 H 1083.44 -4.07634 -2.87465 0
M  V30 11845 H 1082.6 -3.29224 -5.09604 0
M  V30 11846 H 1081.34 -2.31495 -4.29257 0
M  V30 11847 H 1080.34 -4.39606 -3.30192 0
M  V30 11848 H 1081.57 -5.38472 -4.13793 0
M  V30 11849 H 1079.51 -3.59277 -5.48868 0
M  V30 11850 H 1079.43 -5.31994 -5.37139 0
M  V30 11851 H 1080.7 -4.58347 -6.30506 0
M  V30 11852 N 1084.93 0.6715 -1.42579 0
M  V30 11853 C 1086.34 0.985019 -1.25577 0
M  V30 11854 C 1086.54 2.00845 -0.162319 0
M  V30 11855 O 1085.6 2.48175 0.465352 0
M  V30 11856 C 1086.91 1.48668 -2.61377 0
M  V30 11857 C 1088.46 1.60429 -2.68759 0
M  V30 11858 C 1088.93 2.13991 -4.04935 0
M  V30 11859 N 1090.42 2.21319 -4.06906 0
M  V30 11860 C 1091.16 2.63845 -5.09091 0
M  V30 11861 N 1090.66 3.05799 -6.21658 0
M  V30 11862 N 1092.45 2.63623 -4.96447 0
M  V30 11863 H 1084.6 -0.00604561 -2.12399 0
M  V30 11864 H 1086.86 0.0598299 -0.94611 0
M  V30 11865 H 1086.57 0.80917 -3.42265 0
M  V30 11866 H 1086.44 2.46487 -2.85524 0
M  V30 11867 H 1088.83 2.27286 -1.88216 0
M  V30 11868 H 1088.91 0.610909 -2.48398 0
M  V30 11869 H 1088.55 1.47741 -4.85937 0
M  V30 11870 H 1088.48 3.14126 -4.2265 0
M  V30 11871 H 1090.98 1.91743 -3.25643 0
M  V30 11872 H 1091.29 3.36944 -6.95477 0
M  V30 11873 H 1089.63 3.03648 -6.25158 0
M  V30 11874 H 1092.82 2.30211 -4.07579 0
M  V30 11875 H 1093 2.96444 -5.76216 0
M  V30 11876 N 1086.4 1.28806 0.908124 0
M  V30 11877 C 1087.81 1.14719 1.47297 0
M  V30 11878 C 1088.17 -0.260763 1.94459 0
M  V30 11879 O 1087.29 -1.15553 1.82966 0
M  V30 11880 C 1087.89 2.07643 2.67712 0
M  V30 11881 C 1086.44 1.97605 3.20358 0
M  V30 11882 C 1085.59 1.99058 1.93058 0
M  V30 11883 H 1088.54 1.41413 0.720283 0
M  V30 11884 H 1088.56 1.64372 3.43165 0
M  V30 11885 H 1088.08 3.10108 2.33355 0
M  V30 11886 H 1086.18 0.981982 3.59427 0
M  V30 11887 H 1086.29 2.84846 3.85226 0
M  V30 11888 H 1084.65 1.43541 2.104 0
M  V30 11889 H 1085.44 3.03212 1.60989 0
M  V30 11890 N 1087.88 -1.11734 1.11145 0
M  V30 11891 C 1089.16 -1.79795 0.770261 0
M  V30 11892 C 1089.54 -1.97624 -0.742158 0
M  V30 11893 O 1088.89 -1.55847 -1.67105 0
M  V30 11894 C 1089.1 -3.13684 1.52982 0
M  V30 11895 C 1090.44 -3.88771 1.70711 0
M  V30 11896 O 1091.47 -3.23363 1.49381 0
M  V30 11897 O 1090.33 -5.06134 2.06132 0
M  V30 11898 H 1087.42 -0.778617 0.27872 0
M  V30 11899 H 1089.97 -1.18504 1.2147 0
M  V30 11900 H 1088.74 -2.96043 2.55879 0
M  V30 11901 H 1088.36 -3.82687 1.07873 0
M  V30 11902 N 1089.36 -0.901303 -1.29284 0
M  V30 11903 C 1090.61 -0.528043 -1.95494 0
M  V30 11904 C 1090.93 0.92597 -1.71044 0
M  V30 11905 O 1090.19 1.67185 -1.01723 0
M  V30 11906 C 1090.49 -0.768828 -3.49033 0
M  V30 11907 C 1090.15 -2.20045 -3.93562 0
M  V30 11908 C 1088.82 -2.59189 -4.05431 0
M  V30 11909 C 1091.17 -3.13266 -4.1655 0
M  V30 11910 C 1088.5 -3.90733 -4.37658 0
M  V30 11911 C 1090.85 -4.4436 -4.50252 0
M  V30 11912 C 1089.51 -4.83375 -4.60331 0
M  V30 11913 H 1088.78 -0.193225 -0.715364 0
M  V30 11914 H 1091.43 -1.14027 -1.53851 0
M  V30 11915 H 1089.73 -0.0736997 -3.91731 0
M  V30 11916 H 1091.43 -0.459384 -3.9836 0
M  V30 11917 H 1088.02 -1.88666 -3.84842 0
M  V30 11918 H 1092.21 -2.84237 -4.06845 0
M  V30 11919 H 1087.46 -4.2068 -4.43665 0
M  V30 11920 H 1091.64 -5.16618 -4.66989 0
M  V30 11921 H 1089.26 -5.8534 -4.85058 0
M  V30 11922 N 1090.84 1.42931 -0.663954 0
M  V30 11923 C 1091.78 2.3079 0.0210764 0
M  V30 11924 C 1092.75 1.45356 0.803796 0
M  V30 11925 O 1093.94 1.74207 0.778237 0
M  V30 11926 C 1091.08 3.31069 0.974023 0
M  V30 11927 C 1090.19 4.31598 0.186273 0
M  V30 11928 C 1089.33 5.18955 1.13399 0
M  V30 11929 C 1088.37 6.1117 0.337292 0
M  V30 11930 N 1087.5 6.91114 1.23715 0
M  V30 11931 H 1092.34 2.88819 -0.733995 0
M  V30 11932 H 1089.88 1.42274 -0.373711 0
M  V30 11933 H 1091.84 3.87727 1.54024 0
M  V30 11934 H 1090.47 2.74665 1.69585 0
M  V30 11935 H 1089.52 3.77147 -0.496402 0
M  V30 11936 H 1090.83 4.96919 -0.432753 0
M  V30 11937 H 1089.99 5.80292 1.77049 0
M  V30 11938 H 1088.73 4.53785 1.78691 0
M  V30 11939 H 1087.73 5.48911 -0.312492 0
M  V30 11940 H 1088.96 6.78386 -0.31138 0
M  V30 11941 H 1086.9 6.28583 1.87668 0
M  V30 11942 H 1086.82 7.52999 0.672946 0
M  V30 11943 H 1088.09 7.56948 1.86146 0
M  V30 11944 N 1092.32 0.406567 1.52266 0
M  V30 11945 C 1093.26 -0.420182 2.26943 0
M  V30 11946 C 1094.23 -1.04323 1.29251 0
M  V30 11947 O 1095.42 -1.06799 1.5811 0
M  V30 11948 C 1092.56 -1.5323 3.09216 0
M  V30 11949 C 1091.67 -0.930419 4.21862 0
M  V30 11950 C 1090.81 -2.01502 4.91498 0
M  V30 11951 C 1089.84 -1.38994 5.9611 0
M  V30 11952 N 1088.98 -2.41458 6.59274 0
M  V30 11953 H 1093.82 0.223066 2.97164 0
M  V30 11954 H 1091.36 0.121842 1.46595 0
M  V30 11955 H 1093.32 -2.18803 3.5522 0
M  V30 11956 H 1091.95 -2.14561 2.41171 0
M  V30 11957 H 1091 -0.163809 3.80047 0
M  V30 11958 H 1092.31 -0.433785 4.9691 0
M  V30 11959 H 1091.46 -2.74807 5.40894 0
M  V30 11960 H 1090.2 -2.5453 4.16012 0
M  V30 11961 H 1089.21 -0.642213 5.46036 0
M  V30 11962 H 1090.43 -0.867386 6.73538 0
M  V30 11963 H 1088.38 -2.93623 5.86619 0
M  V30 11964 H 1088.3 -1.96599 7.2999 0
M  V30 11965 H 1089.56 -3.14341 7.13309 0
M  V30 11966 N 1093.79 -1.57004 0.136909 0
M  V30 11967 C 1095.04 -1.94972 -0.51662 0
M  V30 11968 C 1095.36 -1.02367 -1.66674 0
M  V30 11969 O 1096.56 -1.29873 -2.38423 0
M  V30 11970 C 1095.02 -3.4657 -0.970435 0
M  V30 11971 C 1094.63 -4.47741 0.152204 0
M  V30 11972 C 1096.37 -3.93423 -1.59432 0
M  V30 11973 C 1094.28 -5.90537 -0.319315 0
M  V30 11974 H 1093.21 -0.727873 -0.196766 0
M  V30 11975 H 1095.86 -1.82181 0.219637 0
M  V30 11976 H 1094.24 -3.54657 -1.76165 0
M  V30 11977 H 1095.41 -4.5134 0.928925 0
M  V30 11978 H 1093.73 -4.10746 0.683867 0
M  V30 11979 H 1096.33 -4.97539 -1.95856 0
M  V30 11980 H 1096.67 -3.34404 -2.47951 0
M  V30 11981 H 1097.2 -3.8821 -0.868193 0
M  V30 11982 H 1093.94 -6.53352 0.530248 0
M  V30 11983 H 1093.46 -5.90321 -1.06213 0
M  V30 11984 H 1095.14 -6.42346 -0.774662 0
M  V30 11985 N 1095.27 0.136881 -1.57004 0
M  V30 11986 C 1096.18 1.18793 -2.023 0
M  V30 11987 C 1097.2 1.46412 -0.94018 0
M  V30 11988 O 1098.37 1.57883 -1.2504 0
M  V30 11989 C 1095.44 2.49903 -2.40311 0
M  V30 11990 C 1094.5 2.29841 -3.6259 0
M  V30 11991 C 1093.73 3.54699 -3.98779 0
M  V30 11992 O 1093.96 4.61291 -3.3551 0
M  V30 11993 O 1092.89 3.46761 -4.91976 0
M  V30 11994 H 1096.72 0.833345 -2.92043 0
M  V30 11995 H 1094.3 0.346361 -1.4533 0
M  V30 11996 H 1096.18 3.27183 -2.65574 0
M  V30 11997 H 1094.86 2.84872 -1.5372 0
M  V30 11998 H 1093.77 1.50478 -3.42501 0
M  V30 11999 H 1095.1 1.99784 -4.4983 0
M  V30 12000 N 1096.75 1.52266 0.40654 0
M  V30 12001 C 1097.98 1.70304 1.17491 0
M  V30 12002 C 1098.39 0.413656 1.84213 0
M  V30 12003 O 1097.75 -0.610524 1.71985 0
M  V30 12004 C 1097.8 2.84045 2.23609 0
M  V30 12005 O 1097.52 4.0799 1.5961 0
M  V30 12006 C 1099.02 3.13614 3.13306 0
M  V30 12007 H 1096.24 0.570669 0.352955 0
M  V30 12008 H 1098.79 1.98836 0.477967 0
M  V30 12009 H 1096.94 2.58025 2.88967 0
M  V30 12010 H 1097.36 4.7139 2.29983 0
M  V30 12011 H 1098.83 3.96707 3.83833 0
M  V30 12012 H 1099.31 2.27272 3.75824 0
M  V30 12013 H 1099.91 3.41409 2.53614 0
M  V30 12014 N 1098.23 -0.663929 1.42933 0
M  V30 12015 C 1099.46 -1.45192 1.474 0
M  V30 12016 C 1099.87 -1.88592 0.0886014 0
M  V30 12017 O 1099.23 -1.58824 -0.898962 0
M  V30 12018 C 1099.28 -2.69394 2.41059 0
M  V30 12019 O 1099 -2.27812 3.7421 0
M  V30 12020 C 1100.5 -3.62855 2.54659 0
M  V30 12021 H 1097.72 -0.446394 0.500973 0
M  V30 12022 H 1100.27 -0.814875 1.87563 0
M  V30 12023 H 1098.42 -3.29262 2.0412 0
M  V30 12024 H 1098.83 -3.08095 4.24474 0
M  V30 12025 H 1100.31 -4.46698 3.24291 0
M  V30 12026 H 1100.79 -4.09487 1.58799 0
M  V30 12027 H 1101.39 -3.08874 2.92364 0
M  V30 12028 N 1099.71 -1.29285 -0.901281 0
M  V30 12029 C 1100.64 -1.16832 -2.0217 0
M  V30 12030 C 1101.62 -0.0629265 -1.69984 0
M  V30 12031 O 1102.8 -0.242123 -1.92685 0
M  V30 12032 C 1099.93 -0.842406 -3.36929 0
M  V30 12033 C 1098.89 -1.90394 -3.8332 0
M  V30 12034 C 1098.21 -1.43138 -5.15185 0
M  V30 12035 C 1099.51 -3.31254 -4.03817 0
M  V30 12036 H 1101.21 -2.10562 -2.12847 0
M  V30 12037 H 1098.75 -1.01375 -1.0227 0
M  V30 12038 H 1100.71 -0.741999 -4.14816 0
M  V30 12039 H 1099.43 0.130598 -3.26339 0
M  V30 12040 H 1098.09 -1.99371 -3.07647 0
M  V30 12041 H 1097.74 -0.447091 -5.01009 0
M  V30 12042 H 1097.44 -2.14129 -5.47195 0
M  V30 12043 H 1098.96 -1.34444 -5.95615 0
M  V30 12044 H 1100.37 -3.25129 -4.72191 0
M  V30 12045 H 1098.77 -4.00189 -4.47178 0
M  V30 12046 H 1099.84 -3.74349 -3.08206 0
M  V30 12047 N 1101.18 1.11143 -1.11736 0
M  V30 12048 C 1102.15 2.15456 -0.78174 0
M  V30 12049 C 1103.15 1.59547 0.200383 0
M  V30 12050 O 1104.34 1.74183 -0.0244893 0
M  V30 12051 C 1101.47 3.40523 -0.160364 0
M  V30 12052 H 1102.66 2.46658 -1.70586 0
M  V30 12053 H 1100.22 1.26381 -0.919644 0
M  V30 12054 H 1100.95 3.14932 0.773835 0
M  V30 12055 H 1100.74 3.82386 -0.867378 0
M  V30 12056 H 1102.23 4.17559 0.0582175 0
M  V30 12057 N 1102.66 0.908147 1.28804 0
M  V30 12058 C 1103.61 0.390734 2.27468 0
M  V30 12059 C 1104.58 -0.531765 1.57358 0
M  V30 12060 O 1105.76 -0.455177 1.85291 0
M  V30 12061 C 1102.9 -0.368159 3.43131 0
M  V30 12062 C 1102.02 0.586202 4.28004 0
M  V30 12063 C 1101.15 -0.190581 5.30858 0
M  V30 12064 C 1100.19 0.757758 6.07391 0
M  V30 12065 N 1099.33 0.0148488 7.02098 0
M  V30 12066 H 1104.17 1.23717 2.71105 0
M  V30 12067 H 1101.71 0.621382 1.33331 0
M  V30 12068 H 1103.66 -0.824289 4.08976 0
M  V30 12069 H 1102.29 -1.17898 3.00499 0
M  V30 12070 H 1101.35 1.16086 3.62254 0
M  V30 12071 H 1102.66 1.31177 4.81242 0
M  V30 12072 H 1101.81 -0.707528 6.0256 0
M  V30 12073 H 1100.55 -0.949234 4.78373 0
M  V30 12074 H 1099.56 1.28613 5.34545 0
M  V30 12075 H 1100.78 1.51588 6.61965 0
M  V30 12076 H 1098.73 -0.725916 6.51971 0
M  V30 12077 H 1098.64 0.680347 7.52932 0
M  V30 12078 H 1099.91 -0.482086 7.78008 0
M  V30 12079 N 1104.14 -1.42577 0.671525 0
M  V30 12080 C 1105.39 -2.00806 0.189663 0
M  V30 12081 C 1105.7 -1.537 -1.20978 0
M  V30 12082 O 1106.91 -2.04325 -1.78784 0
M  V30 12083 C 1105.36 -3.58744 0.288227 0
M  V30 12084 C 1104.97 -4.14839 1.69152 0
M  V30 12085 C 1106.72 -4.24285 -0.13509 0
M  V30 12086 C 1104.62 -5.65131 1.74302 0
M  V30 12087 H 1103.55 -0.751004 0.067146 0
M  V30 12088 H 1106.2 -1.63338 0.83623 0
M  V30 12089 H 1104.59 -3.937 -0.426175 0
M  V30 12090 H 1105.76 -3.91349 2.43274 0
M  V30 12091 H 1104.08 -3.61738 2.0624 0
M  V30 12092 H 1106.67 -5.34573 -0.116709 0
M  V30 12093 H 1107.02 -3.99527 -1.16977 0
M  V30 12094 H 1107.55 -3.94278 0.528191 0
M  V30 12095 H 1104.29 -5.94682 2.75742 0
M  V30 12096 H 1103.81 -5.90621 1.04531 0
M  V30 12097 H 1105.49 -6.29491 1.49498 0
M  V30 12098 N 1105.62 -0.414636 -1.52048 0
M  V30 12099 C 1106.87 0.159349 -2.01872 0
M  V30 12100 C 1107.19 1.44674 -1.29999 0
M  V30 12101 O 1106.45 1.91641 -0.396511 0
M  V30 12102 C 1106.75 0.448327 -3.54577 0
M  V30 12103 C 1106.41 -0.75052 -4.4461 0
M  V30 12104 C 1105.08 -1.07935 -4.68939 0
M  V30 12105 C 1107.43 -1.55134 -4.97577 0
M  V30 12106 C 1104.76 -2.21008 -5.43482 0
M  V30 12107 C 1107.11 -2.67288 -5.73358 0
M  V30 12108 C 1105.77 -3.00651 -5.95958 0
M  V30 12109 H 1105.04 0.05831 -0.738702 0
M  V30 12110 H 1107.69 -0.557184 -1.83215 0
M  V30 12111 H 1105.99 1.24649 -3.71443 0
M  V30 12112 H 1107.69 0.90549 -3.90643 0
M  V30 12113 H 1104.28 -0.484257 -4.25856 0
M  V30 12114 H 1108.46 -1.31052 -4.78685 0
M  V30 12115 H 1103.72 -2.47197 -5.59199 0
M  V30 12116 H 1107.89 -3.29725 -6.13396 0
M  V30 12117 H 1105.52 -3.88384 -6.535 0
M  V30 12118 N 1107.1 1.56929 -0.145233 0
M  V30 12119 C 1108.34 1.95681 0.50532 0
M  V30 12120 C 1108.67 1.03098 1.65516 0
M  V30 12121 O 1107.94 0.0921961 1.95683 0
M  V30 12122 H 1106.52 0.72252 0.189668 0
M  V30 12123 H 1109.18 1.93651 -0.220318 0
M  V30 12124 H 1108.27 2.99359 0.882631 0
M  V30 12125 N 1108.58 -0.128553 1.57075 0
M  V30 12126 C 1109.51 -1.15953 2.02675 0
M  V30 12127 C 1110.49 -1.43743 0.909501 0
M  V30 12128 O 1111.67 -1.54348 1.17857 0
M  V30 12129 C 1108.8 -2.48813 2.423 0
M  V30 12130 C 1107.76 -2.35506 3.57381 0
M  V30 12131 C 1107.08 -3.73243 3.82875 0
M  V30 12132 C 1108.38 -1.82359 4.89431 0
M  V30 12133 H 1110.08 -0.780283 2.89054 0
M  V30 12134 H 1107.62 -0.373896 1.39061 0
M  V30 12135 H 1109.57 -3.21179 2.72804 0
M  V30 12136 H 1108.3 -2.88609 1.52881 0
M  V30 12137 H 1106.96 -1.6559 3.27071 0
M  V30 12138 H 1106.61 -4.10507 2.90677 0
M  V30 12139 H 1106.31 -3.65195 4.60333 0
M  V30 12140 H 1107.83 -4.47128 4.15823 0
M  V30 12141 H 1109.24 -2.44533 5.18533 0
M  V30 12142 H 1107.64 -1.85156 5.70822 0
M  V30 12143 H 1108.71 -0.780478 4.78578 0
M  V30 12144 N 1110.05 -1.5248 -0.398459 0
M  V30 12145 C 1111.3 -1.67061 -1.14441 0
M  V30 12146 C 1111.63 -0.405821 -1.90219 0
M  V30 12147 O 1110.88 0.611532 -1.859 0
M  V30 12148 C 1111.18 -2.85038 -2.15611 0
M  V30 12149 C 1110.85 -4.22847 -1.56561 0
M  V30 12150 C 1109.51 -4.60329 -1.40182 0
M  V30 12151 C 1111.86 -5.08683 -1.1354 0
M  V30 12152 C 1109.19 -5.81314 -0.793149 0
M  V30 12153 C 1111.54 -6.30284 -0.540866 0
M  V30 12154 C 1110.21 -6.66505 -0.364297 0
M  V30 12155 H 1109.48 -0.611321 -0.418769 0
M  V30 12156 H 1112.12 -1.86604 -0.430241 0
M  V30 12157 H 1110.43 -2.59873 -2.93212 0
M  V30 12158 H 1112.13 -2.93516 -2.73221 0
M  V30 12159 H 1108.72 -3.93316 -1.70295 0
M  V30 12160 H 1112.9 -4.80301 -1.24999 0
M  V30 12161 H 1108.16 -6.07994 -0.64446 0
M  V30 12162 H 1112.33 -6.96115 -0.199167 0
M  V30 12163 H 1109.96 -7.60121 0.109439 0
M  V30 12164 N 1111.53 0.65634 -1.43283 0
M  V30 12165 C 1112.48 1.76243 -1.44646 0
M  V30 12166 C 1113.47 1.5778 -0.31532 0
M  V30 12167 O 1114.66 1.67945 -0.558881 0
M  V30 12168 C 1111.79 3.14813 -1.36921 0
M  V30 12169 C 1110.87 3.38835 -2.55053 0
M  V30 12170 N 1111.26 3.33345 -3.80414 0
M  V30 12171 C 1109.56 3.69542 -2.4971 0
M  V30 12172 C 1110.26 3.57361 -4.58986 0
M  V30 12173 N 1109.24 3.79022 -3.8967 0
M  V30 12174 H 1113.04 1.70419 -2.39447 0
M  V30 12175 H 1110.55 0.85789 -1.37891 0
M  V30 12176 H 1112.55 3.941 -1.3598 0
M  V30 12177 H 1111.21 3.21822 -0.431381 0
M  V30 12178 H 1112.22 3.12827 -4.12747 0
M  V30 12179 H 1108.9 3.83684 -1.64598 0
M  V30 12180 H 1110.29 3.58921 -5.68001 0
M  V30 12181 N 1113.01 1.29761 0.894412 0
M  V30 12182 C 1114.29 1.08711 1.62608 0
M  V30 12183 C 1114.67 -0.366907 2.07887 0
M  V30 12184 O 1114.01 -1.35669 1.83865 0
M  V30 12185 C 1114.22 2.07947 2.80284 0
M  V30 12186 C 1115.57 2.39153 3.50843 0
M  V30 12187 O 1116.6 2.06183 2.9046 0
M  V30 12188 O 1115.46 2.95509 4.59713 0
M  V30 12189 H 1112.55 0.416866 0.714249 0
M  V30 12190 H 1115.1 1.41153 0.942015 0
M  V30 12191 H 1113.87 3.05859 2.44061 0
M  V30 12192 H 1113.49 1.76266 3.56393 0
M  V30 12193 N 1114.49 -1.10549 1.12324 0
M  V30 12194 C 1115.42 -2.16657 0.747826 0
M  V30 12195 C 1116.43 -1.61238 -0.224981 0
M  V30 12196 O 1117.62 -1.78499 -0.00649408 0
M  V30 12197 C 1114.72 -3.38791 0.0859421 0
M  V30 12198 C 1113.89 -4.23655 1.08792 0
M  V30 12199 C 1112.95 -5.24239 0.453871 0
M  V30 12200 O 1111.98 -5.58262 1.11052 0
M  V30 12201 N 1113.18 -5.75246 -0.779215 0
M  V30 12202 H 1115.95 -2.49472 1.66084 0
M  V30 12203 H 1113.51 -1.26157 1.01469 0
M  V30 12204 H 1115.5 -4.03182 -0.350186 0
M  V30 12205 H 1114.07 -3.03961 -0.729807 0
M  V30 12206 H 1113.29 -3.55578 1.70171 0
M  V30 12207 H 1114.58 -4.77187 1.76549 0
M  V30 12208 H 1113.98 -5.49802 -1.3317 0
M  V30 12209 H 1112.53 -6.41428 -1.15818 0
M  V30 12210 N 1115.97 -0.914965 -1.28321 0
M  V30 12211 C 1116.91 -0.402792 -2.27258 0
M  V30 12212 C 1117.88 0.523412 -1.57638 0
M  V30 12213 O 1119.07 0.445344 -1.8553 0
M  V30 12214 C 1116.21 0.349956 -3.43321 0
M  V30 12215 C 1115.32 -0.608892 -4.27687 0
M  V30 12216 C 1114.46 0.162425 -5.30952 0
M  V30 12217 C 1113.49 -0.789959 -6.06981 0
M  V30 12218 N 1112.63 -0.0520826 -7.02081 0
M  V30 12219 H 1117.47 -1.25153 -2.70446 0
M  V30 12220 H 1115.01 -0.628444 -1.33 0
M  V30 12221 H 1116.97 0.802589 -4.09407 0
M  V30 12222 H 1115.6 1.16303 -3.01121 0
M  V30 12223 H 1114.65 -1.18005 -3.61634 0
M  V30 12224 H 1115.96 -1.33727 -4.8054 0
M  V30 12225 H 1115.11 0.675563 -6.02927 0
M  V30 12226 H 1113.85 0.923851 -4.7887 0
M  V30 12227 H 1112.86 -1.31446 -5.33856 0
M  V30 12228 H 1114.08 -1.55096 -6.61152 0
M  V30 12229 H 1112.03 0.691331 -6.52347 0
M  V30 12230 H 1111.95 -0.720267 -7.52561 0
M  V30 12231 H 1113.21 0.44082 -7.78253 0
M  V30 12232 N 1117.44 1.42219 -0.679077 0
M  V30 12233 C 1118.39 2.32599 0.00820028 0
M  V30 12234 C 1119.39 1.50059 0.786046 0
M  V30 12235 O 1120.59 1.66103 0.693528 0
M  V30 12236 H 1116.97 0.751694 0.0214483 0
M  V30 12237 H 1118.94 2.88257 -0.77138 0
M  V30 12238 C 1117.69 3.3468 0.942581 0
M  V30 12239 H 1117.01 3.98234 0.353463 0
M  V30 12240 H 1118.45 4.00496 1.39208 0
M  V30 12241 C 1116.91 2.67275 2.05099 0
M  V30 12242 O 1117.44 2.50793 3.13793 0
M  V30 12243 N 1115.64 2.26232 1.82394 0
M  V30 12244 H 1115.19 2.39838 0.939983 0
M  V30 12245 H 1115.15 1.81465 2.56744 0
M  V30 12246 N 1118.92 0.422693 1.51826 0
M  V30 12247 C 1119.83 -0.40261 2.31119 0
M  V30 12248 C 1120.85 -1.04117 1.39412 0
M  V30 12249 O 1122.02 -1.03973 1.72486 0
M  V30 12250 C 1119.09 -1.49699 3.12716 0
M  V30 12251 C 1118.15 -0.880088 4.20182 0
M  V30 12252 C 1117.38 -1.92232 4.97878 0
M  V30 12253 O 1117.61 -3.14246 4.76031 0
M  V30 12254 O 1116.54 -1.521 5.82365 0
M  V30 12255 H 1120.37 0.244308 3.02716 0
M  V30 12256 H 1117.95 0.185569 1.48243 0
M  V30 12257 H 1119.83 -2.13202 3.63487 0
M  V30 12258 H 1118.51 -2.12826 2.43899 0
M  V30 12259 H 1117.41 -0.207404 3.73525 0
M  V30 12260 H 1118.75 -0.292535 4.9133 0
M  V30 12261 N 1120.4 -1.5685 0.153553 0
M  V30 12262 C 1121.62 -2.01135 -0.505904 0
M  V30 12263 C 1122.05 -1.03301 -1.57196 0
M  V30 12264 O 1121.41 -0.00976022 -1.81297 0
M  V30 12265 C 1121.46 -3.44129 -1.0774 0
M  V30 12266 O 1120.56 -3.49318 -2.19205 0
M  V30 12267 H 1119.9 -0.652496 -0.123062 0
M  V30 12268 H 1122.43 -2.03039 0.252216 0
M  V30 12269 H 1122.44 -3.83066 -1.40444 0
M  V30 12270 H 1121.12 -4.1484 -0.296754 0
M  V30 12271 H 1119.69 -3.22227 -1.8768 0
M  V30 12272 N 1121.88 0.120221 -1.57141 0
M  V30 12273 C 1123.11 0.841219 -1.88698 0
M  V30 12274 C 1123.52 1.7401 -0.74277 0
M  V30 12275 O 1122.86 1.81308 0.295497 0
M  V30 12276 C 1122.92 1.72781 -3.15257 0
M  V30 12277 C 1122.58 1.00336 -4.45849 0
M  V30 12278 C 1123.58 0.344734 -5.18756 0
M  V30 12279 C 1121.27 0.984899 -4.9255 0
M  V30 12280 C 1123.26 -0.322664 -6.36583 0
M  V30 12281 C 1120.95 0.313702 -6.10294 0
M  V30 12282 C 1121.95 -0.338926 -6.82159 0
M  V30 12283 O 1121.63 -0.999416 -7.97663 0
M  V30 12284 H 1121.37 0.247195 -0.629182 0
M  V30 12285 H 1123.92 0.109542 -2.05108 0
M  V30 12286 H 1122.15 2.5011 -2.94927 0
M  V30 12287 H 1123.84 2.32313 -3.32845 0
M  V30 12288 H 1124.6 0.350623 -4.83731 0
M  V30 12289 H 1120.48 1.4823 -4.36519 0
M  V30 12290 H 1124.03 -0.832643 -6.92613 0
M  V30 12291 H 1119.92 0.305572 -6.44776 0
M  V30 12292 H 1120.69 -0.90377 -8.13495 0
M  V30 12293 N 1123.36 1.52689 0.390367 0
M  V30 12294 C 1124.29 1.72118 1.49836 0
M  V30 12295 C 1125.27 0.568986 1.5232 0
M  V30 12296 O 1126.45 0.798623 1.70746 0
M  V30 12297 C 1123.58 1.77754 2.88307 0
M  V30 12298 C 1122.62 2.99492 3.03655 0
M  V30 12299 S 1123.46 4.59496 2.74998 0
M  V30 12300 C 1124.61 4.67946 4.15665 0
M  V30 12301 H 1124.85 2.65826 1.3313 0
M  V30 12302 H 1122.38 1.42964 0.583153 0
M  V30 12303 H 1124.34 1.81687 3.68103 0
M  V30 12304 H 1123 0.851406 3.02341 0
M  V30 12305 H 1122.19 2.99973 4.05009 0
M  V30 12306 H 1121.79 2.93544 2.3175 0
M  V30 12307 H 1124.09 4.46476 5.09573 0
M  V30 12308 H 1125.03 5.69945 4.202 0
M  V30 12309 H 1125.44 3.96799 4.01511 0
M  V30 12310 N 1124.83 -0.648732 1.43629 0
M  V30 12311 C 1126.11 -1.4062 1.35961 0
M  V30 12312 C 1126.49 -2.11098 0.00961023 0
M  V30 12313 O 1125.84 -2.05107 -1.00714 0
M  V30 12314 C 1126.05 -2.38719 2.54586 0
M  V30 12315 C 1127.4 -3.02584 2.97873 0
M  V30 12316 O 1128.42 -2.49046 2.54665 0
M  V30 12317 O 1127.28 -3.99662 3.72736 0
M  V30 12318 H 1124.37 -0.628483 0.53753 0
M  V30 12319 H 1126.92 -0.675263 1.55687 0
M  V30 12320 H 1125.69 -1.85619 3.44472 0
M  V30 12321 H 1125.32 -3.19257 2.36983 0
M  V30 12322 N 1126.31 -1.30234 -0.887518 0
M  V30 12323 C 1127.54 -1.21829 -1.67229 0
M  V30 12324 C 1127.96 0.219251 -1.87523 0
M  V30 12325 O 1127.31 1.14526 -1.42091 0
M  V30 12326 C 1127.36 -1.94044 -3.05007 0
M  V30 12327 O 1127.08 -3.32185 -2.85631 0
M  V30 12328 C 1128.59 -1.92265 -3.99436 0
M  V30 12329 H 1125.81 -0.421716 -0.521916 0
M  V30 12330 H 1128.35 -1.71816 -1.10903 0
M  V30 12331 H 1126.5 -1.47861 -3.58072 0
M  V30 12332 H 1126.92 -3.68724 -3.73018 0
M  V30 12333 H 1128.39 -2.47336 -4.93486 0
M  V30 12334 H 1128.87 -0.900984 -4.29859 0
M  V30 12335 H 1129.48 -2.38247 -3.52305 0
M  V30 12336 N 1127.79 1.09952 -1.12909 0
M  V30 12337 C 1128.72 2.18477 -0.824014 0
M  V30 12338 C 1129.7 1.68744 0.214324 0
M  V30 12339 O 1130.89 1.94057 0.0744281 0
M  V30 12340 C 1128.02 3.46143 -0.283308 0
M  V30 12341 C 1126.97 4.09178 -1.25528 0
M  V30 12342 C 1126.3 5.31604 -0.574574 0
M  V30 12343 C 1127.6 4.52308 -2.6118 0
M  V30 12344 H 1129.29 2.44254 -1.73148 0
M  V30 12345 H 1126.84 1.17394 -0.833952 0
M  V30 12346 H 1128.79 4.21361 -0.057583 0
M  V30 12347 H 1127.51 3.19872 0.659525 0
M  V30 12348 H 1126.17 3.35973 -1.4669 0
M  V30 12349 H 1125.82 5.01611 0.37356 0
M  V30 12350 H 1125.52 5.74732 -1.22299 0
M  V30 12351 H 1127.04 6.0955 -0.358004 0
M  V30 12352 H 1128.46 5.18776 -2.44017 0
M  V30 12353 H 1126.86 5.06302 -3.22147 0
M  V30 12354 H 1127.93 3.64977 -3.19249 0
M  V30 12355 N 1129.27 0.921757 1.27833 0
M  V30 12356 C 1130.52 0.55493 1.93916 0
M  V30 12357 C 1130.83 -0.907191 1.7329 0
M  V30 12358 O 1132.04 -1.38253 2.33663 0
M  V30 12359 C 1130.49 0.941644 3.47363 0
M  V30 12360 C 1130.1 2.42404 3.76755 0
M  V30 12361 C 1131.84 0.645785 4.19559 0
M  V30 12362 C 1129.75 2.75046 5.23549 0
M  V30 12363 H 1128.68 0.203818 0.72593 0
M  V30 12364 H 1131.33 1.12176 1.4522 0
M  V30 12365 H 1129.71 0.303519 3.94835 0
M  V30 12366 H 1130.89 3.10957 3.40062 0
M  V30 12367 H 1129.2 2.69118 3.17749 0
M  V30 12368 H 1131.8 0.866237 5.27637 0
M  V30 12369 H 1132.14 -0.41676 4.14209 0
M  V30 12370 H 1132.68 1.24274 3.7789 0
M  V30 12371 H 1129.42 3.80186 5.33984 0
M  V30 12372 H 1128.94 2.11138 5.6141 0
M  V30 12373 H 1130.61 2.62474 5.91368 0
M  V30 12374 N 1130.75 -1.41857 0.686609 0
M  V30 12375 C 1132.16 -1.55549 0.357288 0
M  V30 12376 C 1132.36 -1.66394 -1.13646 0
M  V30 12377 O 1131.42 -1.63739 -1.92213 0
M  V30 12378 C 1132.73 -2.79938 1.09796 0
M  V30 12379 C 1134.28 -2.93724 1.08143 0
M  V30 12380 C 1134.75 -4.20989 1.80367 0
M  V30 12381 N 1136.25 -4.27927 1.77293 0
M  V30 12382 C 1136.98 -5.2524 2.30022 0
M  V30 12383 N 1136.48 -6.28636 2.91185 0
M  V30 12384 N 1138.27 -5.17118 2.20329 0
M  V30 12385 H 1130.42 -1.33063 1.65554 0
M  V30 12386 H 1132.68 -0.641335 0.698135 0
M  V30 12387 H 1132.39 -2.78104 2.15293 0
M  V30 12388 H 1132.26 -3.71188 0.670763 0
M  V30 12389 H 1134.65 -2.9508 0.0347554 0
M  V30 12390 H 1134.73 -2.03673 1.54761 0
M  V30 12391 H 1134.38 -4.20395 2.85009 0
M  V30 12392 H 1134.31 -5.09997 1.3119 0
M  V30 12393 H 1136.8 -3.53838 1.32692 0
M  V30 12394 H 1137.11 -6.99265 3.29011 0
M  V30 12395 H 1135.45 -6.29164 2.95259 0
M  V30 12396 H 1138.65 -4.35265 1.72226 0
M  V30 12397 H 1138.82 -5.92792 2.61728 0
M  V30 12398 N 1132.22 -0.430739 -1.51599 0
M  V30 12399 C 1133.64 -0.0826902 -1.59386 0
M  V30 12400 C 1133.84 1.40729 -1.44214 0
M  V30 12401 O 1132.9 2.1765 -1.28002 0
M  V30 12402 C 1134.21 -0.59691 -2.94716 0
M  V30 12403 C 1135.76 -0.556772 -3.08008 0
M  V30 12404 C 1136.23 -1.04786 -4.45852 0
M  V30 12405 N 1137.72 -1.00557 -4.52153 0
M  V30 12406 C 1138.46 -1.35649 -5.57124 0
M  V30 12407 N 1137.95 -1.77994 -6.69545 0
M  V30 12408 N 1139.75 -1.27508 -5.47447 0
M  V30 12409 H 1131.9 -1.40027 -1.59707 0
M  V30 12410 H 1134.16 -0.576606 -0.752482 0
M  V30 12411 H 1133.87 -1.63914 -3.11167 0
M  V30 12412 H 1133.74 -0.0182342 -3.77196 0
M  V30 12413 H 1136.13 0.476457 -2.91228 0
M  V30 12414 H 1136.21 -1.17177 -2.27383 0
M  V30 12415 H 1135.85 -2.07952 -4.63377 0
M  V30 12416 H 1135.78 -0.409461 -5.25006 0
M  V30 12417 H 1138.27 -0.694518 -3.71463 0
M  V30 12418 H 1138.59 -2.03026 -7.45654 0
M  V30 12419 H 1136.93 -1.81916 -6.70769 0
M  V30 12420 H 1140.12 -0.942969 -4.58504 0
M  V30 12421 H 1140.3 -1.55185 -6.29143 0
M  V30 12422 N 1133.7 1.56767 -0.161869 0
M  V30 12423 C 1134.63 2.20511 0.767918 0
M  V30 12424 C 1135.61 1.15783 1.24612 0
M  V30 12425 O 1136.8 1.44179 1.301 0
M  V30 12426 C 1133.93 2.83844 2.00125 0
M  V30 12427 C 1132.88 3.94528 1.65926 0
M  V30 12428 C 1132.21 4.44866 2.96646 0
M  V30 12429 C 1133.51 5.14583 0.894497 0
M  V30 12430 H 1135.2 2.98464 0.236607 0
M  V30 12431 H 1132.75 1.43561 0.112363 0
M  V30 12432 H 1134.7 3.27109 2.65664 0
M  V30 12433 H 1133.43 2.03246 2.55654 0
M  V30 12434 H 1132.08 3.51904 1.02759 0
M  V30 12435 H 1131.73 3.61071 3.50196 0
M  V30 12436 H 1131.43 5.19531 2.74521 0
M  V30 12437 H 1132.96 4.90812 3.6323 0
M  V30 12438 H 1134.37 5.54601 1.45228 0
M  V30 12439 H 1132.77 5.95105 0.772636 0
M  V30 12440 H 1133.84 4.84773 -0.110986 0
M  V30 12441 N 1135.18 -0.111886 1.57202 0
M  V30 12442 C 1136.11 -1.16274 1.97517 0
M  V30 12443 C 1137.13 -1.37259 0.875425 0
M  V30 12444 O 1138.31 -1.36208 1.15367 0
M  V30 12445 C 1135.41 -2.52145 2.26442 0
M  V30 12446 C 1134.59 -2.51666 3.57747 0
M  V30 12447 C 1133.65 -3.69337 3.74802 0
M  V30 12448 O 1132.67 -3.52596 4.46839 0
M  V30 12449 N 1133.87 -4.88177 3.14108 0
M  V30 12450 H 1136.64 -0.819747 2.88271 0
M  V30 12451 H 1134.2 -0.301076 1.59076 0
M  V30 12452 H 1136.19 -3.29437 2.3506 0
M  V30 12453 H 1134.76 -2.78599 1.41779 0
M  V30 12454 H 1133.98 -1.60038 3.60252 0
M  V30 12455 H 1135.27 -2.48408 4.44039 0
M  V30 12456 H 1134.67 -5.04682 2.55564 0
M  V30 12457 H 1133.23 -5.6312 3.28237 0
M  V30 12458 N 1136.66 -1.52894 -0.382264 0
M  V30 12459 C 1137.59 -1.81122 -1.47367 0
M  V30 12460 C 1138.57 -0.663653 -1.56619 0
M  V30 12461 O 1139.75 -0.911898 -1.71459 0
M  V30 12462 C 1136.88 -1.98615 -2.84902 0
M  V30 12463 C 1135.84 -3.14328 -2.90485 0
M  V30 12464 C 1135.16 -3.17086 -4.30535 0
M  V30 12465 C 1136.46 -4.53263 -2.59519 0
M  V30 12466 H 1138.16 -2.72518 -1.23993 0
M  V30 12467 H 1135.7 -1.3113 -0.595049 0
M  V30 12468 H 1137.66 -2.16946 -3.61265 0
M  V30 12469 H 1136.38 -1.03915 -3.09628 0
M  V30 12470 H 1135.04 -2.95791 -2.16572 0
M  V30 12471 H 1134.69 -2.20055 -4.52311 0
M  V30 12472 H 1134.39 -3.94821 -4.3519 0
M  V30 12473 H 1135.91 -3.3758 -5.08795 0
M  V30 12474 H 1137.33 -4.71867 -3.25598 0
M  V30 12475 H 1135.72 -5.33115 -2.75514 0
M  V30 12476 H 1136.79 -4.59516 -1.54831 0
M  V30 12477 N 1138.14 0.641106 -1.43971 0
M  V30 12478 C 1139.37 1.42622 -1.49475 0
M  V30 12479 C 1139.78 1.8885 -0.115068 0
M  V30 12480 O 1139.12 1.60846 0.887378 0
M  V30 12481 C 1139.18 2.68643 -2.38896 0
M  V30 12482 C 1138.84 2.44276 -3.86236 0
M  V30 12483 C 1139.84 2.06732 -4.7703 0
M  V30 12484 C 1137.53 2.58225 -4.30842 0
M  V30 12485 C 1139.52 1.83451 -6.1043 0
M  V30 12486 C 1137.21 2.34559 -5.64292 0
M  V30 12487 C 1138.21 1.97229 -6.53903 0
M  V30 12488 O 1137.89 1.73819 -7.84884 0
M  V30 12489 H 1137.63 0.444187 -0.509582 0
M  V30 12490 H 1140.18 0.792179 -1.89509 0
M  V30 12491 H 1138.41 3.34649 -1.93771 0
M  V30 12492 H 1140.1 3.30623 -2.35464 0
M  V30 12493 H 1140.86 1.95521 -4.43843 0
M  V30 12494 H 1136.74 2.86253 -3.61359 0
M  V30 12495 H 1140.29 1.54238 -6.80335 0
M  V30 12496 H 1136.18 2.45376 -5.97043 0
M  V30 12497 H 1136.95 1.88146 -7.96582 0
M  V30 12498 N 1139.62 1.30703 0.880598 0
M  V30 12499 C 1140.84 1.22843 1.67106 0
M  V30 12500 C 1141.27 -0.204788 1.86982 0
M  V30 12501 O 1140.62 -1.14716 1.40392 0
M  V30 12502 C 1140.67 1.96685 3.02237 0
M  V30 12503 O 1139.78 1.29693 3.91476 0
M  V30 12504 H 1139.12 0.424661 0.51045 0
M  V30 12505 H 1141.65 1.72596 1.09871 0
M  V30 12506 H 1141.66 2.05874 3.52249 0
M  V30 12507 H 1140.33 3.00919 2.8709 0
M  V30 12508 H 1138.91 1.28886 3.49918 0
M  V30 12509 N 1141.09 -1.09351 1.1349 0
M  V30 12510 C 1142.51 -1.3359 0.873269 0
M  V30 12511 C 1142.71 -1.95432 -0.490767 0
M  V30 12512 O 1141.77 -2.20117 -1.23712 0
M  V30 12513 C 1143.08 -2.24681 1.99847 0
M  V30 12514 C 1144.63 -2.38188 2.03065 0
M  V30 12515 C 1145.1 -3.32615 3.14851 0
M  V30 12516 N 1146.59 -3.40188 3.14366 0
M  V30 12517 C 1147.33 -4.13256 3.97501 0
M  V30 12518 N 1146.82 -4.89114 4.90652 0
M  V30 12519 N 1148.62 -4.08988 3.85597 0
M  V30 12520 H 1140.77 -0.675852 2.0136 0
M  V30 12521 H 1143.03 -0.360268 0.876876 0
M  V30 12522 H 1142.74 -1.86469 2.98198 0
M  V30 12523 H 1142.61 -3.25075 1.91327 0
M  V30 12524 H 1145 -2.75663 1.05327 0
M  V30 12525 H 1145.08 -1.3757 2.15658 0
M  V30 12526 H 1144.72 -2.95863 4.12829 0
M  V30 12527 H 1144.65 -4.33139 2.99496 0
M  V30 12528 H 1147.14 -2.861 2.46892 0
M  V30 12529 H 1147.46 -5.423 5.50573 0
M  V30 12530 H 1145.8 -4.882 4.94657 0
M  V30 12531 H 1148.99 -3.48826 3.12151 0
M  V30 12532 H 1149.17 -4.65671 4.50615 0
M  V30 12533 N 1142.57 -0.928524 -1.27343 0
M  V30 12534 C 1143.52 -0.418768 -2.28799 0
M  V30 12535 C 1144.51 0.497334 -1.61935 0
M  V30 12536 O 1145.72 0.376945 -1.76009 0
M  V30 12537 H 1142.09 -0.116855 -0.742865 0
M  V30 12538 H 1144.07 -1.28725 -2.69207 0
M  V30 12539 C 1142.81 0.312422 -3.46294 0
M  V30 12540 H 1142.14 -0.383317 -3.97958 0
M  V30 12541 H 1143.58 0.633514 -4.19241 0
M  V30 12542 C 1142.04 1.5257 -3.00373 0
M  V30 12543 O 1142.57 2.62443 -3.04116 0
M  V30 12544 N 1140.77 1.37782 -2.5586 0
M  V30 12545 H 1140.32 0.483908 -2.53014 0
M  V30 12546 H 1140.28 2.19085 -2.25498 0
M  V30 12547 N 1144.05 1.41491 -0.694123 0
M  V30 12548 C 1144.98 2.33462 -0.0422169 0
M  V30 12549 C 1145.96 1.51739 0.76872 0
M  V30 12550 O 1147.15 1.8028 0.721985 0
M  V30 12551 C 1144.28 3.35545 0.895925 0
M  V30 12552 C 1143.23 4.27568 0.192188 0
M  V30 12553 C 1142.56 5.20014 1.24459 0
M  V30 12554 C 1143.86 5.1376 -0.940626 0
M  V30 12555 H 1145.55 2.88225 -0.810363 0
M  V30 12556 H 1143.1 1.38586 -0.39114 0
M  V30 12557 H 1145.05 3.9881 1.36121 0
M  V30 12558 H 1143.77 2.79129 1.69572 0
M  V30 12559 H 1142.43 3.65726 -0.25305 0
M  V30 12560 H 1142.08 4.59913 2.03687 0
M  V30 12561 H 1141.78 5.82417 0.778734 0
M  V30 12562 H 1143.3 5.86155 1.71041 0
M  V30 12563 H 1144.72 5.70601 -0.555692 0
M  V30 12564 H 1143.11 5.85097 -1.33349 0
M  V30 12565 H 1144.18 4.51011 -1.78093 0
M  V30 12566 N 1145.53 0.438773 1.51369 0
M  V30 12567 C 1146.44 -0.378074 2.31534 0
M  V30 12568 C 1147.45 -1.02632 1.40508 0
M  V30 12569 O 1148.63 -1.02138 1.73579 0
M  V30 12570 C 1145.69 -1.46374 3.14286 0
M  V30 12571 C 1144.76 -0.835473 4.21092 0
M  V30 12572 C 1143.99 -1.86941 4.99889 0
M  V30 12573 O 1144.21 -3.0918 4.79337 0
M  V30 12574 O 1143.15 -1.45914 5.83946 0
M  V30 12575 H 1146.97 0.276401 3.0244 0
M  V30 12576 H 1144.56 0.201281 1.48038 0
M  V30 12577 H 1146.44 -2.09335 3.65728 0
M  V30 12578 H 1145.11 -2.10227 2.46143 0
M  V30 12579 H 1144.02 -0.167775 3.73724 0
M  V30 12580 H 1145.35 -0.240406 4.91613 0
M  V30 12581 N 1147.01 -1.56678 0.170181 0
M  V30 12582 C 1147.96 -2.14503 -0.772818 0
M  V30 12583 C 1148.94 -1.07896 -1.19362 0
M  V30 12584 O 1150.13 -1.34021 -1.15617 0
M  V30 12585 C 1147.26 -2.78844 -2.00253 0
M  V30 12586 C 1146.35 -3.92607 -1.60377 0
M  V30 12587 N 1146.74 -4.97464 -0.914519 0
M  V30 12588 C 1145.04 -4.03746 -1.89487 0
M  V30 12589 C 1145.74 -5.77248 -0.718343 0
M  V30 12590 N 1144.71 -5.2881 -1.25942 0
M  V30 12591 H 1148.51 -2.92941 -0.237231 0
M  V30 12592 H 1146.03 -1.62371 -0.0305396 0
M  V30 12593 H 1148.03 -3.18646 -2.68831 0
M  V30 12594 H 1146.69 -2.01886 -2.54307 0
M  V30 12595 H 1147.7 -5.14724 -0.572692 0
M  V30 12596 H 1144.37 -3.3789 -2.45227 0
M  V30 12597 H 1145.76 -6.71676 -0.173373 0
M  V30 12598 N 1148.48 0.103547 -1.57259 0
M  V30 12599 C 1149.41 1.12714 -2.04494 0
M  V30 12600 C 1150.39 1.42278 -0.932255 0
M  V30 12601 O 1151.58 1.52453 -1.20298 0
M  V30 12602 C 1148.71 2.44927 -2.46228 0
M  V30 12603 C 1147.66 2.2979 -3.61082 0
M  V30 12604 C 1146.99 3.67105 -3.88765 0
M  V30 12605 C 1148.29 1.7455 -4.9227 0
M  V30 12606 H 1149.98 0.734198 -2.90258 0
M  V30 12607 H 1147.53 0.351725 -1.39638 0
M  V30 12608 H 1149.48 3.16798 -2.77879 0
M  V30 12609 H 1148.21 2.8614 -1.57453 0
M  V30 12610 H 1146.87 1.60366 -3.29664 0
M  V30 12611 H 1146.51 4.05831 -2.97171 0
M  V30 12612 H 1146.21 3.57825 -4.66084 0
M  V30 12613 H 1147.74 4.40456 -4.22884 0
M  V30 12614 H 1149.15 2.36253 -5.22358 0
M  V30 12615 H 1147.55 1.76051 -5.73695 0
M  V30 12616 H 1148.62 0.704242 -4.79759 0
M  V30 12617 N 1149.96 1.53094 0.37415 0
M  V30 12618 C 1151.21 1.69111 1.11934 0
M  V30 12619 C 1151.54 0.437252 1.89213 0
M  V30 12620 O 1150.82 -0.565298 1.86104 0
M  V30 12621 C 1151.1 2.93559 2.08554 0
M  V30 12622 C 1150.95 4.29082 1.3494 0
M  V30 12623 C 1152.27 3.13586 3.08791 0
M  V30 12624 H 1149.39 0.615383 0.405553 0
M  V30 12625 H 1152.03 1.85719 0.401078 0
M  V30 12626 H 1150.18 2.79531 2.69805 0
M  V30 12627 H 1151.85 4.54906 0.765402 0
M  V30 12628 H 1150.1 4.28884 0.651238 0
M  V30 12629 H 1150.77 5.12275 2.05616 0
M  V30 12630 H 1153.24 3.26743 2.57639 0
M  V30 12631 H 1152.12 4.02112 3.73627 0
M  V30 12632 H 1152.38 2.28475 3.78486 0
M  V30 12633 N 1151.44 -0.633461 1.44309 0
M  V30 12634 C 1152.35 -1.77428 1.53481 0
M  V30 12635 C 1153.37 -1.68839 0.420628 0
M  V30 12636 O 1154.54 -1.89658 0.677638 0
M  V30 12637 C 1151.61 -3.13801 1.47409 0
M  V30 12638 C 1150.67 -3.34039 2.6966 0
M  V30 12639 C 1149.9 -4.63907 2.63868 0
M  V30 12640 O 1150.12 -5.44559 1.69741 0
M  V30 12641 O 1149.06 -4.86295 3.54684 0
M  V30 12642 H 1152.88 -1.72642 2.49857 0
M  V30 12643 H 1150.47 -0.794399 1.26529 0
M  V30 12644 H 1152.35 -3.95101 1.46537 0
M  V30 12645 H 1151.03 -3.19134 0.541769 0
M  V30 12646 H 1149.93 -2.52427 2.761 0
M  V30 12647 H 1151.27 -3.33566 3.61931 0
M  V30 12648 N 1152.92 -1.31168 -0.873655 0
M  V30 12649 C 1153.83 -1.20458 -2.01313 0
M  V30 12650 C 1154.84 -0.122074 -1.73571 0
M  V30 12651 O 1156.02 -0.339176 -1.98523 0
M  V30 12652 C 1153.09 -0.90876 -3.34578 0
M  V30 12653 C 1152.15 -2.07779 -3.75668 0
M  V30 12654 C 1151.38 -1.79599 -5.02573 0
M  V30 12655 O 1151.6 -0.729338 -5.65718 0
M  V30 12656 O 1150.54 -2.65169 -5.40341 0
M  V30 12657 H 1154.36 -2.16207 -2.13279 0
M  V30 12658 H 1151.95 -1.10871 -1.00139 0
M  V30 12659 H 1153.83 -0.759469 -4.145 0
M  V30 12660 H 1152.5 0.0187249 -3.23695 0
M  V30 12661 H 1151.41 -2.28247 -2.96402 0
M  V30 12662 H 1152.74 -2.9874 -3.91172 0
M  V30 12663 N 1154.4 1.08748 -1.14068 0
M  V30 12664 C 1155.81 1.33125 -0.880341 0
M  V30 12665 C 1156.01 1.9569 0.480396 0
M  V30 12666 O 1155.07 2.2077 1.22543 0
M  V30 12667 C 1156.38 2.23618 -2.01036 0
M  V30 12668 C 1157.93 2.37108 -2.04326 0
M  V30 12669 C 1158.4 3.30941 -3.1661 0
M  V30 12670 N 1159.9 3.38517 -3.16166 0
M  V30 12671 C 1160.63 4.11142 -3.99687 0
M  V30 12672 N 1160.13 4.86505 -4.93239 0
M  V30 12673 N 1161.92 4.06938 -3.87761 0
M  V30 12674 H 1154.07 0.665164 -2.01716 0
M  V30 12675 H 1156.33 0.355612 -0.878774 0
M  V30 12676 H 1156.04 1.84885 -2.99183 0
M  V30 12677 H 1155.91 3.24056 -1.93049 0
M  V30 12678 H 1158.3 2.75101 -1.06787 0
M  V30 12679 H 1158.38 1.36424 -2.16384 0
M  V30 12680 H 1158.03 2.93669 -4.14392 0
M  V30 12681 H 1157.96 4.31545 -3.01789 0
M  V30 12682 H 1160.45 2.84786 -2.48405 0
M  V30 12683 H 1160.76 5.39372 -5.53441 0
M  V30 12684 H 1159.1 4.8557 -4.9724 0
M  V30 12685 H 1162.3 3.47166 -3.13996 0
M  V30 12686 H 1162.47 4.63275 -4.53079 0
M  V30 12687 N 1155.87 0.935264 1.26849 0
M  V30 12688 C 1157.1 0.596249 1.98122 0
M  V30 12689 C 1157.52 -0.827452 1.69702 0
M  V30 12690 O 1156.87 -1.55095 0.961864 0
M  V30 12691 C 1156.93 0.821773 3.52036 0
M  V30 12692 O 1156.65 2.18947 3.79465 0
M  V30 12693 C 1158.15 0.492498 4.40556 0
M  V30 12694 H 1155.37 0.225242 0.632066 0
M  V30 12695 H 1157.91 1.25435 1.61512 0
M  V30 12696 H 1156.07 0.210363 3.86828 0
M  V30 12697 H 1156.48 2.24509 4.74021 0
M  V30 12698 H 1157.95 0.700953 5.47531 0
M  V30 12699 H 1158.43 -0.57228 4.35456 0
M  V30 12700 H 1159.04 1.08238 4.11296 0
M  V30 12701 N 1157.35 -1.41121 0.701616 0
M  V30 12702 C 1158.28 -2.292 0.000880842 0
M  V30 12703 C 1159.3 -1.45102 -0.738192 0
M  V30 12704 O 1160.49 -1.68541 -0.587891 0
M  V30 12705 C 1157.59 -3.23094 -1.02292 0
M  V30 12706 C 1156.76 -4.35979 -0.352231 0
M  V30 12707 C 1155.82 -5.10408 -1.27947 0
M  V30 12708 O 1154.84 -5.63974 -0.769561 0
M  V30 12709 N 1156.05 -5.18442 -2.61147 0
M  V30 12710 H 1158.81 -2.8998 0.757094 0
M  V30 12711 H 1156.37 -1.52339 0.548126 0
M  V30 12712 H 1158.36 -3.69755 -1.64509 0
M  V30 12713 H 1156.93 -2.6358 -1.68061 0
M  V30 12714 H 1156.15 -3.91624 0.44992 0
M  V30 12715 H 1157.44 -5.08673 0.113882 0
M  V30 12716 H 1156.84 -4.76381 -3.05087 0
M  V30 12717 H 1155.4 -5.68659 -3.18544 0
M  V30 12718 N 1158.83 -0.446794 -1.51134 0
M  V30 12719 C 1159.76 0.350229 -2.30858 0
M  V30 12720 C 1160.74 1.0125 -1.36684 0
M  V30 12721 O 1161.93 1.01433 -1.65605 0
M  V30 12722 C 1159.06 1.4464 -3.15748 0
M  V30 12723 C 1158.01 0.907102 -4.18277 0
M  V30 12724 C 1157.34 2.09974 -4.91747 0
M  V30 12725 C 1158.64 -0.0649758 -5.2226 0
M  V30 12726 H 1160.33 -0.315105 -2.97737 0
M  V30 12727 H 1157.88 -0.152985 -1.43185 0
M  V30 12728 H 1159.83 2.01127 -3.70305 0
M  V30 12729 H 1158.55 2.14016 -2.46708 0
M  V30 12730 H 1157.21 0.364382 -3.64785 0
M  V30 12731 H 1156.86 2.77991 -4.19202 0
M  V30 12732 H 1156.56 1.74523 -5.61084 0
M  V30 12733 H 1158.08 2.66996 -5.49131 0
M  V30 12734 H 1159.5 0.4099 -5.71833 0
M  V30 12735 H 1157.9 -0.332529 -5.99178 0
M  V30 12736 H 1158.97 -0.998681 -4.74504 0
M  V30 12737 N 1160.31 1.56586 -0.178487 0
M  V30 12738 C 1161.54 2.01183 0.470002 0
M  V30 12739 C 1161.95 1.05781 1.56866 0
M  V30 12740 O 1161.29 0.0519678 1.83626 0
M  V30 12741 C 1161.35 3.42199 1.10183 0
M  V30 12742 C 1161.02 4.56773 0.143945 0
M  V30 12743 C 1162.01 5.1594 -0.64043 0
M  V30 12744 C 1159.7 5.02286 0.0376874 0
M  V30 12745 C 1161.69 6.19055 -1.51819 0
M  V30 12746 C 1159.38 6.05248 -0.843652 0
M  V30 12747 C 1160.38 6.63505 -1.62017 0
M  V30 12748 O 1160.06 7.6447 -2.48677 0
M  V30 12749 H 1159.8 0.664527 0.124018 0
M  V30 12750 H 1162.35 2.0349 -0.279495 0
M  V30 12751 H 1160.58 3.36827 1.89959 0
M  V30 12752 H 1162.27 3.70705 1.65326 0
M  V30 12753 H 1163.04 4.81656 -0.56855 0
M  V30 12754 H 1158.91 4.56649 0.631893 0
M  V30 12755 H 1162.46 6.64455 -2.12475 0
M  V30 12756 H 1158.36 6.38958 -0.916708 0
M  V30 12757 H 1159.12 7.81823 -2.42272 0
M  V30 12758 N 1161.79 -0.095206 1.57312 0
M  V30 12759 C 1162.73 -1.11551 2.02052 0
M  V30 12760 C 1163.7 -1.39808 0.896818 0
M  V30 12761 O 1164.89 -1.51273 1.1628 0
M  V30 12762 C 1162.03 -2.43056 2.44985 0
M  V30 12763 C 1161.14 -2.21531 3.70875 0
M  V30 12764 C 1160.28 -3.46434 4.02687 0
M  V30 12765 C 1159.32 -3.2017 5.21687 0
M  V30 12766 N 1158.45 -4.37339 5.49253 0
M  V30 12767 H 1163.29 -0.727 2.88996 0
M  V30 12768 H 1160.83 -0.347441 1.42938 0
M  V30 12769 H 1162.79 -3.19803 2.67921 0
M  V30 12770 H 1161.42 -2.79754 1.61051 0
M  V30 12771 H 1160.47 -1.35587 3.55416 0
M  V30 12772 H 1161.78 -1.98116 4.57768 0
M  V30 12773 H 1160.94 -4.31589 4.26399 0
M  V30 12774 H 1159.67 -3.72904 3.14315 0
M  V30 12775 H 1158.68 -2.33409 4.97796 0
M  V30 12776 H 1159.9 -2.95047 6.11657 0
M  V30 12777 H 1157.85 -4.63885 4.6384 0
M  V30 12778 H 1157.77 -4.17114 6.30517 0
M  V30 12779 H 1159.04 -5.23559 5.775 0
M  V30 12780 N 1163.26 -1.53291 -0.366026 0
M  V30 12781 C 1164.23 -1.79025 -1.43117 0
M  V30 12782 C 1165.23 -0.660676 -1.46601 0
M  V30 12783 O 1166.42 -0.928875 -1.47369 0
M  V30 12784 C 1163.55 -1.91192 -2.82238 0
M  V30 12785 H 1164.74 -2.74154 -1.21572 0
M  V30 12786 H 1162.3 -1.44361 -0.599132 0
M  V30 12787 H 1163.03 -0.98129 -3.09097 0
M  V30 12788 H 1162.82 -2.7335 -2.81109 0
M  V30 12789 H 1164.31 -2.12696 -3.59375 0
M  V30 12790 N 1164.74 0.6258 -1.44643 0
M  V30 12791 C 1165.65 1.76611 -1.5442 0
M  V30 12792 C 1166.67 1.68614 -0.429576 0
M  V30 12793 O 1167.84 1.89296 -0.687686 0
M  V30 12794 C 1164.91 3.13015 -1.49071 0
M  V30 12795 C 1163.97 3.32604 -2.71428 0
M  V30 12796 C 1163.2 4.62501 -2.66325 0
M  V30 12797 O 1163.43 5.43651 -1.72626 0
M  V30 12798 O 1162.36 4.84408 -3.57258 0
M  V30 12799 H 1166.19 1.71315 -2.50769 0
M  V30 12800 H 1163.77 0.787677 -1.26949 0
M  V30 12801 H 1165.65 3.94318 -1.48631 0
M  V30 12802 H 1164.33 3.18842 -0.558686 0
M  V30 12803 H 1163.24 2.50959 -2.77435 0
M  V30 12804 H 1164.57 3.31642 -3.63695 0
M  V30 12805 N 1166.22 1.31629 0.866686 0
M  V30 12806 C 1167.64 1.10358 1.15296 0
M  V30 12807 C 1167.84 -0.123807 2.01119 0
M  V30 12808 O 1166.89 -0.81219 2.39081 0
M  V30 12809 C 1168.21 2.37684 1.84193 0
M  V30 12810 C 1169.75 2.43326 1.9688 0
M  V30 12811 C 1170.23 3.70541 2.69191 0
M  V30 12812 N 1171.72 3.71454 2.76724 0
M  V30 12813 C 1172.45 4.66585 3.33295 0
M  V30 12814 N 1171.95 5.72075 3.90771 0
M  V30 12815 N 1173.74 4.541 3.31284 0
M  V30 12816 H 1165.89 2.10343 0.29487 0
M  V30 12817 H 1168.16 0.928096 0.193239 0
M  V30 12818 H 1167.86 3.27352 1.28582 0
M  V30 12819 H 1167.74 2.47731 2.84445 0
M  V30 12820 H 1170.12 1.54124 2.51654 0
M  V30 12821 H 1170.21 2.3724 0.956596 0
M  V30 12822 H 1169.85 4.60111 2.15083 0
M  V30 12823 H 1169.78 3.73894 3.70825 0
M  V30 12824 H 1172.27 2.952 2.35936 0
M  V30 12825 H 1172.58 6.40738 4.32058 0
M  V30 12826 H 1170.93 5.75844 3.89138 0
M  V30 12827 H 1174.12 3.70861 2.85622 0
M  V30 12828 H 1174.29 5.28416 3.75074 0
M  V30 12829 N 1167.7 -1.08142 1.14644 0
M  V30 12830 C 1168.98 -1.77254 0.827071 0
M  V30 12831 C 1169.36 -1.99885 -0.67891 0
M  V30 12832 O 1168.7 -1.61084 -1.62062 0
M  V30 12833 C 1168.91 -3.08658 1.62884 0
M  V30 12834 C 1170.26 -3.83143 1.82993 0
M  V30 12835 O 1171.29 -3.18447 1.59593 0
M  V30 12836 O 1170.15 -4.9932 2.2213 0
M  V30 12837 H 1167.24 -0.769356 0.30335 0
M  V30 12838 H 1169.79 -1.1458 1.25178 0
M  V30 12839 H 1168.56 -2.87753 2.65168 0
M  V30 12840 H 1168.18 -3.79061 1.19994 0
M  V30 12841 N 1169.18 -0.941978 -1.26351 0
M  V30 12842 C 1170.59 -0.644413 -1.46012 0
M  V30 12843 C 1170.79 0.802031 -1.84851 0
M  V30 12844 O 1169.85 1.57859 -1.9707 0
M  V30 12845 C 1171.16 -1.60652 -2.54188 0
M  V30 12846 C 1172.71 -1.6163 -2.68038 0
M  V30 12847 C 1173.19 -2.56573 -3.79387 0
M  V30 12848 N 1174.68 -2.54863 -3.8678 0
M  V30 12849 C 1175.41 -3.2501 -4.72394 0
M  V30 12850 N 1174.91 -4.04586 -5.6239 0
M  V30 12851 N 1176.7 -3.13958 -4.66247 0
M  V30 12852 H 1168.85 -1.8769 -0.994293 0
M  V30 12853 H 1171.11 -0.806621 -0.498063 0
M  V30 12854 H 1170.82 -2.63907 -2.32478 0
M  V30 12855 H 1170.69 -1.3592 -3.5186 0
M  V30 12856 H 1173.08 -0.59099 -2.89122 0
M  V30 12857 H 1173.16 -1.90417 -1.70807 0
M  V30 12858 H 1172.81 -3.59223 -3.59056 0
M  V30 12859 H 1172.74 -2.25077 -4.76076 0
M  V30 12860 H 1175.23 -1.97082 -3.22439 0
M  V30 12861 H 1175.54 -4.55061 -6.24612 0
M  V30 12862 H 1173.89 -4.08687 -5.62139 0
M  V30 12863 H 1177.08 -2.51273 -3.94943 0
M  V30 12864 H 1177.25 -3.68894 -5.32749 0
M  V30 12865 N 1170.66 1.40747 -0.709091 0
M  V30 12866 C 1171.62 2.29118 -0.0611607 0
M  V30 12867 C 1172.62 1.45049 0.694081 0
M  V30 12868 O 1173.81 1.66039 0.526952 0
M  V30 12869 C 1170.94 3.28154 0.923447 0
M  V30 12870 H 1172.13 2.87913 -0.839413 0
M  V30 12871 H 1169.69 1.4896 -0.473363 0
M  V30 12872 H 1170.42 2.74366 1.72899 0
M  V30 12873 H 1170.21 3.90207 0.384862 0
M  V30 12874 H 1171.7 3.94343 1.37417 0
M  V30 12875 N 1172.13 0.454803 1.50895 0
M  V30 12876 C 1173.41 -0.166559 1.9489 0
M  V30 12877 C 1173.79 -1.58492 1.3944 0
M  V30 12878 O 1173.14 -2.20788 0.588622 0
M  V30 12879 C 1173.35 -0.126506 3.48771 0
M  V30 12880 C 1174.7 -0.32347 4.23366 0
M  V30 12881 O 1175.72 -0.203835 3.55616 0
M  V30 12882 O 1174.58 -0.563292 5.43589 0
M  V30 12883 H 1171.67 -0.120523 0.818171 0
M  V30 12884 H 1174.22 0.514037 1.61727 0
M  V30 12885 H 1172.99 0.864407 3.81633 0
M  V30 12886 H 1172.61 -0.849264 3.88424 0
M  V30 12887 N 1173.61 -1.56489 0.186789 0
M  V30 12888 C 1175.03 -1.58701 -0.169176 0
M  V30 12889 C 1175.23 -1.2027 -1.61671 0
M  V30 12890 O 1174.28 -0.92154 -2.35083 0
M  V30 12891 C 1175.6 -3.00437 0.125657 0
M  V30 12892 C 1177.14 -3.12932 0.0651 0
M  V30 12893 C 1177.62 -4.56787 0.333131 0
M  V30 12894 N 1179.11 -4.62344 0.281453 0
M  V30 12895 C 1179.85 -5.71529 0.462805 0
M  V30 12896 N 1179.34 -6.89213 0.704054 0
M  V30 12897 N 1181.13 -5.60692 0.397636 0
M  V30 12898 H 1173.29 -1.79754 1.13148 0
M  V30 12899 H 1175.55 -0.83385 0.450997 0
M  V30 12900 H 1175.25 -3.33086 1.12901 0
M  V30 12901 H 1175.13 -3.72782 -0.575612 0
M  V30 12902 H 1177.52 -2.80101 -0.928845 0
M  V30 12903 H 1177.6 -2.42991 0.799318 0
M  V30 12904 H 1177.24 -4.9033 1.32436 0
M  V30 12905 H 1177.17 -5.24907 -0.421879 0
M  V30 12906 H 1179.66 -3.77764 0.101266 0
M  V30 12907 H 1179.97 -7.68314 0.831468 0
M  V30 12908 H 1178.32 -6.9104 0.740851 0
M  V30 12909 H 1181.51 -4.6763 0.20964 0
M  V30 12910 H 1181.68 -6.45726 0.54239 0
M  V30 12911 N 1175.09 0.086862 -1.5736 0
M  V30 12912 C 1176.02 1.10538 -2.05678 0
M  V30 12913 C 1177 1.41281 -0.947293 0
M  V30 12914 O 1178.19 1.51169 -1.21908 0
M  V30 12915 C 1175.32 2.42302 -2.48812 0
M  V30 12916 C 1174.27 2.25948 -3.63499 0
M  V30 12917 C 1173.6 3.62961 -3.92637 0
M  V30 12918 C 1174.9 1.69319 -4.94094 0
M  V30 12919 H 1176.59 0.703371 -2.91021 0
M  V30 12920 H 1174.14 0.336895 -1.40004 0
M  V30 12921 H 1176.09 3.13833 -2.81224 0
M  V30 12922 H 1174.81 2.84454 -1.60479 0
M  V30 12923 H 1173.47 1.5686 -3.31347 0
M  V30 12924 H 1173.12 4.02656 -3.01459 0
M  V30 12925 H 1172.82 3.52862 -4.69853 0
M  V30 12926 H 1174.34 4.35946 -4.27531 0
M  V30 12927 H 1175.76 2.30699 -5.24834 0
M  V30 12928 H 1174.15 1.69957 -5.7553 0
M  V30 12929 H 1175.22 0.653318 -4.80479 0
M  V30 12930 N 1176.57 1.53483 0.357892 0
M  V30 12931 C 1177.52 1.81143 1.45911 0
M  V30 12932 C 1178.51 0.681002 1.55109 0
M  V30 12933 O 1179.72 0.864086 1.57904 0
M  V30 12934 H 1176.09 0.573663 0.486225 0
M  V30 12935 H 1178.06 2.733 1.19789 0
M  V30 12936 C 1176.81 2.02509 2.8264 0
M  V30 12937 H 1176.13 2.88938 2.76324 0
M  V30 12938 H 1177.57 2.25837 3.58851 0
M  V30 12939 C 1176.03 0.806412 3.27106 0
M  V30 12940 O 1176.56 -0.00116809 4.017 0
M  V30 12941 N 1174.77 0.627677 2.8374 0
M  V30 12942 H 1174.32 1.28601 2.23203 0
M  V30 12943 H 1174.27 -0.186301 3.13848 0
M  V30 12944 N 1178.05 -0.61812 1.44973 0
M  V30 12945 C 1179.29 -1.3774 1.48439 0
M  V30 12946 C 1179.62 -1.94117 0.121999 0
M  V30 12947 O 1178.88 -1.749 -0.877974 0
M  V30 12948 C 1179.17 -2.55143 2.50274 0
M  V30 12949 C 1178.84 -2.16976 3.95262 0
M  V30 12950 C 1177.5 -2.06281 4.34743 0
M  V30 12951 C 1179.85 -1.8703 4.86486 0
M  V30 12952 C 1177.18 -1.63846 5.63357 0
M  V30 12953 C 1179.53 -1.46085 6.15501 0
M  V30 12954 C 1178.2 -1.3394 6.53924 0
M  V30 12955 H 1177.47 -0.504026 0.543175 0
M  V30 12956 H 1180.12 -0.699685 1.7826 0
M  V30 12957 H 1178.42 -3.28205 2.13983 0
M  V30 12958 H 1180.12 -3.13373 2.50197 0
M  V30 12959 H 1176.71 -2.26223 3.64034 0
M  V30 12960 H 1180.89 -1.94196 4.56729 0
M  V30 12961 H 1176.15 -1.53058 5.91932 0
M  V30 12962 H 1180.32 -1.21956 6.85638 0
M  V30 12963 H 1177.95 -1.00832 7.53483 0
M  V30 12964 N 1179.52 -1.32087 -0.859693 0
M  V30 12965 C 1180.46 -1.14934 -1.97143 0
M  V30 12966 C 1181.43 -0.0501084 -1.62523 0
M  V30 12967 O 1182.62 -0.208472 -1.87344 0
M  V30 12968 C 1179.75 -0.758374 -3.30101 0
M  V30 12969 C 1178.79 -1.86212 -3.83702 0
M  V30 12970 S 1179.62 -3.46949 -4.07905 0
M  V30 12971 C 1180.78 -3.09813 -5.43844 0
M  V30 12972 H 1181.01 -2.09047 -2.11392 0
M  V30 12973 H 1178.55 -1.1669 -1.01108 0
M  V30 12974 H 1180.5 -0.539563 -4.06939 0
M  V30 12975 H 1179.17 0.163817 -3.13673 0
M  V30 12976 H 1178.36 -1.54144 -4.7985 0
M  V30 12977 H 1177.96 -2.03652 -3.13691 0
M  V30 12978 H 1180.25 -2.59345 -6.25897 0
M  V30 12979 H 1181.2 -4.04963 -5.8087 0
M  V30 12980 H 1181.6 -2.46971 -5.07607 0
M  V30 12981 N 1181 1.07532 -1.15215 0
M  V30 12982 C 1181.93 2.1668 -0.870171 0
M  V30 12983 C 1182.91 1.69161 0.178483 0
M  V30 12984 O 1184.1 1.94172 0.0332489 0
M  V30 12985 C 1181.23 3.45464 -0.356666 0
M  V30 12986 C 1180.18 4.06424 -1.34179 0
M  V30 12987 C 1179.51 5.30266 -0.687206 0
M  V30 12988 C 1180.81 4.46666 -2.70715 0
M  V30 12989 H 1182.5 2.40526 -1.7829 0
M  V30 12990 H 1180.05 1.15598 -0.858665 0
M  V30 12991 H 1182 4.21144 -0.146947 0
M  V30 12992 H 1180.72 3.21199 0.591527 0
M  V30 12993 H 1179.38 3.32786 -1.53783 0
M  V30 12994 H 1179.03 5.0229 0.267077 0
M  V30 12995 H 1178.73 5.72009 -1.34462 0
M  V30 12996 H 1180.26 6.08653 -0.487218 0
M  V30 12997 H 1181.67 5.13483 -2.54966 0
M  V30 12998 H 1180.07 4.99355 -3.32813 0
M  V30 12999 H 1181.14 3.58123 -3.26919 0
M  V30 13000 N 1182.48 0.948665 1.2585 0
M  V30 13001 C 1183.41 0.482036 2.2847 0
M  V30 13002 C 1184.39 -0.468553 1.63519 0
M  V30 13003 O 1185.58 -0.368796 1.90666 0
M  V30 13004 C 1182.71 -0.246603 3.46423 0
M  V30 13005 C 1181.66 0.61815 4.23513 0
M  V30 13006 C 1180.99 -0.240884 5.34157 0
M  V30 13007 C 1182.29 1.89327 4.86778 0
M  V30 13008 H 1183.98 1.33973 2.67753 0
M  V30 13009 H 1181.53 0.645645 1.28715 0
M  V30 13010 H 1183.48 -0.584135 4.17332 0
M  V30 13011 H 1182.2 -1.13849 3.06114 0
M  V30 13012 H 1180.86 0.938682 3.54379 0
M  V30 13013 H 1180.51 -1.13235 4.90089 0
M  V30 13014 H 1180.21 0.334367 5.86648 0
M  V30 13015 H 1181.73 -0.573517 6.07901 0
M  V30 13016 H 1183.15 1.62252 5.49861 0
M  V30 13017 H 1181.55 2.41369 5.49419 0
M  V30 13018 H 1182.62 2.60006 4.09298 0
M  V30 13019 N 1183.96 -1.40369 0.716545 0
M  V30 13020 C 1185.37 -1.83783 0.328719 0
M  V30 13021 C 1185.72 -1.5991 -1.13681 0
M  V30 13022 O 1184.85 -1.08048 -1.87496 0
M  V30 13023 C 1185.44 -3.33626 0.589848 0
M  V30 13024 C 1184 -3.7553 0.25572 0
M  V30 13025 C 1183.15 -2.63571 0.861733 0
M  V30 13026 H 1186.1 -1.29623 0.915621 0
M  V30 13027 H 1186.12 -3.80225 -0.14459 0
M  V30 13028 H 1185.63 -3.5097 1.65655 0
M  V30 13029 H 1183.73 -3.63781 -0.805883 0
M  V30 13030 H 1183.84 -4.73577 0.725388 0
M  V30 13031 H 1182.21 -2.53047 0.289706 0
M  V30 13032 H 1182.99 -2.83727 1.93272 0
M  V30 13033 N 1185.44 -0.462799 -1.50652 0
M  V30 13034 C 1186.85 -0.11648 -1.59174 0
M  V30 13035 C 1187.05 1.37638 -1.47167 0
M  V30 13036 O 1186.11 2.14886 -1.3259 0
M  V30 13037 C 1187.42 -0.659289 -2.93383 0
M  V30 13038 C 1188.97 -0.62198 -3.06758 0
M  V30 13039 C 1189.44 -1.14219 -4.43529 0
M  V30 13040 N 1190.94 -1.10125 -4.49919 0
M  V30 13041 C 1191.67 -1.47436 -5.54121 0
M  V30 13042 N 1191.17 -1.92156 -6.65618 0
M  V30 13043 N 1192.96 -1.39091 -5.44619 0
M  V30 13044 H 1185.11 -1.43383 -1.56701 0
M  V30 13045 H 1187.37 -0.592438 -0.740082 0
M  V30 13046 H 1187.08 -1.70477 -3.07621 0
M  V30 13047 H 1186.95 -0.0982388 -3.77072 0
M  V30 13048 H 1189.34 0.414576 -2.92173 0
M  V30 13049 H 1189.42 -1.21974 -2.24847 0
M  V30 13050 H 1189.07 -2.17734 -4.58862 0
M  V30 13051 H 1189 -0.52073 -5.24019 0
M  V30 13052 H 1191.49 -0.773154 -3.69906 0
M  V30 13053 H 1191.8 -2.18796 -7.4118 0
M  V30 13054 H 1190.14 -1.96103 -6.6676 0
M  V30 13055 H 1193.34 -1.04001 -4.564 0
M  V30 13056 H 1193.51 -1.68496 -6.2571 0
M  V30 13057 N 1186.91 1.56388 -0.195085 0
M  V30 13058 C 1187.84 2.22091 0.720971 0
M  V30 13059 C 1188.83 1.184 1.22128 0
M  V30 13060 O 1190.01 1.46907 1.27012 0
M  V30 13061 C 1187.14 2.88025 1.94059 0
M  V30 13062 C 1186.09 3.97959 1.5752 0
M  V30 13063 C 1185.42 4.51058 2.87143 0
M  V30 13064 C 1186.72 5.16365 0.785145 0
M  V30 13065 H 1188.41 2.98898 0.173245 0
M  V30 13066 H 1185.96 1.43767 0.0818868 0
M  V30 13067 H 1187.91 3.32671 2.58666 0
M  V30 13068 H 1186.64 2.08623 2.51285 0
M  V30 13069 H 1185.3 3.54004 0.952715 0
M  V30 13070 H 1184.94 3.68418 3.42458 0
M  V30 13071 H 1184.64 5.25237 2.63439 0
M  V30 13072 H 1186.17 4.98406 3.52738 0
M  V30 13073 H 1187.58 5.57556 1.33431 0
M  V30 13074 H 1185.98 5.9661 0.646231 0
M  V30 13075 H 1187.05 4.84428 -0.213789 0
M  V30 13076 N 1188.39 -0.0785156 1.57404 0
M  V30 13077 C 1189.64 -0.780092 1.87196 0
M  V30 13078 C 1189.97 -1.77562 0.78647 0
M  V30 13079 O 1189.25 -1.93428 -0.203935 0
M  V30 13080 C 1189.53 -1.49408 3.27642 0
M  V30 13081 C 1189.38 -0.515416 4.46837 0
M  V30 13082 C 1190.7 -2.44064 3.66225 0
M  V30 13083 H 1187.82 -0.282134 0.680859 0
M  V30 13084 H 1190.46 -0.0433926 1.8995 0
M  V30 13085 H 1188.61 -2.12205 3.25425 0
M  V30 13086 H 1190.28 0.106827 4.61176 0
M  V30 13087 H 1188.53 0.169832 4.33467 0
M  V30 13088 H 1189.2 -1.05247 5.41874 0
M  V30 13089 H 1191.67 -1.91349 3.69493 0
M  V30 13090 H 1190.55 -2.91029 4.65396 0
M  V30 13091 H 1190.81 -3.28569 2.95796 0
M  V30 13092 N 1189.87 -1.5367 -0.349747 0
M  V30 13093 C 1191.12 -1.7087 -1.0923 0
M  V30 13094 C 1191.45 -0.467299 -1.88494 0
M  V30 13095 O 1190.72 0.535619 -1.8698 0
M  V30 13096 C 1191.01 -2.9684 -2.03858 0
M  V30 13097 C 1190.86 -4.31174 -1.28097 0
M  V30 13098 C 1192.18 -3.18459 -3.03763 0
M  V30 13099 H 1189.3 -0.621757 -0.395711 0
M  V30 13100 H 1191.94 -1.86333 -0.371481 0
M  V30 13101 H 1190.09 -2.83788 -2.65323 0
M  V30 13102 H 1191.76 -4.56066 -0.692933 0
M  V30 13103 H 1190.01 -4.29866 -0.582924 0
M  V30 13104 H 1190.68 -5.15482 -1.9744 0
M  V30 13105 H 1193.15 -3.30801 -2.52409 0
M  V30 13106 H 1192.03 -4.08006 -3.67182 0
M  V30 13107 H 1192.29 -2.34467 -3.74803 0
M  V30 13108 N 1191.35 0.610423 -1.45298 0
M  V30 13109 C 1192.3 1.7213 -1.53753 0
M  V30 13110 C 1193.27 1.61609 -0.383632 0
M  V30 13111 O 1194.45 1.8123 -0.596694 0
M  V30 13112 C 1191.59 3.10433 -1.50749 0
M  V30 13113 C 1190.7 3.3178 -2.76669 0
M  V30 13114 C 1189.84 4.60173 -2.65356 0
M  V30 13115 C 1188.88 4.74769 -3.86343 0
M  V30 13116 N 1188.01 5.94459 -3.73581 0
M  V30 13117 H 1192.85 1.64239 -2.48655 0
M  V30 13118 H 1190.39 0.800879 -1.23387 0
M  V30 13119 H 1192.35 3.90446 -1.46996 0
M  V30 13120 H 1190.98 3.17288 -0.593998 0
M  V30 13121 H 1190.03 2.45563 -2.90522 0
M  V30 13122 H 1191.34 3.38439 -3.66416 0
M  V30 13123 H 1190.5 5.48377 -2.59553 0
M  V30 13124 H 1189.24 4.55907 -1.73204 0
M  V30 13125 H 1188.24 3.8499 -3.92509 0
M  V30 13126 H 1189.47 4.80834 -4.79557 0
M  V30 13127 H 1187.41 5.91243 -2.84196 0
M  V30 13128 H 1187.33 6.02265 -4.5696 0
M  V30 13129 H 1188.6 6.85168 -3.71705 0
M  V30 13130 N 1192.83 1.32541 0.852676 0
M  V30 13131 C 1194.05 1.2636 1.64462 0
M  V30 13132 C 1194.48 -0.16508 1.87374 0
M  V30 13133 O 1193.83 -1.11712 1.42794 0
M  V30 13134 C 1193.88 2.03052 2.97997 0
M  V30 13135 O 1192.99 1.37967 3.88637 0
M  V30 13136 H 1192.33 0.435393 0.501327 0
M  V30 13137 H 1194.86 1.74888 1.06186 0
M  V30 13138 H 1194.87 2.133 3.47803 0
M  V30 13139 H 1193.54 3.06941 2.80642 0
M  V30 13140 H 1192.12 1.36279 3.47106 0
M  V30 13141 N 1194.3 -1.0692 1.15784 0
M  V30 13142 C 1195.23 -2.16216 0.881649 0
M  V30 13143 C 1196.22 -1.69253 -0.16951 0
M  V30 13144 O 1197.4 -1.94186 -0.0229511 0
M  V30 13145 C 1194.53 -3.4527 0.374982 0
M  V30 13146 C 1193.48 -4.05706 1.36332 0
M  V30 13147 C 1192.81 -5.29894 0.715317 0
M  V30 13148 C 1194.11 -4.45224 2.7308 0
M  V30 13149 H 1195.8 -2.39577 1.79563 0
M  V30 13150 H 1193.35 -1.15141 0.864784 0
M  V30 13151 H 1195.3 -4.2106 0.169279 0
M  V30 13152 H 1194.03 -3.21508 -0.574485 0
M  V30 13153 H 1192.69 -3.31965 1.55546 0
M  V30 13154 H 1192.33 -5.02425 -0.240436 0
M  V30 13155 H 1192.03 -5.71287 1.37494 0
M  V30 13156 H 1193.56 -6.08386 0.519489 0
M  V30 13157 H 1194.97 -5.12124 2.57686 0
M  V30 13158 H 1193.37 -4.97583 3.35457 0
M  V30 13159 H 1194.44 -3.56384 3.28813 0
M  V30 13160 N 1195.78 -0.955326 -1.25345 0
M  V30 13161 C 1196.73 -0.474888 -2.25862 0
M  V30 13162 C 1197.7 0.472996 -1.59223 0
M  V30 13163 O 1198.88 0.386094 -1.86853 0
M  V30 13164 C 1196.02 0.240554 -3.44261 0
M  V30 13165 C 1195.14 -0.74465 -4.25534 0
M  V30 13166 C 1194.27 -0.00657513 -5.312 0
M  V30 13167 C 1193.31 -0.982666 -6.04161 0
M  V30 13168 N 1192.45 -0.275418 -7.0156 0
M  V30 13169 H 1197.29 -1.33693 -2.66327 0
M  V30 13170 H 1194.83 -0.670439 -1.30933 0
M  V30 13171 H 1196.78 0.671933 -4.11753 0
M  V30 13172 H 1195.41 1.06664 -3.04668 0
M  V30 13173 H 1194.47 -1.29451 -3.57696 0
M  V30 13174 H 1195.78 -1.48948 -4.76042 0
M  V30 13175 H 1194.93 0.483404 -6.04771 0
M  V30 13176 H 1193.67 0.771035 -4.81567 0
M  V30 13177 H 1192.68 -1.48364 -5.29404 0
M  V30 13178 H 1193.9 -1.76052 -6.55883 0
M  V30 13179 H 1191.85 0.483441 -6.54216 0
M  V30 13180 H 1191.76 -0.959324 -7.49889 0
M  V30 13181 H 1193.03 0.193002 -7.79261 0
M  V30 13182 N 1197.26 1.39987 -0.723979 0
M  V30 13183 C 1198.17 2.3447 -0.0780936 0
M  V30 13184 C 1199.19 1.57744 0.734368 0
M  V30 13185 O 1200.36 1.90091 0.665385 0
M  V30 13186 C 1197.43 3.36705 0.826492 0
M  V30 13187 C 1196.49 4.293 0.00303036 0
M  V30 13188 C 1195.72 5.26651 0.864535 0
M  V30 13189 O 1195.95 5.30194 2.10357 0
M  V30 13190 O 1194.88 6.01157 0.299057 0
M  V30 13191 H 1198.71 2.91338 -0.857646 0
M  V30 13192 H 1196.29 1.41324 -0.484536 0
M  V30 13193 H 1198.17 3.9938 1.34439 0
M  V30 13194 H 1196.85 2.82237 1.58505 0
M  V30 13195 H 1195.75 3.69883 -0.560136 0
M  V30 13196 H 1197.09 4.86942 -0.717494 0
M  V30 13197 N 1198.74 0.470782 1.50404 0
M  V30 13198 C 1199.69 -0.32355 2.28521 0
M  V30 13199 C 1200.66 -0.987472 1.3356 0
M  V30 13200 O 1201.84 -0.999969 1.62497 0
M  V30 13201 C 1198.98 -1.39977 3.15437 0
M  V30 13202 C 1198.09 -0.750656 4.25428 0
M  V30 13203 C 1197.23 -1.80474 4.99602 0
M  V30 13204 C 1196.27 -1.13586 6.01469 0
M  V30 13205 N 1195.41 -2.13279 6.68922 0
M  V30 13206 H 1200.25 0.348902 2.9595 0
M  V30 13207 H 1197.78 0.183908 1.45946 0
M  V30 13208 H 1199.74 -2.0354 3.6418 0
M  V30 13209 H 1198.37 -2.04139 2.50054 0
M  V30 13210 H 1197.42 -0.00247092 3.804 0
M  V30 13211 H 1198.73 -0.222638 4.98303 0
M  V30 13212 H 1197.89 -2.51619 5.52062 0
M  V30 13213 H 1196.63 -2.36657 4.26433 0
M  V30 13214 H 1195.63 -0.410042 5.48269 0
M  V30 13215 H 1196.86 -0.580935 6.76611 0
M  V30 13216 H 1194.8 -2.68479 5.98544 0
M  V30 13217 H 1194.72 -1.65461 7.37671 0
M  V30 13218 H 1195.99 -2.83804 7.26 0
M  V30 13219 N 1200.22 -1.56282 0.203376 0
M  V30 13220 C 1201.47 -1.97421 -0.432346 0
M  V30 13221 C 1201.79 -1.0917 -1.61576 0
M  V30 13222 O 1201.06 -0.164759 -1.95206 0
M  V30 13223 H 1199.64 -0.729062 -0.162721 0
M  V30 13224 H 1202.3 -1.927 0.292039 0
M  V30 13225 H 1201.39 -3.02429 -0.770918 0
M  V30 13226 N 1201.7 0.070167 -1.57444 0
M  V30 13227 C 1202.94 0.769014 -1.8733 0
M  V30 13228 C 1203.27 1.77496 -0.79533 0
M  V30 13229 O 1202.53 1.94586 0.208495 0
M  V30 13230 C 1202.82 1.5111 -3.23883 0
M  V30 13231 C 1202.49 0.644988 -4.46263 0
M  V30 13232 C 1201.15 0.406307 -4.79482 0
M  V30 13233 C 1203.5 0.0444938 -5.21181 0
M  V30 13234 C 1200.83 -0.442322 -5.8503 0
M  V30 13235 C 1203.18 -0.791599 -6.27628 0
M  V30 13236 C 1201.85 -1.04014 -6.59346 0
M  V30 13237 H 1201.12 0.281402 -0.685488 0
M  V30 13238 H 1203.77 0.029752 -1.91477 0
M  V30 13239 H 1202.07 2.32261 -3.15535 0
M  V30 13240 H 1203.77 2.05665 -3.44242 0
M  V30 13241 H 1200.36 0.841148 -4.20265 0
M  V30 13242 H 1204.54 0.216005 -4.9583 0
M  V30 13243 H 1199.8 -0.643607 -6.08003 0
M  V30 13244 H 1203.97 -1.26363 -6.8484 0
M  V30 13245 H 1201.6 -1.69949 -7.4096 0
M  V30 13246 N 1203.17 1.53854 0.341593 0
M  V30 13247 C 1204.42 1.71447 1.08322 0
M  V30 13248 C 1204.75 0.477289 1.88243 0
M  V30 13249 O 1204.03 -0.525695 1.87261 0
M  V30 13250 C 1204.31 2.97917 2.02281 0
M  V30 13251 C 1204.16 4.31847 1.25809 0
M  V30 13252 C 1205.48 3.20065 3.0207 0
M  V30 13253 H 1202.6 0.623847 0.392408 0
M  V30 13254 H 1205.24 1.86527 0.361594 0
M  V30 13255 H 1203.39 2.85191 2.63815 0
M  V30 13256 H 1205.07 4.56427 0.668737 0
M  V30 13257 H 1203.31 4.30169 0.560119 0
M  V30 13258 H 1203.98 5.16522 1.94704 0
M  V30 13259 H 1206.46 3.32135 2.50651 0
M  V30 13260 H 1205.33 4.09947 3.65013 0
M  V30 13261 H 1205.59 2.36452 3.73554 0
M  V30 13262 N 1204.65 -0.602709 1.4562 0
M  V30 13263 C 1205.56 -1.74132 1.5721 0
M  V30 13264 C 1206.58 -1.67909 0.456347 0
M  V30 13265 O 1207.75 -1.88178 0.717714 0
M  V30 13266 C 1204.82 -3.10604 1.54032 0
M  V30 13267 C 1203.88 -3.28244 2.76685 0
M  V30 13268 C 1203.11 -4.58205 2.73649 0
M  V30 13269 O 1203.34 -5.40836 1.81254 0
M  V30 13270 O 1202.27 -4.78663 3.64919 0
M  V30 13271 H 1206.1 -1.67304 2.53462 0
M  V30 13272 H 1203.68 -0.767381 1.28186 0
M  V30 13273 H 1205.56 -3.91904 1.54885 0
M  V30 13274 H 1204.24 -3.17913 0.60934 0
M  V30 13275 H 1203.14 -2.46514 2.81393 0
M  V30 13276 H 1204.48 -3.25814 3.68925 0
M  V30 13277 N 1206.13 -1.32992 -0.845635 0
M  V30 13278 C 1207.54 -1.21616 -1.41656 0
M  V30 13279 C 1207.89 0.167687 -1.95482 0
M  V30 13280 O 1207.02 1.06692 -1.8827 0
M  V30 13281 C 1207.61 -2.2018 -2.575 0
M  V30 13282 C 1206.17 -2.12664 -3.10565 0
M  V30 13283 C 1205.32 -2.08042 -1.83341 0
M  V30 13284 H 1208.27 -1.44688 -0.651993 0
M  V30 13285 H 1208.29 -1.80558 -3.34931 0
M  V30 13286 H 1207.8 -3.20888 -2.18294 0
M  V30 13287 H 1205.9 -1.15235 -3.54333 0
M  V30 13288 H 1206.02 -3.02902 -3.71197 0
M  V30 13289 H 1204.38 -1.53416 -2.03312 0
M  V30 13290 H 1205.16 -3.10547 -1.46339 0
M  V30 13291 N 1207.61 1.06304 -1.1635 0
M  V30 13292 C 1208.52 2.17296 -0.884289 0
M  V30 13293 C 1209.53 1.73408 0.143414 0
M  V30 13294 O 1210.71 2.01373 -0.0331987 0
M  V30 13295 C 1207.77 3.44509 -0.389163 0
M  V30 13296 C 1206.84 4.02906 -1.48208 0
M  V30 13297 C 1206.07 5.24047 -1.01048 0
M  V30 13298 O 1206.29 5.70229 0.139821 0
M  V30 13299 O 1205.23 5.74394 -1.79876 0
M  V30 13300 H 1209.05 2.4369 -1.81243 0
M  V30 13301 H 1206.64 1.15841 -0.943459 0
M  V30 13302 H 1208.52 4.21229 -0.120018 0
M  V30 13303 H 1207.19 3.19642 0.510968 0
M  V30 13304 H 1206.1 3.27677 -1.80496 0
M  V30 13305 H 1207.43 4.32068 -2.35751 0
M  V30 13306 N 1209.09 0.96196 1.24836 0
M  V30 13307 C 1210.02 0.506241 2.27946 0
M  V30 13308 C 1211 -0.451183 1.64007 0
M  V30 13309 O 1212.18 -0.348552 1.91046 0
M  V30 13310 C 1209.31 -0.209846 3.46665 0
M  V30 13311 C 1208.27 0.663035 4.22833 0
M  V30 13312 C 1207.59 -0.184216 5.34383 0
M  V30 13313 C 1208.89 1.94479 4.84742 0
M  V30 13314 H 1210.59 1.36805 2.66317 0
M  V30 13315 H 1208.13 0.65926 1.28023 0
M  V30 13316 H 1210.08 -0.539838 4.17928 0
M  V30 13317 H 1208.81 -1.10596 3.07305 0
M  V30 13318 H 1207.47 0.976216 3.53363 0
M  V30 13319 H 1207.12 -1.08031 4.91262 0
M  V30 13320 H 1206.82 0.39657 5.8626 0
M  V30 13321 H 1208.34 -0.509009 6.08475 0
M  V30 13322 H 1209.75 1.68074 5.48109 0
M  V30 13323 H 1208.15 2.47183 5.46828 0
M  V30 13324 H 1209.22 2.64332 4.06517 0
M  V30 13325 N 1210.56 -1.39601 0.731392 0
M  V30 13326 C 1211.79 -2.0459 0.287472 0
M  V30 13327 C 1212.2 -1.5525 -1.08139 0
M  V30 13328 O 1211.54 -0.710949 -1.69385 0
M  V30 13329 C 1211.61 -3.58904 0.206948 0
M  V30 13330 C 1211.27 -4.31204 1.51368 0
M  V30 13331 C 1212.27 -4.58088 2.45869 0
M  V30 13332 C 1209.95 -4.69818 1.77698 0
M  V30 13333 C 1211.95 -5.22591 3.64935 0
M  V30 13334 C 1209.63 -5.34049 2.97043 0
M  V30 13335 C 1210.63 -5.60368 3.90483 0
M  V30 13336 O 1210.32 -6.23268 5.07732 0
M  V30 13337 H 1210.05 -0.664515 0.12408 0
M  V30 13338 H 1212.61 -1.79701 0.994814 0
M  V30 13339 H 1210.84 -3.82675 -0.556466 0
M  V30 13340 H 1212.52 -4.05385 -0.204498 0
M  V30 13341 H 1213.29 -4.28706 2.26796 0
M  V30 13342 H 1209.17 -4.48692 1.05815 0
M  V30 13343 H 1212.71 -5.43049 4.37885 0
M  V30 13344 H 1208.61 -5.62852 3.16018 0
M  V30 13345 H 1209.38 -6.41763 5.08019 0
M  V30 13346 N 1212.04 -0.478751 -1.50152 0
M  V30 13347 C 1212.95 0.316554 -2.32455 0
M  V30 13348 C 1213.97 0.98871 -1.4318 0
M  V30 13349 O 1215.14 0.974998 -1.76226 0
M  V30 13350 C 1212.21 1.3799 -3.18056 0
M  V30 13351 C 1211.27 0.723534 -4.23159 0
M  V30 13352 C 1210.5 1.73621 -5.0467 0
M  V30 13353 O 1210.73 2.96362 -4.87366 0
M  V30 13354 O 1209.66 1.30381 -5.87609 0
M  V30 13355 H 1213.49 -0.356491 -3.016 0
M  V30 13356 H 1211.07 -0.24046 -1.47452 0
M  V30 13357 H 1212.95 1.99565 -3.71149 0
M  V30 13358 H 1211.63 2.03627 -2.5163 0
M  V30 13359 H 1210.54 0.0686296 -3.74037 0
M  V30 13360 H 1211.87 0.109979 -4.92077 0
M  V30 13361 N 1213.52 1.56172 -0.211661 0
M  V30 13362 C 1214.43 2.23468 0.714081 0
M  V30 13363 C 1215.45 1.23908 1.22159 0
M  V30 13364 O 1216.62 1.56693 1.26528 0
M  V30 13365 C 1213.69 2.89375 1.90953 0
M  V30 13366 C 1212.75 4.04251 1.44497 0
M  V30 13367 C 1211.98 4.67006 2.58343 0
M  V30 13368 O 1212.2 4.28721 3.76237 0
M  V30 13369 O 1211.14 5.56177 2.3011 0
M  V30 13370 H 1214.96 3.03219 0.170862 0
M  V30 13371 H 1212.55 1.49389 0.0183607 0
M  V30 13372 H 1214.43 3.3101 2.60787 0
M  V30 13373 H 1213.11 2.12591 2.44104 0
M  V30 13374 H 1212.01 3.67205 0.714932 0
M  V30 13375 H 1213.35 4.82748 0.959947 0
M  V30 13376 N 1215 -0.0618163 1.57479 0
M  V30 13377 C 1216.24 -0.760193 1.88013 0
M  V30 13378 C 1216.58 -1.76718 0.805258 0
M  V30 13379 O 1215.85 -1.93633 -0.183408 0
M  V30 13380 C 1216.14 -1.45924 3.29208 0
M  V30 13381 C 1215.99 -0.467994 4.47359 0
M  V30 13382 C 1217.31 -2.40166 3.68793 0
M  V30 13383 H 1214.43 -0.274896 0.683814 0
M  V30 13384 H 1217.07 -0.0232433 1.89986 0
M  V30 13385 H 1215.22 -2.08741 3.27657 0
M  V30 13386 H 1216.89 0.155735 4.61037 0
M  V30 13387 H 1215.13 0.215797 4.33263 0
M  V30 13388 H 1215.8 -0.994942 5.42959 0
M  V30 13389 H 1218.28 -1.87419 3.71501 0
M  V30 13390 H 1217.16 -2.86076 4.68457 0
M  V30 13391 H 1217.42 -3.25413 2.99264 0
M  V30 13392 N 1216.48 -1.54033 -0.333429 0
M  V30 13393 C 1217.7 -1.75716 -1.09232 0
M  V30 13394 C 1218.12 -0.501076 -1.82029 0
M  V30 13395 O 1217.48 0.527772 -1.74702 0
M  V30 13396 C 1217.53 -2.9439 -2.09802 0
M  V30 13397 O 1217.25 -4.15141 -1.39963 0
M  V30 13398 C 1218.75 -3.28206 -2.97987 0
M  V30 13399 H 1215.97 -0.586859 -0.325326 0
M  V30 13400 H 1218.51 -2.0089 -0.382555 0
M  V30 13401 H 1216.67 -2.71518 -2.76327 0
M  V30 13402 H 1217.08 -4.81826 -2.0723 0
M  V30 13403 H 1218.56 -4.14568 -3.64469 0
M  V30 13404 H 1219.03 -2.44944 -3.64553 0
M  V30 13405 H 1219.64 -3.5312 -2.37036 0
M  V30 13406 N 1217.95 0.594978 -1.45938 0
M  V30 13407 C 1219.2 1.34976 -1.49881 0
M  V30 13408 C 1219.52 1.95025 -0.14983 0
M  V30 13409 O 1220.72 2.71417 -0.0669868 0
M  V30 13410 C 1219.18 2.44563 -2.6404 0
M  V30 13411 C 1218.79 1.9087 -4.05306 0
M  V30 13412 C 1220.53 3.21461 -2.77242 0
M  V30 13413 C 1218.44 2.98013 -5.10825 0
M  V30 13414 H 1217.37 0.507366 -0.55776 0
M  V30 13415 H 1220.02 0.636316 -1.72114 0
M  V30 13416 H 1218.4 3.1865 -2.35114 0
M  V30 13417 H 1219.57 1.23408 -4.43968 0
M  V30 13418 H 1217.89 1.26678 -3.96663 0
M  V30 13419 H 1220.49 4.01399 -3.53246 0
M  V30 13420 H 1220.83 3.73271 -1.84321 0
M  V30 13421 H 1221.36 2.54477 -3.05756 0
M  V30 13422 H 1218.1 2.51104 -6.05497 0
M  V30 13423 H 1217.62 3.64003 -4.7672 0
M  V30 13424 H 1219.3 3.62178 -5.36131 0
M  V30 13425 N 1219.43 1.33438 0.838571 0
M  V30 13426 C 1220.66 1.27766 1.62356 0
M  V30 13427 C 1221.07 -0.15359 1.88576 0
M  V30 13428 O 1220.41 -1.10626 1.46654 0
M  V30 13429 C 1220.48 1.98435 2.99773 0
M  V30 13430 C 1220.14 3.47741 2.96522 0
M  V30 13431 C 1221.14 4.42938 2.72217 0
M  V30 13432 C 1218.82 3.89922 3.16648 0
M  V30 13433 C 1220.82 5.7829 2.68066 0
M  V30 13434 C 1218.5 5.25378 3.12123 0
M  V30 13435 C 1219.5 6.19374 2.87863 0
M  V30 13436 O 1219.19 7.52349 2.83242 0
M  V30 13437 H 1218.92 0.441527 0.511889 0
M  V30 13438 H 1221.47 1.76377 1.05262 0
M  V30 13439 H 1219.7 1.44415 3.58721 0
M  V30 13440 H 1221.39 1.86258 3.60642 0
M  V30 13441 H 1222.16 4.11673 2.56418 0
M  V30 13442 H 1218.04 3.17169 3.34552 0
M  V30 13443 H 1221.58 6.51629 2.4905 0
M  V30 13444 H 1217.48 5.56267 3.27471 0
M  V30 13445 H 1218.25 7.61901 2.99082 0
M  V30 13446 N 1220.91 -1.05686 1.16912 0
M  V30 13447 C 1222.16 -1.78597 0.954425 0
M  V30 13448 C 1222.49 -1.87494 -0.517315 0
M  V30 13449 O 1221.74 -1.36736 -1.40006 0
M  V30 13450 C 1222.04 -3.22779 1.53455 0
M  V30 13451 C 1221.71 -3.3395 3.02965 0
M  V30 13452 C 1220.37 -3.36706 3.43777 0
M  V30 13453 C 1222.72 -3.35371 3.98969 0
M  V30 13454 C 1220.05 -3.38506 4.79198 0
M  V30 13455 C 1222.4 -3.38708 5.34284 0
M  V30 13456 C 1221.06 -3.39749 5.74567 0
M  V30 13457 H 1220.33 -0.653534 0.349249 0
M  V30 13458 H 1222.98 -1.24245 1.45723 0
M  V30 13459 H 1221.29 -3.80025 0.953331 0
M  V30 13460 H 1222.98 -3.77805 1.34404 0
M  V30 13461 H 1219.57 -3.32515 2.70429 0
M  V30 13462 H 1223.76 -3.32447 3.685 0
M  V30 13463 H 1219.01 -3.37619 5.09729 0
M  V30 13464 H 1223.19 -3.38755 6.08455 0
M  V30 13465 H 1220.81 -3.40897 6.7948 0
M  V30 13466 N 1222.39 -0.968567 -1.24324 0
M  V30 13467 C 1223.61 -0.648166 -1.97012 0
M  V30 13468 C 1224.04 0.775842 -1.71354 0
M  V30 13469 O 1223.4 1.52672 -0.977804 0
M  V30 13470 C 1223.44 -0.929974 -3.48402 0
M  V30 13471 O 1222.55 -0.015854 -4.12397 0
M  V30 13472 H 1221.89 -0.244961 -0.617163 0
M  V30 13473 H 1224.42 -1.29895 -1.58077 0
M  V30 13474 H 1224.43 -0.861863 -3.98793 0
M  V30 13475 H 1223.1 -1.96776 -3.66404 0
M  V30 13476 H 1221.68 -0.137361 -3.72647 0
M  V30 13477 N 1223.87 1.39211 -0.738786 0
M  V30 13478 C 1225.14 1.9442 -0.214533 0
M  V30 13479 C 1225.52 1.67528 1.28443 0
M  V30 13480 O 1224.87 1.0056 2.05183 0
M  V30 13481 C 1225.08 3.44603 -0.552232 0
M  V30 13482 C 1226.43 4.21602 -0.503663 0
M  V30 13483 O 1227.45 3.52819 -0.489647 0
M  V30 13484 O 1226.31 5.44194 -0.50153 0
M  V30 13485 H 1223.41 0.826011 -0.0404247 0
M  V30 13486 H 1225.95 1.48689 -0.817902 0
M  V30 13487 H 1224.72 3.57626 -1.58806 0
M  V30 13488 H 1224.35 3.9752 0.0799096 0
M  V30 13489 N 1225.34 0.486708 1.49896 0
M  V30 13490 C 1226.59 -0.0646197 2.01596 0
M  V30 13491 C 1226.91 -1.39363 1.37249 0
M  V30 13492 O 1228.11 -2.03082 1.80194 0
M  V30 13493 C 1226.57 -0.16565 3.59519 0
M  V30 13494 C 1226.18 1.15586 4.32832 0
M  V30 13495 C 1227.92 -0.668103 4.1921 0
M  V30 13496 C 1225.83 1.01778 5.82576 0
M  V30 13497 H 1224.76 -0.0279241 0.753483 0
M  V30 13498 H 1227.41 0.623969 1.72566 0
M  V30 13499 H 1225.79 -0.918372 3.85204 0
M  V30 13500 H 1226.96 1.92076 4.1886 0
M  V30 13501 H 1225.28 1.59064 3.84822 0
M  V30 13502 H 1227.88 -0.788698 5.28851 0
M  V30 13503 H 1228.22 -1.66339 3.81624 0
M  V30 13504 H 1228.75 0.0276746 3.9779 0
M  V30 13505 H 1225.49 1.9869 6.24662 0
M  V30 13506 H 1225.01 0.293527 5.99081 0
M  V30 13507 H 1226.69 0.690693 6.43303 0
M  V30 13508 N 1226.82 -1.56058 0.219941 0
M  V30 13509 C 1228.07 -1.98554 -0.412808 0
M  V30 13510 C 1228.4 -1.10742 -1.5953 0
M  V30 13511 O 1227.68 -0.164757 -1.93801 0
M  V30 13512 C 1227.96 -3.4995 -0.848923 0
M  V30 13513 C 1227.81 -4.48535 0.337094 0
M  V30 13514 C 1229.13 -4.05703 -1.70567 0
M  V30 13515 H 1226.25 -0.721869 -0.148576 0
M  V30 13516 H 1228.89 -1.87356 0.315852 0
M  V30 13517 H 1227.04 -3.59624 -1.46979 0
M  V30 13518 H 1228.72 -4.50874 0.975216 0
M  V30 13519 H 1226.96 -4.22474 0.984798 0
M  V30 13520 H 1227.63 -5.51999 -0.0109665 0
M  V30 13521 H 1230.11 -3.98964 -1.18182 0
M  V30 13522 H 1228.98 -5.11955 -1.97972 0
M  V30 13523 H 1229.24 -3.52487 -2.66844 0
M  V30 13524 N 1228.3 0.053464 -1.57509 0
M  V30 13525 C 1229.55 0.747622 -1.87763 0
M  V30 13526 C 1229.87 1.77178 -0.814433 0
M  V30 13527 O 1229.14 1.95287 0.154862 0
M  V30 13528 H 1227.72 0.279109 -0.692898 0
M  V30 13529 H 1230.38 0.0252006 -1.94884 0
M  V30 13530 H 1229.48 1.25244 -2.85868 0
M  V30 13531 N 1229.78 1.54207 0.325255 0
M  V30 13532 C 1231.03 1.72331 1.0634 0
M  V30 13533 C 1231.35 0.496115 1.88066 0
M  V30 13534 O 1230.61 -0.52214 1.88606 0
M  V30 13535 C 1230.91 2.95 2.01766 0
M  V30 13536 C 1230.57 4.29835 1.36208 0
M  V30 13537 C 1229.24 4.66493 1.18059 0
M  V30 13538 C 1231.59 5.13521 0.891404 0
M  V30 13539 C 1228.92 5.84436 0.514894 0
M  V30 13540 C 1231.27 6.32146 0.239534 0
M  V30 13541 C 1229.93 6.67484 0.0458839 0
M  V30 13542 H 1229.2 0.630605 0.389125 0
M  V30 13543 H 1231.85 1.88445 0.34072 0
M  V30 13544 H 1230.15 2.73567 2.80479 0
M  V30 13545 H 1231.85 3.06217 2.58906 0
M  V30 13546 H 1228.44 4.00993 1.51335 0
M  V30 13547 H 1232.63 4.85718 1.01941 0
M  V30 13548 H 1227.88 6.10376 0.353644 0
M  V30 13549 H 1232.06 6.96273 -0.133185 0
M  V30 13550 H 1229.68 7.58733 -0.471978 0
M  V30 13551 N 1231.26 -0.58723 1.46251 0
M  V30 13552 C 1232.49 -1.37174 1.5489 0
M  V30 13553 C 1232.9 -1.87857 0.188445 0
M  V30 13554 O 1232.26 -1.63365 -0.813509 0
M  V30 13555 C 1232.31 -2.56237 2.55 0
M  V30 13556 O 1232.03 -2.07655 3.8576 0
M  V30 13557 C 1233.53 -3.48846 2.73535 0
M  V30 13558 H 1230.75 -0.419211 0.523931 0
M  V30 13559 H 1233.29 -0.714307 1.91619 0
M  V30 13560 H 1231.45 -3.1798 2.21287 0
M  V30 13561 H 1231.86 -2.85161 4.40208 0
M  V30 13562 H 1233.34 -4.2888 3.47514 0
M  V30 13563 H 1233.81 -4.00493 1.80282 0
M  V30 13564 H 1234.42 -2.92942 3.08326 0
M  V30 13565 N 1232.74 -1.33881 -0.831482 0
M  V30 13566 C 1233.96 -1.28812 -1.61911 0
M  V30 13567 C 1234.38 0.139519 -1.88284 0
M  V30 13568 O 1233.74 1.08397 -1.46821 0
M  V30 13569 C 1233.79 -2.06806 -2.96502 0
M  V30 13570 O 1233.51 -3.44 -2.71285 0
M  V30 13571 C 1235.01 -2.09033 -3.90922 0
M  V30 13572 H 1232.23 -0.443473 -0.50356 0
M  V30 13573 H 1234.77 -1.76365 -1.03516 0
M  V30 13574 H 1232.93 -1.62915 -3.51479 0
M  V30 13575 H 1233.34 -3.84213 -3.57044 0
M  V30 13576 H 1234.82 -2.68044 -4.82552 0
M  V30 13577 H 1235.29 -1.08249 -4.25651 0
M  V30 13578 H 1235.9 -2.52975 -3.41883 0
M  V30 13579 N 1234.21 1.05064 -1.1747 0
M  V30 13580 C 1235.46 1.77481 -0.958301 0
M  V30 13581 C 1235.78 1.88725 0.51401 0
M  V30 13582 O 1236.98 2.57895 0.848657 0
M  V30 13583 C 1235.44 3.19048 -1.66543 0
M  V30 13584 C 1235.05 3.1593 -3.17636 0
M  V30 13585 C 1236.79 3.95912 -1.53146 0
M  V30 13586 C 1234.7 4.52293 -3.81032 0
M  V30 13587 H 1233.63 0.665247 -0.354913 0
M  V30 13588 H 1236.28 1.17751 -1.40737 0
M  V30 13589 H 1234.66 3.79113 -1.1441 0
M  V30 13590 H 1235.83 2.65375 -3.76713 0
M  V30 13591 H 1234.15 2.52564 -3.31059 0
M  V30 13592 H 1236.75 4.96737 -1.9788 0
M  V30 13593 H 1237.09 4.13498 -0.482203 0
M  V30 13594 H 1237.62 3.42399 -2.02504 0
M  V30 13595 H 1234.36 4.39913 -4.8596 0
M  V30 13596 H 1233.88 5.02991 -3.26741 0
M  V30 13597 H 1235.56 5.2123 -3.83312 0
M  V30 13598 N 1235.69 0.975146 1.23809 0
M  V30 13599 C 1236.93 0.649078 1.9382 0
M  V30 13600 C 1237.3 -0.801879 1.74453 0
M  V30 13601 O 1238.5 -1.23853 2.38567 0
M  V30 13602 C 1236.77 1.0225 3.42461 0
M  V30 13603 S 1238.33 0.812107 4.3122 0
M  V30 13604 H 1235.14 0.237878 0.670026 0
M  V30 13605 H 1237.75 1.25368 1.50011 0
M  V30 13606 H 1236.45 2.07523 3.54065 0
M  V30 13607 H 1235.98 0.408976 3.91268 0
M  V30 13608 H 1238 -0.306716 4.95251 0
M  V30 13609 N 1237.17 -1.38817 0.746158 0
M  V30 13610 C 1238.12 -2.30521 0.113517 0
M  V30 13611 C 1239.09 -1.49795 -0.717682 0
M  V30 13612 O 1240.27 -1.78448 -0.675345 0
M  V30 13613 C 1237.41 -3.36185 -0.779343 0
M  V30 13614 C 1236.52 -4.3195 0.0656784 0
M  V30 13615 C 1235.66 -5.24684 -0.829492 0
M  V30 13616 C 1234.7 -6.12097 0.0196112 0
M  V30 13617 N 1233.84 -6.97152 -0.832107 0
M  V30 13618 H 1238.68 -2.84048 0.901136 0
M  V30 13619 H 1236.21 -1.39853 0.456025 0
M  V30 13620 H 1238.17 -3.96048 -1.31156 0
M  V30 13621 H 1236.8 -2.84085 -1.53282 0
M  V30 13622 H 1235.85 -3.73611 0.715445 0
M  V30 13623 H 1237.16 -4.93551 0.721735 0
M  V30 13624 H 1236.32 -5.89627 -1.42915 0
M  V30 13625 H 1235.06 -4.63431 -1.5193 0
M  V30 13626 H 1234.06 -5.46156 0.631991 0
M  V30 13627 H 1235.29 -6.75416 0.706369 0
M  V30 13628 H 1233.23 -6.38456 -1.507 0
M  V30 13629 H 1233.15 -7.55642 -0.232782 0
M  V30 13630 H 1234.42 -7.66513 -1.41697 0
M  V30 13631 N 1238.65 -0.49465 -1.49636 0
M  V30 13632 C 1239.88 0.0490417 -2.06542 0
M  V30 13633 C 1240.29 1.31945 -1.35599 0
M  V30 13634 O 1239.63 1.78691 -0.426047 0
M  V30 13635 C 1239.69 0.379426 -3.57492 0
M  V30 13636 C 1239.35 -0.792345 -4.50079 0
M  V30 13637 C 1240.35 -1.68106 -4.91972 0
M  V30 13638 C 1238.04 -0.98935 -4.9246 0
M  V30 13639 C 1240.03 -2.75099 -5.74978 0
M  V30 13640 C 1237.72 -2.06247 -5.75244 0
M  V30 13641 C 1238.72 -2.94163 -6.16407 0
M  V30 13642 O 1238.4 -3.99623 -6.97536 0
M  V30 13643 H 1238.14 -0.0143708 -0.675847 0
M  V30 13644 H 1240.69 -0.689358 -1.93486 0
M  V30 13645 H 1238.92 1.17133 -3.68533 0
M  V30 13646 H 1240.61 0.860979 -3.96664 0
M  V30 13647 H 1241.37 -1.54065 -4.59879 0
M  V30 13648 H 1237.25 -0.314435 -4.59926 0
M  V30 13649 H 1240.8 -3.4375 -6.07027 0
M  V30 13650 H 1236.69 -2.20285 -6.06749 0
M  V30 13651 H 1237.46 -3.96899 -7.15831 0
M  V30 13652 N 1240.13 1.55939 -0.228214 0
M  V30 13653 C 1241.35 2.0332 0.409364 0
M  V30 13654 C 1241.78 1.10683 1.52088 0
M  V30 13655 O 1241.13 0.0962484 1.81044 0
M  V30 13656 C 1241.18 3.48877 0.911981 0
M  V30 13657 O 1240.29 3.59378 2.02289 0
M  V30 13658 H 1239.63 0.657625 0.0917909 0
M  V30 13659 H 1242.16 2.01605 -0.348802 0
M  V30 13660 H 1242.17 3.89331 1.22007 0
M  V30 13661 H 1240.84 4.15783 0.0984902 0
M  V30 13662 H 1239.42 3.30815 1.72093 0
M  V30 13663 N 1241.6 -0.0451101 1.57535 0
M  V30 13664 C 1242.83 -0.75132 1.92777 0
M  V30 13665 C 1243.25 -1.69743 0.826599 0
M  V30 13666 O 1242.6 -1.8142 -0.198224 0
M  V30 13667 C 1242.66 -1.52218 3.2789 0
M  V30 13668 O 1242.38 -0.614059 4.33775 0
M  V30 13669 C 1243.88 -2.32699 3.77314 0
M  V30 13670 H 1241.1 -0.21211 0.636593 0
M  V30 13671 H 1243.64 -0.0074174 2.04499 0
M  V30 13672 H 1241.8 -2.2181 3.17614 0
M  V30 13673 H 1242.21 -1.15294 5.11671 0
M  V30 13674 H 1243.68 -2.82205 4.7441 0
M  V30 13675 H 1244.16 -3.13414 3.07682 0
M  V30 13676 H 1244.77 -1.68212 3.90621 0
M  V30 13677 N 1243.08 -1.54377 -0.317073 0
M  V30 13678 C 1244.49 -1.64062 -0.891105 0
M  V30 13679 C 1244.84 -0.538863 -1.88655 0
M  V30 13680 O 1243.97 0.32718 -2.13912 0
M  V30 13681 C 1244.56 -2.97395 -1.62302 0
M  V30 13682 C 1243.12 -3.09253 -2.14568 0
M  V30 13683 C 1242.27 -2.59664 -0.973146 0
M  V30 13684 H 1245.22 -1.58418 -0.0944829 0
M  V30 13685 H 1245.24 -2.87918 -2.48764 0
M  V30 13686 H 1244.75 -3.77562 -0.898268 0
M  V30 13687 H 1242.86 -2.33774 -2.90139 0
M  V30 13688 H 1242.97 -4.15159 -2.39123 0
M  V30 13689 H 1241.33 -2.15719 -1.35416 0
M  V30 13690 H 1242.12 -3.42294 -0.262611 0
M  V30 13691 N 1244.56 0.579466 -1.4656 0
M  V30 13692 C 1245.49 1.7031 -1.51887 0
M  V30 13693 C 1246.47 1.58271 -0.372721 0
M  V30 13694 O 1247.66 1.79441 -0.577336 0
M  V30 13695 C 1244.78 3.0839 -1.40048 0
M  V30 13696 C 1243.83 3.3894 -2.58886 0
M  V30 13697 S 1244.66 3.30652 -4.21224 0
M  V30 13698 C 1245.82 4.71264 -4.119 0
M  V30 13699 H 1246.05 1.65533 -2.46954 0
M  V30 13700 H 1243.58 0.758477 -1.34486 0
M  V30 13701 H 1245.54 3.88046 -1.33905 0
M  V30 13702 H 1244.2 3.10653 -0.464048 0
M  V30 13703 H 1243.4 4.39547 -2.46605 0
M  V30 13704 H 1243 2.66858 -2.62036 0
M  V30 13705 H 1245.29 5.61722 -3.7878 0
M  V30 13706 H 1246.23 4.88602 -5.12517 0
M  V30 13707 H 1246.64 4.48266 -3.43101 0
M  V30 13708 N 1246.04 1.3432 0.824371 0
M  V30 13709 C 1246.95 1.27847 1.96704 0
M  V30 13710 C 1247.96 0.18641 1.72999 0
M  V30 13711 O 1249.14 0.412623 1.97128 0
M  V30 13712 C 1246.21 1.03231 3.30975 0
M  V30 13713 C 1245.27 2.21579 3.67697 0
M  V30 13714 C 1244.5 1.98128 4.95561 0
M  V30 13715 O 1244.72 0.938798 5.62621 0
M  V30 13716 O 1243.66 2.85041 5.30128 0
M  V30 13717 H 1247.48 2.23974 2.05108 0
M  V30 13718 H 1245.07 1.14512 0.959554 0
M  V30 13719 H 1246.95 0.912784 4.11395 0
M  V30 13720 H 1245.62 0.101425 3.23541 0
M  V30 13721 H 1244.53 2.3909 2.87727 0
M  V30 13722 H 1245.86 3.13052 3.79815 0
M  V30 13723 N 1247.52 -1.0444 1.18026 0
M  V30 13724 C 1248.76 -1.77838 0.974756 0
M  V30 13725 C 1249.1 -1.87792 -0.494755 0
M  V30 13726 O 1248.37 -1.38327 -1.36733 0
M  V30 13727 C 1248.65 -3.21315 1.62569 0
M  V30 13728 C 1248.51 -3.19327 3.16781 0
M  V30 13729 C 1249.83 -4.19337 1.33583 0
M  V30 13730 H 1246.94 -0.645575 0.35553 0
M  V30 13731 H 1249.59 -1.22023 1.45638 0
M  V30 13732 H 1247.74 -3.68974 1.21617 0
M  V30 13733 H 1249.41 -2.79687 3.66842 0
M  V30 13734 H 1247.65 -2.57461 3.49137 0
M  V30 13735 H 1248.32 -4.20626 3.5746 0
M  V30 13736 H 1250.8 -3.80208 1.69059 0
M  V30 13737 H 1249.67 -5.17953 1.81702 0
M  V30 13738 H 1249.94 -4.41346 0.258016 0
M  V30 13739 N 1248.99 -0.981699 -1.2329 0
M  V30 13740 C 1250.24 -0.652266 -1.92024 0
M  V30 13741 C 1250.57 0.812297 -1.76396 0
M  V30 13742 O 1249.85 1.5861 -1.12575 0
M  V30 13743 C 1250.13 -1.04506 -3.44602 0
M  V30 13744 C 1249.98 -2.56735 -3.69333 0
M  V30 13745 C 1251.3 -0.589937 -4.36128 0
M  V30 13746 H 1248.42 -0.238437 -0.697364 0
M  V30 13747 H 1251.06 -1.22322 -1.45387 0
M  V30 13748 H 1249.21 -0.559242 -3.84454 0
M  V30 13749 H 1250.89 -3.12901 -3.38955 0
M  V30 13750 H 1249.13 -2.9931 -3.14 0
M  V30 13751 H 1249.8 -2.79269 -4.76144 0
M  V30 13752 H 1252.28 -1.00706 -4.0373 0
M  V30 13753 H 1251.15 -0.893192 -5.41584 0
M  V30 13754 H 1251.41 0.509707 -4.39152 0
M  V30 13755 N 1250.47 1.3842 -0.753509 0
M  V30 13756 C 1251.75 1.94181 -0.235142 0
M  V30 13757 C 1252.13 1.68881 1.26659 0
M  V30 13758 O 1251.48 1.02731 2.04104 0
M  V30 13759 C 1251.69 3.43998 -0.588751 0
M  V30 13760 C 1253.04 4.21044 -0.548352 0
M  V30 13761 O 1254.06 3.52279 -0.52704 0
M  V30 13762 O 1252.92 5.43631 -0.559221 0
M  V30 13763 H 1250.01 0.825536 -0.0491834 0
M  V30 13764 H 1252.56 1.47813 -0.833626 0
M  V30 13765 H 1251.33 3.55921 -1.6259 0
M  V30 13766 H 1250.95 3.97582 0.0377429 0
M  V30 13767 N 1251.95 0.502579 1.49372 0
M  V30 13768 C 1252.88 -0.321683 2.25921 0
M  V30 13769 C 1253.86 -0.968999 1.30572 0
M  V30 13770 O 1255.05 -0.998788 1.59864 0
M  V30 13771 C 1252.17 -1.45318 3.05942 0
M  V30 13772 C 1251.22 -0.920076 4.16457 0
M  V30 13773 S 1252.05 0.190402 5.35161 0
M  V30 13774 C 1253.21 -0.944222 6.18737 0
M  V30 13775 H 1253.44 0.328036 2.95485 0
M  V30 13776 H 1250.97 0.287903 1.51692 0
M  V30 13777 H 1252.93 -2.1015 3.52629 0
M  V30 13778 H 1251.59 -2.07452 2.35844 0
M  V30 13779 H 1250.79 -1.76808 4.71969 0
M  V30 13780 H 1250.39 -0.348944 3.72369 0
M  V30 13781 H 1252.68 -1.8491 6.51778 0
M  V30 13782 H 1253.62 -0.42769 7.06807 0
M  V30 13783 H 1254.03 -1.21227 5.5133 0
M  V30 13784 N 1253.43 -1.55816 0.23648 0
M  V30 13785 C 1254.36 -2.23924 -0.661834 0
M  V30 13786 C 1255.34 -1.21597 -1.18946 0
M  V30 13787 O 1256.52 -1.50222 -1.23073 0
M  V30 13788 C 1253.65 -2.93069 -1.86355 0
M  V30 13789 C 1252.61 -4.01996 -1.46913 0
M  V30 13790 C 1251.93 -4.58512 -2.75083 0
M  V30 13791 C 1253.23 -5.18265 -0.647964 0
M  V30 13792 H 1254.93 -2.99253 -0.0939368 0
M  V30 13793 H 1252.47 -1.43934 -0.0437407 0
M  V30 13794 H 1254.43 -3.39412 -2.49755 0
M  V30 13795 H 1253.15 -2.15212 -2.45665 0
M  V30 13796 H 1251.81 -3.56406 -0.858522 0
M  V30 13797 H 1251.46 -3.77368 -3.3257 0
M  V30 13798 H 1251.16 -5.32037 -2.49421 0
M  V30 13799 H 1252.68 -5.07583 -3.39399 0
M  V30 13800 H 1254.1 -5.60898 -1.18602 0
M  V30 13801 H 1252.49 -5.98114 -0.487823 0
M  V30 13802 H 1253.56 -4.83691 0.342151 0
M  V30 13803 N 1254.91 0.036755 -1.57557 0
M  V30 13804 C 1255.85 1.05823 -2.07133 0
M  V30 13805 C 1256.85 1.37923 -0.983546 0
M  V30 13806 O 1258.05 1.36918 -1.16848 0
M  V30 13807 H 1254.43 0.358761 -0.660905 0
M  V30 13808 H 1256.4 0.614232 -2.9201 0
M  V30 13809 C 1255.15 2.35302 -2.55985 0
M  V30 13810 H 1254.47 2.11461 -3.393 0
M  V30 13811 H 1255.91 3.05139 -2.94391 0
M  V30 13812 C 1254.37 3.0373 -1.45773 0
M  V30 13813 O 1254.9 3.9325 -0.819587 0
M  V30 13814 N 1253.11 2.64931 -1.19416 0
M  V30 13815 H 1252.65 1.92219 -1.71492 0
M  V30 13816 H 1252.61 3.11033 -0.458865 0
M  V30 13817 N 1256.39 1.54543 0.308881 0
M  V30 13818 C 1257.66 1.64118 1.06418 0
M  V30 13819 C 1258.04 0.484402 2.05467 0
M  V30 13820 O 1257.39 -0.519752 2.2251 0
M  V30 13821 C 1257.6 3.01776 1.75306 0
M  V30 13822 C 1258.95 3.58324 2.27792 0
M  V30 13823 O 1259.97 3.04177 1.85351 0
M  V30 13824 O 1258.83 4.53113 3.05533 0
M  V30 13825 H 1255.93 0.665172 0.491401 0
M  V30 13826 H 1258.47 1.66889 0.307598 0
M  V30 13827 H 1257.24 3.77407 1.03341 0
M  V30 13828 H 1256.87 3.02748 2.57739 0
M  V30 13829 N 1257.86 -0.571685 1.46866 0
M  V30 13830 C 1259.11 -1.32574 1.5201 0
M  V30 13831 C 1259.43 -1.94762 0.180838 0
M  V30 13832 O 1260.63 -2.71276 0.110158 0
M  V30 13833 C 1259.09 -2.40331 2.67897 0
M  V30 13834 C 1258.7 -1.84398 4.08291 0
M  V30 13835 C 1260.44 -3.17009 2.82321 0
M  V30 13836 C 1258.35 -2.89849 5.15501 0
M  V30 13837 H 1257.28 -0.498428 0.565761 0
M  V30 13838 H 1259.93 -0.608853 1.73105 0
M  V30 13839 H 1258.31 -3.14869 2.40153 0
M  V30 13840 H 1259.48 -1.16329 4.45875 0
M  V30 13841 H 1257.8 -1.20351 3.98628 0
M  V30 13842 H 1260.4 -3.95729 3.59587 0
M  V30 13843 H 1260.74 -3.70292 1.90236 0
M  V30 13844 H 1261.27 -2.4958 3.09765 0
M  V30 13845 H 1258.01 -2.4144 6.09415 0
M  V30 13846 H 1257.53 -3.56372 4.82451 0
M  V30 13847 H 1259.21 -3.53603 5.41825 0
M  V30 13848 N 1259.34 -1.34755 -0.817236 0
M  V30 13849 C 1260.57 -1.30333 -1.60303 0
M  V30 13850 C 1260.98 0.12357 -1.88796 0
M  V30 13851 O 1260.32 1.08279 -1.48396 0
M  V30 13852 C 1260.38 -2.03179 -2.96578 0
M  V30 13853 C 1260.05 -3.52414 -2.90952 0
M  V30 13854 C 1261.05 -4.47213 -2.65136 0
M  V30 13855 C 1258.73 -3.9491 -3.10405 0
M  V30 13856 C 1260.72 -5.82481 -2.58832 0
M  V30 13857 C 1258.41 -5.30277 -3.03726 0
M  V30 13858 C 1259.41 -6.23875 -2.77973 0
M  V30 13859 O 1259.1 -7.5676 -2.71237 0
M  V30 13860 H 1258.83 -0.449615 -0.5048 0
M  V30 13861 H 1261.38 -1.7803 -1.02443 0
M  V30 13862 H 1259.61 -1.50104 -3.56379 0
M  V30 13863 H 1261.3 -1.91972 -3.57633 0
M  V30 13864 H 1262.07 -4.157 -2.49836 0
M  V30 13865 H 1257.95 -3.22451 -3.29464 0
M  V30 13866 H 1261.49 -6.55508 -2.38652 0
M  V30 13867 H 1257.39 -5.61406 -3.1858 0
M  V30 13868 H 1258.16 -7.66562 -2.86923 0
M  V30 13869 N 1260.82 1.03812 -1.18578 0
M  V30 13870 C 1261.77 2.11883 -0.915115 0
M  V30 13871 C 1262.74 1.65453 0.146479 0
M  V30 13872 O 1263.92 1.90799 0.00630058 0
M  V30 13873 C 1261.06 3.42157 -0.449755 0
M  V30 13874 C 1260.17 4.02185 -1.57706 0
M  V30 13875 C 1259.31 5.20431 -1.06417 0
M  V30 13876 C 1258.35 5.72496 -2.16599 0
M  V30 13877 N 1257.49 6.82027 -1.66685 0
M  V30 13878 H 1262.33 2.34373 -1.84047 0
M  V30 13879 H 1259.86 1.14962 -0.917728 0
M  V30 13880 H 1261.82 4.16888 -0.161407 0
M  V30 13881 H 1260.45 3.19806 0.438622 0
M  V30 13882 H 1259.5 3.24757 -1.98083 0
M  V30 13883 H 1260.81 4.36851 -2.40754 0
M  V30 13884 H 1259.97 6.02286 -0.730497 0
M  V30 13885 H 1258.71 4.87276 -0.203301 0
M  V30 13886 H 1257.71 4.8926 -2.50808 0
M  V30 13887 H 1258.94 6.07694 -3.03126 0
M  V30 13888 H 1256.88 6.50742 -0.828916 0
M  V30 13889 H 1256.8 7.1577 -2.43329 0
M  V30 13890 H 1258.07 7.67499 -1.36253 0
M  V30 13891 N 1262.3 0.988223 1.22768 0
M  V30 13892 C 1263.52 0.679426 1.95955 0
M  V30 13893 C 1263.95 -0.748483 1.72567 0
M  V30 13894 O 1263.31 -1.51097 1.00197 0
M  V30 13895 C 1263.35 0.985284 3.46878 0
M  V30 13896 O 1262.46 0.0814607 4.1232 0
M  V30 13897 H 1261.8 0.254749 0.613188 0
M  V30 13898 H 1264.33 1.32393 1.55991 0
M  V30 13899 H 1264.34 0.925198 3.97371 0
M  V30 13900 H 1263.01 2.02581 3.63227 0
M  V30 13901 H 1261.59 0.196629 3.72381 0
M  V30 13902 N 1263.78 -1.38018 0.760839 0
M  V30 13903 C 1265.02 -1.99952 0.320241 0
M  V30 13904 C 1265.35 -1.60397 -1.10014 0
M  V30 13905 O 1264.61 -0.836407 -1.76926 0
M  V30 13906 C 1264.9 -3.55168 0.398778 0
M  V30 13907 C 1264.57 -4.14457 1.77585 0
M  V30 13908 C 1263.23 -4.30363 2.15269 0
M  V30 13909 C 1265.58 -4.47089 2.67883 0
M  V30 13910 C 1262.91 -4.762 3.4271 0
M  V30 13911 C 1265.26 -4.94345 3.94722 0
M  V30 13912 C 1263.93 -5.08458 4.32466 0
M  V30 13913 H 1263.2 -0.731675 0.117185 0
M  V30 13914 H 1265.85 -1.64955 0.972736 0
M  V30 13915 H 1264.15 -3.90346 -0.337273 0
M  V30 13916 H 1265.85 -4.00981 0.0393393 0
M  V30 13917 H 1262.44 -4.02496 1.47292 0
M  V30 13918 H 1266.62 -4.34395 2.40031 0
M  V30 13919 H 1261.88 -4.85312 3.71863 0
M  V30 13920 H 1266.05 -5.18563 4.64828 0
M  V30 13921 H 1263.68 -5.43735 5.31278 0
M  V30 13922 N 1265.25 -0.510493 -1.49103 0
M  V30 13923 C 1266.53 0.0941122 -1.95373 0
M  V30 13924 C 1266.91 1.53207 -1.45227 0
M  V30 13925 O 1266.26 2.18452 -0.670161 0
M  V30 13926 C 1266.47 -0.00302507 -3.49 0
M  V30 13927 C 1267.82 0.166117 -4.24275 0
M  V30 13928 O 1268.84 0.0717097 -3.56128 0
M  V30 13929 O 1267.7 0.361155 -5.45305 0
M  V30 13930 H 1264.79 0.0900741 -0.82208 0
M  V30 13931 H 1267.34 -0.573707 -1.59708 0
M  V30 13932 H 1266.11 -1.00545 -3.78162 0
M  V30 13933 H 1265.73 0.704518 -3.91308 0
M  V30 13934 N 1266.73 1.55688 -0.24474 0
M  V30 13935 C 1267.68 2.17946 0.669596 0
M  V30 13936 C 1268.67 1.13468 1.14078 0
M  V30 13937 O 1269.86 1.39385 1.09091 0
M  V30 13938 C 1266.99 2.8808 1.86721 0
M  V30 13939 C 1266.07 3.99811 1.41463 0
M  V30 13940 N 1266.46 5.01261 0.676131 0
M  V30 13941 C 1264.76 4.12327 1.70008 0
M  V30 13942 C 1265.46 5.80017 0.442113 0
M  V30 13943 N 1264.44 5.34216 1.00569 0
M  V30 13944 H 1268.24 2.93739 0.0971953 0
M  V30 13945 H 1265.75 1.62332 -0.0469646 0
M  V30 13946 H 1267.75 3.31109 2.53322 0
M  V30 13947 H 1266.41 2.13789 2.44385 0
M  V30 13948 H 1267.42 5.1687 0.326459 0
M  V30 13949 H 1264.1 3.49206 2.28827 0
M  V30 13950 H 1265.49 6.71739 -0.14729 0
M  V30 13951 N 1268.21 -0.0283989 1.57574 0
M  V30 13952 C 1269.46 -0.718121 1.88483 0
M  V30 13953 C 1269.77 -1.76485 0.843345 0
M  V30 13954 O 1270.98 -2.50721 1.04169 0
M  V30 13955 C 1269.43 -1.32832 3.3449 0
M  V30 13956 C 1269.04 -0.317905 4.46871 0
M  V30 13957 C 1270.79 -1.99788 3.74546 0
M  V30 13958 C 1268.69 -0.936489 5.83938 0
M  V30 13959 H 1267.62 -0.271969 0.703242 0
M  V30 13960 H 1270.27 0.0274862 1.83479 0
M  V30 13961 H 1268.66 -2.12366 3.34241 0
M  V30 13962 H 1269.83 0.450767 4.5859 0
M  V30 13963 H 1268.14 0.249605 4.15651 0
M  V30 13964 H 1270.74 -2.46923 4.74271 0
M  V30 13965 H 1271.08 -2.81633 3.06575 0
M  V30 13966 H 1271.62 -1.27029 3.76973 0
M  V30 13967 H 1268.36 -0.15744 6.55311 0
M  V30 13968 H 1267.88 -1.67499 5.75938 0
M  V30 13969 H 1269.56 -1.44363 6.30689 0
M  V30 13970 N 1269.69 -1.54705 -0.300681 0
M  V30 13971 C 1270.93 -1.74259 -1.03738 0
M  V30 13972 C 1271.27 -0.52703 -1.86912 0
M  V30 13973 O 1270.54 0.475862 -1.88589 0
M  V30 13974 C 1270.82 -3.03175 -1.94311 0
M  V30 13975 C 1270.68 -4.35031 -1.14315 0
M  V30 13976 C 1272 -3.27962 -2.93478 0
M  V30 13977 H 1269.12 -0.634031 -0.37573 0
M  V30 13978 H 1271.76 -1.87421 -0.312012 0
M  V30 13979 H 1269.91 -2.92086 -2.5616 0
M  V30 13980 H 1271.58 -4.5804 -0.547489 0
M  V30 13981 H 1269.82 -4.31503 -0.44587 0
M  V30 13982 H 1270.49 -5.21502 -1.80941 0
M  V30 13983 H 1272.97 -3.38663 -2.41757 0
M  V30 13984 H 1271.85 -4.19481 -3.54016 0
M  V30 13985 H 1272.11 -2.46273 -3.67154 0
M  V30 13986 N 1271.17 0.563888 -1.47167 0
M  V30 13987 C 1272.44 1.32454 -1.43928 0
M  V30 13988 C 1272.82 2.10683 -0.13267 0
M  V30 13989 O 1272.17 2.1063 0.885845 0
M  V30 13990 C 1272.38 2.2347 -2.68071 0
M  V30 13991 C 1273.73 2.84702 -3.15008 0
M  V30 13992 O 1274.75 2.33775 -2.68752 0
M  V30 13993 O 1273.61 3.77251 -3.95404 0
M  V30 13994 H 1270.71 0.596074 -0.573258 0
M  V30 13995 H 1273.25 0.583345 -1.59359 0
M  V30 13996 H 1272.02 1.6522 -3.54708 0
M  V30 13997 H 1271.65 3.04897 -2.55193 0
M  V30 13998 N 1272.64 1.35187 0.810078 0
M  V30 13999 C 1273.59 1.24366 1.91094 0
M  V30 14000 C 1274.58 0.139718 1.60292 0
M  V30 14001 O 1275.77 0.370609 1.73077 0
M  V30 14002 C 1272.9 1.01434 3.27973 0
M  V30 14003 C 1271.99 2.16203 3.64852 0
M  V30 14004 N 1272.38 3.41408 3.73195 0
M  V30 14005 C 1270.67 2.07512 3.94784 0
M  V30 14006 C 1271.38 4.16858 4.05714 0
M  V30 14007 N 1270.35 3.45579 4.19614 0
M  V30 14008 H 1274.15 2.19232 1.95741 0
M  V30 14009 H 1271.67 1.2761 1.00447 0
M  V30 14010 H 1273.66 0.91771 4.06674 0
M  V30 14011 H 1272.32 0.074495 3.24615 0
M  V30 14012 H 1273.34 3.75802 3.56361 0
M  V30 14013 H 1270.01 1.21362 3.99472 0
M  V30 14014 H 1271.4 5.25039 4.19266 0
M  V30 14015 N 1274.12 -1.03182 1.19127 0
M  V30 14016 C 1275.07 -2.09735 0.894172 0
M  V30 14017 C 1276.06 -1.60291 -0.139805 0
M  V30 14018 O 1277.25 -1.76879 0.065477 0
M  V30 14019 C 1274.38 -3.40578 0.431418 0
M  V30 14020 C 1273.46 -3.96764 1.49797 0
M  V30 14021 N 1273.85 -4.2665 2.71668 0
M  V30 14022 C 1272.15 -4.24741 1.36057 0
M  V30 14023 C 1272.85 -4.71737 3.40352 0
M  V30 14024 N 1271.83 -4.73091 2.67742 0
M  V30 14025 H 1275.63 -2.3073 1.82047 0
M  V30 14026 H 1273.15 -1.21016 1.083 0
M  V30 14027 H 1275.14 -4.1642 0.20004 0
M  V30 14028 H 1273.8 -3.21005 -0.488432 0
M  V30 14029 H 1274.81 -4.16023 3.08457 0
M  V30 14030 H 1271.49 -4.14447 0.503948 0
M  V30 14031 H 1272.88 -5.03806 4.44555 0
M  V30 14032 N 1275.6 -0.99472 -1.22242 0
M  V30 14033 C 1276.88 -0.587481 -1.86569 0
M  V30 14034 C 1277.26 0.935174 -1.89256 0
M  V30 14035 O 1276.61 1.81787 -1.3844 0
M  V30 14036 C 1276.82 -1.21001 -3.27353 0
M  V30 14037 C 1278.16 -1.31167 -4.03832 0
M  V30 14038 O 1279.19 -1.16454 -3.36626 0
M  V30 14039 O 1278.05 -1.54731 -5.24138 0
M  V30 14040 H 1275.14 -0.199838 -0.802492 0
M  V30 14041 H 1277.69 -1.09071 -1.30006 0
M  V30 14042 H 1276.46 -2.25143 -3.20041 0
M  V30 14043 H 1276.08 -0.692479 -3.91523 0
M  V30 14044 N 1277.08 1.37613 -0.768148 0
M  V30 14045 C 1278.32 2.00075 -0.331331 0
M  V30 14046 C 1278.66 1.60839 1.08833 0
M  V30 14047 O 1277.93 0.852849 1.74805 0
M  V30 14048 C 1278.22 3.57009 -0.470789 0
M  V30 14049 C 1278.07 4.06166 -1.9326 0
M  V30 14050 C 1279.39 4.39916 0.127111 0
M  V30 14051 H 1276.51 0.726855 -0.121864 0
M  V30 14052 H 1279.15 1.63343 -0.970518 0
M  V30 14053 H 1277.3 3.88431 0.0733688 0
M  V30 14054 H 1278.97 3.85325 -2.53618 0
M  V30 14055 H 1277.21 3.58492 -2.44266 0
M  V30 14056 H 1277.88 5.15219 -1.98125 0
M  V30 14057 H 1280.36 4.14732 -0.337144 0
M  V30 14058 H 1279.24 5.489 -0.000624226 0
M  V30 14059 H 1279.5 4.25018 1.21704 0
M  V30 14060 N 1278.56 0.518393 1.4883 0
M  V30 14061 C 1279.79 -0.0161765 2.06594 0
M  V30 14062 C 1280.19 -1.29771 1.37681 0
M  V30 14063 O 1279.54 -1.77991 0.454421 0
M  V30 14064 C 1279.6 -0.322505 3.5805 0
M  V30 14065 C 1279.26 0.863848 4.48761 0
M  V30 14066 C 1280.26 1.75912 4.89235 0
M  V30 14067 C 1277.95 1.06757 4.90824 0
M  V30 14068 C 1279.94 2.84211 5.70528 0
M  V30 14069 C 1277.63 2.15372 5.7189 0
M  V30 14070 C 1278.62 3.03932 6.11649 0
M  V30 14071 O 1278.31 4.1067 6.9109 0
M  V30 14072 H 1278.04 0.0251212 0.675533 0
M  V30 14073 H 1280.6 0.720052 1.92365 0
M  V30 14074 H 1278.83 -1.11256 3.7035 0
M  V30 14075 H 1280.52 -0.797764 3.97983 0
M  V30 14076 H 1281.28 1.61362 4.5737 0
M  V30 14077 H 1277.16 0.387566 4.59368 0
M  V30 14078 H 1280.71 3.53364 6.01481 0
M  V30 14079 H 1276.6 2.2991 6.03168 0
M  V30 14080 H 1277.37 4.08237 7.09426 0
M  V30 14081 N 1280.03 -1.55556 0.252993 0
M  V30 14082 C 1280.98 -2.21634 -0.643979 0
M  V30 14083 C 1281.95 -1.18226 -1.1667 0
M  V30 14084 O 1283.14 -1.46694 -1.22006 0
M  V30 14085 C 1280.28 -2.92429 -1.83246 0
M  V30 14086 C 1279.39 -4.10506 -1.34569 0
M  V30 14087 C 1278.52 -4.69001 -2.49421 0
M  V30 14088 C 1277.56 -5.79315 -1.97636 0
M  V30 14089 N 1276.7 -6.31967 -3.05878 0
M  V30 14090 H 1281.54 -2.97909 -0.0738178 0
M  V30 14091 H 1279.08 -1.47079 -0.0246728 0
M  V30 14092 H 1281.04 -3.31678 -2.53072 0
M  V30 14093 H 1279.67 -2.18617 -2.375 0
M  V30 14094 H 1278.72 -3.76529 -0.541268 0
M  V30 14095 H 1280.03 -4.90125 -0.92622 0
M  V30 14096 H 1279.18 -5.10855 -3.27279 0
M  V30 14097 H 1277.92 -3.88612 -2.94673 0
M  V30 14098 H 1276.93 -5.36933 -1.18251 0
M  V30 14099 H 1278.15 -6.6156 -1.53347 0
M  V30 14100 H 1276.1 -5.5448 -3.50553 0
M  V30 14101 H 1276.02 -7.06797 -2.68281 0
M  V30 14102 H 1277.28 -6.7848 -3.83777 0
M  V30 14103 N 1281.51 0.0200419 -1.57587 0
M  V30 14104 C 1282.76 0.710078 -1.89962 0
M  V30 14105 C 1283.09 1.74521 -0.851829 0
M  V30 14106 O 1282.37 1.94052 0.132005 0
M  V30 14107 C 1282.65 1.37145 -3.32961 0
M  V30 14108 C 1282.5 0.349221 -4.48442 0
M  V30 14109 C 1283.82 2.30304 -3.75031 0
M  V30 14110 H 1280.94 0.25667 -0.690862 0
M  V30 14111 H 1283.58 -0.0271362 -1.89981 0
M  V30 14112 H 1281.73 1.99981 -3.33076 0
M  V30 14113 H 1283.4 -0.277916 -4.60462 0
M  V30 14114 H 1281.65 -0.330594 -4.32538 0
M  V30 14115 H 1282.32 0.850636 -5.45406 0
M  V30 14116 H 1284.79 1.77503 -3.7634 0
M  V30 14117 H 1283.67 2.73555 -4.75877 0
M  V30 14118 H 1283.93 3.17364 -3.07786 0
M  V30 14119 N 1282.99 1.54862 0.292472 0
M  V30 14120 C 1283.9 1.89472 1.38339 0
M  V30 14121 C 1284.92 0.789783 1.55043 0
M  V30 14122 O 1286.09 1.08705 1.69544 0
M  V30 14123 C 1283.16 2.14244 2.72581 0
M  V30 14124 C 1282.22 3.37913 2.64789 0
M  V30 14125 C 1281.45 3.61494 3.92629 0
M  V30 14126 O 1281.67 2.87931 4.92394 0
M  V30 14127 O 1280.61 4.55019 3.94007 0
M  V30 14128 H 1284.43 2.82298 1.11989 0
M  V30 14129 H 1282.02 1.41161 0.489291 0
M  V30 14130 H 1283.9 2.31689 3.51991 0
M  V30 14131 H 1282.58 1.24603 2.98757 0
M  V30 14132 H 1281.48 3.25823 1.83821 0
M  V30 14133 H 1282.82 4.27711 2.43565 0
M  V30 14134 N 1284.47 -0.556076 1.47464 0
M  V30 14135 C 1285.7 -1.33858 1.57764 0
M  V30 14136 C 1286.11 -1.87415 0.22825 0
M  V30 14137 O 1285.47 -1.65054 -0.778674 0
M  V30 14138 C 1285.52 -2.5077 2.60378 0
M  V30 14139 O 1285.24 -1.99426 3.90078 0
M  V30 14140 C 1286.74 -3.42965 2.80873 0
M  V30 14141 H 1283.96 -0.408003 0.532705 0
M  V30 14142 H 1286.51 -0.673501 1.93091 0
M  V30 14143 H 1284.66 -3.13214 2.27982 0
M  V30 14144 H 1285.07 -2.75759 4.46158 0
M  V30 14145 H 1286.55 -4.21412 3.56533 0
M  V30 14146 H 1287.03 -3.96579 1.88737 0
M  V30 14147 H 1287.63 -2.86336 3.14471 0
M  V30 14148 N 1285.95 -1.35615 -0.802897 0
M  V30 14149 C 1287.2 -1.28428 -1.55528 0
M  V30 14150 C 1287.51 0.138275 -1.95111 0
M  V30 14151 O 1288.72 0.332435 -2.69457 0
M  V30 14152 C 1287.17 -2.25251 -2.80696 0
M  V30 14153 C 1286.78 -3.72871 -2.48336 0
M  V30 14154 C 1288.52 -2.27014 -3.58699 0
M  V30 14155 C 1286.43 -4.61507 -3.69817 0
M  V30 14156 H 1285.36 -0.47718 -0.583794 0
M  V30 14157 H 1288.01 -1.609 -0.882238 0
M  V30 14158 H 1286.39 -1.85755 -3.4973 0
M  V30 14159 H 1287.57 -4.21024 -1.87285 0
M  V30 14160 H 1285.88 -3.73752 -1.83571 0
M  V30 14161 H 1288.48 -2.90451 -4.48935 0
M  V30 14162 H 1288.82 -1.27491 -3.96298 0
M  V30 14163 H 1289.36 -2.65058 -2.9663 0
M  V30 14164 H 1286.09 -5.62043 -3.37324 0
M  V30 14165 H 1285.61 -4.18079 -4.30081 0
M  V30 14166 H 1287.29 -4.77113 -4.37004 0
M  V30 14167 N 1287.43 1.02549 -1.19673 0
M  V30 14168 C 1288.67 1.75656 -0.999463 0
M  V30 14169 C 1288.99 1.89238 0.470517 0
M  V30 14170 O 1288.26 1.42843 1.34062 0
M  V30 14171 H 1286.84 0.650732 -0.366821 0
M  V30 14172 H 1289.51 1.23684 -1.50627 0
M  V30 14173 H 1288.6 2.76353 -1.45035 0
M  V30 14174 N 1288.9 1.00119 1.21713 0
M  V30 14175 C 1290.18 0.597366 1.86255 0
M  V30 14176 C 1290.56 -0.925124 1.89749 0
M  V30 14177 O 1289.91 -1.8105 1.39402 0
M  V30 14178 C 1290.12 1.22735 3.26707 0
M  V30 14179 C 1291.47 1.33307 4.03131 0
M  V30 14180 O 1292.49 1.18237 3.36003 0
M  V30 14181 O 1291.35 1.57509 5.2331 0
M  V30 14182 H 1288.44 0.204091 0.801421 0
M  V30 14183 H 1290.99 1.09759 1.29426 0
M  V30 14184 H 1289.76 2.26837 3.18843 0
M  V30 14185 H 1289.38 0.713232 3.91151 0
M  V30 14186 N 1290.38 -1.37203 0.775435 0
M  V30 14187 C 1291.34 -2.28566 0.170406 0
M  V30 14188 C 1292.34 -1.48195 -0.624085 0
M  V30 14189 O 1293.53 -1.68364 -0.447132 0
M  V30 14190 C 1290.67 -3.32186 -0.765829 0
M  V30 14191 H 1291.86 -2.8358 0.975824 0
M  V30 14192 H 1289.41 -1.46531 0.543895 0
M  V30 14193 H 1290.15 -2.82303 -1.59611 0
M  V30 14194 H 1289.93 -3.91598 -0.198251 0
M  V30 14195 H 1291.42 -4.0045 -1.18446 0
M  V30 14196 N 1291.86 -0.526279 -1.48553 0
M  V30 14197 C 1293.09 0.00522012 -2.06599 0
M  V30 14198 C 1293.5 1.29039 -1.38368 0
M  V30 14199 O 1292.84 1.77747 -0.463854 0
M  V30 14200 C 1292.9 0.303512 -3.58216 0
M  V30 14201 C 1292.57 -0.887635 -4.48297 0
M  V30 14202 C 1293.56 -1.78504 -4.88295 0
M  V30 14203 C 1291.25 -1.09359 -4.90251 0
M  V30 14204 C 1293.24 -2.87233 -5.69013 0
M  V30 14205 C 1290.93 -2.18402 -5.7074 0
M  V30 14206 C 1291.93 -3.07172 -6.10028 0
M  V30 14207 O 1291.62 -4.14329 -6.88902 0
M  V30 14208 H 1291.35 -0.0287033 -0.67539 0
M  V30 14209 H 1293.9 -0.730244 -1.91981 0
M  V30 14210 H 1292.13 1.0929 -3.70935 0
M  V30 14211 H 1293.82 0.776647 -3.98401 0
M  V30 14212 H 1294.59 -1.63785 -4.56508 0
M  V30 14213 H 1290.47 -0.411922 -4.59156 0
M  V30 14214 H 1294.01 -3.56549 -5.99599 0
M  V30 14215 H 1289.91 -2.33106 -6.0194 0
M  V30 14216 H 1290.67 -4.11993 -7.07251 0
M  V30 14217 N 1293.34 1.5542 -0.261239 0
M  V30 14218 C 1294.27 2.18043 0.673222 0
M  V30 14219 C 1295.25 1.13696 1.16242 0
M  V30 14220 O 1296.43 1.42153 1.23793 0
M  V30 14221 C 1293.56 2.7926 1.91655 0
M  V30 14222 C 1292.61 3.96788 1.56402 0
M  V30 14223 S 1293.44 5.31489 0.654191 0
M  V30 14224 C 1294.59 5.96167 1.9062 0
M  V30 14225 H 1294.83 2.96965 0.141076 0
M  V30 14226 H 1292.36 1.54333 -0.0455871 0
M  V30 14227 H 1294.32 3.15162 2.63026 0
M  V30 14228 H 1292.98 2.00257 2.41983 0
M  V30 14229 H 1292.17 4.38262 2.48882 0
M  V30 14230 H 1291.77 3.62237 0.930618 0
M  V30 14231 H 1294.07 6.14556 2.8518 0
M  V30 14232 H 1295.01 6.91269 1.53471 0
M  V30 14233 H 1295.42 5.25381 2.06483 0
M  V30 14234 N 1294.82 -0.0116844 1.57596 0
M  V30 14235 C 1296.06 -0.699994 1.90336 0
M  V30 14236 C 1296.39 -1.74067 0.861072 0
M  V30 14237 O 1295.67 -1.94119 -0.121712 0
M  V30 14238 C 1295.95 -1.35377 3.33684 0
M  V30 14239 C 1295.81 -0.325434 4.48621 0
M  V30 14240 C 1297.12 -2.28312 3.76247 0
M  V30 14241 H 1294.24 -0.253002 0.692213 0
M  V30 14242 H 1296.89 0.037211 1.89964 0
M  V30 14243 H 1295.04 -1.98212 3.34132 0
M  V30 14244 H 1296.71 0.302331 4.60308 0
M  V30 14245 H 1294.95 0.353527 4.32357 0
M  V30 14246 H 1295.62 -0.8217 5.4585 0
M  V30 14247 H 1298.1 -1.75505 3.77276 0
M  V30 14248 H 1296.97 -2.71028 4.77321 0
M  V30 14249 H 1297.23 -3.15727 3.09465 0
M  V30 14250 N 1296.29 -1.55015 -0.284256 0
M  V30 14251 C 1297.26 -1.8636 -1.33426 0
M  V30 14252 C 1298.26 -0.737457 -1.42892 0
M  V30 14253 O 1299.45 -1.00569 -1.42238 0
M  V30 14254 C 1296.58 -2.05884 -2.71707 0
M  V30 14255 H 1297.77 -2.80212 -1.06869 0
M  V30 14256 H 1295.32 -1.47334 -0.521767 0
M  V30 14257 H 1296.06 -1.14376 -3.03461 0
M  V30 14258 H 1295.84 -2.87867 -2.66224 0
M  V30 14259 H 1297.33 -2.31447 -3.47595 0
M  V30 14260 N 1297.77 0.548248 -1.47757 0
M  V30 14261 C 1299 1.335 -1.58722 0
M  V30 14262 C 1299.42 1.86549 -0.241034 0
M  V30 14263 O 1298.78 1.63447 0.784517 0
M  V30 14264 C 1298.83 2.47457 -2.62293 0
M  V30 14265 O 1297.93 3.49956 -2.18185 0
M  V30 14266 H 1297.27 0.396166 -0.532868 0
M  V30 14267 H 1299.8 0.66164 -1.93607 0
M  V30 14268 H 1299.81 2.93901 -2.82995 0
M  V30 14269 H 1298.49 2.08203 -3.60034 0
M  V30 14270 H 1297.06 3.09755 -2.0762 0
M  V30 14271 N 1299.25 1.36039 0.795694 0
M  V30 14272 C 1300.5 1.29663 1.55023 0
M  V30 14273 C 1300.82 -0.125588 1.94595 0
M  V30 14274 O 1300.09 -1.06447 1.64456 0
M  V30 14275 H 1298.67 0.476962 0.574906 0
M  V30 14276 H 1301.33 1.70265 0.948471 0
M  V30 14277 H 1300.43 1.91982 2.46068 0
M  V30 14278 N 1300.73 -1.01913 1.20215 0
M  V30 14279 C 1301.66 -2.12282 0.97256 0
M  V30 14280 C 1302.64 -1.6982 -0.0975709 0
M  V30 14281 O 1303.82 -1.94109 0.0594307 0
M  V30 14282 C 1300.95 -3.43369 0.521085 0
M  V30 14283 C 1299.91 -3.99559 1.53417 0
M  V30 14284 C 1299.23 -5.26383 0.93942 0
M  V30 14285 C 1300.53 -4.33241 2.91718 0
M  V30 14286 H 1302.23 -2.31746 1.89563 0
M  V30 14287 H 1299.77 -1.1137 0.912841 0
M  V30 14288 H 1301.73 -4.19963 0.347713 0
M  V30 14289 H 1300.45 -3.23655 -0.437605 0
M  V30 14290 H 1299.11 -3.25069 1.69486 0
M  V30 14291 H 1298.76 -5.02993 -0.0271236 0
M  V30 14292 H 1298.46 -5.64942 1.616 0
M  V30 14293 H 1299.98 -6.05635 0.777059 0
M  V30 14294 H 1301.4 -5.00734 2.79175 0
M  V30 14295 H 1299.79 -4.82907 3.56259 0
M  V30 14296 H 1300.86 -3.42118 3.43633 0
M  V30 14297 N 1302.21 -1.00763 -1.2118 0
M  V30 14298 C 1303.62 -0.724746 -1.72059 0
M  V30 14299 C 1303.97 0.757413 -1.80991 0
M  V30 14300 O 1303.09 1.59152 -1.46627 0
M  V30 14301 C 1303.69 -1.30893 -3.12494 0
M  V30 14302 C 1302.25 -1.07511 -3.60719 0
M  V30 14303 C 1301.39 -1.42014 -2.38175 0
M  V30 14304 H 1304.35 -1.17821 -1.0632 0
M  V30 14305 H 1304.37 -0.694919 -3.741 0
M  V30 14306 H 1303.88 -2.38767 -3.05961 0
M  V30 14307 H 1301.98 -0.0136518 -3.72597 0
M  V30 14308 H 1302.09 -1.74885 -4.4604 0
M  V30 14309 H 1300.46 -0.838972 -2.40486 0
M  V30 14310 H 1301.24 -2.50924 -2.34291 0
M  V30 14311 N 1303.68 1.3679 -0.7827 0
M  V30 14312 C 1304.63 2.30139 -0.174595 0
M  V30 14313 C 1305.6 1.51645 0.677714 0
M  V30 14314 O 1306.79 1.80176 0.627796 0
M  V30 14315 C 1303.93 3.38133 0.689936 0
M  V30 14316 C 1303.04 4.31624 -0.180179 0
M  V30 14317 C 1302.17 5.26698 0.69009 0
M  V30 14318 C 1301.21 6.1183 -0.181891 0
M  V30 14319 N 1300.35 6.99113 0.646977 0
M  V30 14320 H 1305.19 2.81559 -0.97613 0
M  V30 14321 H 1302.73 1.38595 -0.492944 0
M  V30 14322 H 1304.69 3.99386 1.2061 0
M  V30 14323 H 1303.32 2.88049 1.45696 0
M  V30 14324 H 1302.37 3.71583 -0.81425 0
M  V30 14325 H 1303.68 4.91464 -0.852337 0
M  V30 14326 H 1302.83 5.93209 1.27232 0
M  V30 14327 H 1301.57 4.67297 1.3959 0
M  V30 14328 H 1300.58 5.44288 -0.776572 0
M  V30 14329 H 1301.8 6.73306 -0.885195 0
M  V30 14330 H 1299.75 6.42227 1.3372 0
M  V30 14331 H 1299.67 7.55993 0.0323547 0
M  V30 14332 H 1300.93 7.7 1.21325 0
M  V30 14333 N 1305.16 0.53415 1.48272 0
M  V30 14334 C 1306.58 0.192291 1.58437 0
M  V30 14335 C 1306.78 -1.3046 1.53566 0
M  V30 14336 O 1305.83 -2.08316 1.42692 0
M  V30 14337 C 1307.15 0.798515 2.89904 0
M  V30 14338 C 1308.7 0.76763 3.03441 0
M  V30 14339 C 1309.17 1.3525 4.37574 0
M  V30 14340 N 1310.66 1.31466 4.44152 0
M  V30 14341 C 1311.4 1.73706 5.46456 0
M  V30 14342 N 1310.89 2.23695 6.55692 0
M  V30 14343 N 1312.69 1.64918 5.37363 0
M  V30 14344 H 1304.84 1.50696 1.49681 0
M  V30 14345 H 1307.1 0.627073 0.710973 0
M  V30 14346 H 1306.81 1.8496 2.99136 0
M  V30 14347 H 1306.68 0.278033 3.76174 0
M  V30 14348 H 1309.07 -0.274704 2.93819 0
M  V30 14349 H 1309.15 1.32562 2.18771 0
M  V30 14350 H 1308.79 2.39379 4.47951 0
M  V30 14351 H 1308.72 0.770153 5.20938 0
M  V30 14352 H 1311.21 0.948761 3.65796 0
M  V30 14353 H 1311.53 2.5391 7.29897 0
M  V30 14354 H 1309.87 2.27691 6.56644 0
M  V30 14355 H 1313.06 1.25658 4.50919 0
M  V30 14356 H 1313.23 1.98157 6.16958 0
M  V30 14357 N 1306.64 -1.55279 0.269478 0
M  V30 14358 C 1307.59 -2.23723 -0.636468 0
M  V30 14359 C 1308.58 -1.23234 -1.16232 0
M  V30 14360 O 1309.79 -1.41181 -1.1166 0
M  V30 14361 H 1306.16 -0.71793 -0.223788 0
M  V30 14362 H 1308.13 -2.98378 -0.0363057 0
M  V30 14363 C 1306.88 -2.96755 -1.81195 0
M  V30 14364 H 1306.21 -3.73865 -1.4165 0
M  V30 14365 H 1307.65 -3.47975 -2.42258 0
M  V30 14366 C 1306.11 -2.01905 -2.69696 0
M  V30 14367 O 1306.64 -1.56662 -3.69892 0
M  V30 14368 N 1304.84 -1.68524 -2.36744 0
M  V30 14369 H 1304.39 -2.05512 -1.55314 0
M  V30 14370 H 1304.35 -1.05331 -2.96231 0
M  V30 14371 N 1308.12 0.00332656 -1.576 0
M  V30 14372 C 1309.37 0.687508 -1.90047 0
M  V30 14373 C 1309.69 1.74497 -0.870388 0
M  V30 14374 O 1308.96 1.95681 0.0926544 0
M  V30 14375 H 1307.54 0.256924 -0.701426 0
M  V30 14376 H 1310.2 -0.0368129 -1.94865 0
M  V30 14377 H 1309.3 1.16086 -2.89707 0
M  V30 14378 N 1309.6 1.55164 0.276031 0
M  V30 14379 C 1310.54 1.88623 1.36104 0
M  V30 14380 C 1311.54 0.762265 1.51281 0
M  V30 14381 O 1312.74 0.946573 1.53101 0
M  V30 14382 H 1309.12 0.59863 0.455133 0
M  V30 14383 H 1311.09 2.79266 1.05134 0
M  V30 14384 C 1309.84 2.17207 2.71508 0
M  V30 14385 H 1309.16 3.03179 2.6062 0
M  V30 14386 H 1310.6 2.44541 3.46375 0
M  V30 14387 C 1309.06 0.978671 3.22372 0
M  V30 14388 O 1309.59 0.211766 4.01141 0
M  V30 14389 N 1307.8 0.777199 2.80014 0
M  V30 14390 H 1307.34 1.40252 2.16072 0
M  V30 14391 H 1307.3 -0.0196754 3.14394 0
M  V30 14392 N 1311.07 -0.540404 1.48045 0
M  V30 14393 C 1312.49 -0.867958 1.33935 0
M  V30 14394 C 1312.69 -1.98568 0.342488 0
M  V30 14395 O 1311.75 -2.51357 -0.240022 0
M  V30 14396 C 1313.06 -1.24532 2.73701 0
M  V30 14397 C 1314.61 -1.3558 2.82112 0
M  V30 14398 C 1315.08 -1.76664 4.22556 0
M  V30 14399 N 1316.57 -1.83785 4.25179 0
M  V30 14400 C 1317.31 -2.16938 5.30778 0
M  V30 14401 N 1316.8 -2.48587 6.46666 0
M  V30 14402 N 1318.6 -2.17855 5.18166 0
M  V30 14403 H 1310.75 0.197251 2.11482 0
M  V30 14404 H 1313.01 0.0255947 0.947654 0
M  V30 14405 H 1312.72 -0.497731 3.4816 0
M  V30 14406 H 1312.59 -2.19779 3.06556 0
M  V30 14407 H 1314.98 -2.09417 2.07915 0
M  V30 14408 H 1315.06 -0.384787 2.52889 0
M  V30 14409 H 1314.7 -1.03391 4.97265 0
M  V30 14410 H 1314.63 -2.74797 4.49215 0
M  V30 14411 H 1317.12 -1.61645 3.41583 0
M  V30 14412 H 1317.44 -2.72959 7.22989 0
M  V30 14413 H 1315.78 -2.4613 6.49958 0
M  V30 14414 H 1318.97 -1.9258 4.2665 0
M  V30 14415 H 1319.15 -2.43361 6.00566 0
M  V30 14416 N 1312.55 -1.36459 -0.788468 0
M  V30 14417 C 1313.5 -1.27391 -1.89092 0
M  V30 14418 C 1314.49 -0.165201 -1.6005 0
M  V30 14419 O 1315.68 -0.398097 -1.72465 0
M  V30 14420 C 1312.81 -1.06639 -3.26317 0
M  V30 14421 C 1311.89 -2.21981 -3.61366 0
M  V30 14422 N 1312.28 -3.47302 -3.67716 0
M  V30 14423 C 1310.58 -2.13767 -3.91433 0
M  V30 14424 C 1311.28 -4.2326 -3.99031 0
M  V30 14425 N 1310.26 -3.52211 -4.14063 0
M  V30 14426 H 1314.06 -2.22318 -1.92229 0
M  V30 14427 H 1311.58 -1.29191 -0.98404 0
M  V30 14428 H 1313.57 -0.982292 -4.05162 0
M  V30 14429 H 1312.23 -0.126129 -3.24455 0
M  V30 14430 H 1313.24 -3.81424 -3.50337 0
M  V30 14431 H 1309.92 -1.27702 -3.9749 0
M  V30 14432 H 1311.31 -5.31643 -4.1086 0
M  V30 14433 N 1314.03 1.01274 -1.20754 0
M  V30 14434 C 1314.99 2.08056 -0.961528 0
M  V30 14435 C 1315.99 1.60671 0.0644461 0
M  V30 14436 O 1317.18 1.73349 -0.172022 0
M  V30 14437 C 1314.32 3.37938 -0.448381 0
M  V30 14438 H 1315.51 2.31314 -1.90877 0
M  V30 14439 H 1313.06 1.18133 -1.02344 0
M  V30 14440 H 1313.8 3.20357 0.504144 0
M  V30 14441 H 1313.58 3.73659 -1.18833 0
M  V30 14442 H 1315.07 4.16551 -0.295876 0
M  V30 14443 N 1315.51 1.01404 1.20644 0
M  V30 14444 C 1316.76 0.697244 1.89265 0
M  V30 14445 C 1317.07 -0.776149 1.79542 0
M  V30 14446 O 1318.28 -1.2054 2.43274 0
M  V30 14447 C 1316.73 1.19672 3.39421 0
M  V30 14448 C 1316.34 2.69683 3.57736 0
M  V30 14449 C 1318.09 0.955225 4.13613 0
M  V30 14450 C 1315.99 3.13124 5.01704 0
M  V30 14451 H 1314.92 0.257105 0.708811 0
M  V30 14452 H 1317.57 1.22639 1.36499 0
M  V30 14453 H 1315.96 0.595562 3.91496 0
M  V30 14454 H 1317.13 3.35326 3.16059 0
M  V30 14455 H 1315.44 2.91946 2.96911 0
M  V30 14456 H 1318.04 1.25524 5.19757 0
M  V30 14457 H 1318.38 -0.108362 4.16159 0
M  V30 14458 H 1318.92 1.51962 3.67631 0
M  V30 14459 H 1315.66 4.18748 5.04311 0
M  V30 14460 H 1315.18 2.522 5.44201 0
M  V30 14461 H 1316.86 3.05617 5.70269 0
M  V30 14462 N 1316.99 -1.36373 0.789944 0
M  V30 14463 C 1318.26 -1.9349 0.286543 0
M  V30 14464 C 1318.64 -1.7218 -1.22136 0
M  V30 14465 O 1317.99 -1.08106 -2.01309 0
M  V30 14466 C 1318.2 -3.42316 0.679749 0
M  V30 14467 C 1319.55 -4.19442 0.659791 0
M  V30 14468 O 1320.57 -3.50758 0.620256 0
M  V30 14469 O 1319.43 -5.41957 0.703159 0
M  V30 14470 H 1316.53 -0.823942 0.0710537 0
M  V30 14471 H 1319.07 -1.45551 0.872523 0
M  V30 14472 H 1317.85 -3.51485 1.7197 0
M  V30 14473 H 1317.47 -3.97542 0.0676823 0
M  V30 14474 N 1318.47 -0.542005 -1.47987 0
M  V30 14475 C 1319.71 -0.010246 -2.01697 0
M  V30 14476 C 1320.03 1.34173 -1.42327 0
M  V30 14477 O 1321.23 1.96254 -1.87607 0
M  V30 14478 C 1319.69 0.0321032 -3.59886 0
M  V30 14479 C 1319.3 -1.31571 -4.28244 0
M  V30 14480 C 1321.04 0.512056 -4.214 0
M  V30 14481 C 1318.95 -1.23329 -5.78398 0
M  V30 14482 H 1317.88 -6.02097e-05 -0.754 0
M  V30 14483 H 1320.53 -0.687586 -1.70131 0
M  V30 14484 H 1318.91 0.774774 -3.88347 0
M  V30 14485 H 1320.09 -2.07489 -4.11442 0
M  V30 14486 H 1318.4 -1.73237 -3.78653 0
M  V30 14487 H 1321 0.591875 -5.31414 0
M  V30 14488 H 1321.34 1.52061 -3.87535 0
M  V30 14489 H 1321.87 -0.175293 -3.97414 0
M  V30 14490 H 1318.61 -2.21737 -6.16857 0
M  V30 14491 H 1318.13 -0.51567 -5.97579 0
M  V30 14492 H 1319.81 -0.928975 -6.40296 0
M  V30 14493 N 1319.94 1.55134 -0.277709 0
M  V30 14494 C 1320.91 2.21327 0.595569 0
M  V30 14495 C 1321.91 1.19193 1.07933 0
M  V30 14496 O 1323.1 1.44081 0.979093 0
M  V30 14497 C 1320.23 2.88127 1.82196 0
M  V30 14498 H 1321.42 2.99895 0.0175855 0
M  V30 14499 H 1318.97 1.56274 -0.0283453 0
M  V30 14500 H 1319.71 2.13578 2.44039 0
M  V30 14501 H 1319.49 3.62974 1.48297 0
M  V30 14502 H 1320.98 3.38691 2.44291 0
M  V30 14503 N 1321.42 0.00503138 1.57599 0
M  V30 14504 C 1322.37 -0.984754 2.08737 0
M  V30 14505 C 1323.34 -1.33822 0.983915 0
M  V30 14506 O 1324.52 -1.43572 1.25665 0
M  V30 14507 C 1321.66 -2.26984 2.59946 0
M  V30 14508 C 1320.78 -1.97496 3.84212 0
M  V30 14509 C 1319.91 -3.20123 4.23904 0
M  V30 14510 C 1318.95 -2.86344 5.40993 0
M  V30 14511 N 1318.09 -4.01524 5.75954 0
M  V30 14512 H 1322.93 -0.541737 2.93034 0
M  V30 14513 H 1320.46 -0.255834 1.44858 0
M  V30 14514 H 1322.42 -3.02117 2.87717 0
M  V30 14515 H 1321.05 -2.68946 1.78516 0
M  V30 14516 H 1320.1 -1.12709 3.63319 0
M  V30 14517 H 1321.42 -1.68602 4.69441 0
M  V30 14518 H 1320.57 -4.03598 4.52983 0
M  V30 14519 H 1319.31 -3.5216 3.37394 0
M  V30 14520 H 1318.31 -2.01278 5.11632 0
M  V30 14521 H 1319.54 -2.5555 6.29183 0
M  V30 14522 H 1317.49 -4.33447 4.92402 0
M  V30 14523 H 1317.4 -3.76171 6.55768 0
M  V30 14524 H 1318.67 -4.85772 6.09628 0
M  V30 14525 N 1322.9 -1.55308 -0.267798 0
M  V30 14526 C 1323.83 -1.8348 -1.35685 0
M  V30 14527 C 1324.81 -0.688228 -1.47317 0
M  V30 14528 O 1325.99 -0.931781 -1.6386 0
M  V30 14529 C 1323.12 -2.00103 -2.7327 0
M  V30 14530 C 1322.17 -3.22675 -2.78896 0
M  V30 14531 S 1323 -4.79895 -2.37615 0
M  V30 14532 C 1324.16 -4.99497 -3.77165 0
M  V30 14533 H 1324.39 -2.75565 -1.11585 0
M  V30 14534 H 1321.92 -1.47146 -0.467703 0
M  V30 14535 H 1323.88 -2.10364 -3.52501 0
M  V30 14536 H 1322.54 -1.08897 -2.94619 0
M  V30 14537 H 1321.73 -3.31209 -3.7989 0
M  V30 14538 H 1321.34 -3.11031 -2.07691 0
M  V30 14539 H 1323.63 -4.85558 -4.72483 0
M  V30 14540 H 1324.57 -6.01534 -3.73581 0
M  V30 14541 H 1324.98 -4.2745 -3.68709 0
M  V30 14542 N 1324.38 0.532545 -1.4833 0
M  V30 14543 C 1325.34 1.61955 -1.62183 0
M  V30 14544 C 1326.34 1.52982 -0.495281 0
M  V30 14545 O 1327.53 1.56698 -0.761005 0
M  V30 14546 C 1324.66 3.0157 -1.58961 0
M  V30 14547 H 1325.86 1.51013 -2.59105 0
M  V30 14548 H 1323.41 0.754405 -1.36888 0
M  V30 14549 H 1324.14 3.18021 -0.635069 0
M  V30 14550 H 1323.93 3.09491 -2.40744 0
M  V30 14551 H 1325.42 3.80604 -1.71843 0
M  V30 14552 N 1325.86 1.36875 0.78122 0
M  V30 14553 C 1326.79 1.34559 1.9083 0
M  V30 14554 C 1327.77 0.215713 1.68727 0
M  V30 14555 O 1328.95 0.41462 1.89722 0
M  V30 14556 C 1326.08 1.14233 3.27976 0
M  V30 14557 C 1325.04 2.24132 3.64621 0
M  V30 14558 C 1324.36 1.8894 5.00206 0
M  V30 14559 C 1325.66 3.66266 3.72353 0
M  V30 14560 H 1327.36 2.28871 1.93025 0
M  V30 14561 H 1324.9 1.10171 0.927275 0
M  V30 14562 H 1326.85 1.11246 4.06451 0
M  V30 14563 H 1325.58 0.163747 3.26189 0
M  V30 14564 H 1324.24 2.26259 2.88448 0
M  V30 14565 H 1323.89 0.896351 4.94949 0
M  V30 14566 H 1323.59 2.62525 5.25694 0
M  V30 14567 H 1325.11 1.87523 5.81092 0
M  V30 14568 H 1326.52 3.66321 4.41001 0
M  V30 14569 H 1324.92 4.38825 4.09332 0
M  V30 14570 H 1325.99 4.00578 2.7325 0
M  V30 14571 N 1327.33 -1.00632 1.21289 0
M  V30 14572 C 1328.24 -2.12829 0.986957 0
M  V30 14573 C 1329.26 -1.73895 -0.0605152 0
M  V30 14574 O 1330.44 -2.00985 0.129238 0
M  V30 14575 C 1327.5 -3.4226 0.553089 0
M  V30 14576 C 1326.56 -3.95376 1.67262 0
M  V30 14577 C 1325.79 -5.18629 1.25936 0
M  V30 14578 O 1326.02 -5.70246 0.132402 0
M  V30 14579 O 1324.95 -5.65157 2.07077 0
M  V30 14580 H 1328.78 -2.34765 1.92663 0
M  V30 14581 H 1326.36 -1.11208 0.997654 0
M  V30 14582 H 1328.24 -4.20177 0.320856 0
M  V30 14583 H 1326.92 -3.21716 -0.357881 0
M  V30 14584 H 1325.83 -3.18692 1.95924 0
M  V30 14585 H 1327.16 -4.20328 2.56097 0
M  V30 14586 N 1328.81 -1.02043 -1.20104 0
M  V30 14587 C 1330.06 -0.707271 -1.88893 0
M  V30 14588 C 1330.37 0.766617 -1.79951 0
M  V30 14589 O 1331.58 1.19248 -2.4391 0
M  V30 14590 C 1330.04 -1.2147 -3.38782 0
M  V30 14591 C 1329.64 -2.71576 -3.56301 0
M  V30 14592 C 1331.39 -0.977146 -4.13101 0
M  V30 14593 C 1329.29 -3.15781 -5.00037 0
M  V30 14594 H 1328.22 -0.26086 -0.707438 0
M  V30 14595 H 1330.88 -1.23361 -1.35846 0
M  V30 14596 H 1329.26 -0.616315 -3.91175 0
M  V30 14597 H 1330.43 -3.36997 -3.14276 0
M  V30 14598 H 1328.75 -2.93517 -2.95359 0
M  V30 14599 H 1331.34 -1.28278 -5.19085 0
M  V30 14600 H 1331.69 0.0862909 -4.16211 0
M  V30 14601 H 1332.22 -1.5391 -3.6682 0
M  V30 14602 H 1328.96 -4.21417 -5.02084 0
M  V30 14603 H 1328.48 -2.55083 -5.42856 0
M  V30 14604 H 1330.16 -3.08637 -5.6864 0
M  V30 14605 N 1330.29 1.35952 -0.797165 0
M  V30 14606 C 1331.22 2.32506 -0.215277 0
M  V30 14607 C 1332.2 1.57023 0.654046 0
M  V30 14608 O 1333.39 1.85139 0.586268 0
M  V30 14609 C 1330.52 3.41266 0.644557 0
M  V30 14610 C 1329.47 4.27816 -0.125501 0
M  V30 14611 C 1328.8 5.27813 0.855428 0
M  V30 14612 C 1330.1 5.05367 -1.31913 0
M  V30 14613 H 1331.79 2.8142 -1.02193 0
M  V30 14614 H 1329.34 1.35303 -0.492862 0
M  V30 14615 H 1331.29 4.07808 1.06163 0
M  V30 14616 H 1330.01 2.90938 1.484 0
M  V30 14617 H 1328.67 3.62841 -0.523639 0
M  V30 14618 H 1328.32 4.73755 1.69011 0
M  V30 14619 H 1328.02 5.86589 0.344566 0
M  V30 14620 H 1329.54 5.97227 1.2709 0
M  V30 14621 H 1330.96 5.64907 -0.977418 0
M  V30 14622 H 1329.36 5.73593 -1.76382 0
M  V30 14623 H 1330.43 4.36558 -2.11057 0
M  V30 14624 N 1331.77 0.549846 1.47697 0
M  V30 14625 C 1332.99 0.0256819 2.07384 0
M  V30 14626 C 1333.42 -1.25525 1.4009 0
M  V30 14627 O 1332.78 -1.7501 0.473406 0
M  V30 14628 C 1332.82 -0.160835 3.60241 0
M  V30 14629 O 1331.93 -1.22509 3.93783 0
M  V30 14630 H 1331.27 0.0480204 0.662261 0
M  V30 14631 H 1333.8 0.763429 1.89823 0
M  V30 14632 H 1333.81 -0.377337 4.06251 0
M  V30 14633 H 1332.48 0.774774 4.0862 0
M  V30 14634 H 1331.06 -0.98967 3.59527 0
M  V30 14635 N 1333.25 -1.54984 0.285932 0
M  V30 14636 C 1334.49 -1.9983 -0.327737 0
M  V30 14637 C 1334.82 -1.17435 -1.55046 0
M  V30 14638 O 1334.08 -0.234735 -1.94287 0
M  V30 14639 C 1334.38 -3.49581 -0.7435 0
M  V30 14640 C 1334.04 -4.49331 0.375792 0
M  V30 14641 C 1332.7 -4.76327 0.683103 0
M  V30 14642 C 1335.06 -5.08815 1.12947 0
M  V30 14643 C 1332.38 -5.60071 1.74748 0
M  V30 14644 C 1334.74 -5.93716 2.18366 0
M  V30 14645 C 1333.4 -6.19028 2.4972 0
M  V30 14646 H 1332.67 -0.731231 -0.119928 0
M  V30 14647 H 1335.32 -1.87235 0.401896 0
M  V30 14648 H 1333.62 -3.59708 -1.55298 0
M  V30 14649 H 1335.32 -3.81694 -1.22924 0
M  V30 14650 H 1331.91 -4.28414 0.126159 0
M  V30 14651 H 1336.09 -4.87973 0.905313 0
M  V30 14652 H 1331.35 -5.77925 1.9953 0
M  V30 14653 H 1335.52 -6.38838 2.77233 0
M  V30 14654 H 1333.15 -6.83711 3.3233 0
M  V30 14655 N 1334.72 -0.0133892 -1.57594 0
M  V30 14656 C 1335.66 1.00798 -2.04731 0
M  V30 14657 C 1336.64 1.32686 -0.93985 0
M  V30 14658 O 1337.82 1.44622 -1.209 0
M  V30 14659 C 1334.95 2.33216 -2.45618 0
M  V30 14660 C 1333.99 2.16898 -3.67229 0
M  V30 14661 S 1334.83 1.48248 -5.14571 0
M  V30 14662 C 1335.98 2.82068 -5.58738 0
M  V30 14663 H 1336.21 0.606673 -2.91044 0
M  V30 14664 H 1333.75 0.197865 -1.53127 0
M  V30 14665 H 1335.71 3.09348 -2.69841 0
M  V30 14666 H 1334.37 2.70483 -1.59679 0
M  V30 14667 H 1333.56 3.14753 -3.93632 0
M  V30 14668 H 1333.16 1.4891 -3.43077 0
M  V30 14669 H 1335.45 3.78343 -5.62017 0
M  V30 14670 H 1336.4 2.60348 -6.58502 0
M  V30 14671 H 1336.8 2.86592 -4.86338 0
M  V30 14672 N 1336.2 1.55448 0.259558 0
M  V30 14673 C 1337.45 1.76337 0.987396 0
M  V30 14674 C 1337.77 0.57505 1.86328 0
M  V30 14675 O 1337.04 -0.409621 1.9157 0
M  V30 14676 H 1335.62 0.650312 0.367565 0
M  V30 14677 H 1338.28 1.9287 0.280551 0
M  V30 14678 H 1337.38 2.66975 1.61651 0
M  V30 14679 N 1337.68 -0.524672 1.4861 0
M  V30 14680 C 1338.91 -1.30482 1.60568 0
M  V30 14681 C 1339.32 -1.86889 0.267952 0
M  V30 14682 O 1338.68 -1.66669 -0.743488 0
M  V30 14683 C 1338.73 -2.45191 2.65638 0
M  V30 14684 O 1338.45 -1.91107 3.9422 0
M  V30 14685 C 1339.95 -3.36931 2.88084 0
M  V30 14686 H 1337.17 -0.396612 0.541239 0
M  V30 14687 H 1339.72 -0.632392 1.94476 0
M  V30 14688 H 1337.87 -3.08308 2.34574 0
M  V30 14689 H 1338.29 -2.66234 4.51907 0
M  V30 14690 H 1339.76 -4.13755 3.65391 0
M  V30 14691 H 1340.24 -3.92487 1.97106 0
M  V30 14692 H 1340.84 -2.79601 3.20473 0
M  V30 14693 N 1339.16 -1.37287 -0.77395 0
M  V30 14694 C 1340.41 -1.32374 -1.53243 0
M  V30 14695 C 1340.73 0.0924284 -1.9428 0
M  V30 14696 O 1339.99 1.06517 -1.64173 0
M  V30 14697 C 1340.29 -2.20667 -2.81142 0
M  V30 14698 C 1339.95 -3.68975 -2.59168 0
M  V30 14699 C 1338.62 -4.09394 -2.52884 0
M  V30 14700 C 1340.97 -4.62941 -2.39447 0
M  V30 14701 C 1338.3 -5.41897 -2.24865 0
M  V30 14702 C 1340.65 -5.9568 -2.12952 0
M  V30 14703 C 1339.31 -6.35205 -2.05111 0
M  V30 14704 H 1338.58 -0.48439 -0.560756 0
M  V30 14705 H 1341.23 -1.69475 -0.891663 0
M  V30 14706 H 1339.53 -1.76553 -3.49766 0
M  V30 14707 H 1341.23 -2.1418 -3.3901 0
M  V30 14708 H 1337.82 -3.36919 -2.64922 0
M  V30 14709 H 1342 -4.32576 -2.43293 0
M  V30 14710 H 1337.26 -5.71486 -2.17288 0
M  V30 14711 H 1341.43 -6.68046 -1.9669 0
M  V30 14712 H 1339.06 -7.37804 -1.83163 0
M  V30 14713 N 1340.64 0.999871 -1.21821 0
M  V30 14714 C 1341.55 2.12303 -0.99823 0
M  V30 14715 C 1342.56 1.73924 0.0512923 0
M  V30 14716 O 1343.74 2.00914 -0.139895 0
M  V30 14717 C 1340.8 3.41962 -0.571232 0
M  V30 14718 C 1339.86 3.94483 -1.69356 0
M  V30 14719 C 1339.1 5.17954 -1.28685 0
M  V30 14720 O 1339.32 5.70168 -0.162641 0
M  V30 14721 O 1338.25 5.64051 -2.10071 0
M  V30 14722 H 1342.08 2.3374 -1.93905 0
M  V30 14723 H 1339.67 1.10677 -1.00354 0
M  V30 14724 H 1341.55 4.20001 -0.343134 0
M  V30 14725 H 1340.22 3.21901 0.340814 0
M  V30 14726 H 1339.13 3.17648 -1.97612 0
M  V30 14727 H 1340.46 4.18964 -2.58322 0
M  V30 14728 N 1342.11 1.02678 1.19562 0
M  V30 14729 C 1343.04 0.626359 2.24942 0
M  V30 14730 C 1344.03 -0.363612 1.66168 0
M  V30 14731 O 1345.21 -0.246793 1.92625 0
M  V30 14732 C 1342.34 -0.0257912 3.4729 0
M  V30 14733 C 1341.29 0.886237 4.18724 0
M  V30 14734 C 1340.62 0.0993081 5.34608 0
M  V30 14735 C 1341.92 2.19901 4.73752 0
M  V30 14736 H 1343.61 1.50729 2.58691 0
M  V30 14737 H 1341.16 0.726195 1.24348 0
M  V30 14738 H 1343.11 -0.317545 4.20202 0
M  V30 14739 H 1341.84 -0.941511 3.12735 0
M  V30 14740 H 1340.5 1.16215 3.47692 0
M  V30 14741 H 1340.14 -0.81838 4.96298 0
M  V30 14742 H 1339.84 0.706776 5.83334 0
M  V30 14743 H 1341.37 -0.185754 6.10317 0
M  V30 14744 H 1342.78 1.96892 5.3843 0
M  V30 14745 H 1341.18 2.75821 5.32956 0
M  V30 14746 H 1342.25 2.85509 3.91934 0
M  V30 14747 N 1343.59 -1.35528 0.804364 0
M  V30 14748 C 1344.5 -2.33616 0.214663 0
M  V30 14749 C 1345.52 -1.61757 -0.64115 0
M  V30 14750 O 1346.69 -1.93647 -0.553424 0
M  V30 14751 C 1343.76 -3.40951 -0.628778 0
M  V30 14752 C 1342.82 -4.28587 0.247269 0
M  V30 14753 C 1342.05 -5.30796 -0.556012 0
M  V30 14754 O 1342.28 -5.41557 -1.79088 0
M  V30 14755 O 1341.21 -6.01878 0.0519437 0
M  V30 14756 H 1345.04 -2.85843 1.02605 0
M  V30 14757 H 1342.62 -1.38259 0.566108 0
M  V30 14758 H 1344.5 -4.06538 -1.10926 0
M  V30 14759 H 1343.18 -2.90999 -1.4178 0
M  V30 14760 H 1342.09 -3.65988 0.774835 0
M  V30 14761 H 1343.42 -4.81931 1.00017 0
M  V30 14762 N 1345.07 -0.557671 -1.47404 0
M  V30 14763 C 1346.02 0.210176 -2.27029 0
M  V30 14764 C 1347.01 0.884882 -1.34382 0
M  V30 14765 O 1348.2 0.783112 -1.58734 0
M  V30 14766 C 1345.33 1.23923 -3.20153 0
M  V30 14767 C 1344.41 0.567913 -4.2028 0
M  V30 14768 N 1344.8 -0.362279 -5.04501 0
M  V30 14769 C 1343.1 0.821776 -4.38364 0
M  V30 14770 C 1343.8 -0.752273 -5.76815 0
M  V30 14771 N 1342.78 -0.107008 -5.43495 0
M  V30 14772 H 1346.58 -0.505007 -2.89529 0
M  V30 14773 H 1344.09 -0.377642 -1.57948 0
M  V30 14774 H 1346.09 1.80328 -3.75882 0
M  V30 14775 H 1344.75 1.9555 -2.59211 0
M  V30 14776 H 1345.76 -0.736468 -5.12637 0
M  V30 14777 H 1342.44 1.52652 -3.88592 0
M  V30 14778 H 1343.83 -1.51664 -6.54559 0
M  V30 14779 N 1346.55 1.54831 -0.294147 0
M  V30 14780 C 1347.48 2.26226 0.57827 0
M  V30 14781 C 1348.46 1.25928 1.14351 0
M  V30 14782 O 1349.65 1.54687 1.17412 0
M  V30 14783 C 1346.78 2.99783 1.75349 0
M  V30 14784 C 1345.73 4.07171 1.31892 0
M  V30 14785 C 1345.06 4.68406 2.57876 0
M  V30 14786 C 1346.36 5.20313 0.455167 0
M  V30 14787 H 1348.05 2.99395 -0.0171936 0
M  V30 14788 H 1345.6 1.43997 -0.00970944 0
M  V30 14789 H 1347.55 3.48448 2.36986 0
M  V30 14790 H 1346.27 2.24181 2.37509 0
M  V30 14791 H 1344.93 3.59346 0.725653 0
M  V30 14792 H 1344.58 3.89451 3.18335 0
M  V30 14793 H 1344.28 5.40927 2.29502 0
M  V30 14794 H 1345.8 5.1983 3.20327 0
M  V30 14795 H 1347.22 5.64913 0.977026 0
M  V30 14796 H 1345.61 5.99512 0.265501 0
M  V30 14797 H 1346.68 4.82088 -0.521434 0
M  V30 14798 N 1348.03 0.0217466 1.57585 0
M  V30 14799 C 1349.44 -0.51811 1.79367 0
M  V30 14800 C 1349.79 -1.72688 0.931313 0
M  V30 14801 O 1348.91 -2.15949 0.139687 0
M  V30 14802 C 1349.51 -0.946711 3.25304 0
M  V30 14803 C 1348.07 -1.43173 3.48107 0
M  V30 14804 C 1347.22 -0.392996 2.74501 0
M  V30 14805 H 1350.17 0.247822 1.56753 0
M  V30 14806 H 1350.19 -1.81152 3.34611 0
M  V30 14807 H 1349.7 -0.0667536 3.88043 0
M  V30 14808 H 1347.8 -2.33186 2.90612 0
M  V30 14809 H 1347.91 -1.44419 4.56815 0
M  V30 14810 H 1346.28 -0.859471 2.39761 0
M  V30 14811 H 1347.06 0.478368 3.39951 0
M  V30 14812 N 1349.51 -1.55583 -0.251311 0
M  V30 14813 C 1350.75 -1.76859 -0.978031 0
M  V30 14814 C 1351.07 -0.584924 -1.86021 0
M  V30 14815 O 1350.34 0.399456 -1.91784 0
M  V30 14816 H 1348.92 -0.652252 -0.364111 0
M  V30 14817 H 1351.59 -1.93016 -0.270319 0
M  V30 14818 H 1350.68 -2.67828 -1.60233 0
M  V30 14819 N 1350.98 0.516783 -1.48886 0
M  V30 14820 C 1351.91 1.62897 -1.67292 0
M  V30 14821 C 1352.89 1.61903 -0.521671 0
M  V30 14822 O 1354.08 1.78892 -0.755728 0
M  V30 14823 C 1351.21 3.01444 -1.72478 0
M  V30 14824 C 1350.16 3.173 -2.87236 0
M  V30 14825 C 1349.49 4.5704 -2.77522 0
M  V30 14826 C 1350.79 2.98818 -4.28375 0
M  V30 14827 H 1352.48 1.47748 -2.60405 0
M  V30 14828 H 1350.03 0.709361 -1.25316 0
M  V30 14829 H 1351.98 3.79135 -1.83942 0
M  V30 14830 H 1350.71 3.17645 -0.759538 0
M  V30 14831 H 1349.37 2.4203 -2.75349 0
M  V30 14832 H 1349.01 4.70096 -1.78938 0
M  V30 14833 H 1348.71 4.68593 -3.54534 0
M  V30 14834 H 1350.24 5.36813 -2.90972 0
M  V30 14835 H 1351.65 3.66291 -4.41026 0
M  V30 14836 H 1350.05 3.21854 -5.06488 0
M  V30 14837 H 1351.12 1.95102 -4.43918 0
M  V30 14838 N 1352.46 1.37696 0.766659 0
M  V30 14839 C 1353.87 1.29668 1.34324 0
M  V30 14840 C 1354.22 -0.0534297 1.96127 0
M  V30 14841 O 1353.35 -0.95534 1.94171 0
M  V30 14842 C 1353.94 2.34818 2.44225 0
M  V30 14843 C 1352.5 2.3041 2.97638 0
M  V30 14844 C 1351.65 2.18378 1.70899 0
M  V30 14845 H 1354.6 1.48244 0.566526 0
M  V30 14846 H 1354.62 1.99778 3.23835 0
M  V30 14847 H 1354.13 3.3307 1.99214 0
M  V30 14848 H 1352.23 1.35698 3.47011 0
M  V30 14849 H 1352.35 3.24028 3.52906 0
M  V30 14850 H 1350.71 1.65008 1.94021 0
M  V30 14851 H 1351.49 3.18551 1.27985 0
M  V30 14852 N 1353.94 -0.993397 1.22349 0
M  V30 14853 C 1355.19 -1.72707 1.04189 0
M  V30 14854 C 1355.5 -1.90963 -0.423381 0
M  V30 14855 O 1356.71 -2.61651 -0.724645 0
M  V30 14856 C 1355.16 -3.10739 1.81575 0
M  V30 14857 C 1354.77 -3.00415 3.32347 0
M  V30 14858 C 1356.52 -3.88155 1.71861 0
M  V30 14859 C 1354.42 -4.33598 4.02177 0
M  V30 14860 H 1353.35 -0.647556 0.386248 0
M  V30 14861 H 1356 -1.10902 1.46195 0
M  V30 14862 H 1354.39 -3.73222 1.32367 0
M  V30 14863 H 1355.56 -2.47099 3.88946 0
M  V30 14864 H 1353.87 -2.36482 3.42732 0
M  V30 14865 H 1356.47 -4.8673 2.21354 0
M  V30 14866 H 1356.81 -4.10726 0.678939 0
M  V30 14867 H 1357.35 -3.32347 2.18609 0
M  V30 14868 H 1354.09 -4.16226 5.06395 0
M  V30 14869 H 1353.61 -4.86829 3.50367 0
M  V30 14870 H 1355.29 -5.02348 4.07744 0
M  V30 14871 N 1355.42 -1.03311 -1.19015 0
M  V30 14872 C 1356.66 -0.742872 -1.89349 0
M  V30 14873 C 1357.02 0.721012 -1.78379 0
M  V30 14874 O 1356.31 1.51869 -1.16817 0
M  V30 14875 C 1356.51 -1.13402 -3.38932 0
M  V30 14876 C 1356.33 -2.63438 -3.64459 0
M  V30 14877 C 1355.1 -3.30473 -3.82251 0
M  V30 14878 C 1357.3 -3.61652 -3.65667 0
M  V30 14879 N 1355.28 -4.69569 -3.95447 0
M  V30 14880 C 1356.66 -4.86385 -3.84486 0
M  V30 14881 C 1358.71 -3.5539 -3.48715 0
M  V30 14882 C 1357.41 -6.05611 -3.88108 0
M  V30 14883 C 1359.44 -4.74035 -3.53617 0
M  V30 14884 C 1358.8 -5.97584 -3.72925 0
M  V30 14885 H 1354.9 -0.323772 -0.711826 0
M  V30 14886 H 1357.48 -1.32127 -1.43006 0
M  V30 14887 H 1355.66 -0.583786 -3.83988 0
M  V30 14888 H 1357.39 -0.795592 -3.96803 0
M  V30 14889 H 1354.14 -2.80882 -3.81317 0
M  V30 14890 H 1354.57 -5.41836 -4.05885 0
M  V30 14891 H 1359.21 -2.60852 -3.32741 0
M  V30 14892 H 1356.93 -7.00513 -4.02874 0
M  V30 14893 H 1360.51 -4.70823 -3.41786 0
M  V30 14894 H 1359.39 -6.87854 -3.76598 0
M  V30 14895 N 1356.9 1.35099 -0.81154 0
M  V30 14896 C 1358.14 1.9788 -0.390695 0
M  V30 14897 C 1358.46 1.6509 1.04903 0
M  V30 14898 O 1359.66 2.21273 1.57324 0
M  V30 14899 C 1358.12 3.54025 -0.647632 0
M  V30 14900 C 1357.73 3.9572 -2.10023 0
M  V30 14901 C 1359.47 4.23492 -0.29239 0
M  V30 14902 C 1357.38 5.44731 -2.30266 0
M  V30 14903 H 1356.31 0.740441 -0.14235 0
M  V30 14904 H 1358.96 1.54098 -0.996294 0
M  V30 14905 H 1357.34 3.9599 0.0279838 0
M  V30 14906 H 1358.52 3.64893 -2.81407 0
M  V30 14907 H 1356.83 3.39157 -2.41581 0
M  V30 14908 H 1359.43 5.33035 -0.421618 0
M  V30 14909 H 1359.77 4.09268 0.76195 0
M  V30 14910 H 1360.3 3.86965 -0.922122 0
M  V30 14911 H 1357.04 5.63928 -3.34163 0
M  V30 14912 H 1356.56 5.7711 -1.63413 0
M  V30 14913 H 1358.24 6.1126 -2.12062 0
M  V30 14914 N 1358.37 0.56548 1.47106 0
M  V30 14915 C 1359.79 0.225855 1.57994 0
M  V30 14916 C 1359.99 -1.27173 1.56299 0
M  V30 14917 O 1359.05 -2.05242 1.47078 0
M  V30 14918 C 1360.36 0.859829 2.88145 0
M  V30 14919 C 1361.91 0.831821 3.01744 0
M  V30 14920 C 1362.38 1.44502 4.34607 0
M  V30 14921 N 1363.87 1.40857 4.41263 0
M  V30 14922 C 1364.61 1.85258 5.42648 0
M  V30 14923 N 1364.1 2.37553 6.508 0
M  V30 14924 N 1365.9 1.76279 5.33744 0
M  V30 14925 H 1358.05 1.53837 1.46451 0
M  V30 14926 H 1360.31 0.642013 0.697512 0
M  V30 14927 H 1360.02 1.91264 2.95146 0
M  V30 14928 H 1359.89 0.357762 3.755 0
M  V30 14929 H 1362.28 -0.212319 2.94335 0
M  V30 14930 H 1362.36 1.37173 2.1591 0
M  V30 14931 H 1362 2.48827 4.42773 0
M  V30 14932 H 1361.93 0.880479 5.19187 0
M  V30 14933 H 1364.42 1.02614 3.63702 0
M  V30 14934 H 1364.74 2.69335 7.24347 0
M  V30 14935 H 1363.08 2.41569 6.51667 0
M  V30 14936 H 1366.27 1.35195 4.48152 0
M  V30 14937 H 1366.45 2.11199 6.12616 0
M  V30 14938 N 1359.85 -1.54672 0.302354 0
M  V30 14939 C 1361.1 -1.99345 -0.307307 0
M  V30 14940 C 1361.41 -1.19437 -1.549 0
M  V30 14941 O 1362.62 -1.54384 -2.23334 0
M  V30 14942 C 1361.08 -3.54896 -0.59808 0
M  V30 14943 C 1360.68 -4.43614 0.625357 0
M  V30 14944 C 1362.43 -4.08091 -1.16886 0
M  V30 14945 C 1360.34 -5.90599 0.307661 0
M  V30 14946 H 1359.27 -0.744614 -0.118603 0
M  V30 14947 H 1361.92 -1.78832 0.411271 0
M  V30 14948 H 1360.3 -3.71314 -1.37629 0
M  V30 14949 H 1361.47 -4.38969 1.40152 0
M  V30 14950 H 1359.79 -4.01198 1.11487 0
M  V30 14951 H 1362.38 -5.15477 -1.42082 0
M  V30 14952 H 1362.73 -3.58775 -2.11155 0
M  V30 14953 H 1363.26 -3.9522 -0.452329 0
M  V30 14954 H 1360 -6.44067 1.21895 0
M  V30 14955 H 1359.52 -5.98248 -0.431208 0
M  V30 14956 H 1361.2 -6.46937 -0.0902796 0
M  V30 14957 N 1361.33 -0.0301034 -1.57571 0
M  V30 14958 C 1362.58 0.647042 -1.91462 0
M  V30 14959 C 1362.9 1.72612 -0.907206 0
M  V30 14960 O 1362.17 1.95833 0.0511268 0
M  V30 14961 H 1360.75 0.241988 -0.706718 0
M  V30 14962 H 1363.41 -0.0781385 -1.94743 0
M  V30 14963 H 1362.51 1.09915 -2.92105 0
M  V30 14964 N 1362.81 1.55714 0.243056 0
M  V30 14965 C 1364.05 1.77989 0.971993 0
M  V30 14966 C 1364.39 0.596038 1.84827 0
M  V30 14967 O 1363.66 -0.40554 1.90225 0
M  V30 14968 C 1363.95 3.10178 1.82925 0
M  V30 14969 C 1363.8 4.38974 0.9809 0
M  V30 14970 C 1365.12 3.38628 2.81103 0
M  V30 14971 H 1362.24 0.64754 0.35194 0
M  V30 14972 H 1364.88 1.88449 0.242237 0
M  V30 14973 H 1363.03 3.01392 2.45143 0
M  V30 14974 H 1364.7 4.59756 0.377113 0
M  V30 14975 H 1362.94 4.3286 0.285414 0
M  V30 14976 H 1363.61 5.27858 1.61461 0
M  V30 14977 H 1366.09 3.47403 2.29021 0
M  V30 14978 H 1364.97 4.32331 3.38203 0
M  V30 14979 H 1365.23 2.5973 3.57761 0
M  V30 14980 N 1364.29 -0.50888 1.49158 0
M  V30 14981 C 1365.24 -1.60799 1.61641 0
M  V30 14982 C 1366.22 -1.53808 0.472434 0
M  V30 14983 O 1367.41 -1.61471 0.724985 0
M  V30 14984 C 1364.54 -2.99444 1.67894 0
M  V30 14985 C 1363.63 -3.1146 2.87843 0
M  V30 14986 N 1364.02 -2.93387 4.12016 0
M  V30 14987 C 1362.32 -3.42549 2.85616 0
M  V30 14988 C 1363.02 -3.09378 4.92606 0
M  V30 14989 N 1361.99 -3.37902 4.2582 0
M  V30 14990 H 1365.8 -1.45468 2.55375 0
M  V30 14991 H 1363.31 -0.714832 1.45822 0
M  V30 14992 H 1365.31 -3.78423 1.74934 0
M  V30 14993 H 1363.97 -3.1585 0.752919 0
M  V30 14994 H 1364.98 -2.69721 4.42121 0
M  V30 14995 H 1361.65 -3.65181 2.02359 0
M  V30 14996 H 1363.04 -2.99964 6.01225 0
M  V30 14997 N 1365.76 -1.381 -0.759346 0
M  V30 14998 C 1366.99 -1.37389 -1.55367 0
M  V30 14999 C 1367.41 0.0356097 -1.88066 0
M  V30 15000 O 1366.77 1.0161 -1.5015 0
M  V30 15001 C 1366.82 -2.23098 -2.83302 0
M  V30 15002 O 1365.92 -1.64412 -3.7821 0
M  V30 15003 H 1365.27 -0.468894 -0.470143 0
M  V30 15004 H 1367.8 -1.81787 -0.938858 0
M  V30 15005 H 1367.81 -2.36753 -3.32283 0
M  V30 15006 H 1366.48 -3.25544 -2.58831 0
M  V30 15007 H 1365.06 -1.59867 -3.36893 0
M  V30 15008 N 1367.24 0.986894 -1.22875 0
M  V30 15009 C 1368.49 1.72388 -1.05484 0
M  V30 15010 C 1368.81 1.90639 0.410074 0
M  V30 15011 O 1368.08 1.47036 1.2945 0
M  V30 15012 H 1366.66 0.638732 -0.387337 0
M  V30 15013 H 1369.32 1.18829 -1.54485 0
M  V30 15014 H 1368.42 2.71599 -1.53754 0
M  V30 15015 N 1368.72 1.0394 1.18466 0
M  V30 15016 C 1370.13 0.77011 1.70077 0
M  V30 15017 C 1370.48 -0.70916 1.82935 0
M  V30 15018 O 1369.61 -1.55209 1.50795 0
M  V30 15019 C 1370.2 1.39132 3.08914 0
M  V30 15020 C 1368.76 1.17037 3.57742 0
M  V30 15021 C 1367.91 1.48279 2.34326 0
M  V30 15022 H 1370.86 1.20598 1.03159 0
M  V30 15023 H 1370.88 0.793861 3.72126 0
M  V30 15024 H 1370.39 2.46795 2.99523 0
M  V30 15025 H 1368.49 0.112435 3.7243 0
M  V30 15026 H 1368.61 1.8665 4.41247 0
M  V30 15027 H 1366.97 0.902438 2.38177 0
M  V30 15028 H 1367.75 2.57047 2.27556 0
M  V30 15029 N 1370.2 -1.34667 0.818693 0
M  V30 15030 C 1371.44 -2.00234 0.41056 0
M  V30 15031 C 1371.8 -1.63507 -1.00644 0
M  V30 15032 O 1373 -2.21886 -1.51723 0
M  V30 15033 C 1371.27 -3.52294 0.601968 0
M  V30 15034 S 1372.83 -4.37867 0.286055 0
M  V30 15035 H 1369.65 -0.693826 0.155325 0
M  V30 15036 H 1372.25 -1.64037 1.06359 0
M  V30 15037 H 1370.96 -3.76511 1.63302 0
M  V30 15038 H 1370.49 -3.93345 -0.0659441 0
M  V30 15039 H 1372.5 -4.87936 -0.901832 0
M  V30 15040 N 1371.68 -0.573274 -1.46804 0
M  V30 15041 C 1372.64 0.155066 -2.28675 0
M  V30 15042 C 1373.64 0.827706 -1.37861 0
M  V30 15043 O 1374.83 0.681105 -1.60333 0
M  V30 15044 C 1371.96 1.22864 -3.1799 0
M  V30 15045 H 1373.15 -0.564305 -2.94543 0
M  V30 15046 H 1370.71 -0.330855 -1.52758 0
M  V30 15047 H 1371.44 1.97989 -2.56848 0
M  V30 15048 H 1371.23 0.750936 -3.84842 0
M  V30 15049 H 1372.72 1.73974 -3.79635 0
M  V30 15050 N 1373.15 1.5451 -0.310553 0
M  V30 15051 C 1374.12 2.2254 0.548489 0
M  V30 15052 C 1375.12 1.21456 1.05381 0
M  V30 15053 O 1376.31 1.46126 0.948311 0
M  V30 15054 C 1373.44 2.91927 1.76043 0
M  V30 15055 H 1374.63 2.99865 -0.0460306 0
M  V30 15056 H 1372.19 1.56179 -0.061487 0
M  V30 15057 H 1372.92 2.18706 2.39454 0
M  V30 15058 H 1372.71 3.66038 1.40564 0
M  V30 15059 H 1374.2 3.43797 2.37051 0
M  V30 15060 N 1374.63 0.0384594 1.57553 0
M  V30 15061 C 1375.88 -0.636879 1.91803 0
M  V30 15062 C 1376.2 -1.72128 0.916347 0
M  V30 15063 O 1375.47 -1.95858 -0.0407405 0
M  V30 15064 H 1374.05 -0.238237 0.707992 0
M  V30 15065 H 1376.71 0.0884651 1.94699 0
M  V30 15066 H 1375.81 -1.08364 2.92683 0
M  V30 15067 N 1376.11 -1.55841 -0.234795 0
M  V30 15068 C 1377.36 -1.78502 -0.96254 0
M  V30 15069 C 1377.69 -0.605832 -1.84508 0
M  V30 15070 O 1376.97 0.395446 -1.90438 0
M  V30 15071 C 1377.25 -3.11144 -1.81277 0
M  V30 15072 C 1377.1 -4.39488 -0.957607 0
M  V30 15073 C 1378.42 -3.40114 -2.79304 0
M  V30 15074 H 1375.54 -0.649397 -0.348501 0
M  V30 15075 H 1378.18 -1.88575 -0.23224 0
M  V30 15076 H 1376.33 -3.02687 -2.43542 0
M  V30 15077 H 1378 -4.59949 -0.352726 0
M  V30 15078 H 1376.25 -4.33005 -0.262454 0
M  V30 15079 H 1376.92 -5.28707 -1.58659 0
M  V30 15080 H 1379.39 -3.48612 -2.27175 0
M  V30 15081 H 1378.27 -4.34118 -3.35906 0
M  V30 15082 H 1378.53 -2.61623 -3.56378 0
M  V30 15083 N 1377.59 0.500963 -1.49426 0
M  V30 15084 C 1378.84 1.25694 -1.5915 0
M  V30 15085 C 1379.17 1.92209 -0.277365 0
M  V30 15086 O 1378.44 1.8072 0.719065 0
M  V30 15087 C 1378.73 2.32391 -2.75076 0
M  V30 15088 C 1378.58 1.70377 -4.16283 0
M  V30 15089 C 1379.9 3.33952 -2.86643 0
M  V30 15090 H 1377.02 0.455631 -0.579283 0
M  V30 15091 H 1379.66 0.555099 -1.8171 0
M  V30 15092 H 1377.81 2.92252 -2.55971 0
M  V30 15093 H 1379.48 1.14343 -4.46904 0
M  V30 15094 H 1377.72 1.00789 -4.21929 0
M  V30 15095 H 1378.4 2.47767 -4.9327 0
M  V30 15096 H 1380.87 2.84081 -3.04035 0
M  V30 15097 H 1379.75 4.05969 -3.69433 0
M  V30 15098 H 1380.01 3.96279 -1.95998 0
M  V30 15099 N 1379.07 1.38501 0.752011 0
M  V30 15100 C 1380.32 1.34529 1.50819 0
M  V30 15101 C 1380.64 -0.0636155 1.94896 0
M  V30 15102 O 1379.91 -1.01161 1.6776 0
M  V30 15103 H 1378.49 0.49501 0.559441 0
M  V30 15104 H 1381.15 1.73196 0.893822 0
M  V30 15105 H 1380.24 1.99713 2.39835 0
M  V30 15106 N 1380.55 -0.980364 1.23396 0
M  V30 15107 C 1381.79 -1.71592 1.06015 0
M  V30 15108 C 1382.11 -1.91401 -0.403103 0
M  V30 15109 O 1383.31 -2.62405 -0.696853 0
M  V30 15110 C 1381.77 -3.08795 1.84861 0
M  V30 15111 C 1381.38 -2.96873 3.35515 0
M  V30 15112 C 1383.12 -3.8631 1.75968 0
M  V30 15113 C 1381.03 -4.29308 4.06753 0
M  V30 15114 H 1379.96 -0.643423 0.393095 0
M  V30 15115 H 1382.61 -1.09345 1.47363 0
M  V30 15116 H 1380.99 -3.71797 1.36318 0
M  V30 15117 H 1382.17 -2.4296 3.91544 0
M  V30 15118 H 1380.48 -2.32833 3.45221 0
M  V30 15119 H 1383.08 -4.84355 2.26504 0
M  V30 15120 H 1383.42 -4.09983 0.722464 0
M  V30 15121 H 1383.95 -3.3001 2.22122 0
M  V30 15122 H 1380.69 -4.10831 5.10782 0
M  V30 15123 H 1380.21 -4.83086 3.55511 0
M  V30 15124 H 1381.89 -4.97995 4.1305 0
M  V30 15125 N 1382.02 -1.04567 -1.17913 0
M  V30 15126 C 1382.97 -0.641119 -2.21717 0
M  V30 15127 C 1383.94 0.353585 -1.62293 0
M  V30 15128 O 1385.13 0.246427 -1.89202 0
M  V30 15129 C 1382.27 -0.0154726 -3.45097 0
M  V30 15130 C 1381.38 -1.05825 -4.18838 0
M  V30 15131 C 1380.51 -0.400588 -5.29687 0
M  V30 15132 C 1379.55 -1.42811 -5.95207 0
M  V30 15133 N 1378.69 -0.795059 -6.97584 0
M  V30 15134 H 1383.53 -1.5308 -2.55676 0
M  V30 15135 H 1381.07 -0.765715 -1.25599 0
M  V30 15136 H 1383.02 0.364653 -4.15603 0
M  V30 15137 H 1381.65 0.837704 -3.11741 0
M  V30 15138 H 1380.71 -1.55627 -3.47109 0
M  V30 15139 H 1382.02 -1.83849 -4.63682 0
M  V30 15140 H 1381.17 0.0334682 -6.06691 0
M  V30 15141 H 1379.91 0.411696 -4.85959 0
M  V30 15142 H 1378.92 -1.87225 -5.1694 0
M  V30 15143 H 1380.14 -2.24218 -6.41017 0
M  V30 15144 H 1378.09 -0.00317202 -6.56 0
M  V30 15145 H 1378 -1.51293 -7.40707 0
M  V30 15146 H 1379.27 -0.385567 -7.78546 0
M  V30 15147 N 1383.5 1.34231 -0.825823 0
M  V30 15148 C 1384.43 2.27366 -0.194964 0
M  V30 15149 C 1385.41 1.49029 0.650315 0
M  V30 15150 O 1386.6 1.7824 0.613424 0
M  V30 15151 C 1383.72 3.30796 0.727439 0
M  V30 15152 C 1382.77 4.26481 -0.0406869 0
M  V30 15153 S 1383.6 5.17151 -1.38981 0
M  V30 15154 C 1384.76 6.24115 -0.472354 0
M  V30 15155 H 1384.99 2.80524 -0.984559 0
M  V30 15156 H 1382.52 1.41323 -0.621875 0
M  V30 15157 H 1384.48 3.90875 1.25406 0
M  V30 15158 H 1383.14 2.76479 1.49058 0
M  V30 15159 H 1382.34 4.99651 0.660652 0
M  V30 15160 H 1381.94 3.7067 -0.497956 0
M  V30 15161 H 1384.23 6.76671 0.334956 0
M  V30 15162 H 1385.17 6.98303 -1.17383 0
M  V30 15163 H 1385.58 5.64469 -0.0594964 0
M  V30 15164 N 1384.98 0.581051 1.46498 0
M  V30 15165 C 1386.39 0.154032 1.86064 0
M  V30 15166 C 1386.74 -1.28247 1.48483 0
M  V30 15167 O 1385.87 -1.96845 0.898945 0
M  V30 15168 C 1386.46 0.272764 3.377 0
M  V30 15169 C 1385.02 -0.0993724 3.76269 0
M  V30 15170 C 1384.17 0.60947 2.70519 0
M  V30 15171 H 1387.12 0.78937 1.37676 0
M  V30 15172 H 1387.14 -0.502326 3.7717 0
M  V30 15173 H 1386.65 1.31837 3.65021 0
M  V30 15174 H 1384.75 -1.14517 3.54565 0
M  V30 15175 H 1384.87 0.275791 4.78306 0
M  V30 15176 H 1383.23 0.0499083 2.54651 0
M  V30 15177 H 1384.01 1.65669 3.0068 0
M  V30 15178 N 1386.46 -1.54343 0.318742 0
M  V30 15179 C 1387.87 -1.59564 -0.034068 0
M  V30 15180 C 1388.07 -1.33539 -1.50896 0
M  V30 15181 O 1387.13 -1.11746 -2.26427 0
M  V30 15182 C 1388.44 -2.98291 0.379827 0
M  V30 15183 C 1389.99 -3.11255 0.330078 0
M  V30 15184 C 1390.47 -4.5232 0.719061 0
M  V30 15185 N 1391.96 -4.58295 0.67228 0
M  V30 15186 C 1392.69 -5.65551 0.945513 0
M  V30 15187 N 1392.19 -6.80767 1.28563 0
M  V30 15188 N 1393.98 -5.55305 0.871394 0
M  V30 15189 H 1386.13 -1.69518 1.27975 0
M  V30 15190 H 1388.39 -0.792627 0.520044 0
M  V30 15191 H 1388.1 -3.22319 1.40724 0
M  V30 15192 H 1387.97 -3.76319 -0.257606 0
M  V30 15193 H 1390.36 -2.86965 -0.688117 0
M  V30 15194 H 1390.44 -2.35342 1.00238 0
M  V30 15195 H 1390.09 -4.77342 1.73515 0
M  V30 15196 H 1390.02 -5.26594 0.0245001 0
M  V30 15197 H 1392.51 -3.75547 0.421059 0
M  V30 15198 H 1392.82 -7.58503 1.47963 0
M  V30 15199 H 1391.17 -6.82275 1.32385 0
M  V30 15200 H 1394.36 -4.64171 0.605205 0
M  V30 15201 H 1394.53 -6.38806 1.08769 0
M  V30 15202 N 1387.94 -0.0468143 -1.5753 0
M  V30 15203 C 1389.17 0.636723 -1.96544 0
M  V30 15204 C 1389.57 1.65169 -0.922814 0
M  V30 15205 O 1388.92 1.83417 0.101892 0
M  V30 15206 C 1388.98 1.38435 -3.31777 0
M  V30 15207 C 1388.64 0.525714 -4.53966 0
M  V30 15208 C 1389.64 -0.206392 -5.1949 0
M  V30 15209 C 1387.32 0.457919 -5.00208 0
M  V30 15210 C 1389.32 -0.994779 -6.29589 0
M  V30 15211 C 1387.01 -0.334159 -6.10186 0
M  V30 15212 C 1388 -1.0592 -6.74737 0
M  V30 15213 O 1387.69 -1.83826 -7.826 0
M  V30 15214 H 1387.42 0.179197 -0.651816 0
M  V30 15215 H 1389.98 -0.108214 -2.05115 0
M  V30 15216 H 1388.21 2.17482 -3.19748 0
M  V30 15217 H 1389.9 1.9577 -3.55568 0
M  V30 15218 H 1390.66 -0.163457 -4.84724 0
M  V30 15219 H 1386.54 1.01185 -4.49758 0
M  V30 15220 H 1390.09 -1.56121 -6.79906 0
M  V30 15221 H 1385.98 -0.378748 -6.44388 0
M  V30 15222 H 1386.75 -1.75991 -7.99356 0
M  V30 15223 N 1389.41 1.55964 0.226527 0
M  V30 15224 C 1390.65 1.80518 0.958774 0
M  V30 15225 C 1391.02 0.619549 1.81729 0
M  V30 15226 O 1392.22 0.744294 2.5829 0
M  V30 15227 C 1390.49 3.09939 1.77968 0
M  V30 15228 S 1392.05 3.5579 2.56824 0
M  V30 15229 H 1388.87 0.633829 0.322151 0
M  V30 15230 H 1391.47 1.94203 0.224786 0
M  V30 15231 H 1390.17 3.94277 1.13903 0
M  V30 15232 H 1389.7 2.99047 2.55605 0
M  V30 15233 H 1391.72 3.18734 3.80293 0
M  V30 15234 N 1390.89 -0.493031 1.4969 0
M  V30 15235 C 1391.82 -1.60215 1.69863 0
M  V30 15236 C 1392.8 -1.61053 0.547362 0
M  V30 15237 O 1393.99 -1.77667 0.784093 0
M  V30 15238 C 1391.12 -2.98662 1.77252 0
M  V30 15239 C 1390.07 -3.1269 2.92248 0
M  V30 15240 C 1389.4 -4.52567 2.84758 0
M  V30 15241 C 1390.7 -2.91965 4.33074 0
M  V30 15242 H 1392.39 -1.43587 2.62723 0
M  V30 15243 H 1389.94 -0.689334 1.26429 0
M  V30 15244 H 1391.89 -3.7616 1.89951 0
M  V30 15245 H 1390.62 -3.16397 0.809976 0
M  V30 15246 H 1389.27 -2.37619 2.79164 0
M  V30 15247 H 1388.92 -4.6719 1.86394 0
M  V30 15248 H 1388.62 -4.62893 3.61944 0
M  V30 15249 H 1390.15 -5.32116 2.99475 0
M  V30 15250 H 1391.56 -3.59228 4.46798 0
M  V30 15251 H 1389.96 -3.13756 5.11544 0
M  V30 15252 H 1391.03 -1.88015 4.46966 0
M  V30 15253 N 1392.37 -1.38898 -0.744656 0
M  V30 15254 C 1393.62 -1.35595 -1.50401 0
M  V30 15255 C 1393.95 0.0511979 -1.94433 0
M  V30 15256 O 1393.2 1.03011 -1.66395 0
M  V30 15257 C 1393.5 -2.2658 -2.76398 0
M  V30 15258 C 1393.17 -3.74389 -2.51283 0
M  V30 15259 C 1391.83 -4.14666 -2.44143 0
M  V30 15260 C 1394.18 -4.67916 -2.29573 0
M  V30 15261 C 1391.51 -5.46545 -2.1332 0
M  V30 15262 C 1393.86 -6.00063 -2.00269 0
M  V30 15263 C 1392.52 -6.39413 -1.91591 0
M  V30 15264 H 1391.79 -0.496176 -0.550355 0
M  V30 15265 H 1394.44 -1.71328 -0.855514 0
M  V30 15266 H 1392.75 -1.83933 -3.45942 0
M  V30 15267 H 1394.44 -2.21323 -3.34391 0
M  V30 15268 H 1391.03 -3.42463 -2.57715 0
M  V30 15269 H 1395.22 -4.37639 -2.34063 0
M  V30 15270 H 1390.47 -5.75966 -2.05117 0
M  V30 15271 H 1394.65 -6.72068 -1.82476 0
M  V30 15272 H 1392.27 -7.41524 -1.67472 0
M  V30 15273 N 1393.85 0.973806 -1.23914 0
M  V30 15274 C 1395.1 1.71259 -1.07307 0
M  V30 15275 C 1395.42 1.91064 0.389831 0
M  V30 15276 O 1394.69 1.48401 1.27883 0
M  V30 15277 H 1393.27 0.634588 -0.39409 0
M  V30 15278 H 1395.93 1.17184 -1.55737 0
M  V30 15279 H 1395.03 2.69953 -1.56626 0
M  V30 15280 N 1395.33 1.05191 1.17357 0
M  V30 15281 C 1396.6 0.675826 1.83554 0
M  V30 15282 C 1396.98 -0.843812 1.93502 0
M  V30 15283 O 1396.33 -1.74975 1.46956 0
M  V30 15284 C 1396.54 1.36481 3.21207 0
M  V30 15285 C 1397.89 1.50285 3.97114 0
M  V30 15286 O 1398.91 1.32382 3.30686 0
M  V30 15287 O 1397.77 1.79562 5.16159 0
M  V30 15288 H 1394.87 0.237898 0.792044 0
M  V30 15289 H 1397.41 1.1515 1.24654 0
M  V30 15290 H 1396.18 2.40156 3.08935 0
M  V30 15291 H 1395.81 0.878491 3.87774 0
M  V30 15292 N 1396.8 -1.33791 0.83293 0
M  V30 15293 C 1398.03 -2.02187 0.439077 0
M  V30 15294 C 1398.45 -1.62692 -0.957958 0
M  V30 15295 O 1397.8 -0.837302 -1.62159 0
M  V30 15296 C 1397.86 -3.57395 0.543232 0
M  V30 15297 O 1397.58 -3.95463 1.88522 0
M  V30 15298 C 1399.08 -4.43061 0.145567 0
M  V30 15299 H 1396.3 -0.64778 0.174992 0
M  V30 15300 H 1398.84 -1.7085 1.12386 0
M  V30 15301 H 1397 -3.87287 -0.0935746 0
M  V30 15302 H 1397.41 -4.90164 1.86653 0
M  V30 15303 H 1398.88 -5.51342 0.269507 0
M  V30 15304 H 1399.36 -4.29628 -0.911934 0
M  V30 15305 H 1399.97 -4.18517 0.756572 0
M  V30 15306 N 1398.28 -0.588812 -1.46187 0
M  V30 15307 C 1399.53 -0.0768417 -2.02654 0
M  V30 15308 C 1399.86 1.28213 -1.4586 0
M  V30 15309 O 1399.14 1.8415 -0.626022 0
M  V30 15310 C 1399.42 -0.0176429 -3.60096 0
M  V30 15311 C 1399.27 -1.40595 -4.27262 0
M  V30 15312 C 1400.59 0.679864 -4.34817 0
M  V30 15313 H 1397.71 -0.0293981 -0.736413 0
M  V30 15314 H 1400.35 -0.757183 -1.74261 0
M  V30 15315 H 1398.5 0.56174 -3.84417 0
M  V30 15316 H 1400.17 -2.03097 -4.14185 0
M  V30 15317 H 1398.42 -1.97196 -3.86388 0
M  V30 15318 H 1399.09 -1.31694 -5.3606 0
M  V30 15319 H 1401.56 0.1876 -4.15677 0
M  V30 15320 H 1400.44 0.690333 -5.44542 0
M  V30 15321 H 1400.7 1.74237 -4.06318 0
M  V30 15322 N 1399.76 1.54172 -0.326923 0
M  V30 15323 C 1400.71 2.25931 0.552996 0
M  V30 15324 C 1401.7 1.27463 1.11578 0
M  V30 15325 O 1402.91 1.45228 1.06343 0
M  V30 15326 H 1399.28 0.725741 0.196988 0
M  V30 15327 H 1401.25 2.98307 -0.0744603 0
M  V30 15328 C 1400 3.03276 1.70056 0
M  V30 15329 H 1399.33 3.78865 1.27676 0
M  V30 15330 H 1400.77 3.56727 2.29177 0
M  V30 15331 C 1399.23 2.11775 2.62017 0
M  V30 15332 O 1399.76 1.70282 3.63822 0
M  V30 15333 N 1397.96 1.77195 2.30327 0
M  V30 15334 H 1397.51 2.11135 1.4758 0
M  V30 15335 H 1397.47 1.16253 2.92117 0
M  V30 15336 N 1401.24 0.0551678 1.57503 0
M  V30 15337 C 1402.47 -0.6272 1.97164 0
M  V30 15338 C 1402.88 -1.64143 0.932876 0
M  V30 15339 O 1402.24 -1.82314 -0.0824465 0
M  V30 15340 C 1402.29 -1.31057 3.36907 0
M  V30 15341 O 1402.01 -0.336951 4.36802 0
M  V30 15342 C 1403.51 -2.08232 3.91349 0
M  V30 15343 H 1400.73 -0.171196 0.648793 0
M  V30 15344 H 1403.28 0.122651 2.04132 0
M  V30 15345 H 1401.43 -2.01162 3.31078 0
M  V30 15346 H 1401.84 -0.825204 5.17968 0
M  V30 15347 H 1403.32 -2.51463 4.91397 0
M  V30 15348 H 1403.8 -2.93212 3.26991 0
M  V30 15349 H 1404.4 -1.43029 4.00528 0
M  V30 15350 N 1402.72 -1.56081 -0.218252 0
M  V30 15351 C 1403.68 -1.91851 -1.25402 0
M  V30 15352 C 1404.68 -0.797399 -1.39636 0
M  V30 15353 O 1405.87 -1.06511 -1.37844 0
M  V30 15354 C 1403 -2.17223 -2.6273 0
M  V30 15355 H 1404.19 -2.84493 -0.948882 0
M  V30 15356 H 1401.75 -1.49414 -0.458809 0
M  V30 15357 H 1402.48 -1.27144 -2.98337 0
M  V30 15358 H 1402.27 -2.98899 -2.53775 0
M  V30 15359 H 1403.76 -2.45981 -3.37466 0
M  V30 15360 N 1404.2 0.485086 -1.49949 0
M  V30 15361 C 1405.42 1.26648 -1.64241 0
M  V30 15362 C 1405.85 1.85359 -0.319939 0
M  V30 15363 O 1405.2 1.66628 0.714487 0
M  V30 15364 C 1405.25 2.36109 -2.72552 0
M  V30 15365 O 1404.36 3.40387 -2.32832 0
M  V30 15366 H 1403.7 0.373208 -0.549192 0
M  V30 15367 H 1406.23 0.578929 -1.96239 0
M  V30 15368 H 1406.24 2.81634 -2.95205 0
M  V30 15369 H 1404.91 1.92745 -3.6854 0
M  V30 15370 H 1403.49 3.0067 -2.20571 0
M  V30 15371 N 1405.67 1.39291 0.737279 0
M  V30 15372 C 1407.09 1.20845 1.04253 0
M  V30 15373 C 1407.29 0.0684513 2.01384 0
M  V30 15374 O 1406.35 -0.580615 2.45734 0
M  V30 15375 C 1407.66 2.54158 1.60699 0
M  V30 15376 C 1409.21 2.60983 1.72791 0
M  V30 15377 C 1409.68 3.94511 2.32647 0
M  V30 15378 N 1411.17 3.96138 2.4006 0
M  V30 15379 C 1411.91 4.96229 2.87306 0
M  V30 15380 N 1411.4 6.06716 3.34465 0
M  V30 15381 N 1413.2 4.83609 2.86494 0
M  V30 15382 H 1405.35 2.12196 0.0930416 0
M  V30 15383 H 1407.61 0.942289 0.103899 0
M  V30 15384 H 1407.32 3.38118 0.96795 0
M  V30 15385 H 1407.19 2.73715 2.59538 0
M  V30 15386 H 1409.58 1.77408 2.35818 0
M  V30 15387 H 1409.66 2.45278 0.726118 0
M  V30 15388 H 1409.3 4.78516 1.70249 0
M  V30 15389 H 1409.23 4.07536 3.33499 0
M  V30 15390 H 1411.72 3.16344 2.06725 0
M  V30 15391 H 1412.04 6.79002 3.6902 0
M  V30 15392 H 1410.38 6.10313 3.3248 0
M  V30 15393 H 1413.57 3.96396 2.48973 0
M  V30 15394 H 1413.75 5.6176 3.23001 0
M  V30 15395 N 1407.15 -0.967221 1.24429 0
M  V30 15396 C 1408.08 -2.06071 0.980314 0
M  V30 15397 C 1409.06 -1.62372 -0.0860829 0
M  V30 15398 O 1410.25 -1.88431 0.0509524 0
M  V30 15399 C 1407.37 -3.35289 0.479452 0
M  V30 15400 C 1406.42 -3.9794 1.53447 0
M  V30 15401 S 1407.25 -4.3551 3.11595 0
M  V30 15402 C 1408.41 -5.67865 2.63212 0
M  V30 15403 H 1408.64 -2.28145 1.90623 0
M  V30 15404 H 1406.17 -1.10519 1.07819 0
M  V30 15405 H 1408.13 -4.10027 0.197103 0
M  V30 15406 H 1406.79 -3.11201 -0.425755 0
M  V30 15407 H 1405.99 -4.91067 1.13445 0
M  V30 15408 H 1405.59 -3.29634 1.76685 0
M  V30 15409 H 1407.88 -6.45405 2.06054 0
M  V30 15410 H 1408.82 -6.12724 3.5493 0
M  V30 15411 H 1409.23 -5.26496 2.03623 0
M  V30 15412 N 1408.63 -1.05812 -1.16797 0
M  V30 15413 C 1409.54 -0.675541 -2.24663 0
M  V30 15414 C 1410.56 0.30622 -1.71284 0
M  V30 15415 O 1411.73 0.156752 -2.00789 0
M  V30 15416 C 1408.8 -0.0627149 -3.46643 0
M  V30 15417 C 1407.86 -1.09572 -4.15081 0
M  V30 15418 C 1407.09 -0.512044 -5.31238 0
M  V30 15419 O 1407.31 0.676665 -5.66372 0
M  V30 15420 O 1406.25 -1.24936 -5.88791 0
M  V30 15421 H 1410.07 -1.57467 -2.59688 0
M  V30 15422 H 1407.66 -0.830073 -1.24218 0
M  V30 15423 H 1409.54 0.277543 -4.20485 0
M  V30 15424 H 1408.22 0.80997 -3.13403 0
M  V30 15425 H 1407.12 -1.48807 -3.4323 0
M  V30 15426 H 1408.46 -1.93977 -4.52365 0
M  V30 15427 N 1410.11 1.33347 -0.840014 0
M  V30 15428 C 1411.33 2.02485 -0.448856 0
M  V30 15429 C 1411.76 1.62781 0.942543 0
M  V30 15430 O 1411.12 0.82099 1.61646 0
M  V30 15431 C 1411.16 3.55928 -0.578582 0
M  V30 15432 O 1410.27 4.10507 0.394695 0
M  V30 15433 H 1409.61 0.63848 -0.182317 0
M  V30 15434 H 1412.14 1.70221 -1.13516 0
M  V30 15435 H 1412.15 4.05391 -0.460653 0
M  V30 15436 H 1410.82 3.8417 -1.5933 0
M  V30 15437 H 1409.4 3.72164 0.234227 0
M  V30 15438 N 1411.59 0.596556 1.45873 0
M  V30 15439 C 1412.81 0.0934926 2.06689 0
M  V30 15440 C 1413.23 -1.21743 1.44305 0
M  V30 15441 O 1412.59 -1.73912 0.553253 0
M  V30 15442 C 1412.64 -0.0643337 3.61443 0
M  V30 15443 O 1412.36 1.19472 4.21495 0
M  V30 15444 C 1413.86 -0.600141 4.39219 0
M  V30 15445 H 1411.08 0.0637846 0.667961 0
M  V30 15446 H 1413.62 0.821159 1.87289 0
M  V30 15447 H 1411.78 -0.742278 3.80222 0
M  V30 15448 H 1412.19 1.01735 5.14539 0
M  V30 15449 H 1413.67 -0.6597 5.48044 0
M  V30 15450 H 1414.14 -1.62009 4.08227 0
M  V30 15451 H 1414.75 0.0433915 4.25278 0
M  V30 15452 N 1413.06 -1.53996 0.335095 0
M  V30 15453 C 1414.31 -2.00375 -0.263475 0
M  V30 15454 C 1414.63 -1.22471 -1.51742 0
M  V30 15455 O 1413.9 -0.329604 -1.93107 0
M  V30 15456 H 1412.48 -0.740229 -0.100347 0
M  V30 15457 H 1415.14 -1.89531 0.454302 0
M  V30 15458 H 1414.24 -3.07874 -0.511834 0
M  V30 15459 N 1414.54 -0.0635198 -1.57472 0
M  V30 15460 C 1415.47 0.90431 -2.15278 0
M  V30 15461 C 1416.45 1.31609 -1.07764 0
M  V30 15462 O 1417.64 1.38861 -1.35762 0
M  V30 15463 C 1414.77 2.17483 -2.70774 0
M  V30 15464 C 1413.72 1.90272 -3.8338 0
M  V30 15465 C 1413.05 3.23885 -4.25444 0
M  V30 15466 C 1414.35 1.21454 -5.07983 0
M  V30 15467 H 1416.04 0.422786 -2.964 0
M  V30 15468 H 1413.59 0.201918 -1.42577 0
M  V30 15469 H 1415.54 2.856 -3.09856 0
M  V30 15470 H 1414.26 2.67863 -1.86861 0
M  V30 15471 H 1412.92 1.24564 -3.44789 0
M  V30 15472 H 1412.57 3.72089 -3.38465 0
M  V30 15473 H 1412.27 3.06472 -5.01347 0
M  V30 15474 H 1413.8 3.93212 -4.67137 0
M  V30 15475 H 1415.21 1.79625 -5.44433 0
M  V30 15476 H 1413.61 1.14327 -5.89109 0
M  V30 15477 H 1414.68 0.19238 -4.84518 0
M  V30 15478 N 1416.02 1.56195 0.209972 0
M  V30 15479 C 1417.43 1.69811 0.775969 0
M  V30 15480 C 1417.78 0.667543 1.84495 0
M  V30 15481 O 1416.91 -0.179043 2.15658 0
M  V30 15482 C 1417.5 3.07869 1.41429 0
M  V30 15483 C 1416.06 3.233 1.92755 0
M  V30 15484 C 1415.21 2.6575 0.791958 0
M  V30 15485 H 1418.16 1.58693 -0.0148727 0
M  V30 15486 H 1418.18 3.04371 2.28339 0
M  V30 15487 H 1417.69 3.82853 0.63604 0
M  V30 15488 H 1415.79 2.53206 2.73345 0
M  V30 15489 H 1415.91 4.30645 2.09956 0
M  V30 15490 H 1414.27 2.24535 1.20234 0
M  V30 15491 H 1415.05 3.4329 0.0261877 0
M  V30 15492 N 1417.5 -0.477127 1.50204 0
M  V30 15493 C 1418.43 -1.58405 1.71552 0
M  V30 15494 C 1419.41 -1.60463 0.564413 0
M  V30 15495 O 1420.59 -1.76826 0.802893 0
M  V30 15496 C 1417.72 -2.96765 1.8041 0
M  V30 15497 C 1416.68 -3.09573 2.95548 0
M  V30 15498 C 1416 -4.49522 2.89542 0
M  V30 15499 C 1417.3 -2.87356 4.36147 0
M  V30 15500 H 1419 -1.40792 2.64231 0
M  V30 15501 H 1416.54 -0.675886 1.27153 0
M  V30 15502 H 1418.5 -3.74125 1.9393 0
M  V30 15503 H 1417.22 -3.1552 0.843489 0
M  V30 15504 H 1415.88 -2.34645 2.81669 0
M  V30 15505 H 1415.53 -4.65186 1.91339 0
M  V30 15506 H 1415.23 -4.59028 3.66834 0
M  V30 15507 H 1416.75 -5.28909 3.05102 0
M  V30 15508 H 1418.17 -3.54469 4.50583 0
M  V30 15509 H 1416.56 -3.08313 5.14843 0
M  V30 15510 H 1417.63 -1.83264 4.48935 0
M  V30 15511 N 1418.98 -1.3968 -0.729882 0
M  V30 15512 C 1420.39 -1.21396 -1.0361 0
M  V30 15513 C 1420.59 -0.0791302 -2.01345 0
M  V30 15514 O 1419.65 0.567575 -2.46038 0
M  V30 15515 C 1420.96 -2.55006 -1.59349 0
M  V30 15516 C 1422.51 -2.61896 -1.71405 0
M  V30 15517 C 1422.98 -3.9574 -2.30552 0
M  V30 15518 N 1424.48 -3.97406 -2.37955 0
M  V30 15519 C 1425.21 -4.97745 -2.8467 0
M  V30 15520 N 1424.71 -6.08482 -3.31243 0
M  V30 15521 N 1426.5 -4.85121 -2.83925 0
M  V30 15522 H 1418.65 -2.12242 -0.081787 0
M  V30 15523 H 1420.91 -0.942827 -0.0989005 0
M  V30 15524 H 1420.62 -3.38626 -0.950005 0
M  V30 15525 H 1420.49 -2.75087 -2.58083 0
M  V30 15526 H 1422.88 -1.78656 -2.34874 0
M  V30 15527 H 1422.96 -2.45659 -0.7131 0
M  V30 15528 H 1422.61 -4.79412 -1.67709 0
M  V30 15529 H 1422.54 -4.09299 -3.31334 0
M  V30 15530 H 1425.03 -3.17435 -2.05044 0
M  V30 15531 H 1425.34 -6.8095 -3.65414 0
M  V30 15532 H 1423.68 -6.12068 -3.29239 0
M  V30 15533 H 1426.88 -3.97711 -2.46867 0
M  V30 15534 H 1427.05 -5.63465 -3.20017 0
M  V30 15535 N 1420.45 0.960609 -1.2494 0
M  V30 15536 C 1421.7 1.69884 -1.08731 0
M  V30 15537 C 1422.02 1.92018 0.372602 0
M  V30 15538 O 1423.22 2.6348 0.655018 0
M  V30 15539 C 1421.68 3.05815 -1.8975 0
M  V30 15540 C 1421.29 2.91498 -3.40196 0
M  V30 15541 C 1423.03 3.83462 -1.82092 0
M  V30 15542 C 1420.94 4.22783 -4.13532 0
M  V30 15543 H 1419.87 0.637087 -0.403281 0
M  V30 15544 H 1422.52 1.06987 -1.49084 0
M  V30 15545 H 1420.9 3.69582 -1.42216 0
M  V30 15546 H 1422.07 2.367 -3.9536 0
M  V30 15547 H 1420.39 2.27312 -3.48882 0
M  V30 15548 H 1422.99 4.8069 -2.34181 0
M  V30 15549 H 1423.33 4.08782 -0.787597 0
M  V30 15550 H 1423.86 3.26435 -2.27344 0
M  V30 15551 H 1420.6 4.02653 -5.17253 0
M  V30 15552 H 1420.12 4.77369 -3.63152 0
M  V30 15553 H 1421.8 4.91361 -4.2092 0
M  V30 15554 N 1421.93 1.0643 1.16234 0
M  V30 15555 C 1422.88 0.646274 2.18649 0
M  V30 15556 C 1423.87 -0.323768 1.57609 0
M  V30 15557 O 1425.06 -0.138991 1.76453 0
M  V30 15558 C 1422.19 0.0356797 3.43281 0
M  V30 15559 C 1421.27 1.0303 4.11395 0
M  V30 15560 N 1421.66 2.2064 4.55139 0
M  V30 15561 C 1419.96 0.861544 4.376 0
M  V30 15562 C 1420.66 2.83665 5.07848 0
M  V30 15563 N 1419.64 2.11384 5.00817 0
M  V30 15564 H 1423.44 1.54217 2.50189 0
M  V30 15565 H 1420.96 0.936176 1.32701 0
M  V30 15566 H 1422.95 -0.281637 4.15948 0
M  V30 15567 H 1421.61 -0.855453 3.13228 0
M  V30 15568 H 1422.62 2.58409 4.48826 0
M  V30 15569 H 1419.3 0.0225171 4.17494 0
M  V30 15570 H 1420.69 3.83473 5.51723 0
M  V30 15571 N 1423.41 -1.329 0.847073 0
M  V30 15572 C 1424.66 -1.97803 0.447417 0
M  V30 15573 C 1424.99 -1.6691 -0.9927 0
M  V30 15574 O 1424.26 -0.953315 -1.69535 0
M  V30 15575 C 1424.55 -3.53657 0.678135 0
M  V30 15576 C 1424.4 -3.94207 2.16612 0
M  V30 15577 C 1425.72 -4.39909 0.129589 0
M  V30 15578 H 1422.84 -0.718514 0.164034 0
M  V30 15579 H 1425.48 -1.57407 1.0641 0
M  V30 15580 H 1423.63 -3.88198 0.153222 0
M  V30 15581 H 1425.3 -3.69883 2.75653 0
M  V30 15582 H 1423.55 -3.43641 2.64752 0
M  V30 15583 H 1424.22 -5.02791 2.27827 0
M  V30 15584 H 1426.69 -4.12061 0.578371 0
M  V30 15585 H 1425.57 -5.47963 0.320648 0
M  V30 15586 H 1425.83 -4.31391 -0.967167 0
M  V30 15587 N 1424.89 -0.604284 -1.45555 0
M  V30 15588 C 1426.11 -0.102634 -2.07146 0
M  V30 15589 C 1426.54 1.20239 -1.44652 0
M  V30 15590 O 1425.9 1.73133 -0.538033 0
M  V30 15591 C 1425.94 0.0270231 -3.6059 0
M  V30 15592 O 1425.05 1.0781 -3.98059 0
M  V30 15593 H 1424.39 -0.0725667 -0.660023 0
M  V30 15594 H 1426.92 -0.833355 -1.86859 0
M  V30 15595 H 1426.93 0.226299 -4.07372 0
M  V30 15596 H 1425.6 -0.925896 -4.05463 0
M  V30 15597 H 1424.18 0.855552 -3.62953 0
M  V30 15598 N 1426.37 1.53816 -0.343257 0
M  V30 15599 C 1427.61 2.00512 0.252845 0
M  V30 15600 C 1427.94 1.23274 1.51091 0
M  V30 15601 O 1427.21 0.339841 1.9293 0
M  V30 15602 H 1425.79 0.740751 0.0964202 0
M  V30 15603 H 1428.45 1.89288 -0.464347 0
M  V30 15604 H 1427.54 3.08142 0.495499 0
M  V30 15605 N 1427.84 0.0718701 1.57436 0
M  V30 15606 C 1429.07 -0.609701 1.98236 0
M  V30 15607 C 1429.49 -1.6235 0.949959 0
M  V30 15608 O 1428.85 -1.81103 -0.0844281 0
M  V30 15609 C 1428.9 -1.2547 3.38068 0
M  V30 15610 O 1428 -2.37055 3.37459 0
M  V30 15611 H 1427.35 -0.15679 0.645223 0
M  V30 15612 H 1429.88 0.146407 2.04076 0
M  V30 15613 H 1429.89 -1.60152 3.75254 0
M  V30 15614 H 1428.56 -0.511842 4.12738 0
M  V30 15615 H 1427.14 -2.04165 3.12043 0
M  V30 15616 N 1429.32 -1.56304 -0.201686 0
M  V30 15617 C 1430.55 -1.84341 -0.939465 0
M  V30 15618 C 1430.97 -0.653544 -1.77128 0
M  V30 15619 O 1430.32 0.377813 -1.78546 0
M  V30 15620 C 1430.37 -3.11111 -1.84098 0
M  V30 15621 O 1430.09 -4.25509 -1.04276 0
M  V30 15622 C 1431.6 -3.52279 -2.69099 0
M  V30 15623 H 1428.82 -0.61232 -0.274419 0
M  V30 15624 H 1431.36 -2.03409 -0.210924 0
M  V30 15625 H 1429.51 -2.9396 -2.52322 0
M  V30 15626 H 1429.93 -4.97655 -1.6565 0
M  V30 15627 H 1431.4 -4.43965 -3.28023 0
M  V30 15628 H 1431.88 -2.74959 -3.42482 0
M  V30 15629 H 1432.49 -3.71939 -2.06256 0
M  V30 15630 N 1430.8 0.469154 -1.50455 0
M  V30 15631 C 1432.05 1.21788 -1.60781 0
M  V30 15632 C 1432.36 1.93054 -0.314576 0
M  V30 15633 O 1433.57 2.69873 -0.296773 0
M  V30 15634 C 1432.02 2.21305 -2.83817 0
M  V30 15635 C 1431.63 1.55833 -4.20024 0
M  V30 15636 C 1433.38 2.96808 -3.03489 0
M  V30 15637 C 1431.28 2.53648 -5.34244 0
M  V30 15638 H 1430.21 0.45827 -0.598752 0
M  V30 15639 H 1432.86 0.488159 -1.76888 0
M  V30 15640 H 1431.25 2.97577 -2.61273 0
M  V30 15641 H 1432.42 0.853371 -4.52829 0
M  V30 15642 H 1430.74 0.926046 -4.05972 0
M  V30 15643 H 1433.33 3.70017 -3.85994 0
M  V30 15644 H 1433.68 3.56307 -2.15293 0
M  V30 15645 H 1434.21 2.27648 -3.26223 0
M  V30 15646 H 1430.95 1.98885 -6.246 0
M  V30 15647 H 1430.47 3.22291 -5.05854 0
M  V30 15648 H 1432.15 3.15438 -5.64897 0
M  V30 15649 N 1432.28 1.40065 0.722464 0
M  V30 15650 C 1433.24 1.39544 1.81825 0
M  V30 15651 C 1434.24 0.290385 1.58156 0
M  V30 15652 O 1435.43 0.54894 1.65325 0
M  V30 15653 C 1432.56 1.18041 3.19811 0
M  V30 15654 H 1433.76 2.37063 1.83687 0
M  V30 15655 H 1431.31 1.25813 0.927404 0
M  V30 15656 H 1432.04 0.212536 3.23603 0
M  V30 15657 H 1431.83 1.98079 3.38389 0
M  V30 15658 H 1433.32 1.20447 3.99853 0
M  V30 15659 N 1433.76 -0.95397 1.25448 0
M  V30 15660 C 1435.01 -1.69305 1.09631 0
M  V30 15661 C 1435.32 -1.92213 -0.362413 0
M  V30 15662 O 1436.53 -2.63824 -0.641036 0
M  V30 15663 C 1434.98 -3.04805 1.91369 0
M  V30 15664 C 1434.59 -2.8969 3.41737 0
M  V30 15665 C 1436.33 -3.82491 1.84123 0
M  V30 15666 C 1434.24 -4.20584 4.15768 0
M  V30 15667 H 1433.17 -0.63494 0.406654 0
M  V30 15668 H 1435.82 -1.06195 1.49649 0
M  V30 15669 H 1434.2 -3.68822 1.44174 0
M  V30 15670 H 1435.38 -2.346 3.9661 0
M  V30 15671 H 1433.69 -2.25458 3.50082 0
M  V30 15672 H 1436.29 -4.79442 2.36727 0
M  V30 15673 H 1436.63 -4.08358 0.809265 0
M  V30 15674 H 1437.17 -3.25224 2.29072 0
M  V30 15675 H 1433.9 -3.99905 5.19381 0
M  V30 15676 H 1433.42 -4.75436 3.65678 0
M  V30 15677 H 1435.1 -4.89122 4.2352 0
M  V30 15678 N 1435.24 -1.07045 -1.15668 0
M  V30 15679 C 1436.17 -0.709413 -2.22463 0
M  V30 15680 C 1437.15 0.30169 -1.67403 0
M  V30 15681 O 1438.33 0.175131 -1.93409 0
M  V30 15682 C 1435.46 -0.103121 -3.47147 0
M  V30 15683 C 1434.42 -1.04103 -4.15146 0
M  V30 15684 C 1433.74 -0.297656 -5.33871 0
M  V30 15685 C 1435.04 -2.37332 -4.65264 0
M  V30 15686 H 1436.74 -1.60227 -2.52918 0
M  V30 15687 H 1434.28 -0.771846 -1.21567 0
M  V30 15688 H 1436.23 0.161371 -4.21091 0
M  V30 15689 H 1434.96 0.824792 -3.16014 0
M  V30 15690 H 1433.62 -1.2904 -3.43139 0
M  V30 15691 H 1433.27 0.633618 -4.98993 0
M  V30 15692 H 1432.97 -0.922789 -5.80309 0
M  V30 15693 H 1434.49 -0.0408892 -6.10586 0
M  V30 15694 H 1435.9 -2.1674 -5.30751 0
M  V30 15695 H 1434.3 -2.95412 -5.22352 0
M  V30 15696 H 1435.37 -2.99859 -3.81068 0
M  V30 15697 N 1436.71 1.32449 -0.85411 0
M  V30 15698 C 1437.66 2.2889 -0.296341 0
M  V30 15699 C 1438.63 1.55024 0.596378 0
M  V30 15700 O 1439.82 1.8325 0.531406 0
M  V30 15701 C 1436.96 3.41315 0.509729 0
M  V30 15702 C 1436.07 4.30062 -0.40872 0
M  V30 15703 C 1435.2 5.29616 0.409928 0
M  V30 15704 C 1434.24 6.10005 -0.505953 0
M  V30 15705 N 1433.38 7.01559 0.275483 0
M  V30 15706 H 1438.22 2.75989 -1.12401 0
M  V30 15707 H 1435.76 1.35787 -0.565717 0
M  V30 15708 H 1437.71 4.05218 0.992697 0
M  V30 15709 H 1436.34 2.95367 1.30223 0
M  V30 15710 H 1435.4 3.66745 -1.01007 0
M  V30 15711 H 1436.71 4.86255 -1.11165 0
M  V30 15712 H 1435.86 5.99119 0.956083 0
M  V30 15713 H 1434.6 4.74039 1.14623 0
M  V30 15714 H 1433.61 5.39406 -1.064 0
M  V30 15715 H 1434.83 6.67667 -1.24086 0
M  V30 15716 H 1432.78 6.48412 0.994887 0
M  V30 15717 H 1432.69 7.55102 -0.368426 0
M  V30 15718 H 1433.96 7.75349 0.803382 0
M  V30 15719 N 1438.19 0.611994 1.45232 0
M  V30 15720 C 1439.61 0.276005 1.57195 0
M  V30 15721 C 1439.81 -1.22136 1.60266 0
M  V30 15722 O 1438.86 -2.00459 1.53533 0
M  V30 15723 C 1440.18 0.951064 2.85263 0
M  V30 15724 C 1441.72 0.927398 2.98945 0
M  V30 15725 C 1442.2 1.58255 4.2979 0
M  V30 15726 N 1443.69 1.54825 4.36559 0
M  V30 15727 C 1444.43 2.02428 5.3648 0
M  V30 15728 N 1443.92 2.58137 6.42913 0
M  V30 15729 N 1445.71 1.9317 5.27865 0
M  V30 15730 H 1437.87 1.58418 1.41483 0
M  V30 15731 H 1440.13 0.663879 0.676734 0
M  V30 15732 H 1439.83 2.00557 2.88912 0
M  V30 15733 H 1439.71 0.477044 3.74171 0
M  V30 15734 H 1442.1 -0.118571 2.94862 0
M  V30 15735 H 1442.18 1.43973 2.11437 0
M  V30 15736 H 1441.82 2.62787 4.34632 0
M  V30 15737 H 1441.75 1.04521 5.16123 0
M  V30 15738 H 1444.24 1.14133 3.60253 0
M  V30 15739 H 1444.55 2.92243 7.15412 0
M  V30 15740 H 1442.9 2.62179 6.43652 0
M  V30 15741 H 1446.09 1.49384 4.43624 0
M  V30 15742 H 1446.26 2.30582 6.05587 0
M  V30 15743 N 1439.67 -1.53632 0.351409 0
M  V30 15744 C 1440.9 -2.05458 -0.243852 0
M  V30 15745 C 1441.31 -1.22588 -1.43589 0
M  V30 15746 O 1440.67 -0.263088 -1.80594 0
M  V30 15747 C 1440.72 -3.55586 -0.651226 0
M  V30 15748 O 1440.44 -4.35313 0.493415 0
M  V30 15749 C 1441.94 -4.23614 -1.30637 0
M  V30 15750 H 1439.16 -0.669443 -0.0456828 0
M  V30 15751 H 1441.71 -1.98149 0.505675 0
M  V30 15752 H 1439.86 -3.63091 -1.35068 0
M  V30 15753 H 1440.28 -5.24234 0.167107 0
M  V30 15754 H 1441.75 -5.30022 -1.5421 0
M  V30 15755 H 1442.23 -3.76449 -2.26236 0
M  V30 15756 H 1442.83 -4.20323 -0.648738 0
M  V30 15757 N 1441.15 -0.0802183 -1.57396 0
M  V30 15758 C 1442.06 0.898597 -2.16708 0
M  V30 15759 C 1443.07 1.321 -1.1325 0
M  V30 15760 O 1444.25 1.39197 -1.45554 0
M  V30 15761 C 1441.31 2.14501 -2.72379 0
M  V30 15762 C 1440.38 1.77822 -3.9074 0
M  V30 15763 C 1439.61 2.96521 -4.43747 0
M  V30 15764 O 1439.83 4.10797 -3.9573 0
M  V30 15765 O 1438.77 2.75849 -5.34968 0
M  V30 15766 H 1442.59 0.424027 -3.00725 0
M  V30 15767 H 1440.18 0.14332 -1.48711 0
M  V30 15768 H 1442.06 2.87575 -3.08024 0
M  V30 15769 H 1440.73 2.61039 -1.91416 0
M  V30 15770 H 1439.64 1.01974 -3.59934 0
M  V30 15771 H 1440.97 1.36059 -4.73021 0
M  V30 15772 N 1442.63 1.56409 0.193394 0
M  V30 15773 C 1443.87 1.82511 0.920268 0
M  V30 15774 C 1444.23 0.657957 1.80374 0
M  V30 15775 O 1445.43 0.798914 2.56653 0
M  V30 15776 C 1443.7 3.13644 1.71354 0
M  V30 15777 S 1445.26 3.61158 2.4922 0
M  V30 15778 H 1442.08 0.64052 0.308634 0
M  V30 15779 H 1444.68 1.94637 0.183542 0
M  V30 15780 H 1443.38 3.96604 1.05514 0
M  V30 15781 H 1442.92 3.04402 2.49205 0
M  V30 15782 H 1444.93 3.26729 3.73447 0
M  V30 15783 N 1444.1 -0.461169 1.50702 0
M  V30 15784 C 1445.04 -1.57562 1.66453 0
M  V30 15785 C 1446.05 -1.53381 0.545726 0
M  V30 15786 O 1447.24 -1.58589 0.819254 0
M  V30 15787 C 1444.34 -2.9646 1.64209 0
M  V30 15788 C 1443.51 -3.25405 2.92285 0
M  V30 15789 C 1442.57 -4.43906 2.82549 0
M  V30 15790 O 1441.6 -4.43726 3.56505 0
M  V30 15791 N 1442.8 -5.46131 1.96777 0
M  V30 15792 H 1445.56 -1.44463 2.62584 0
M  V30 15793 H 1443.12 -0.649749 1.4829 0
M  V30 15794 H 1445.12 -3.73719 1.55295 0
M  V30 15795 H 1443.69 -3.03278 0.757718 0
M  V30 15796 H 1442.91 -2.36666 3.1525 0
M  V30 15797 H 1444.19 -3.41559 3.77114 0
M  V30 15798 H 1443.59 -5.49103 1.36023 0
M  V30 15799 H 1442.15 -6.22335 1.9376 0
M  V30 15800 N 1445.58 -1.40446 -0.715026 0
M  V30 15801 C 1446.83 -1.38754 -1.47491 0
M  V30 15802 C 1447.16 0.0099443 -1.94497 0
M  V30 15803 O 1446.41 0.99458 -1.68543 0
M  V30 15804 C 1446.71 -2.32392 -2.7153 0
M  V30 15805 C 1446.38 -3.79635 -2.43286 0
M  V30 15806 C 1445.04 -4.19751 -2.35293 0
M  V30 15807 C 1447.39 -4.72681 -2.19596 0
M  V30 15808 C 1444.72 -5.50947 -2.01679 0
M  V30 15809 C 1447.07 -6.04176 -1.87495 0
M  V30 15810 C 1445.73 -6.43333 -1.77985 0
M  V30 15811 H 1445 -0.507738 -0.539706 0
M  V30 15812 H 1447.65 -1.73104 -0.81898 0
M  V30 15813 H 1445.96 -1.91229 -3.41963 0
M  V30 15814 H 1447.65 -2.28366 -3.29621 0
M  V30 15815 H 1444.24 -3.47852 -2.50393 0
M  V30 15816 H 1448.43 -4.42506 -2.24727 0
M  V30 15817 H 1443.68 -5.80187 -1.92854 0
M  V30 15818 H 1447.86 -6.75788 -1.68179 0
M  V30 15819 H 1445.48 -7.44909 -1.51706 0
M  V30 15820 N 1447.06 0.947303 -1.25952 0
M  V30 15821 C 1447.99 2.0625 -1.09467 0
M  V30 15822 C 1448.97 1.701 -0.00160498 0
M  V30 15823 O 1450.16 1.93432 -0.172501 0
M  V30 15824 C 1447.29 3.39746 -0.720392 0
M  V30 15825 C 1446.24 3.89935 -1.76451 0
M  V30 15826 C 1445.57 5.2001 -1.24472 0
M  V30 15827 C 1446.87 4.15496 -3.16481 0
M  V30 15828 H 1448.56 2.203 -2.02752 0
M  V30 15829 H 1446.11 1.05858 -0.97622 0
M  V30 15830 H 1448.06 4.17221 -0.591972 0
M  V30 15831 H 1446.78 3.25656 0.248161 0
M  V30 15832 H 1445.44 3.14635 -1.8815 0
M  V30 15833 H 1445.09 5.02295 -0.266182 0
M  V30 15834 H 1444.79 5.54559 -1.94263 0
M  V30 15835 H 1446.31 6.00075 -1.12884 0
M  V30 15836 H 1447.73 4.83605 -3.07894 0
M  V30 15837 H 1446.12 4.61315 -3.83808 0
M  V30 15838 H 1447.19 3.21501 -3.62995 0
M  V30 15839 N 1448.54 1.07657 1.15099 0
M  V30 15840 C 1449.77 0.821631 1.89559 0
M  V30 15841 C 1450.18 -0.629174 1.78432 0
M  V30 15842 O 1449.52 -1.44353 1.13613 0
M  V30 15843 C 1449.58 1.15473 3.4045 0
M  V30 15844 C 1449.25 2.60675 3.75363 0
M  V30 15845 C 1450.24 3.58923 3.76125 0
M  V30 15846 C 1447.93 2.96333 4.05576 0
M  V30 15847 C 1449.92 4.90863 4.06611 0
M  V30 15848 C 1447.61 4.28469 4.35727 0
M  V30 15849 C 1448.61 5.25543 4.36226 0
M  V30 15850 O 1448.29 6.55305 4.65651 0
M  V30 15851 H 1448.03 0.296469 0.607521 0
M  V30 15852 H 1450.58 1.43722 1.46742 0
M  V30 15853 H 1448.81 0.482117 3.83683 0
M  V30 15854 H 1450.5 0.881832 3.96205 0
M  V30 15855 H 1451.27 3.32718 3.52879 0
M  V30 15856 H 1447.14 2.2142 4.04344 0
M  V30 15857 H 1450.69 5.66626 4.06916 0
M  V30 15858 H 1446.59 4.54425 4.58441 0
M  V30 15859 H 1447.35 6.60503 4.83402 0
M  V30 15860 N 1450.02 -1.31994 0.861122 0
M  V30 15861 C 1450.93 -2.32495 0.313555 0
M  V30 15862 C 1451.94 -1.64331 -0.571966 0
M  V30 15863 O 1453.12 -1.9582 -0.470794 0
M  V30 15864 C 1450.18 -3.43311 -0.483603 0
M  V30 15865 C 1449.24 -4.27153 0.428825 0
M  V30 15866 C 1448.48 -5.32676 -0.330383 0
M  V30 15867 O 1448.7 -5.48665 -1.55957 0
M  V30 15868 O 1447.63 -6.01116 0.307174 0
M  V30 15869 H 1451.46 -2.81234 1.14636 0
M  V30 15870 H 1449.05 -1.35734 0.624239 0
M  V30 15871 H 1450.93 -4.10877 -0.935831 0
M  V30 15872 H 1449.6 -2.9675 -1.2931 0
M  V30 15873 H 1448.51 -3.62372 0.929366 0
M  V30 15874 H 1449.84 -4.77255 1.20368 0
M  V30 15875 N 1451.49 -0.619688 -1.44906 0
M  V30 15876 C 1452.74 -0.11981 -2.02446 0
M  V30 15877 C 1453.07 1.2509 -1.48546 0
M  V30 15878 O 1452.35 1.82781 -0.664942 0
M  V30 15879 C 1452.63 -0.0940205 -3.59977 0
M  V30 15880 C 1452.48 -1.49626 -4.24184 0
M  V30 15881 C 1453.8 0.58748 -4.36161 0
M  V30 15882 H 1450.92 -0.0450119 -0.735624 0
M  V30 15883 H 1453.56 -0.793975 -1.72615 0
M  V30 15884 H 1451.71 0.480073 -3.85522 0
M  V30 15885 H 1453.39 -2.11836 -4.09784 0
M  V30 15886 H 1451.63 -2.05348 -3.82119 0
M  V30 15887 H 1452.3 -1.43035 -5.33146 0
M  V30 15888 H 1454.78 0.0993863 -4.15981 0
M  V30 15889 H 1453.65 0.574672 -5.45883 0
M  V30 15890 H 1453.91 1.65579 -4.09922 0
M  V30 15891 N 1452.97 1.53444 -0.359552 0
M  V30 15892 C 1454.39 1.59598 -0.00824946 0
M  V30 15893 C 1454.59 1.37492 1.47303 0
M  V30 15894 O 1453.64 1.1771 2.23385 0
M  V30 15895 C 1454.96 2.9718 -0.45878 0
M  V30 15896 C 1456.51 3.1027 -0.412485 0
M  V30 15897 C 1456.98 4.50255 -0.838733 0
M  V30 15898 N 1458.47 4.56352 -0.793552 0
M  V30 15899 C 1459.21 5.62845 -1.09513 0
M  V30 15900 N 1458.7 6.77119 -1.46567 0
M  V30 15901 N 1460.5 5.52799 -1.01832 0
M  V30 15902 H 1452.65 1.66065 -1.32424 0
M  V30 15903 H 1454.91 0.778561 -0.540876 0
M  V30 15904 H 1454.62 3.18475 -1.4922 0
M  V30 15905 H 1454.49 3.7687 0.157741 0
M  V30 15906 H 1456.88 2.88689 0.611791 0
M  V30 15907 H 1456.96 2.32602 -1.06442 0
M  V30 15908 H 1456.6 4.72573 -1.8611 0
M  V30 15909 H 1456.53 5.26344 -0.164109 0
M  V30 15910 H 1459.02 3.74299 -0.52048 0
M  V30 15911 H 1459.34 7.54313 -1.68021 0
M  V30 15912 H 1457.68 6.78525 -1.50427 0
M  V30 15913 H 1460.87 4.62403 -0.728059 0
M  V30 15914 H 1461.04 6.35698 -1.25668 0
M  V30 15915 N 1454.45 0.0885642 1.57351 0
M  V30 15916 C 1455.7 -0.575536 1.93732 0
M  V30 15917 C 1456.02 -1.69126 0.970644 0
M  V30 15918 O 1455.29 -1.95888 0.0215907 0
M  V30 15919 H 1453.87 -0.215592 0.715213 0
M  V30 15920 H 1456.53 0.150362 1.94319 0
M  V30 15921 H 1455.63 -0.989979 2.95983 0
M  V30 15922 N 1455.93 -1.56509 -0.185096 0
M  V30 15923 C 1456.84 -1.98552 -1.24958 0
M  V30 15924 C 1457.85 -0.894713 -1.49234 0
M  V30 15925 O 1459.03 -1.20126 -1.61653 0
M  V30 15926 C 1456.1 -2.32513 -2.57175 0
M  V30 15927 C 1455.16 -3.55351 -2.40882 0
M  V30 15928 C 1454.39 -3.87683 -3.66794 0
M  V30 15929 O 1454.61 -3.21167 -4.7139 0
M  V30 15930 O 1453.55 -4.8108 -3.61726 0
M  V30 15931 H 1457.37 -2.89342 -0.922756 0
M  V30 15932 H 1454.96 -1.44196 -0.390887 0
M  V30 15933 H 1456.84 -2.55387 -3.35195 0
M  V30 15934 H 1455.51 -1.44888 -2.89464 0
M  V30 15935 H 1454.42 -3.37712 -1.60939 0
M  V30 15936 H 1455.75 -4.43474 -2.13522 0
M  V30 15937 N 1457.41 0.45317 -1.50944 0
M  V30 15938 C 1458.63 1.22672 -1.66611 0
M  V30 15939 C 1459.05 1.85398 -0.356814 0
M  V30 15940 O 1458.41 1.70026 0.663122 0
M  V30 15941 C 1458.46 2.32238 -2.77034 0
M  V30 15942 O 1458.18 1.72081 -4.02889 0
M  V30 15943 C 1459.68 3.22802 -3.03832 0
M  V30 15944 H 1456.9 0.370337 -0.559546 0
M  V30 15945 H 1459.44 0.538884 -1.97272 0
M  V30 15946 H 1457.6 2.96765 -2.49017 0
M  V30 15947 H 1458.01 2.4437 -4.64095 0
M  V30 15948 H 1459.49 3.95851 -3.84716 0
M  V30 15949 H 1459.96 3.82636 -2.15608 0
M  V30 15950 H 1460.57 2.63993 -3.33449 0
M  V30 15951 N 1458.88 1.40823 0.707568 0
M  V30 15952 C 1460.11 1.42659 1.49439 0
M  V30 15953 C 1460.52 0.0268475 1.89181 0
M  V30 15954 O 1459.87 -0.961444 1.56531 0
M  V30 15955 C 1459.93 2.26104 2.79494 0
M  V30 15956 C 1459.59 3.7442 2.62027 0
M  V30 15957 C 1460.59 4.66867 2.28759 0
M  V30 15958 C 1458.27 4.18328 2.78042 0
M  V30 15959 C 1460.27 6.01208 2.11727 0
M  V30 15960 C 1457.95 5.52736 2.60627 0
M  V30 15961 C 1458.95 6.43991 2.27518 0
M  V30 15962 O 1458.64 7.75921 2.10243 0
M  V30 15963 H 1458.37 0.488307 0.467475 0
M  V30 15964 H 1460.93 1.85607 0.879719 0
M  V30 15965 H 1459.16 1.77949 3.43323 0
M  V30 15966 H 1460.85 2.19785 3.41247 0
M  V30 15967 H 1461.61 4.34239 2.16012 0
M  V30 15968 H 1457.49 3.47612 3.02798 0
M  V30 15969 H 1461.03 6.724 1.85807 0
M  V30 15970 H 1456.93 5.84947 2.7296 0
M  V30 15971 H 1457.7 7.86938 2.251 0
M  V30 15972 N 1460.36 -0.94061 1.26453 0
M  V30 15973 C 1461.29 -2.05667 1.10559 0
M  V30 15974 C 1462.27 -1.70097 0.0106258 0
M  V30 15975 O 1463.46 -1.93338 0.182756 0
M  V30 15976 C 1460.59 -3.3936 0.7384 0
M  V30 15977 C 1459.54 -3.88993 1.78517 0
M  V30 15978 C 1458.87 -5.19343 1.27228 0
M  V30 15979 C 1460.17 -4.13812 3.1868 0
M  V30 15980 H 1461.86 -2.19221 2.03918 0
M  V30 15981 H 1459.41 -1.05339 0.98182 0
M  V30 15982 H 1461.36 -4.16902 0.61409 0
M  V30 15983 H 1460.09 -3.25783 -0.230887 0
M  V30 15984 H 1458.74 -3.13633 1.89816 0
M  V30 15985 H 1458.39 -5.02147 0.292816 0
M  V30 15986 H 1458.09 -5.53521 1.97201 0
M  V30 15987 H 1459.62 -5.99468 1.16065 0
M  V30 15988 H 1461.03 -4.81966 3.10455 0
M  V30 15989 H 1459.43 -4.59273 3.86249 0
M  V30 15990 H 1460.5 -3.19571 3.64695 0
M  V30 15991 N 1461.84 -1.08266 -1.14527 0
M  V30 15992 C 1462.79 -0.711332 -2.19565 0
M  V30 15993 C 1463.76 0.301774 -1.63336 0
M  V30 15994 O 1464.94 0.186109 -1.8989 0
M  V30 15995 C 1462.08 -0.125255 -3.44873 0
M  V30 15996 C 1461.2 -1.19096 -4.15259 0
M  V30 15997 C 1460.33 -0.568901 -5.28145 0
M  V30 15998 C 1459.37 -1.61675 -5.90362 0
M  V30 15999 N 1458.51 -1.01659 -6.94701 0
M  V30 16000 H 1463.35 -1.61137 -2.50677 0
M  V30 16001 H 1460.88 -0.805286 -1.231 0
M  V30 16002 H 1462.84 0.232247 -4.16553 0
M  V30 16003 H 1461.47 0.738101 -3.14248 0
M  V30 16004 H 1460.52 -1.66591 -3.41982 0
M  V30 16005 H 1461.84 -1.98508 -4.57598 0
M  V30 16006 H 1460.99 -0.159563 -6.0649 0
M  V30 16007 H 1459.73 0.256884 -4.87023 0
M  V30 16008 H 1458.73 -2.03576 -5.10722 0
M  V30 16009 H 1459.96 -2.44498 -6.33559 0
M  V30 16010 H 1457.9 -0.211872 -6.55658 0
M  V30 16011 H 1457.82 -1.74781 -7.35518 0
M  V30 16012 H 1459.09 -0.63306 -7.76925 0
M  V30 16013 N 1463.32 1.31536 -0.86811 0
M  V30 16014 C 1464.57 1.96386 -0.477176 0
M  V30 16015 C 1464.89 1.68968 0.973381 0
M  V30 16016 O 1464.16 1.00409 1.68211 0
M  V30 16017 H 1462.74 0.726579 -0.173468 0
M  V30 16018 H 1465.4 1.60377 -1.10749 0
M  V30 16019 H 1464.5 3.05606 -0.633376 0
M  V30 16020 N 1464.8 0.627364 1.44575 0
M  V30 16021 C 1466.21 0.292662 1.56894 0
M  V30 16022 C 1466.41 -1.20429 1.61552 0
M  V30 16023 O 1465.47 -1.98819 1.55651 0
M  V30 16024 C 1466.78 0.981267 2.84239 0
M  V30 16025 C 1468.33 0.959053 2.97945 0
M  V30 16026 C 1468.81 1.62805 4.28087 0
M  V30 16027 N 1470.3 1.59446 4.34892 0
M  V30 16028 C 1471.03 2.08107 5.34302 0
M  V30 16029 N 1470.53 2.64942 6.40139 0
M  V30 16030 N 1472.32 1.98758 5.25787 0
M  V30 16031 H 1464.47 1.5991 1.39795 0
M  V30 16032 H 1466.73 0.671019 0.669655 0
M  V30 16033 H 1466.44 2.0361 2.86768 0
M  V30 16034 H 1466.31 0.516703 3.73644 0
M  V30 16035 H 1468.7 -0.0872902 2.94971 0
M  V30 16036 H 1468.78 1.46207 2.09898 0
M  V30 16037 H 1468.43 2.67382 4.31821 0
M  V30 16038 H 1468.36 1.09989 5.14985 0
M  V30 16039 H 1470.85 1.17947 3.59022 0
M  V30 16040 H 1471.16 2.99814 7.12272 0
M  V30 16041 H 1469.51 2.68991 6.40835 0
M  V30 16042 H 1472.7 1.54081 4.42014 0
M  V30 16043 H 1472.87 2.36992 6.03107 0
M  V30 16044 N 1466.28 -1.53251 0.367684 0
M  V30 16045 C 1467.52 -2.00889 -0.220914 0
M  V30 16046 C 1467.84 -1.25662 -1.4911 0
M  V30 16047 O 1467.11 -0.370491 -1.92365 0
M  V30 16048 H 1465.69 -0.742191 -0.0846233 0
M  V30 16049 H 1468.36 -1.88525 0.494402 0
M  V30 16050 H 1467.45 -3.08891 -0.446414 0
M  V30 16051 N 1467.75 -0.0969077 -1.57302 0
M  V30 16052 C 1468.7 0.878876 -2.15357 0
M  V30 16053 C 1469.7 1.29091 -1.0969 0
M  V30 16054 O 1470.9 1.26523 -1.28031 0
M  V30 16055 H 1467.28 0.301458 -0.688932 0
M  V30 16056 H 1469.25 0.364542 -2.96165 0
M  V30 16057 C 1468 2.12761 -2.75006 0
M  V30 16058 H 1467.32 1.81944 -3.56 0
M  V30 16059 H 1468.76 2.79092 -3.19193 0
M  V30 16060 C 1467.22 2.90283 -1.70989 0
M  V30 16061 O 1467.75 3.84889 -1.14992 0
M  V30 16062 N 1465.95 2.53857 -1.41439 0
M  V30 16063 H 1465.5 1.76993 -1.87166 0
M  V30 16064 H 1465.46 3.06025 -0.720816 0
M  V30 16065 N 1469.23 1.56605 0.176793 0
M  V30 16066 C 1470.14 1.99211 1.23903 0
M  V30 16067 C 1471.16 0.902614 1.48758 0
M  V30 16068 O 1472.33 1.20982 1.61014 0
M  V30 16069 C 1469.4 2.33873 2.55938 0
M  V30 16070 C 1468.46 3.56624 2.38994 0
M  V30 16071 C 1467.69 3.89623 3.64733 0
M  V30 16072 O 1467.92 3.23662 4.6968 0
M  V30 16073 O 1466.85 4.82992 3.5917 0
M  V30 16074 H 1470.68 2.89827 0.907398 0
M  V30 16075 H 1468.26 1.44401 0.383234 0
M  V30 16076 H 1470.14 2.57161 3.33836 0
M  V30 16077 H 1468.82 1.46421 2.88691 0
M  V30 16078 H 1467.72 3.38561 1.59146 0
M  V30 16079 H 1469.06 4.446 2.11167 0
M  V30 16080 N 1470.71 -0.445159 1.51182 0
M  V30 16081 C 1471.94 -1.21787 1.67259 0
M  V30 16082 C 1472.35 -1.85206 0.366641 0
M  V30 16083 O 1471.71 -1.70376 -0.654095 0
M  V30 16084 C 1471.76 -2.30765 2.78262 0
M  V30 16085 O 1471.48 -1.69942 4.03796 0
M  V30 16086 C 1472.98 -3.21186 3.05539 0
M  V30 16087 H 1470.2 -0.367364 0.561502 0
M  V30 16088 H 1472.75 -0.528415 1.97555 0
M  V30 16089 H 1470.9 -2.9544 2.50587 0
M  V30 16090 H 1471.32 -2.41905 4.65384 0
M  V30 16091 H 1472.79 -3.93805 3.8681 0
M  V30 16092 H 1473.27 -3.81487 2.17634 0
M  V30 16093 H 1473.87 -2.62221 3.34844 0
M  V30 16094 N 1472.19 -1.41197 -0.700089 0
M  V30 16095 C 1473.42 -1.43658 -1.48896 0
M  V30 16096 C 1473.83 -0.0405771 -1.88756 0
M  V30 16097 O 1473.19 0.93909 -1.56484 0
M  V30 16098 C 1473.24 -2.34125 -2.75441 0
M  V30 16099 O 1472.96 -3.68291 -2.37261 0
M  V30 16100 C 1474.46 -2.45342 -3.69218 0
M  V30 16101 H 1471.68 -0.48945 -0.458999 0
M  V30 16102 H 1474.22 -1.85429 -0.862345 0
M  V30 16103 H 1472.38 -1.95674 -3.34351 0
M  V30 16104 H 1472.79 -4.16495 -3.18798 0
M  V30 16105 H 1474.27 -3.12818 -4.54807 0
M  V30 16106 H 1474.74 -1.48327 -4.13395 0
M  V30 16107 H 1475.35 -2.84409 -3.16214 0
M  V30 16108 N 1473.67 0.933891 -1.2695 0
M  V30 16109 C 1474.9 1.71263 -1.15553 0
M  V30 16110 C 1475.3 1.86948 0.291059 0
M  V30 16111 O 1474.65 1.38173 1.21053 0
M  V30 16112 C 1474.71 3.13479 -1.75986 0
M  V30 16113 C 1474.37 3.21154 -3.2513 0
M  V30 16114 C 1475.37 3.03874 -4.21849 0
M  V30 16115 C 1473.05 3.44311 -3.65726 0
M  V30 16116 C 1475.05 3.09631 -5.57142 0
M  V30 16117 C 1472.74 3.49702 -5.01151 0
M  V30 16118 C 1473.73 3.32379 -5.96668 0
M  V30 16119 O 1473.42 3.37493 -7.29626 0
M  V30 16120 H 1473.15 0.542801 -0.402918 0
M  V30 16121 H 1475.71 1.17877 -1.68209 0
M  V30 16122 H 1473.94 3.6832 -1.178 0
M  V30 16123 H 1475.63 3.73295 -1.59391 0
M  V30 16124 H 1476.39 2.85832 -3.91823 0
M  V30 16125 H 1472.27 3.56847 -2.91859 0
M  V30 16126 H 1475.82 2.96028 -6.31675 0
M  V30 16127 H 1471.71 3.67267 -5.30835 0
M  V30 16128 H 1472.48 3.53988 -7.37994 0
M  V30 16129 N 1475.14 1.08871 1.13951 0
M  V30 16130 C 1476.39 0.832367 1.85589 0
M  V30 16131 C 1476.74 -0.635083 1.81616 0
M  V30 16132 O 1476.04 -1.46123 1.2393 0
M  V30 16133 C 1476.23 1.29443 3.33135 0
M  V30 16134 C 1476.06 2.80527 3.51475 0
M  V30 16135 C 1474.83 3.48334 3.66048 0
M  V30 16136 C 1477.03 3.78686 3.47996 0
M  V30 16137 N 1475.01 4.87901 3.72593 0
M  V30 16138 C 1476.38 5.04176 3.60842 0
M  V30 16139 C 1478.44 3.71623 3.31362 0
M  V30 16140 C 1477.14 6.23438 3.58772 0
M  V30 16141 C 1479.17 4.90366 3.30598 0
M  V30 16142 C 1478.53 6.14696 3.43989 0
M  V30 16143 H 1474.63 0.357365 0.695568 0
M  V30 16144 H 1477.21 1.38799 1.36539 0
M  V30 16145 H 1475.38 0.766326 3.80765 0
M  V30 16146 H 1477.11 0.984006 3.92555 0
M  V30 16147 H 1473.87 2.98755 3.67481 0
M  V30 16148 H 1474.29 5.60584 3.79571 0
M  V30 16149 H 1478.93 2.7643 3.19916 0
M  V30 16150 H 1476.65 7.18937 3.68993 0
M  V30 16151 H 1480.24 4.86593 3.18933 0
M  V30 16152 H 1479.12 7.05039 3.43351 0
M  V30 16153 N 1476.62 -1.31073 0.875073 0
M  V30 16154 C 1477.55 -2.30855 0.350468 0
M  V30 16155 C 1478.53 -1.60569 -0.561384 0
M  V30 16156 O 1479.72 -1.88242 -0.477329 0
M  V30 16157 C 1476.85 -3.44444 -0.444493 0
M  V30 16158 C 1475.8 -4.26357 0.374716 0
M  V30 16159 C 1475.13 -5.31903 -0.546243 0
M  V30 16160 C 1476.43 -4.96817 1.61153 0
M  V30 16161 H 1478.12 -2.74983 1.18427 0
M  V30 16162 H 1475.67 -1.32199 0.570909 0
M  V30 16163 H 1477.62 -4.13304 -0.82206 0
M  V30 16164 H 1476.34 -2.99096 -1.31185 0
M  V30 16165 H 1475 -3.59171 0.734295 0
M  V30 16166 H 1474.65 -4.82803 -1.41102 0
M  V30 16167 H 1474.35 -5.876 -0.00198173 0
M  V30 16168 H 1475.88 -6.03621 -0.920542 0
M  V30 16169 H 1477.29 -5.58247 1.30511 0
M  V30 16170 H 1475.69 -5.62334 2.09524 0
M  V30 16171 H 1476.76 -4.2351 2.36151 0
M  V30 16172 N 1478.1 -0.635022 -1.4424 0
M  V30 16173 C 1479.33 -0.14826 -2.06368 0
M  V30 16174 C 1479.74 1.17875 -1.47482 0
M  V30 16175 O 1479.1 1.72384 -0.599168 0
M  V30 16176 C 1479.15 -0.031519 -3.61486 0
M  V30 16177 O 1478.87 -1.30605 -4.18179 0
M  V30 16178 C 1480.37 0.483479 -4.40656 0
M  V30 16179 H 1477.59 -0.081472 -0.666036 0
M  V30 16180 H 1480.14 -0.870526 -1.85046 0
M  V30 16181 H 1478.29 0.641208 -3.82057 0
M  V30 16182 H 1478.71 -1.15341 -5.11661 0
M  V30 16183 H 1480.18 0.514164 -5.496 0
M  V30 16184 H 1480.66 1.51129 -4.12379 0
M  V30 16185 H 1481.26 -0.156131 -4.25013 0
M  V30 16186 N 1479.58 1.53054 -0.375806 0
M  V30 16187 C 1480.83 2.01003 0.210257 0
M  V30 16188 C 1481.15 1.26451 1.48442 0
M  V30 16189 O 1480.42 0.380687 1.92166 0
M  V30 16190 H 1479 0.74263 0.0806861 0
M  V30 16191 H 1481.66 1.8826 -0.504393 0
M  V30 16192 H 1480.76 3.09123 0.430027 0
M  V30 16193 N 1481.06 0.105248 1.57248 0
M  V30 16194 C 1481.99 -0.886904 2.1026 0
M  V30 16195 C 1482.97 -1.26981 1.01561 0
M  V30 16196 O 1484.15 -1.37327 1.29126 0
M  V30 16197 C 1481.28 -2.18499 2.58797 0
M  V30 16198 C 1480.32 -1.95119 3.79251 0
M  V30 16199 S 1481.16 -1.17995 5.22338 0
M  V30 16200 C 1482.31 -2.49012 5.74233 0
M  V30 16201 H 1482.55 -0.435954 2.94086 0
M  V30 16202 H 1480.08 -0.108251 1.5402 0
M  V30 16203 H 1482.04 -2.93089 2.87418 0
M  V30 16204 H 1480.7 -2.60714 1.75178 0
M  V30 16205 H 1479.89 -2.91268 4.11314 0
M  V30 16206 H 1479.49 -1.28654 3.51175 0
M  V30 16207 H 1481.79 -3.44932 5.83119 0
M  V30 16208 H 1482.73 -2.21513 6.7256 0
M  V30 16209 H 1483.14 -2.5775 5.0222 0
M  V30 16210 N 1482.53 -1.56697 -0.168486 0
M  V30 16211 C 1483.48 -1.96628 -1.20855 0
M  V30 16212 C 1484.45 -0.830623 -1.4384 0
M  V30 16213 O 1485.64 -1.09097 -1.56533 0
M  V30 16214 C 1482.78 -2.3338 -2.5422 0
M  V30 16215 C 1481.89 -3.60137 -2.3859 0
M  V30 16216 C 1481.02 -3.86088 -3.64842 0
M  V30 16217 C 1480.06 -5.06184 -3.44157 0
M  V30 16218 N 1479.2 -5.28254 -4.62485 0
M  V30 16219 H 1484.04 -2.8529 -0.86102 0
M  V30 16220 H 1481.58 -1.41162 -0.413741 0
M  V30 16221 H 1483.54 -2.52711 -3.31953 0
M  V30 16222 H 1482.17 -1.47825 -2.86963 0
M  V30 16223 H 1481.22 -3.48704 -1.52019 0
M  V30 16224 H 1482.53 -4.48028 -2.19254 0
M  V30 16225 H 1481.68 -4.05802 -4.5101 0
M  V30 16226 H 1480.42 -2.96578 -3.8716 0
M  V30 16227 H 1479.43 -4.86366 -2.56376 0
M  V30 16228 H 1480.65 -5.97228 -3.23258 0
M  V30 16229 H 1478.6 -4.41695 -4.85017 0
M  V30 16230 H 1478.52 -6.10373 -4.46072 0
M  V30 16231 H 1479.78 -5.52448 -5.49928 0
M  V30 16232 N 1484.01 0.437135 -1.51416 0
M  V30 16233 C 1485.29 1.1978 -1.54636 0
M  V30 16234 C 1485.67 2.088 -0.310747 0
M  V30 16235 O 1485.02 2.1738 0.704148 0
M  V30 16236 C 1485.23 1.99947 -2.86046 0
M  V30 16237 C 1486.58 2.56981 -3.38003 0
M  V30 16238 O 1487.6 2.10157 -2.87598 0
M  V30 16239 O 1486.46 3.42383 -4.25953 0
M  V30 16240 H 1483.55 0.545346 -0.621713 0
M  V30 16241 H 1486.1 0.446189 -1.63729 0
M  V30 16242 H 1484.87 1.34564 -3.67435 0
M  V30 16243 H 1484.49 2.82172 -2.80115 0
M  V30 16244 N 1485.49 1.41566 0.692592 0
M  V30 16245 C 1486.42 1.39582 1.81795 0
M  V30 16246 C 1487.44 0.29754 1.60058 0
M  V30 16247 O 1488.62 0.559463 1.69506 0
M  V30 16248 C 1485.72 1.15506 3.18609 0
M  V30 16249 C 1484.9 2.37432 3.67349 0
M  V30 16250 C 1483.96 2.09168 4.82841 0
M  V30 16251 O 1482.98 2.8223 4.94303 0
M  V30 16252 N 1484.18 1.08377 5.70294 0
M  V30 16253 H 1486.95 2.36577 1.83988 0
M  V30 16254 H 1484.51 1.36216 0.875026 0
M  V30 16255 H 1486.5 0.945452 3.93501 0
M  V30 16256 H 1485.07 0.270987 3.11423 0
M  V30 16257 H 1484.29 2.74076 2.8333 0
M  V30 16258 H 1485.58 3.18661 3.96652 0
M  V30 16259 H 1484.98 0.479122 5.63667 0
M  V30 16260 H 1483.54 0.934042 6.45073 0
M  V30 16261 N 1486.97 -0.927146 1.27443 0
M  V30 16262 C 1487.92 -2.02783 1.10216 0
M  V30 16263 C 1488.89 -1.661 0.00307842 0
M  V30 16264 O 1490.07 -1.90081 0.165508 0
M  V30 16265 C 1487.21 -3.36718 0.755984 0
M  V30 16266 C 1486.32 -3.86353 1.93276 0
M  V30 16267 C 1485.46 -5.08737 1.52841 0
M  V30 16268 C 1484.5 -5.50669 2.67263 0
M  V30 16269 N 1483.63 -6.6425 2.27413 0
M  V30 16270 H 1488.47 -2.16851 2.04401 0
M  V30 16271 H 1486.01 -1.06232 1.0175 0
M  V30 16272 H 1487.97 -4.13741 0.53609 0
M  V30 16273 H 1486.6 -3.22456 -0.148909 0
M  V30 16274 H 1485.65 -3.05604 2.26518 0
M  V30 16275 H 1486.96 -4.13401 2.79108 0
M  V30 16276 H 1486.12 -5.93263 1.26979 0
M  V30 16277 H 1484.86 -4.83467 0.641187 0
M  V30 16278 H 1483.86 -4.64692 2.93839 0
M  V30 16279 H 1485.09 -5.77934 3.56607 0
M  V30 16280 H 1483.03 -6.40636 1.41143 0
M  V30 16281 H 1482.95 -6.90955 3.06784 0
M  V30 16282 H 1484.22 -7.52115 2.048 0
M  V30 16283 N 1488.45 -1.09474 -1.13372 0
M  V30 16284 C 1489.69 -0.831091 -1.84659 0
M  V30 16285 C 1490.02 0.643294 -1.83554 0
M  V30 16286 O 1489.28 1.48958 -1.26925 0
M  V30 16287 C 1489.58 -1.31208 -3.32444 0
M  V30 16288 C 1489.24 -2.79617 -3.5373 0
M  V30 16289 C 1487.9 -3.20147 -3.59248 0
M  V30 16290 C 1490.26 -3.75303 -3.61659 0
M  V30 16291 C 1487.58 -4.55135 -3.70228 0
M  V30 16292 C 1489.94 -5.1008 -3.74167 0
M  V30 16293 C 1488.6 -5.50199 -3.77938 0
M  V30 16294 H 1487.87 -0.304118 -0.675717 0
M  V30 16295 H 1490.52 -1.36961 -1.33843 0
M  V30 16296 H 1488.82 -0.693379 -3.85616 0
M  V30 16297 H 1490.52 -1.08469 -3.86051 0
M  V30 16298 H 1487.11 -2.47253 -3.50091 0
M  V30 16299 H 1491.29 -3.45103 -3.56676 0
M  V30 16300 H 1486.55 -4.85656 -3.71414 0
M  V30 16301 H 1490.72 -5.84077 -3.79245 0
M  V30 16302 H 1488.35 -6.54794 -3.86198 0
M  V30 16303 N 1489.92 1.30607 -0.882012 0
M  V30 16304 C 1490.87 2.3016 -0.336011 0
M  V30 16305 C 1491.87 1.60037 0.555389 0
M  V30 16306 O 1493.07 1.74536 0.440152 0
M  V30 16307 H 1489.45 0.746595 -0.0899982 0
M  V30 16308 H 1491.42 2.73673 -1.18936 0
M  V30 16309 C 1490.17 3.44942 0.437061 0
M  V30 16310 H 1489.49 3.99081 -0.2396 0
M  V30 16311 H 1490.93 4.16684 0.784242 0
M  V30 16312 C 1489.39 2.94678 1.633 0
M  V30 16313 O 1489.92 2.94457 2.73236 0
M  V30 16314 N 1488.13 2.50727 1.46917 0
M  V30 16315 H 1487.67 2.51105 0.574807 0
M  V30 16316 H 1487.63 2.17453 2.27072 0
M  V30 16317 N 1491.4 0.642663 1.43901 0
M  V30 16318 C 1492.33 -0.0419756 2.33462 0
M  V30 16319 C 1493.31 -0.822923 1.48869 0
M  V30 16320 O 1494.5 -0.786508 1.7756 0
M  V30 16321 C 1491.63 -1.01631 3.32097 0
M  V30 16322 C 1490.58 -0.346206 4.26597 0
M  V30 16323 C 1489.91 -1.43125 5.15189 0
M  V30 16324 C 1491.21 0.754799 5.16817 0
M  V30 16325 H 1492.9 0.705929 2.90959 0
M  V30 16326 H 1490.45 0.340924 1.39906 0
M  V30 16327 H 1492.4 -1.5041 3.93643 0
M  V30 16328 H 1491.13 -1.79525 2.72834 0
M  V30 16329 H 1489.78 0.121038 3.664 0
M  V30 16330 H 1489.43 -2.20135 4.52271 0
M  V30 16331 H 1489.13 -0.988194 5.79231 0
M  V30 16332 H 1490.66 -1.92061 5.79607 0
M  V30 16333 H 1492.07 0.349624 5.72233 0
M  V30 16334 H 1490.47 1.12169 5.89524 0
M  V30 16335 H 1491.54 1.61718 4.57138 0
M  V30 16336 N 1492.88 -1.52852 0.383918 0
M  V30 16337 C 1494.29 -1.86477 -0.0912997 0
M  V30 16338 C 1494.64 -1.30382 -1.46611 0
M  V30 16339 O 1493.77 -0.633042 -2.06934 0
M  V30 16340 C 1494.36 -3.38361 -0.172447 0
M  V30 16341 C 1492.92 -3.71716 -0.591948 0
M  V30 16342 C 1492.07 -2.76176 0.24945 0
M  V30 16343 H 1495.02 -1.46839 0.602006 0
M  V30 16344 H 1495.04 -3.67325 -0.992603 0
M  V30 16345 H 1494.55 -3.79158 0.8283 0
M  V30 16346 H 1492.65 -3.36486 -1.60026 0
M  V30 16347 H 1492.77 -4.77792 -0.353835 0
M  V30 16348 H 1491.13 -2.53106 -0.284469 0
M  V30 16349 H 1491.91 -3.19809 1.24808 0
M  V30 16350 N 1494.36 -0.113586 -1.5719 0
M  V30 16351 C 1495.59 0.553592 -1.99356 0
M  V30 16352 C 1496 1.60567 -0.993154 0
M  V30 16353 O 1495.36 1.82494 0.0147252 0
M  V30 16354 C 1495.41 1.18462 -3.41539 0
M  V30 16355 O 1495.13 0.174602 -4.37752 0
M  V30 16356 C 1496.63 1.93564 -3.98808 0
M  V30 16357 H 1493.85 0.146998 -0.6547 0
M  V30 16358 H 1496.4 -0.198329 -2.03536 0
M  V30 16359 H 1494.55 1.88736 -3.38316 0
M  V30 16360 H 1494.97 0.632395 -5.20674 0
M  V30 16361 H 1496.44 2.33051 -5.00391 0
M  V30 16362 H 1496.92 2.80874 -3.37648 0
M  V30 16363 H 1497.52 1.28066 -4.0556 0
M  V30 16364 N 1495.84 1.56784 0.160173 0
M  V30 16365 C 1497.25 1.72193 0.721552 0
M  V30 16366 C 1497.6 0.725901 1.82278 0
M  V30 16367 O 1496.72 -0.110343 2.16118 0
M  V30 16368 C 1497.32 3.12212 1.31563 0
M  V30 16369 C 1495.88 3.29268 1.82371 0
M  V30 16370 C 1495.03 2.68136 0.70701 0
M  V30 16371 H 1497.98 1.58565 -0.0653521 0
M  V30 16372 H 1498 3.11481 2.1854 0
M  V30 16373 H 1497.51 3.84682 0.513917 0
M  V30 16374 H 1495.61 2.61774 2.65152 0
M  V30 16375 H 1495.72 4.37107 1.96149 0
M  V30 16376 H 1494.09 2.28246 1.1303 0
M  V30 16377 H 1494.87 3.432 -0.0830407 0
M  V30 16378 N 1497.32 -0.429099 1.51646 0
M  V30 16379 C 1498.73 -1.00868 1.57107 0
M  V30 16380 C 1499.08 -1.9209 0.399483 0
M  V30 16381 O 1498.2 -2.10948 -0.482709 0
M  V30 16382 C 1498.8 -1.83612 2.84732 0
M  V30 16383 C 1497.36 -2.36605 2.92737 0
M  V30 16384 C 1496.5 -1.1604 2.51853 0
M  V30 16385 H 1499.45 -0.21006 1.57304 0
M  V30 16386 H 1499.48 -2.69149 2.68959 0
M  V30 16387 H 1498.99 -1.17192 3.69983 0
M  V30 16388 H 1497.09 -3.06455 2.11934 0
M  V30 16389 H 1497.2 -2.68838 3.96564 0
M  V30 16390 H 1495.57 -1.50826 2.0524 0
M  V30 16391 H 1496.35 -0.51218 3.39458 0
M  V30 16392 N 1498.79 -1.41931 -0.685074 0
M  V30 16393 C 1500.02 -1.45229 -1.47364 0
M  V30 16394 C 1500.44 -0.060595 -1.88703 0
M  V30 16395 O 1499.79 0.92244 -1.57472 0
M  V30 16396 C 1499.84 -2.37033 -2.72942 0
M  V30 16397 O 1499.57 -3.70787 -2.33342 0
M  V30 16398 C 1501.07 -2.49244 -3.66596 0
M  V30 16399 H 1498.29 -0.494291 -0.453781 0
M  V30 16400 H 1500.83 -1.86333 -0.84263 0
M  V30 16401 H 1498.99 -1.9921 -3.32256 0
M  V30 16402 H 1499.4 -4.19853 -3.14362 0
M  V30 16403 H 1500.87 -3.17624 -4.51463 0
M  V30 16404 H 1501.35 -1.52703 -4.11799 0
M  V30 16405 H 1501.96 -2.87747 -3.1318 0
M  V30 16406 N 1500.27 0.920374 -1.27933 0
M  V30 16407 C 1501.52 1.67131 -1.1487 0
M  V30 16408 C 1501.85 1.91816 0.303343 0
M  V30 16409 O 1501.13 1.51379 1.22125 0
M  V30 16410 C 1501.41 3.03332 -1.94066 0
M  V30 16411 C 1501.26 2.85842 -3.47296 0
M  V30 16412 C 1502.58 4.03773 -1.75087 0
M  V30 16413 H 1499.7 0.606537 -0.418666 0
M  V30 16414 H 1502.34 1.06755 -1.57173 0
M  V30 16415 H 1500.49 3.54869 -1.58116 0
M  V30 16416 H 1502.16 2.41367 -3.93115 0
M  V30 16417 H 1500.41 2.21035 -3.73264 0
M  V30 16418 H 1501.08 3.82535 -3.97958 0
M  V30 16419 H 1503.55 3.61274 -2.06447 0
M  V30 16420 H 1502.43 4.97048 -2.32882 0
M  V30 16421 H 1502.69 4.36512 -0.700665 0
M  V30 16422 N 1501.75 1.10074 1.1279 0
M  V30 16423 C 1502.66 0.758458 2.22001 0
M  V30 16424 C 1503.68 -0.242438 1.72303 0
M  V30 16425 O 1504.85 -0.0821223 2.01233 0
M  V30 16426 C 1501.92 0.191326 3.46172 0
M  V30 16427 C 1500.98 1.24902 4.10729 0
M  V30 16428 C 1500.21 0.708857 5.28972 0
M  V30 16429 O 1500.43 -0.465993 5.68493 0
M  V30 16430 O 1499.37 1.46703 5.83748 0
M  V30 16431 H 1503.19 1.66997 2.53665 0
M  V30 16432 H 1500.78 0.875604 1.21052 0
M  V30 16433 H 1502.66 -0.121292 4.21225 0
M  V30 16434 H 1501.34 -0.693094 3.16193 0
M  V30 16435 H 1500.24 1.61444 3.37471 0
M  V30 16436 H 1501.58 2.10632 4.44854 0
M  V30 16437 N 1503.23 -1.30138 0.888926 0
M  V30 16438 C 1504.18 -2.29979 0.348212 0
M  V30 16439 C 1505.17 -1.60329 -0.546894 0
M  V30 16440 O 1506.38 -1.74767 -0.43089 0
M  V30 16441 H 1502.75 -0.746107 0.0939563 0
M  V30 16442 H 1504.72 -2.73038 1.20385 0
M  V30 16443 C 1503.47 -3.45169 -0.418762 0
M  V30 16444 H 1502.79 -3.98949 0.260761 0
M  V30 16445 H 1504.23 -4.17094 -0.762133 0
M  V30 16446 C 1502.69 -2.95539 -1.61734 0
M  V30 16447 O 1503.22 -2.95902 -2.7167 0
M  V30 16448 N 1501.43 -2.51502 -1.45585 0
M  V30 16449 H 1500.98 -2.51406 -0.561483 0
M  V30 16450 H 1500.93 -2.18654 -2.25916 0
M  V30 16451 N 1504.71 -0.650285 -1.43559 0
M  V30 16452 C 1505.64 0.0817484 -2.29054 0
M  V30 16453 C 1506.65 0.790023 -1.42346 0
M  V30 16454 O 1507.84 0.648269 -1.66312 0
M  V30 16455 C 1504.94 1.13873 -3.19196 0
M  V30 16456 C 1504.11 0.509177 -4.34426 0
M  V30 16457 C 1503.17 1.46265 -5.05463 0
M  V30 16458 O 1502.2 0.972378 -5.60833 0
M  V30 16459 N 1503.4 2.79668 -5.08691 0
M  V30 16460 H 1506.16 -0.652062 -2.92521 0
M  V30 16461 H 1503.73 -0.49285 -1.54216 0
M  V30 16462 H 1505.72 1.77732 -3.63584 0
M  V30 16463 H 1504.29 1.77454 -2.5735 0
M  V30 16464 H 1503.51 -0.308444 -3.92991 0
M  V30 16465 H 1504.8 0.0695732 -5.08752 0
M  V30 16466 H 1504.19 3.22062 -4.65072 0
M  V30 16467 H 1502.75 3.38838 -5.56805 0
M  V30 16468 N 1506.18 1.52647 -0.392018 0
M  V30 16469 C 1507.12 2.24183 0.476934 0
M  V30 16470 C 1508.13 1.26526 1.02446 0
M  V30 16471 O 1509.32 1.52583 0.92632 0
M  V30 16472 C 1506.42 2.94672 1.67397 0
M  V30 16473 C 1505.59 4.19058 1.25335 0
M  V30 16474 C 1504.65 4.72522 2.31537 0
M  V30 16475 O 1503.68 5.35541 1.92833 0
M  V30 16476 N 1504.88 4.52613 3.63486 0
M  V30 16477 H 1507.64 2.99391 -0.135963 0
M  V30 16478 H 1505.2 1.60419 -0.218514 0
M  V30 16479 H 1507.2 3.27338 2.37975 0
M  V30 16480 H 1505.77 2.22755 2.19315 0
M  V30 16481 H 1504.99 3.92399 0.376352 0
M  V30 16482 H 1506.27 4.99871 0.94901 0
M  V30 16483 H 1505.67 4.02316 3.97692 0
M  V30 16484 H 1504.23 4.89761 4.3009 0
M  V30 16485 N 1507.66 0.121921 1.57128 0
M  V30 16486 C 1509.08 -0.234655 1.57866 0
M  V30 16487 C 1509.28 -1.66506 1.13482 0
M  V30 16488 O 1508.33 -2.38692 0.823544 0
M  V30 16489 C 1509.65 0.00131784 3.007 0
M  V30 16490 C 1511.2 -0.0643537 3.12934 0
M  V30 16491 C 1511.67 0.143964 4.57774 0
M  V30 16492 N 1513.16 0.0900323 4.63112 0
M  V30 16493 C 1513.9 0.22608 5.72954 0
M  V30 16494 N 1513.39 0.418461 6.91535 0
M  V30 16495 N 1515.19 0.165449 5.61856 0
M  V30 16496 H 1507.34 1.05618 1.84279 0
M  V30 16497 H 1509.6 0.416132 0.851785 0
M  V30 16498 H 1509.31 0.99031 3.3747 0
M  V30 16499 H 1509.18 -0.729266 3.70083 0
M  V30 16500 H 1511.57 -1.04387 2.7602 0
M  V30 16501 H 1511.65 0.698157 2.46088 0
M  V30 16502 H 1511.29 1.12047 4.95387 0
M  V30 16503 H 1511.22 -0.638569 5.22714 0
M  V30 16504 H 1513.71 -0.0550269 3.7786 0
M  V30 16505 H 1514.03 0.513057 7.71095 0
M  V30 16506 H 1512.37 0.454471 6.93512 0
M  V30 16507 H 1515.56 0.0160945 4.68097 0
M  V30 16508 H 1515.73 0.274917 6.47417 0
M  V30 16509 N 1509.14 -1.56867 -0.151857 0
M  V30 16510 C 1510.07 -2.00932 -1.18949 0
M  V30 16511 C 1511.05 -0.888062 -1.45077 0
M  V30 16512 O 1512.24 -1.15553 -1.56081 0
M  V30 16513 C 1509.37 -2.3858 -2.52383 0
M  V30 16514 C 1508.32 -3.53845 -2.40785 0
M  V30 16515 C 1507.65 -3.77292 -3.78886 0
M  V30 16516 C 1508.95 -4.8667 -1.89605 0
M  V30 16517 H 1510.64 -2.87863 -0.823107 0
M  V30 16518 H 1508.19 -1.38491 -0.394499 0
M  V30 16519 H 1510.14 -2.68006 -3.25193 0
M  V30 16520 H 1508.86 -1.48579 -2.90847 0
M  V30 16521 H 1507.52 -3.24577 -1.70427 0
M  V30 16522 H 1507.17 -2.84551 -4.14777 0
M  V30 16523 H 1506.87 -4.54861 -3.71989 0
M  V30 16524 H 1508.39 -4.09139 -4.53252 0
M  V30 16525 H 1509.81 -5.14846 -2.52204 0
M  V30 16526 H 1508.21 -5.6801 -1.93609 0
M  V30 16527 H 1509.28 -4.77366 -0.851438 0
M  V30 16528 N 1510.62 0.421051 -1.51871 0
M  V30 16529 C 1511.55 1.53094 -1.70572 0
M  V30 16530 C 1512.56 1.5188 -0.586201 0
M  V30 16531 O 1513.75 1.56361 -0.861013 0
M  V30 16532 C 1510.85 2.92002 -1.72011 0
M  V30 16533 C 1510.03 3.17541 -3.0081 0
M  V30 16534 C 1509.08 4.36259 -2.94219 0
M  V30 16535 O 1508.11 4.34118 -3.68144 0
M  V30 16536 N 1509.31 5.40722 -2.11188 0
M  V30 16537 H 1512.08 1.3745 -2.66322 0
M  V30 16538 H 1509.64 0.610204 -1.4996 0
M  V30 16539 H 1511.63 3.6947 -1.65149 0
M  V30 16540 H 1510.2 3.01162 -0.837861 0
M  V30 16541 H 1509.42 2.28225 -3.21414 0
M  V30 16542 H 1510.71 3.3144 -3.86037 0
M  V30 16543 H 1510.11 5.45304 -1.50534 0
M  V30 16544 H 1508.66 6.16979 -2.10192 0
M  V30 16545 N 1512.1 1.42293 0.677538 0
M  V30 16546 C 1513.06 1.45258 1.77293 0
M  V30 16547 C 1514.06 0.340554 1.57152 0
M  V30 16548 O 1515.25 0.601259 1.63495 0
M  V30 16549 C 1512.38 1.28156 3.15894 0
M  V30 16550 H 1513.57 2.42787 1.76052 0
M  V30 16551 H 1511.13 1.287 0.886908 0
M  V30 16552 H 1511.86 0.315381 3.22763 0
M  V30 16553 H 1511.65 2.08744 3.31916 0
M  V30 16554 H 1513.14 1.33107 3.95818 0
M  V30 16555 N 1513.57 -0.913576 1.28419 0
M  V30 16556 C 1514.48 -2.04922 1.14211 0
M  V30 16557 C 1515.5 -1.73865 0.0686424 0
M  V30 16558 O 1516.68 -1.99473 0.277968 0
M  V30 16559 C 1513.74 -3.37214 0.805445 0
M  V30 16560 C 1512.8 -3.81879 1.96129 0
M  V30 16561 C 1512.04 -5.07858 1.6406 0
M  V30 16562 O 1512.26 -5.67693 0.555032 0
M  V30 16563 O 1511.19 -5.4824 2.48428 0
M  V30 16564 H 1515.02 -2.19827 2.09547 0
M  V30 16565 H 1512.6 -1.03501 1.0774 0
M  V30 16566 H 1514.49 -4.16639 0.631648 0
M  V30 16567 H 1513.16 -3.23484 -0.118254 0
M  V30 16568 H 1512.07 -3.03281 2.19024 0
M  V30 16569 H 1513.4 -4.00173 2.8657 0
M  V30 16570 N 1515.05 -1.1067 -1.12204 0
M  V30 16571 C 1516.3 -0.85063 -1.83768 0
M  V30 16572 C 1516.63 0.62379 -1.84226 0
M  V30 16573 O 1515.88 1.47603 -1.28498 0
M  V30 16574 C 1516.18 -1.34727 -3.31034 0
M  V30 16575 C 1515.85 -2.83353 -3.50745 0
M  V30 16576 C 1514.51 -3.2394 -3.55832 0
M  V30 16577 C 1516.86 -3.79118 -3.57658 0
M  V30 16578 C 1514.19 -4.59036 -3.6538 0
M  V30 16579 C 1516.54 -5.1402 -3.68736 0
M  V30 16580 C 1515.21 -5.54177 -3.72081 0
M  V30 16581 H 1514.48 -0.311268 -0.672453 0
M  V30 16582 H 1517.12 -1.38373 -1.32383 0
M  V30 16583 H 1515.43 -0.73424 -3.84859 0
M  V30 16584 H 1517.12 -1.12558 -3.84879 0
M  V30 16585 H 1513.71 -2.50952 -3.47449 0
M  V30 16586 H 1517.9 -3.48867 -3.52995 0
M  V30 16587 H 1513.15 -4.89568 -3.66243 0
M  V30 16588 H 1517.33 -5.88067 -3.73028 0
M  V30 16589 H 1514.96 -6.58853 -3.79232 0
M  V30 16590 N 1516.53 1.29665 -0.895815 0
M  V30 16591 C 1517.76 2.00399 -0.534333 0
M  V30 16592 C 1518.18 1.66632 0.872654 0
M  V30 16593 O 1517.54 0.888811 1.58018 0
M  V30 16594 C 1517.59 3.53154 -0.729023 0
M  V30 16595 O 1516.69 4.11812 0.22023 0
M  V30 16596 H 1516.03 0.630173 -0.209233 0
M  V30 16597 H 1518.56 1.65253 -1.20634 0
M  V30 16598 H 1518.57 4.03073 -0.632179 0
M  V30 16599 H 1517.25 3.77067 -1.75481 0
M  V30 16600 H 1515.82 3.72822 0.0761687 0
M  V30 16601 N 1518.01 0.657889 1.43212 0
M  V30 16602 C 1519.29 0.102895 1.95329 0
M  V30 16603 C 1519.67 -1.37821 1.59901 0
M  V30 16604 O 1519.01 -2.10602 0.886505 0
M  V30 16605 C 1519.22 0.354075 3.47199 0
M  V30 16606 C 1520.57 0.261511 4.23794 0
M  V30 16607 O 1521.6 0.286889 3.55043 0
M  V30 16608 O 1520.45 0.189209 5.46172 0
M  V30 16609 H 1517.55 -0.00692284 0.826971 0
M  V30 16610 H 1520.09 0.73145 1.53127 0
M  V30 16611 H 1518.87 1.38075 3.6613 0
M  V30 16612 H 1518.49 -0.307321 3.96411 0
M  V30 16613 N 1519.49 -1.52437 0.400108 0
M  V30 16614 C 1520.42 -2.23219 -0.474176 0
M  V30 16615 C 1521.4 -1.23699 -1.05533 0
M  V30 16616 O 1522.58 -1.52721 -1.10492 0
M  V30 16617 C 1519.71 -2.95381 -1.65734 0
M  V30 16618 C 1518.75 -4.09258 -1.20042 0
M  V30 16619 S 1519.59 -5.3522 -0.173016 0
M  V30 16620 C 1520.74 -6.10908 -1.36171 0
M  V30 16621 H 1520.98 -2.97029 0.126865 0
M  V30 16622 H 1518.51 -1.53295 0.184353 0
M  V30 16623 H 1520.47 -3.37564 -2.33583 0
M  V30 16624 H 1519.13 -2.21231 -2.2297 0
M  V30 16625 H 1518.32 -4.5889 -2.08413 0
M  V30 16626 H 1517.92 -3.69144 -0.600704 0
M  V30 16627 H 1520.22 -6.37735 -2.28691 0
M  V30 16628 H 1521.16 -7.02279 -0.906106 0
M  V30 16629 H 1521.57 -5.41838 -1.58342 0
M  V30 16630 N 1520.96 -0.130252 -1.57061 0
M  V30 16631 C 1522.21 0.52488 -1.94751 0
M  V30 16632 C 1522.53 1.67107 -1.0166 0
M  V30 16633 O 1523.73 2.38971 -1.28861 0
M  V30 16634 C 1522.19 0.985118 -3.46155 0
M  V30 16635 C 1521.8 -0.133222 -4.47802 0
M  V30 16636 C 1523.54 1.61099 -3.92743 0
M  V30 16637 C 1521.45 0.344346 -5.90397 0
M  V30 16638 H 1520.38 0.19985 -0.727032 0
M  V30 16639 H 1523.03 -0.211912 -1.82272 0
M  V30 16640 H 1521.41 1.77667 -3.53907 0
M  V30 16641 H 1522.58 -0.909784 -4.5173 0
M  V30 16642 H 1520.9 -0.666449 -4.11032 0
M  V30 16643 H 1523.5 1.97963 -4.96704 0
M  V30 16644 H 1523.84 2.49366 -3.3335 0
M  V30 16645 H 1524.37 0.884641 -3.87839 0
M  V30 16646 H 1521.11 -0.502547 -6.53571 0
M  V30 16647 H 1520.63 1.08714 -5.89865 0
M  V30 16648 H 1522.31 0.801885 -6.42012 0
M  V30 16649 N 1522.44 1.56945 0.143535 0
M  V30 16650 C 1523.41 1.97616 1.16106 0
M  V30 16651 C 1524.41 0.863113 1.35672 0
M  V30 16652 O 1525.6 1.12966 1.32606 0
M  V30 16653 C 1522.73 2.29511 2.52067 0
M  V30 16654 H 1523.92 2.88696 0.812066 0
M  V30 16655 H 1521.47 1.51433 0.386999 0
M  V30 16656 H 1522.21 1.41233 2.91931 0
M  V30 16657 H 1521.99 3.10667 2.39225 0
M  V30 16658 H 1523.48 2.61802 3.25345 0
M  V30 16659 N 1523.92 -0.412991 1.52093 0
M  V30 16660 C 1524.87 -1.52347 1.75765 0
M  V30 16661 C 1525.86 -1.57463 0.624641 0
M  V30 16662 O 1527.07 -1.60916 0.806599 0
M  V30 16663 H 1523.44 -0.50659 0.555761 0
M  V30 16664 H 1525.42 -1.29564 2.68804 0
M  V30 16665 C 1524.16 -2.89757 1.92188 0
M  V30 16666 H 1523.49 -2.86561 2.78788 0
M  V30 16667 H 1524.93 -3.66759 2.12753 0
M  V30 16668 C 1523.39 -3.29801 0.687963 0
M  V30 16669 O 1523.92 -4.01435 -0.145984 0
M  V30 16670 N 1522.12 -2.85819 0.524978 0
M  V30 16671 H 1521.67 -2.27694 1.20471 0
M  V30 16672 H 1521.63 -3.12972 -0.299325 0
M  V30 16673 N 1525.4 -1.4265 -0.669982 0
M  V30 16674 C 1526.62 -1.46992 -1.46315 0
M  V30 16675 C 1527.05 -0.0840655 -1.87912 0
M  V30 16676 O 1526.41 0.918554 -1.56308 0
M  V30 16677 C 1526.46 -2.40663 -2.6854 0
M  V30 16678 O 1525.56 -1.88132 -3.66988 0
M  V30 16679 H 1524.9 -0.497844 -0.439372 0
M  V30 16680 H 1527.43 -1.8739 -0.821348 0
M  V30 16681 H 1527.44 -2.57405 -3.16554 0
M  V30 16682 H 1526.12 -3.41346 -2.37604 0
M  V30 16683 H 1524.69 -1.80969 -3.26044 0
M  V30 16684 N 1526.88 0.906753 -1.28902 0
M  V30 16685 C 1527.81 2.02663 -1.15974 0
M  V30 16686 C 1528.79 1.70009 -0.0557202 0
M  V30 16687 O 1529.97 1.92786 -0.233952 0
M  V30 16688 C 1527.1 3.37283 -0.828115 0
M  V30 16689 C 1526.06 3.84123 -1.88767 0
M  V30 16690 C 1525.38 5.15787 -1.40953 0
M  V30 16691 C 1526.68 4.05217 -3.2954 0
M  V30 16692 H 1528.38 2.13738 -2.09658 0
M  V30 16693 H 1525.92 1.02699 -1.0094 0
M  V30 16694 H 1527.88 4.15127 -0.724408 0
M  V30 16695 H 1526.6 3.2628 0.14443 0
M  V30 16696 H 1525.26 3.0849 -1.98065 0
M  V30 16697 H 1524.91 5.01194 -0.425848 0
M  V30 16698 H 1524.61 5.48098 -2.11807 0
M  V30 16699 H 1526.13 5.9618 -1.31918 0
M  V30 16700 H 1527.55 4.73565 -3.23124 0
M  V30 16701 H 1525.94 4.48871 -3.9829 0
M  V30 16702 H 1527.01 3.0979 -3.73039 0
M  V30 16703 N 1528.36 1.11264 1.11616 0
M  V30 16704 C 1529.29 0.727118 2.17361 0
M  V30 16705 C 1530.3 -0.240356 1.61016 0
M  V30 16706 O 1531.49 -0.0235265 1.78484 0
M  V30 16707 C 1528.59 0.05361 3.38858 0
M  V30 16708 C 1527.76 1.04744 4.24673 0
M  V30 16709 C 1526.82 0.403827 5.24648 0
M  V30 16710 O 1525.85 1.0572 5.59296 0
M  V30 16711 N 1527.05 -0.834071 5.74477 0
M  V30 16712 H 1529.81 1.63696 2.51045 0
M  V30 16713 H 1527.38 1.00261 1.2712 0
M  V30 16714 H 1529.37 -0.388643 4.0283 0
M  V30 16715 H 1527.94 -0.758778 3.03251 0
M  V30 16716 H 1527.16 1.6677 3.57185 0
M  V30 16717 H 1528.45 1.71988 4.7885 0
M  V30 16718 H 1527.84 -1.3841 5.48506 0
M  V30 16719 H 1526.4 -1.21933 6.40293 0
M  V30 16720 N 1529.83 -1.29188 0.902679 0
M  V30 16721 C 1530.78 -2.27632 0.381088 0
M  V30 16722 C 1531.75 -1.57131 -0.538431 0
M  V30 16723 O 1532.94 -1.85096 -0.463027 0
M  V30 16724 C 1530.08 -3.42971 -0.382701 0
M  V30 16725 C 1529.19 -4.28249 0.568054 0
M  V30 16726 C 1528.32 -5.30772 -0.213082 0
M  V30 16727 C 1527.36 -6.07707 0.732004 0
M  V30 16728 N 1526.5 -7.02098 -0.0149139 0
M  V30 16729 H 1531.34 -2.71628 1.22566 0
M  V30 16730 H 1528.88 -1.33594 0.615724 0
M  V30 16731 H 1530.83 -4.08623 -0.841619 0
M  V30 16732 H 1529.46 -2.99997 -1.19171 0
M  V30 16733 H 1528.52 -3.62743 1.14549 0
M  V30 16734 H 1529.83 -4.81794 1.29136 0
M  V30 16735 H 1528.98 -6.02255 -0.733065 0
M  V30 16736 H 1527.72 -4.77966 -0.969504 0
M  V30 16737 H 1526.73 -5.35086 1.26346 0
M  V30 16738 H 1527.95 -6.62602 1.4878 0
M  V30 16739 H 1525.9 -6.51658 -0.753548 0
M  V30 16740 H 1525.81 -7.53214 0.648423 0
M  V30 16741 H 1527.08 -7.77796 -0.515062 0
M  V30 16742 N 1531.31 -0.665475 -1.42861 0
M  V30 16743 C 1532.73 -0.334157 -1.56063 0
M  V30 16744 C 1532.93 1.16104 -1.64688 0
M  V30 16745 O 1531.98 1.94622 -1.60867 0
M  V30 16746 C 1533.3 -1.05628 -2.81537 0
M  V30 16747 C 1534.84 -1.03771 -2.95297 0
M  V30 16748 C 1535.32 -1.74098 -4.2362 0
M  V30 16749 N 1536.81 -1.7092 -4.30512 0
M  V30 16750 C 1537.55 -2.222 -5.28597 0
M  V30 16751 N 1537.04 -2.81821 -6.32889 0
M  V30 16752 N 1538.83 -2.12628 -5.20332 0
M  V30 16753 H 1530.99 -1.6356 -1.35506 0
M  V30 16754 H 1533.25 -0.688538 -0.651628 0
M  V30 16755 H 1532.95 -2.11141 -2.81269 0
M  V30 16756 H 1532.83 -0.615586 -3.72143 0
M  V30 16757 H 1535.22 0.00905324 -2.95099 0
M  V30 16758 H 1535.3 -1.51721 -2.05948 0
M  V30 16759 H 1534.94 -2.78737 -4.2458 0
M  V30 16760 H 1534.87 -1.23604 -5.11888 0
M  V30 16761 H 1537.36 -1.27425 -3.55769 0
M  V30 16762 H 1537.67 -3.18594 -7.04072 0
M  V30 16763 H 1536.02 -2.85887 -6.33478 0
M  V30 16764 H 1539.21 -1.65746 -4.37774 0
M  V30 16765 H 1539.38 -2.52899 -5.96612 0
M  V30 16766 N 1532.79 1.52222 -0.408187 0
M  V30 16767 C 1533.72 2.24676 0.453129 0
M  V30 16768 C 1534.73 1.27605 1.01098 0
M  V30 16769 O 1535.92 1.53557 0.910084 0
M  V30 16770 C 1533.02 2.96431 1.64262 0
M  V30 16771 C 1532.2 4.20364 1.20883 0
M  V30 16772 C 1531.26 4.74951 2.26512 0
M  V30 16773 O 1530.28 5.37556 1.87142 0
M  V30 16774 N 1531.48 4.56443 3.58665 0
M  V30 16775 H 1534.25 2.9923 -0.16771 0
M  V30 16776 H 1531.81 1.60178 -0.235517 0
M  V30 16777 H 1533.8 3.29844 2.3449 0
M  V30 16778 H 1532.37 2.25068 2.1694 0
M  V30 16779 H 1531.59 3.92776 0.334712 0
M  V30 16780 H 1532.88 5.0085 0.895939 0
M  V30 16781 H 1532.28 4.06511 3.93402 0
M  V30 16782 H 1530.83 4.94295 4.24871 0
M  V30 16783 N 1534.27 0.138579 1.5699 0
M  V30 16784 C 1535.23 -0.79013 2.1515 0
M  V30 16785 C 1536.23 -1.1811 1.09117 0
M  V30 16786 O 1537.42 -1.1034 1.34798 0
M  V30 16787 C 1534.55 -2.07109 2.70774 0
M  V30 16788 H 1535.75 -0.284343 2.98549 0
M  V30 16789 H 1533.3 -0.11081 1.55907 0
M  V30 16790 H 1534.03 -2.62074 1.91018 0
M  V30 16791 H 1533.82 -1.80004 3.4834 0
M  V30 16792 H 1535.31 -2.73456 3.15613 0
M  V30 16793 N 1535.75 -1.57019 -0.13521 0
M  V30 16794 C 1536.71 -1.98229 -1.15056 0
M  V30 16795 C 1537.71 -0.870295 -1.35213 0
M  V30 16796 O 1538.9 -1.13668 -1.32005 0
M  V30 16797 C 1536.03 -2.30844 -2.50846 0
M  V30 16798 H 1537.22 -2.89123 -0.796744 0
M  V30 16799 H 1534.78 -1.51636 -0.378962 0
M  V30 16800 H 1535.51 -1.42779 -2.91178 0
M  V30 16801 H 1535.3 -3.11931 -2.37574 0
M  V30 16802 H 1536.79 -2.63524 -3.23952 0
M  V30 16803 N 1537.22 0.404919 -1.52309 0
M  V30 16804 C 1538.47 1.14921 -1.66246 0
M  V30 16805 C 1538.79 1.90919 -0.396868 0
M  V30 16806 O 1538.06 1.86856 0.588361 0
M  V30 16807 H 1536.64 0.427223 -0.612772 0
M  V30 16808 H 1539.31 0.461091 -1.89367 0
M  V30 16809 H 1538.4 1.86095 -2.5055 0
M  V30 16810 N 1538.7 1.43003 0.662408 0
M  V30 16811 C 1539.95 1.43422 1.41821 0
M  V30 16812 C 1540.26 0.0586909 1.95512 0
M  V30 16813 O 1541.47 -0.0596978 2.71434 0
M  V30 16814 C 1539.93 2.52344 2.56613 0
M  V30 16815 C 1539.53 3.95961 2.09569 0
M  V30 16816 C 1541.28 2.61945 3.34044 0
M  V30 16817 C 1539.19 4.96367 3.21518 0
M  V30 16818 H 1538.12 0.533485 0.532832 0
M  V30 16819 H 1540.77 1.68958 0.715911 0
M  V30 16820 H 1539.15 2.19993 3.2927 0
M  V30 16821 H 1540.32 4.37728 1.43984 0
M  V30 16822 H 1538.64 3.90322 1.45044 0
M  V30 16823 H 1541.23 3.34137 4.17441 0
M  V30 16824 H 1541.58 1.66708 3.81463 0
M  V30 16825 H 1542.11 2.93552 2.68463 0
M  V30 16826 H 1538.85 5.93124 2.79077 0
M  V30 16827 H 1538.37 4.59221 3.85845 0
M  V30 16828 H 1540.05 5.18652 3.86793 0
M  V30 16829 N 1540.18 -0.899904 1.29381 0
M  V30 16830 C 1541.6 -1.18067 1.07388 0
M  V30 16831 C 1541.8 -2.00739 -0.174951 0
M  V30 16832 O 1540.85 -2.36937 -0.872771 0
M  V30 16833 C 1542.17 -1.90182 2.32919 0
M  V30 16834 C 1543.71 -2.03009 2.38236 0
M  V30 16835 C 1544.19 -2.78533 3.6357 0
M  V30 16836 N 1545.68 -2.86088 3.64291 0
M  V30 16837 C 1546.41 -3.45062 4.57952 0
M  V30 16838 N 1545.91 -4.05204 5.61945 0
M  V30 16839 N 1547.7 -3.42734 4.45522 0
M  V30 16840 H 1539.85 -0.348306 2.09525 0
M  V30 16841 H 1542.12 -0.216796 0.922878 0
M  V30 16842 H 1541.82 -1.36871 3.23974 0
M  V30 16843 H 1541.7 -2.90658 2.40412 0
M  V30 16844 H 1544.08 -2.55495 1.47669 0
M  V30 16845 H 1544.17 -1.01666 2.34729 0
M  V30 16846 H 1543.81 -2.26723 4.54488 0
M  V30 16847 H 1543.74 -3.8022 3.64335 0
M  V30 16848 H 1546.23 -2.43372 2.891 0
M  V30 16849 H 1546.54 -4.48225 6.29535 0
M  V30 16850 H 1544.89 -4.03667 5.65755 0
M  V30 16851 H 1548.08 -2.94967 3.63472 0
M  V30 16852 H 1548.25 -3.884 5.187 0
M  V30 16853 N 1541.66 -1.11854 -1.11024 0
M  V30 16854 C 1542.88 -0.892999 -1.8719 0
M  V30 16855 C 1543.31 0.552058 -1.79816 0
M  V30 16856 O 1542.67 1.39025 -1.16369 0
M  V30 16857 C 1542.71 -1.3647 -3.33779 0
M  V30 16858 O 1541.82 -0.539202 -4.0886 0
M  V30 16859 H 1541.16 -0.321319 -0.581076 0
M  V30 16860 H 1543.69 -1.4891 -1.4031 0
M  V30 16861 H 1543.7 -1.3611 -3.84627 0
M  V30 16862 H 1542.37 -2.41694 -3.38462 0
M  V30 16863 H 1540.95 -0.60927 -3.67889 0
M  V30 16864 N 1543.14 1.28707 -0.909517 0
M  V30 16865 C 1544.07 2.26481 -0.35198 0
M  V30 16866 C 1545.08 1.54698 0.507199 0
M  V30 16867 O 1546.27 1.75558 0.322765 0
M  V30 16868 C 1543.37 3.3495 0.515897 0
M  V30 16869 C 1542.54 4.36229 -0.3198 0
M  V30 16870 C 1541.6 5.23983 0.482483 0
M  V30 16871 O 1540.63 5.69106 -0.10347 0
M  V30 16872 N 1541.83 5.52328 1.78645 0
M  V30 16873 H 1544.6 2.74959 -1.19238 0
M  V30 16874 H 1542.16 1.42144 -0.775023 0
M  V30 16875 H 1544.15 3.90592 1.05925 0
M  V30 16876 H 1542.72 2.86214 1.257 0
M  V30 16877 H 1541.94 3.80109 -1.04454 0
M  V30 16878 H 1543.23 5.00924 -0.891769 0
M  V30 16879 H 1542.62 5.17494 2.28509 0
M  V30 16880 H 1541.18 6.10744 2.27672 0
M  V30 16881 N 1544.61 0.673042 1.42506 0
M  V30 16882 C 1545.56 -0.00638067 2.30799 0
M  V30 16883 C 1546.53 -0.794524 1.45865 0
M  V30 16884 O 1547.72 -0.767129 1.74699 0
M  V30 16885 C 1544.86 -0.952923 3.31683 0
M  V30 16886 C 1543.97 -0.158787 4.31708 0
M  V30 16887 C 1543.1 -1.10092 5.19666 0
M  V30 16888 C 1542.14 -0.29837 6.11372 0
M  V30 16889 N 1541.28 -1.19312 6.91888 0
M  V30 16890 H 1546.12 0.75237 2.88346 0
M  V30 16891 H 1543.66 0.382763 1.42033 0
M  V30 16892 H 1545.62 -1.51552 3.887 0
M  V30 16893 H 1544.25 -1.67832 2.75739 0
M  V30 16894 H 1543.3 0.520406 3.76823 0
M  V30 16895 H 1544.61 0.464385 4.96634 0
M  V30 16896 H 1543.76 -1.7335 5.81407 0
M  V30 16897 H 1542.5 -1.75798 4.54914 0
M  V30 16898 H 1541.51 0.347437 5.48701 0
M  V30 16899 H 1542.73 0.354569 6.78174 0
M  V30 16900 H 1540.68 -1.83661 6.29765 0
M  V30 16901 H 1540.6 -0.624986 7.53412 0
M  V30 16902 H 1541.86 -1.81323 7.58118 0
M  V30 16903 N 1546.09 -1.52004 0.416254 0
M  V30 16904 C 1547.5 -1.86628 -0.0517247 0
M  V30 16905 C 1547.85 -1.33463 -1.43813 0
M  V30 16906 O 1546.98 -0.676793 -2.05544 0
M  V30 16907 C 1547.57 -3.38651 -0.100637 0
M  V30 16908 C 1546.13 -3.72888 -0.512969 0
M  V30 16909 C 1545.28 -2.75584 0.307975 0
M  V30 16910 H 1548.23 -1.45529 0.633018 0
M  V30 16911 H 1548.25 -3.69348 -0.914465 0
M  V30 16912 H 1547.76 -3.77316 0.908538 0
M  V30 16913 H 1545.87 -3.39804 -1.52852 0
M  V30 16914 H 1545.98 -4.78435 -0.252408 0
M  V30 16915 H 1544.34 -2.53653 -0.230717 0
M  V30 16916 H 1545.13 -3.1709 1.31563 0
M  V30 16917 N 1547.57 -0.146903 -1.56914 0
M  V30 16918 C 1548.99 0.20951 -1.58219 0
M  V30 16919 C 1549.19 1.64679 -1.16116 0
M  V30 16920 O 1548.24 2.37352 -0.861414 0
M  V30 16921 C 1549.56 -0.0491564 -3.0066 0
M  V30 16922 C 1551.1 0.0145605 -3.12997 0
M  V30 16923 C 1551.58 -0.216773 -4.57487 0
M  V30 16924 N 1553.07 -0.163698 -4.62911 0
M  V30 16925 C 1553.8 -0.317204 -5.72522 0
M  V30 16926 N 1553.3 -0.528426 -6.90782 0
M  V30 16927 N 1555.09 -0.254814 -5.61522 0
M  V30 16928 H 1547.24 -1.08536 -1.82575 0
M  V30 16929 H 1549.51 -0.42963 -0.845057 0
M  V30 16930 H 1549.21 -1.04387 -3.35851 0
M  V30 16931 H 1549.09 0.670296 -3.71197 0
M  V30 16932 H 1551.47 0.999829 -2.77646 0
M  V30 16933 H 1551.56 -0.737219 -2.44946 0
M  V30 16934 H 1551.2 -1.19914 -4.93541 0
M  V30 16935 H 1551.13 0.555329 -5.23664 0
M  V30 16936 H 1553.62 -0.00509433 -3.779 0
M  V30 16937 H 1553.93 -0.635667 -7.70181 0
M  V30 16938 H 1552.28 -0.564746 -6.92702 0
M  V30 16939 H 1555.47 -0.0905626 -4.68012 0
M  V30 16940 H 1555.64 -0.377881 -6.46897 0
M  V30 16941 N 1549.05 1.57088 0.126881 0
M  V30 16942 C 1550.46 1.52205 0.480175 0
M  V30 16943 C 1550.66 0.858634 1.8229 0
M  V30 16944 O 1549.72 0.437636 2.48679 0
M  V30 16945 C 1551.03 2.96974 0.471931 0
M  V30 16946 C 1552.58 3.08021 0.556037 0
M  V30 16947 C 1553.06 4.54335 0.57826 0
M  V30 16948 N 1554.55 4.58758 0.639922 0
M  V30 16949 C 1555.28 5.69372 0.678434 0
M  V30 16950 N 1554.78 6.89503 0.67507 0
M  V30 16951 N 1556.57 5.57459 0.720845 0
M  V30 16952 H 1548.72 1.98604 -0.753008 0
M  V30 16953 H 1550.99 0.90666 -0.276895 0
M  V30 16954 H 1550.69 3.48849 -0.44687 0
M  V30 16955 H 1550.57 3.53994 1.3026 0
M  V30 16956 H 1552.95 2.56153 1.46526 0
M  V30 16957 H 1553.03 2.54009 -0.302171 0
M  V30 16958 H 1552.68 5.06847 -0.326884 0
M  V30 16959 H 1552.61 5.06151 1.45324 0
M  V30 16960 H 1555.1 3.72285 0.649005 0
M  V30 16961 H 1555.41 7.6956 0.706862 0
M  V30 16962 H 1553.76 6.92023 0.64262 0
M  V30 16963 H 1556.95 4.62517 0.720783 0
M  V30 16964 H 1557.12 6.43675 0.747392 0
M  V30 16965 N 1550.53 -0.396836 1.52522 0
M  V30 16966 C 1551.77 -1.14432 1.67431 0
M  V30 16967 C 1552.11 -1.89842 0.409115 0
M  V30 16968 O 1551.38 -1.85244 -0.592863 0
M  V30 16969 C 1551.66 -2.12889 2.90431 0
M  V30 16970 C 1551.52 -1.41295 4.27031 0
M  V30 16971 C 1552.84 -3.13412 3.08967 0
M  V30 16972 H 1549.95 -0.414643 0.609295 0
M  V30 16973 H 1552.6 -0.428604 1.85103 0
M  V30 16974 H 1550.75 -2.73924 2.75495 0
M  V30 16975 H 1552.42 -0.832848 4.53719 0
M  V30 16976 H 1550.66 -0.714834 4.2787 0
M  V30 16977 H 1551.33 -2.13198 5.09167 0
M  V30 16978 H 1553.81 -2.62462 3.22883 0
M  V30 16979 H 1552.68 -3.79555 3.96522 0
M  V30 16980 H 1552.95 -3.81836 2.22831 0
M  V30 16981 N 1552.01 -1.43353 -0.654814 0
M  V30 16982 C 1552.97 -1.4806 -1.7496 0
M  V30 16983 C 1553.97 -0.365513 -1.56591 0
M  V30 16984 O 1555.16 -0.627194 -1.62517 0
M  V30 16985 C 1552.29 -1.33165 -3.13815 0
M  V30 16986 H 1553.48 -2.45557 -1.72167 0
M  V30 16987 H 1551.04 -1.30094 -0.86632 0
M  V30 16988 H 1551.77 -0.366689 -3.2222 0
M  V30 16989 H 1551.56 -2.13998 -3.28553 0
M  V30 16990 H 1553.05 -1.39388 -3.93651 0
M  V30 16991 N 1553.48 0.89303 -1.29857 0
M  V30 16992 C 1554.71 1.6827 -1.21243 0
M  V30 16993 C 1555.13 1.86778 0.222621 0
M  V30 16994 O 1554.49 1.39291 1.1605 0
M  V30 16995 C 1554.54 3.041 -1.93792 0
M  V30 16996 O 1553.64 3.92696 -1.25951 0
M  V30 16997 H 1552.98 0.514479 -0.419771 0
M  V30 16998 H 1555.51 1.11513 -1.7154 0
M  V30 16999 H 1555.52 3.54198 -2.02504 0
M  V30 17000 H 1554.2 2.89948 -2.98166 0
M  V30 17001 H 1552.78 3.51132 -1.25541 0
M  V30 17002 N 1554.96 1.12442 1.10429 0
M  V30 17003 C 1556.19 0.901291 1.85904 0
M  V30 17004 C 1556.6 -0.552928 1.8094 0
M  V30 17005 O 1555.94 -1.39404 1.19633 0
M  V30 17006 C 1556 1.29808 3.35246 0
M  V30 17007 C 1555.67 2.76361 3.63969 0
M  V30 17008 C 1556.67 3.74553 3.60564 0
M  V30 17009 C 1554.35 3.13268 3.92643 0
M  V30 17010 C 1556.34 5.07667 3.85426 0
M  V30 17011 C 1554.03 4.46564 4.17162 0
M  V30 17012 C 1555.03 5.43572 4.13544 0
M  V30 17013 O 1554.72 6.74465 4.37439 0
M  V30 17014 H 1554.45 0.321969 0.5944 0
M  V30 17015 H 1557 1.49816 1.40514 0
M  V30 17016 H 1555.23 0.644416 3.81293 0
M  V30 17017 H 1556.92 1.04908 3.92108 0
M  V30 17018 H 1557.69 3.47385 3.3845 0
M  V30 17019 H 1553.57 2.3837 3.94589 0
M  V30 17020 H 1557.11 5.83375 3.82518 0
M  V30 17021 H 1553.01 4.73461 4.38754 0
M  V30 17022 H 1553.78 6.80412 4.54953 0
M  V30 17023 N 1556.44 -1.28223 0.91633 0
M  V30 17024 C 1557.39 -2.27215 0.40521 0
M  V30 17025 C 1558.36 -1.57693 -0.521734 0
M  V30 17026 O 1559.54 -1.85577 -0.443369 0
M  V30 17027 C 1556.68 -3.43358 -0.346303 0
M  V30 17028 C 1555.79 -4.27622 0.613443 0
M  V30 17029 C 1554.93 -5.30969 -0.156775 0
M  V30 17030 C 1553.97 -6.06897 0.796418 0
M  V30 17031 N 1553.11 -7.02075 0.0595539 0
M  V30 17032 H 1557.95 -2.70312 1.2544 0
M  V30 17033 H 1555.48 -1.32933 0.629859 0
M  V30 17034 H 1557.44 -4.09492 -0.798231 0
M  V30 17035 H 1556.07 -3.01244 -1.15982 0
M  V30 17036 H 1555.12 -3.61508 1.1839 0
M  V30 17037 H 1556.43 -4.80397 1.34239 0
M  V30 17038 H 1555.59 -6.02999 -0.669146 0
M  V30 17039 H 1554.33 -4.78968 -0.918755 0
M  V30 17040 H 1553.33 -5.33716 1.32014 0
M  V30 17041 H 1554.56 -6.60987 1.558 0
M  V30 17042 H 1552.5 -6.5242 -0.684388 0
M  V30 17043 H 1552.42 -7.52484 0.728275 0
M  V30 17044 H 1553.69 -7.78299 -0.432538 0
M  V30 17045 N 1557.92 -0.68059 -1.42147 0
M  V30 17046 C 1558.86 -0.00585926 -2.30799 0
M  V30 17047 C 1559.83 0.786778 -1.46284 0
M  V30 17048 O 1561.02 0.757853 -1.75103 0
M  V30 17049 C 1558.16 0.935319 -3.32183 0
M  V30 17050 C 1557.27 0.13589 -4.31786 0
M  V30 17051 C 1556.41 1.07335 -5.20243 0
M  V30 17052 C 1555.45 0.265943 -6.11522 0
M  V30 17053 N 1554.58 1.15641 -6.92511 0
M  V30 17054 H 1559.42 -0.767651 -2.87943 0
M  V30 17055 H 1556.96 -0.39029 -1.41828 0
M  V30 17056 H 1558.92 1.49489 -3.89498 0
M  V30 17057 H 1557.55 1.66368 -2.76626 0
M  V30 17058 H 1556.6 -0.540383 -3.76542 0
M  V30 17059 H 1557.91 -0.490716 -4.9638 0
M  V30 17060 H 1557.07 1.70265 -5.82319 0
M  V30 17061 H 1555.81 1.73383 -4.55839 0
M  V30 17062 H 1554.81 -0.376531 -5.48509 0
M  V30 17063 H 1556.04 -0.39053 -6.77976 0
M  V30 17064 H 1553.98 1.80319 -6.30731 0
M  V30 17065 H 1553.9 0.585022 -7.53733 0
M  V30 17066 H 1555.17 1.773 -7.59069 0
M  V30 17067 N 1559.4 1.51781 -0.424309 0
M  V30 17068 C 1560.64 2.0157 0.146203 0
M  V30 17069 C 1560.96 1.3111 1.44344 0
M  V30 17070 O 1560.23 0.441631 1.90857 0
M  V30 17071 H 1558.81 0.744821 0.057019 0
M  V30 17072 H 1561.48 1.8656 -0.564031 0
M  V30 17073 H 1560.57 3.10335 0.331464 0
M  V30 17074 N 1560.87 0.155222 1.56834 0
M  V30 17075 C 1562.1 -0.500542 2.00754 0
M  V30 17076 C 1562.52 -1.57878 1.03538 0
M  V30 17077 O 1561.87 -1.82469 0.0336651 0
M  V30 17078 C 1561.92 -1.09366 3.4456 0
M  V30 17079 O 1561.65 -0.0584788 4.38061 0
M  V30 17080 C 1563.15 -1.82923 4.038 0
M  V30 17081 H 1560.37 -0.129589 0.658368 0
M  V30 17082 H 1562.91 0.252223 2.02939 0
M  V30 17083 H 1561.07 -1.797 3.43201 0
M  V30 17084 H 1561.48 -0.494125 5.22167 0
M  V30 17085 H 1562.95 -2.19703 5.06394 0
M  V30 17086 H 1563.43 -2.71823 3.44976 0
M  V30 17087 H 1564.04 -1.17268 4.08813 0
M  V30 17088 N 1562.35 -1.57153 -0.118549 0
M  V30 17089 C 1563.28 -2.03409 -1.1466 0
M  V30 17090 C 1564.26 -0.918636 -1.43161 0
M  V30 17091 O 1565.45 -1.18838 -1.53594 0
M  V30 17092 C 1562.58 -2.43879 -2.47265 0
M  V30 17093 C 1561.53 -3.58873 -2.33225 0
M  V30 17094 C 1560.86 -3.85244 -3.70798 0
M  V30 17095 C 1562.16 -4.90582 -1.79239 0
M  V30 17096 H 1563.85 -2.89545 -0.761862 0
M  V30 17097 H 1561.4 -1.39296 -0.365034 0
M  V30 17098 H 1563.35 -2.74844 -3.19435 0
M  V30 17099 H 1562.07 -1.54715 -2.8763 0
M  V30 17100 H 1560.73 -3.28119 -1.63504 0
M  V30 17101 H 1560.38 -2.93285 -4.08648 0
M  V30 17102 H 1560.08 -4.62649 -3.62257 0
M  V30 17103 H 1561.61 -4.18661 -4.44472 0
M  V30 17104 H 1563.02 -5.20079 -2.41227 0
M  V30 17105 H 1561.42 -5.71989 -1.81518 0
M  V30 17106 H 1562.49 -4.79065 -0.74999 0
M  V30 17107 N 1563.83 0.388742 -1.5273 0
M  V30 17108 C 1564.74 1.49916 -1.8045 0
M  V30 17109 C 1565.76 1.59679 -0.691282 0
M  V30 17110 O 1566.93 1.7601 -0.978898 0
M  V30 17111 C 1564 2.85445 -1.96779 0
M  V30 17112 C 1563.06 2.85402 -3.20693 0
M  V30 17113 C 1562.29 4.14466 -3.36234 0
M  V30 17114 O 1562.51 5.09436 -2.56576 0
M  V30 17115 O 1561.45 4.2169 -4.29489 0
M  V30 17116 H 1565.27 1.29423 -2.74743 0
M  V30 17117 H 1562.86 0.576607 -1.37825 0
M  V30 17118 H 1564.74 3.65791 -2.09224 0
M  V30 17119 H 1563.42 3.05964 -1.05676 0
M  V30 17120 H 1562.32 2.03836 -3.1369 0
M  V30 17121 H 1563.66 2.69835 -4.11643 0
M  V30 17122 N 1565.31 1.43698 0.647203 0
M  V30 17123 C 1566.54 1.48869 1.43254 0
M  V30 17124 C 1566.95 0.107061 1.88897 0
M  V30 17125 O 1566.29 -0.894189 1.60468 0
M  V30 17126 C 1566.35 2.37755 2.69653 0
M  V30 17127 C 1566.01 3.85197 2.45911 0
M  V30 17128 C 1567.01 4.7615 2.08752 0
M  V30 17129 C 1564.7 4.29744 2.60049 0
M  V30 17130 C 1566.69 6.09647 1.86037 0
M  V30 17131 C 1564.38 5.63293 2.36949 0
M  V30 17132 C 1565.38 6.53061 1.99999 0
M  V30 17133 O 1565.06 7.8414 1.77144 0
M  V30 17134 H 1564.8 0.507694 0.446343 0
M  V30 17135 H 1567.35 1.89172 0.800205 0
M  V30 17136 H 1565.58 1.9235 3.35467 0
M  V30 17137 H 1567.27 2.3406 3.31618 0
M  V30 17138 H 1568.03 4.4301 1.974 0
M  V30 17139 H 1563.91 3.60142 2.87782 0
M  V30 17140 H 1567.46 6.79676 1.57121 0
M  V30 17141 H 1563.35 5.95998 2.47905 0
M  V30 17142 H 1564.12 7.95778 1.91521 0
M  V30 17143 N 1566.79 -0.886131 1.30328 0
M  V30 17144 C 1567.72 -2.00793 1.19183 0
M  V30 17145 C 1568.7 -1.69899 0.08276 0
M  V30 17146 O 1569.88 -1.92389 0.264593 0
M  V30 17147 C 1567.01 -3.35922 0.881669 0
M  V30 17148 C 1565.97 -3.81072 1.94855 0
M  V30 17149 C 1565.29 -5.1348 1.4914 0
M  V30 17150 C 1566.59 -3.99923 3.35944 0
M  V30 17151 H 1568.29 -2.10375 2.13032 0
M  V30 17152 H 1565.83 -1.0108 1.02561 0
M  V30 17153 H 1567.79 -4.13922 0.790359 0
M  V30 17154 H 1566.51 -3.26469 -0.0925037 0
M  V30 17155 H 1565.17 -3.053 2.02947 0
M  V30 17156 H 1564.82 -5.00453 0.50553 0
M  V30 17157 H 1564.52 -5.44659 2.205 0
M  V30 17158 H 1566.04 -5.94005 1.41386 0
M  V30 17159 H 1567.45 -4.68364 3.30617 0
M  V30 17160 H 1565.85 -4.42477 4.05381 0
M  V30 17161 H 1566.92 -3.03816 3.77921 0
M  V30 17162 N 1568.26 -1.13026 -1.09832 0
M  V30 17163 C 1569.2 -0.761606 -2.16176 0
M  V30 17164 C 1570.21 0.214709 -1.61378 0
M  V30 17165 O 1571.4 -0.00487178 -1.78499 0
M  V30 17166 C 1568.5 -0.107513 -3.38729 0
M  V30 17167 C 1567.67 -1.11487 -4.22953 0
M  V30 17168 C 1566.73 -0.487243 -5.23939 0
M  V30 17169 O 1565.76 -1.14605 -5.57543 0
M  V30 17170 N 1566.96 0.742571 -5.75731 0
M  V30 17171 H 1569.72 -1.67669 -2.48409 0
M  V30 17172 H 1567.28 -1.0227 -1.25509 0
M  V30 17173 H 1569.28 0.324507 -4.03397 0
M  V30 17174 H 1567.85 0.710438 -3.0442 0
M  V30 17175 H 1567.07 -1.72432 -3.54487 0
M  V30 17176 H 1568.35 -1.79584 -4.76053 0
M  V30 17177 H 1567.75 1.29667 -5.50639 0
M  V30 17178 H 1566.31 1.11731 -6.42152 0
M  V30 17179 N 1569.74 1.27735 -0.923117 0
M  V30 17180 C 1570.67 2.29395 -0.435907 0
M  V30 17181 C 1571.65 1.62542 0.501403 0
M  V30 17182 O 1572.84 1.89884 0.407135 0
M  V30 17183 C 1569.97 3.45856 0.316348 0
M  V30 17184 C 1568.92 4.24672 -0.532697 0
M  V30 17185 C 1568.25 5.33563 0.348454 0
M  V30 17186 C 1569.55 4.90494 -1.79481 0
M  V30 17187 H 1571.24 2.70398 -1.28551 0
M  V30 17188 H 1568.79 1.29989 -0.619581 0
M  V30 17189 H 1570.74 4.1607 0.668098 0
M  V30 17190 H 1569.47 3.03758 1.19994 0
M  V30 17191 H 1568.12 3.56198 -0.867093 0
M  V30 17192 H 1567.77 4.87708 1.23086 0
M  V30 17193 H 1567.47 5.87202 -0.216104 0
M  V30 17194 H 1569 6.06622 0.695878 0
M  V30 17195 H 1570.41 5.53019 -1.5114 0
M  V30 17196 H 1568.81 5.5417 -2.30251 0
M  V30 17197 H 1569.88 4.14454 -2.51707 0
M  V30 17198 N 1571.22 0.688118 1.41784 0
M  V30 17199 C 1572.17 0.00661035 2.32599 0
M  V30 17200 C 1573.16 -0.776475 1.50556 0
M  V30 17201 O 1574.37 -0.682937 1.66541 0
M  V30 17202 H 1570.74 -0.0166615 0.751815 0
M  V30 17203 H 1572.71 0.789718 2.8776 0
M  V30 17204 C 1571.46 -0.921251 3.35273 0
M  V30 17205 H 1570.79 -0.328099 3.98451 0
M  V30 17206 H 1572.23 -1.36655 4.01374 0
M  V30 17207 C 1570.69 -2.03393 2.68576 0
M  V30 17208 O 1571.22 -3.1219 2.52785 0
M  V30 17209 N 1569.42 -1.8095 2.27389 0
M  V30 17210 H 1568.97 -0.924692 2.40431 0
M  V30 17211 H 1568.93 -2.55584 1.83096 0
M  V30 17212 N 1572.7 -1.51554 0.432352 0
M  V30 17213 C 1573.93 -2.06462 -0.1346 0
M  V30 17214 C 1574.34 -1.30027 -1.36889 0
M  V30 17215 O 1573.7 -0.358447 -1.78945 0
M  V30 17216 C 1573.75 -3.58538 -0.461822 0
M  V30 17217 O 1573.47 -4.32085 0.723471 0
M  V30 17218 C 1574.97 -4.29943 -1.07999 0
M  V30 17219 H 1572.19 -0.670923 -0.0101329 0
M  V30 17220 H 1574.74 -1.9519 0.609999 0
M  V30 17221 H 1572.89 -3.6974 -1.15632 0
M  V30 17222 H 1573.3 -5.22611 0.444757 0
M  V30 17223 H 1574.78 -5.37451 -1.25898 0
M  V30 17224 H 1575.26 -3.87912 -2.05963 0
M  V30 17225 H 1575.86 -4.23171 -0.425022 0
M  V30 17226 N 1574.18 -0.163538 -1.56749 0
M  V30 17227 C 1575.4 0.489888 -2.01017 0
M  V30 17228 C 1575.82 1.57327 -1.04373 0
M  V30 17229 O 1575.18 1.82449 -0.0433414 0
M  V30 17230 C 1575.23 1.07537 -3.45135 0
M  V30 17231 O 1574.95 0.0352465 -4.38086 0
M  V30 17232 C 1576.45 1.80779 -4.04764 0
M  V30 17233 H 1573.67 0.126095 -0.659046 0
M  V30 17234 H 1576.21 -0.262982 -2.02802 0
M  V30 17235 H 1574.37 1.77877 -3.44149 0
M  V30 17236 H 1574.78 0.466426 -5.22422 0
M  V30 17237 H 1576.26 2.17014 -5.07552 0
M  V30 17238 H 1576.73 2.6999 -3.46413 0
M  V30 17239 H 1577.34 1.15098 -4.09429 0
M  V30 17240 N 1575.65 1.57214 0.110213 0
M  V30 17241 C 1576.93 1.76298 0.847249 0
M  V30 17242 C 1577.31 0.741294 1.97656 0
M  V30 17243 O 1576.66 -0.233104 2.27308 0
M  V30 17244 C 1576.87 3.21588 1.35582 0
M  V30 17245 C 1578.22 3.8434 1.80465 0
M  V30 17246 O 1579.24 3.25244 1.45241 0
M  V30 17247 O 1578.1 4.88231 2.45546 0
M  V30 17248 H 1575.19 0.722167 0.402993 0
M  V30 17249 H 1577.74 1.69443 0.0932694 0
M  V30 17250 H 1576.51 3.87472 0.54599 0
M  V30 17251 H 1576.14 3.33015 2.17225 0
M  V30 17252 N 1577.13 -0.380637 1.52934 0
M  V30 17253 C 1578.08 -1.46544 1.78307 0
M  V30 17254 C 1579.05 -1.53825 0.626671 0
M  V30 17255 O 1580.23 -1.6995 0.867276 0
M  V30 17256 C 1577.37 -2.83676 1.96525 0
M  V30 17257 C 1576.49 -2.85481 3.24229 0
M  V30 17258 C 1575.62 -4.14092 3.32718 0
M  V30 17259 C 1574.66 -4.09982 4.54512 0
M  V30 17260 N 1573.8 -5.30214 4.60237 0
M  V30 17261 H 1578.64 -1.24209 2.7088 0
M  V30 17262 H 1576.18 -0.60241 1.34199 0
M  V30 17263 H 1578.13 -3.63319 2.05073 0
M  V30 17264 H 1576.76 -3.04443 1.07304 0
M  V30 17265 H 1575.82 -1.98159 3.24711 0
M  V30 17266 H 1577.13 -2.78313 4.13936 0
M  V30 17267 H 1576.28 -5.02144 3.40494 0
M  V30 17268 H 1575.02 -4.23993 2.41 0
M  V30 17269 H 1574.03 -3.20317 4.46852 0
M  V30 17270 H 1575.25 -4.01696 5.47556 0
M  V30 17271 H 1573.2 -5.40729 3.71414 0
M  V30 17272 H 1573.11 -5.25155 5.43827 0
M  V30 17273 H 1574.38 -6.2014 4.72279 0
M  V30 17274 N 1578.61 -1.44039 -0.639573 0
M  V30 17275 C 1579.52 -1.52728 -1.78077 0
M  V30 17276 C 1580.54 -0.413467 -1.69016 0
M  V30 17277 O 1581.71 -0.669592 -1.89943 0
M  V30 17278 C 1578.78 -1.46078 -3.14424 0
M  V30 17279 C 1577.84 -2.68242 -3.35179 0
M  V30 17280 C 1577.07 -2.61899 -4.65021 0
M  V30 17281 O 1577.29 -1.67431 -5.45273 0
M  V30 17282 O 1576.23 -3.52619 -4.87795 0
M  V30 17283 H 1580.05 -2.49122 -1.737 0
M  V30 17284 H 1577.64 -1.26191 -0.799755 0
M  V30 17285 H 1579.52 -1.44861 -3.95719 0
M  V30 17286 H 1578.2 -0.528236 -3.19361 0
M  V30 17287 H 1577.1 -2.75028 -2.53595 0
M  V30 17288 H 1578.44 -3.60514 -3.35098 0
M  V30 17289 N 1580.09 0.879207 -1.30796 0
M  V30 17290 C 1581.31 1.66975 -1.23021 0
M  V30 17291 C 1581.74 1.87004 0.202798 0
M  V30 17292 O 1581.1 1.40514 1.14566 0
M  V30 17293 C 1581.14 3.02028 -1.97007 0
M  V30 17294 O 1580.25 3.91338 -1.30109 0
M  V30 17295 H 1579.59 0.509998 -0.425204 0
M  V30 17296 H 1582.12 1.09688 -1.72713 0
M  V30 17297 H 1582.13 3.5203 -2.06249 0
M  V30 17298 H 1580.8 2.8677 -3.01224 0
M  V30 17299 H 1579.38 3.49781 -1.29258 0
M  V30 17300 N 1581.57 1.13606 1.09231 0
M  V30 17301 C 1582.8 0.922295 1.85206 0
M  V30 17302 C 1583.21 -0.528954 1.81239 0
M  V30 17303 O 1582.57 -1.36622 1.20999 0
M  V30 17304 C 1582.62 1.40453 3.331 0
M  V30 17305 O 1582.34 2.7989 3.37036 0
M  V30 17306 C 1583.84 1.22948 4.25909 0
M  V30 17307 H 1581.06 0.328757 0.584945 0
M  V30 17308 H 1583.6 1.50911 1.38007 0
M  V30 17309 H 1581.76 0.86066 3.77719 0
M  V30 17310 H 1582.17 3.01342 4.29294 0
M  V30 17311 H 1583.65 1.61562 5.27827 0
M  V30 17312 H 1584.12 0.171387 4.38865 0
M  V30 17313 H 1584.73 1.76147 3.87108 0
M  V30 17314 N 1583.05 -1.27244 0.929878 0
M  V30 17315 C 1584.28 -1.98086 0.586993 0
M  V30 17316 C 1584.68 -1.69541 -0.839799 0
M  V30 17317 O 1584.03 -0.953724 -1.57003 0
M  V30 17318 C 1584.09 -3.51893 0.735656 0
M  V30 17319 C 1583.75 -4.04064 2.13497 0
M  V30 17320 C 1584.75 -4.16671 3.10936 0
M  V30 17321 C 1582.43 -4.38358 2.4525 0
M  V30 17322 C 1584.43 -4.62849 4.38235 0
M  V30 17323 C 1582.12 -4.84226 3.72785 0
M  V30 17324 C 1583.11 -4.96431 4.6909 0
M  V30 17325 O 1582.8 -5.41292 5.94355 0
M  V30 17326 H 1582.53 -0.638845 0.221027 0
M  V30 17327 H 1585.09 -1.63006 1.24973 0
M  V30 17328 H 1583.32 -3.86697 0.0158117 0
M  V30 17329 H 1585.01 -4.03949 0.397505 0
M  V30 17330 H 1585.77 -3.90434 2.87726 0
M  V30 17331 H 1581.65 -4.28099 1.71032 0
M  V30 17332 H 1585.2 -4.7229 5.13408 0
M  V30 17333 H 1581.09 -5.09905 3.95812 0
M  V30 17334 H 1581.86 -5.59541 5.97375 0
M  V30 17335 N 1584.52 -0.695628 -1.41417 0
M  V30 17336 C 1585.77 -0.226618 -2.01228 0
M  V30 17337 C 1586.1 1.17376 -1.5509 0
M  V30 17338 O 1585.35 1.80635 -0.752964 0
M  V30 17339 C 1585.65 -0.232664 -3.56642 0
M  V30 17340 C 1585.32 -1.58057 -4.2229 0
M  V30 17341 C 1583.98 -1.94959 -4.39937 0
M  V30 17342 C 1586.33 -2.46735 -4.59098 0
M  V30 17343 C 1583.66 -3.20123 -4.91669 0
M  V30 17344 C 1586.01 -3.71232 -5.1222 0
M  V30 17345 C 1584.68 -4.08277 -5.28078 0
M  V30 17346 H 1583.95 -0.0829255 -0.736345 0
M  V30 17347 H 1586.59 -0.894729 -1.69313 0
M  V30 17348 H 1584.9 0.518995 -3.88347 0
M  V30 17349 H 1586.6 0.147754 -4.00728 0
M  V30 17350 H 1583.19 -1.28356 -4.08929 0
M  V30 17351 H 1587.37 -2.19506 -4.45119 0
M  V30 17352 H 1582.63 -3.48819 -5.02131 0
M  V30 17353 H 1586.8 -4.40132 -5.39682 0
M  V30 17354 H 1584.43 -5.05335 -5.67927 0
M  V30 17355 O 1586.04 1.50633 -0.582415 0
M  V30 17356 H 1586.73 1.93504 -0.0870225 0
M  V30 END ATOM
M  V30 BEGIN BOND
M  V30 END BOND
M  V30 END CTAB
M  END
$$$$
