drugbank_target|P25116 Proteinase-activated receptor 1 (DB00086; DB05361; DB09030; DB11300)
 OpenBabel12092119433D

  0  0  0     0  0            999 V3000
M  V30 BEGIN CTAB
M  V30 COUNTS 6713 6796 0 0 0
M  V30 BEGIN ATOM
M  V30 1 H -0.908 1.98254 -0.117106 0
M  V30 2 N 0 1.576 0 0
M  V30 3 C 0.933 2.03868 1.02534 0
M  V30 4 C 1.911 0.928543 1.3348 0
M  V30 5 O 3.095 1.19667 1.45644 0
M  V30 6 C 0.222 2.43627 2.35294 0
M  V30 7 C -0.732 3.65373 2.2001 0
M  V30 8 S 0.101 5.13292 1.52614 0
M  V30 9 C 1.257 5.56322 2.86805 0
M  V30 10 H 1.49 2.90518 0.631377 0
M  V30 11 H -0.977 1.52953 0.210867 0
M  V30 12 H 0.981 2.67203 3.11629 0
M  V30 13 H -0.358 1.57376 2.7183 0
M  V30 14 H -1.165 3.90944 3.18086 0
M  V30 15 H -1.563 3.418 1.51819 0
M  V30 16 H 0.729 5.58782 3.83104 0
M  V30 17 H 1.672 6.56266 2.65933 0
M  V30 18 H 2.08 4.83886 2.90714 0
M  V30 19 N 1.4781 -0.272755 1.55222 0
M  V30 20 C 2.7261 -1.00234 1.75492 0
M  V30 21 C 3.0471 -1.8681 0.5592 0
M  V30 22 O 2.3171 -1.91215 -0.425882 0
M  V30 23 H 0.8971 -0.373076 0.647166 0
M  V30 24 H 3.5591 -0.296926 1.92625 0
M  V30 25 H 2.6551 -1.63913 2.65592 0
M  V30 26 N 2.9562 -1.48159 -0.537278 0
M  V30 27 C 4.3672 -1.49429 -1.11928 0
M  V30 28 C 4.7182 -0.26 -1.9447 0
M  V30 29 O 3.8432 0.633489 -2.0692 0
M  V30 30 C 4.4382 -2.70758 -2.03656 0
M  V30 31 C 2.9972 -2.74923 -2.57088 0
M  V30 32 C 2.1442 -2.42835 -1.3389 0
M  V30 33 H 5.0952 -1.55381 -0.322886 0
M  V30 34 H 5.1162 -2.48861 -2.87834 0
M  V30 35 H 4.6282 -3.60575 -1.43553 0
M  V30 36 H 2.7292 -1.89296 -3.20933 0
M  V30 37 H 2.8422 -3.76157 -2.9672 0
M  V30 38 H 1.2062 -1.93836 -1.65226 0
M  V30 39 H 1.9892 -3.34884 -0.755504 0
M  V30 40 N 4.4343 0.785586 -1.36625 0
M  V30 41 C 5.8503 1.08419 -1.17122 0
M  V30 42 C 6.0503 2.015 0.00208491 0
M  V30 43 O 5.1063 2.43551 0.666278 0
M  V30 44 C 6.4193 1.69498 -2.48377 0
M  V30 45 C 7.9673 1.81821 -2.54775 0
M  V30 46 C 8.4423 2.46315 -3.86126 0
M  V30 47 N 9.9333 2.53779 -3.87492 0
M  V30 48 C 10.6683 3.045 -4.85868 0
M  V30 49 N 10.1643 3.55499 -5.94637 0
M  V30 50 N 11.9573 3.03247 -4.73284 0
M  V30 51 H 4.1083 0.167264 -2.1174 0
M  V30 52 H 6.3713 0.13682 -0.938075 0
M  V30 53 H 6.0773 1.08571 -3.34522 0
M  V30 54 H 5.9513 2.6896 -2.64462 0
M  V30 55 H 8.3383 2.41884 -1.69045 0
M  V30 56 H 8.4193 0.811532 -2.42586 0
M  V30 57 H 8.0633 1.86895 -4.72263 0
M  V30 58 H 7.9933 3.47561 -3.95612 0
M  V30 59 H 10.4843 2.17672 -3.08913 0
M  V30 60 H 10.7973 3.92562 -6.65669 0
M  V30 61 H 9.1423 3.5364 -5.98301 0
M  V30 62 H 12.3333 2.62696 -3.87438 0
M  V30 63 H 12.5063 3.42467 -5.50109 0
M  V30 64 N 5.9124 1.20967 1.01018 0
M  V30 65 C 7.3284 0.965905 1.27053 0
M  V30 66 C 7.5284 -0.350785 1.98423 0
M  V30 67 O 6.5844 -1.07773 2.28344 0
M  V30 68 C 7.8974 2.15294 2.09926 0
M  V30 69 C 9.4454 2.19463 2.23171 0
M  V30 70 C 9.9204 3.3767 3.09424 0
M  V30 71 N 11.4114 3.37724 3.17012 0
M  V30 72 C 12.1464 4.25837 3.83993 0
M  V30 73 N 11.6424 5.24138 4.53047 0
M  V30 74 N 13.4354 4.1366 3.80581 0
M  V30 75 H 5.5864 2.0565 0.531194 0
M  V30 76 H 7.8494 0.90024 0.297106 0
M  V30 77 H 7.5554 3.10684 1.64828 0
M  V30 78 H 7.4294 2.13923 3.10672 0
M  V30 79 H 9.8164 1.24632 2.6749 0
M  V30 80 H 9.8974 2.2488 1.21912 0
M  V30 81 H 9.5414 4.32791 2.65808 0
M  V30 82 H 9.4714 3.29491 4.10784 0
M  V30 83 H 11.9624 2.6658 2.6785 0
M  V30 84 H 12.2754 5.87684 5.01844 0
M  V30 85 H 10.6204 5.28068 4.5185 0
M  V30 86 H 13.8114 3.36127 3.25785 0
M  V30 87 H 13.9844 4.82538 4.32505 0
M  V30 88 N 7.3905 -1.2043 1.01659 0
M  V30 89 C 8.3205 -2.25466 0.607226 0
M  V30 90 C 9.3015 -1.65853 -0.377716 0
M  V30 91 O 10.4865 -1.92409 -0.263149 0
M  V30 92 C 7.6165 -3.47256 -0.0552949 0
M  V30 93 C 6.5705 -4.19462 0.850632 0
M  V30 94 C 5.8965 -5.34673 0.0538859 0
M  V30 95 C 7.1965 -4.75603 2.15868 0
M  V30 96 H 8.8905 -2.59962 1.48526 0
M  V30 97 H 6.4365 -1.2496 0.715605 0
M  V30 98 H 8.3895 -4.19917 -0.353233 0
M  V30 99 H 7.1135 -3.11924 -0.968045 0
M  V30 100 H 5.7725 -3.48667 1.13257 0
M  V30 101 H 5.4205 -4.95585 -0.860514 0
M  V30 102 H 5.1205 -5.83913 0.657192 0
M  V30 103 H 6.6445 -6.10138 -0.237598 0
M  V30 104 H 8.0585 -5.40083 1.92311 0
M  V30 105 H 6.4555 -5.3528 2.71284 0
M  V30 106 H 7.5255 -3.94346 2.82169 0
M  V30 107 N 8.8686 -0.792821 -1.36206 0
M  V30 108 C 9.7986 -0.207853 -2.32573 0
M  V30 109 C 10.7796 0.659055 -1.56813 0
M  V30 110 O 11.9646 0.592176 -1.84951 0
M  V30 111 C 9.0946 0.655449 -3.41059 0
M  V30 112 C 8.0486 -0.111842 -4.27854 0
M  V30 113 C 7.3746 0.872274 -5.27537 0
M  V30 114 C 8.6746 -1.30299 -5.05786 0
M  V30 115 H 10.3686 -1.01294 -2.81744 0
M  V30 116 H 7.9146 -0.48854 -1.3546 0
M  V30 117 H 9.8676 1.07464 -4.07467 0
M  V30 118 H 8.5916 1.49328 -2.90463 0
M  V30 119 H 7.2506 -0.512053 -3.63006 0
M  V30 120 H 6.8986 1.70523 -4.73214 0
M  V30 121 H 6.5986 0.363291 -5.86476 0
M  V30 122 H 8.1226 1.28996 -5.96818 0
M  V30 123 H 9.5366 -0.959379 -5.65216 0
M  V30 124 H 7.9336 -1.7455 -5.74154 0
M  V30 125 H 9.0036 -2.09663 -4.37229 0
M  V30 126 N 10.3467 1.47872 -0.545128 0
M  V30 127 C 11.2767 2.32661 0.197793 0
M  V30 128 C 12.2577 1.43041 0.920504 0
M  V30 129 O 13.4427 1.71912 0.90333 0
M  V30 130 C 10.5727 3.24569 1.23582 0
M  V30 131 C 9.5267 4.23333 0.630323 0
M  V30 132 C 8.8527 5.0448 1.77211 0
M  V30 133 C 10.1527 5.20704 -0.407974 0
M  V30 134 H 11.8467 2.95024 -0.510045 0
M  V30 135 H 9.3927 1.4187 -0.246731 0
M  V30 136 H 11.3457 3.8272 1.76362 0
M  V30 137 H 10.0697 2.60236 1.97344 0
M  V30 138 H 8.7287 3.6639 0.123922 0
M  V30 139 H 8.3767 4.36561 2.49847 0
M  V30 140 H 8.0767 5.71339 1.37281 0
M  V30 141 H 9.6007 5.65487 2.3034 0
M  V30 142 H 11.0147 5.7329 0.033305 0
M  V30 143 H 9.4117 5.95699 -0.725486 0
M  V30 144 H 10.4817 4.66917 -1.30828 0
M  V30 145 N 11.8248 0.280983 1.55075 0
M  V30 146 C 13.0708 -0.33461 2.00021 0
M  V30 147 C 13.4038 -1.55063 1.16915 0
M  V30 148 O 12.6788 -1.93006 0.240646 0
M  V30 149 C 12.9618 -0.711007 3.53011 0
M  V30 150 C 12.8148 0.512766 4.46868 0
M  V30 151 C 14.1338 -1.54522 4.12081 0
M  V30 152 H 11.2528 -0.120147 0.727141 0
M  V30 153 H 13.8948 0.389097 1.85973 0
M  V30 154 H 12.0448 -1.32761 3.65112 0
M  V30 155 H 13.7168 1.15131 4.46702 0
M  V30 156 H 11.9598 1.14975 4.18286 0
M  V30 157 H 12.6308 0.205556 5.51617 0
M  V30 158 H 15.1068 -1.02442 4.03293 0
M  V30 159 H 13.9828 -1.77739 5.19327 0
M  V30 160 H 14.2438 -2.52813 3.62682 0
M  V30 161 N 13.3029 -1.57598 0.00835791 0
M  V30 162 C 14.2659 -2.07884 -0.965242 0
M  V30 163 C 15.2659 -0.989825 -1.26725 0
M  V30 164 O 16.4559 -1.25218 -1.21104 0
M  V30 165 C 13.5879 -2.52731 -2.28779 0
M  V30 166 H 14.7809 -2.95178 -0.530112 0
M  V30 167 H 12.3339 -1.54458 -0.239283 0
M  V30 168 H 13.0689 -1.68705 -2.76964 0
M  V30 169 H 12.8539 -3.32272 -2.08177 0
M  V30 170 H 14.3439 -2.91933 -2.98605 0
M  V30 171 N 14.781 0.264519 -1.55364 0
M  V30 172 C 15.744 1.31046 -1.88042 0
M  V30 173 C 16.744 1.41943 -0.755569 0
M  V30 174 O 17.934 1.40947 -1.02369 0
M  V30 175 C 15.066 2.69067 -2.09323 0
M  V30 176 H 16.259 1.03297 -2.81549 0
M  V30 177 H 13.812 0.502989 -1.47986 0
M  V30 178 H 14.547 3.01982 -1.18226 0
M  V30 179 H 14.332 2.62542 -2.91229 0
M  V30 180 H 15.822 3.44623 -2.35848 0
M  V30 181 N 16.2591 1.48442 0.529413 0
M  V30 182 C 17.4991 1.58086 1.29569 0
M  V30 183 C 17.8631 0.249302 1.90375 0
M  V30 184 O 19.0641 0.220738 2.67892 0
M  V30 185 C 17.3351 2.68793 2.35552 0
M  V30 186 S 18.8941 2.98207 3.21898 0
M  V30 187 H 15.7121 0.557922 0.440732 0
M  V30 188 H 18.3141 1.85966 0.603059 0
M  V30 189 H 17.0181 3.64102 1.89363 0
M  V30 190 H 16.5491 2.42817 3.09522 0
M  V30 191 H 18.5641 2.37548 4.35644 0
M  V30 192 N 17.7372 -0.778329 1.37039 0
M  V30 193 C 18.9842 -1.53665 1.31884 0
M  V30 194 C 19.3122 -1.9425 -0.0986303 0
M  V30 195 O 18.5672 -1.63832 -1.07041 0
M  V30 196 C 18.8662 -2.81845 2.19768 0
M  V30 197 C 18.5322 -2.60345 3.68146 0
M  V30 198 C 17.1942 -2.5419 4.08584 0
M  V30 199 C 19.5462 -2.40923 4.62175 0
M  V30 200 C 16.8742 -2.26594 5.41177 0
M  V30 201 C 19.2262 -2.14852 5.94997 0
M  V30 202 C 17.8902 -2.07137 6.34547 0
M  V30 203 H 17.1602 -0.562299 0.482598 0
M  V30 204 H 19.8072 -0.897069 1.69189 0
M  V30 205 H 18.1122 -3.50328 1.75436 0
M  V30 206 H 19.8092 -3.39692 2.13097 0
M  V30 207 H 16.3992 -2.65996 3.36072 0
M  V30 208 H 20.5832 -2.44673 4.31797 0
M  V30 209 H 15.8392 -2.19111 5.70789 0
M  V30 210 H 20.0132 -1.98822 6.67415 0
M  V30 211 H 17.6402 -1.85518 7.37216 0
M  V30 212 N 19.2153 -1.21501 -1.00376 0
M  V30 213 C 20.4403 -1.05977 -1.78279 0
M  V30 214 C 20.8653 0.385994 -1.84097 0
M  V30 215 O 20.2233 1.27849 -1.28547 0
M  V30 216 C 20.2713 -1.66302 -3.19963 0
M  V30 217 O 19.3753 -0.909333 -4.0225 0
M  V30 218 H 18.7163 -0.372906 -0.549397 0
M  V30 219 H 21.2463 -1.6107 -1.26165 0
M  V30 220 H 21.2563 -1.70574 -3.70632 0
M  V30 221 H 19.9313 -2.71515 -3.15043 0
M  V30 222 H 18.5083 -0.941795 -3.60811 0
M  V30 223 N 20.6934 1.19889 -1.02296 0
M  V30 224 C 21.6234 2.25141 -0.619174 0
M  V30 225 C 22.6044 1.66051 0.368915 0
M  V30 226 O 23.7894 1.92546 0.252941 0
M  V30 227 C 20.9194 3.4728 0.0368783 0
M  V30 228 C 19.8734 4.19005 -0.872865 0
M  V30 229 C 19.1994 5.34637 -0.0822402 0
M  V30 230 C 20.4994 4.74452 -2.18387 0
M  V30 231 H 22.1934 2.59171 -1.49903 0
M  V30 232 H 19.7394 1.24579 -0.722222 0
M  V30 233 H 21.6924 4.20098 0.330958 0
M  V30 234 H 20.4164 3.12433 0.95149 0
M  V30 235 H 19.0754 3.48061 -1.15105 0
M  V30 236 H 18.7234 4.96034 0.83422 0
M  V30 237 H 18.4234 5.83557 -0.688149 0
M  V30 238 H 19.9474 6.10255 0.205238 0
M  V30 239 H 21.3614 5.39055 -1.95172 0
M  V30 240 H 19.7584 5.33834 -2.74119 0
M  V30 241 H 20.8284 3.92844 -2.84257 0
M  V30 242 N 22.1715 0.800033 1.35784 0
M  V30 243 C 23.4115 0.382891 2.00782 0
M  V30 244 C 23.7755 -1.02891 1.62103 0
M  V30 245 O 24.9765 -1.54771 2.19771 0
M  V30 246 C 23.2475 0.553299 3.53091 0
M  V30 247 S 24.8065 0.225608 4.3822 0
M  V30 248 H 21.6245 0.145737 0.695904 0
M  V30 249 H 24.2265 1.04085 1.65489 0
M  V30 250 H 22.9305 1.58091 3.78729 0
M  V30 251 H 22.4615 -0.120214 3.93216 0
M  V30 252 H 24.4765 -0.969074 4.86645 0
M  V30 253 N 23.6496 -1.47581 0.552962 0
M  V30 254 C 24.8976 -2.02082 0.0272703 0
M  V30 255 C 25.2186 -1.4301 -1.32563 0
M  V30 256 O 24.4886 -0.603745 -1.86365 0
M  V30 257 H 23.0686 -0.746966 0.00709182 0
M  V30 258 H 25.7306 -1.81033 0.722008 0
M  V30 259 H 24.8266 -3.12034 -0.0639951 0
M  V30 260 N 25.1277 -0.289203 -1.54924 0
M  V30 261 C 26.5387 0.205791 -1.85562 0
M  V30 262 C 26.8897 1.54351 -1.2112 0
M  V30 263 O 26.0147 2.10435 -0.504601 0
M  V30 264 C 26.6097 0.380177 -3.3666 0
M  V30 265 C 25.1687 0.819395 -3.67373 0
M  V30 266 C 24.3157 -0.079159 -2.77187 0
M  V30 267 H 27.2667 -0.510577 -1.50262 0
M  V30 268 H 27.2877 1.21659 -3.60526 0
M  V30 269 H 26.7997 -0.593589 -3.83534 0
M  V30 270 H 24.9007 1.80413 -3.26009 0
M  V30 271 H 25.0137 0.646957 -4.74712 0
M  V30 272 H 23.3777 0.439565 -2.50878 0
M  V30 273 H 24.1607 -1.04906 -3.26878 0
M  V30 274 N 26.6058 1.57591 -0.0167156 0
M  V30 275 C 27.5358 2.12496 0.967858 0
M  V30 276 C 28.5168 1.03807 1.34752 0
M  V30 277 O 29.7018 1.31577 1.42833 0
M  V30 278 C 26.8318 2.64194 2.25431 0
M  V30 279 C 25.7858 3.77559 2.01576 0
M  V30 280 C 25.1118 4.15636 3.36379 0
M  V30 281 C 26.4118 5.04151 1.36489 0
M  V30 282 H 28.1058 2.95013 0.510643 0
M  V30 283 H 25.6518 1.41915 0.244181 0
M  V30 284 H 27.6048 3.01236 2.94678 0
M  V30 285 H 26.3288 1.78821 2.73296 0
M  V30 286 H 24.9878 3.40937 1.34751 0
M  V30 287 H 24.6358 3.27263 3.81979 0
M  V30 288 H 24.3358 4.92022 3.21229 0
M  V30 289 H 25.8598 4.5525 4.06915 0
M  V30 290 H 27.2738 5.38857 1.95718 0
M  V30 291 H 25.6708 5.85453 1.31776 0
M  V30 292 H 26.7408 4.83733 0.336219 0
M  V30 293 N 28.0839 -0.256276 1.55502 0
M  V30 294 C 29.0139 -1.32102 1.92539 0
M  V30 295 C 29.9949 -1.50684 0.789194 0
M  V30 296 O 31.1799 -1.63449 1.04872 0
M  V30 297 C 28.3099 -2.67752 2.21192 0
M  V30 298 C 27.2639 -2.63878 3.36975 0
M  V30 299 C 26.5899 -4.03236 3.51147 0
M  V30 300 C 27.8899 -2.21682 4.72921 0
M  V30 301 H 29.5839 -1.01351 2.81724 0
M  V30 302 H 27.1299 -0.486105 1.35547 0
M  V30 303 H 29.0829 -3.42365 2.45691 0
M  V30 304 H 27.8069 -3.0012 1.28824 0
M  V30 305 H 26.4659 -1.91722 3.12471 0
M  V30 306 H 26.1139 -4.32854 2.56216 0
M  V30 307 H 25.8139 -4.01535 4.29003 0
M  V30 308 H 27.3379 -4.79563 3.77957 0
M  V30 309 H 28.7519 -2.86023 4.96854 0
M  V30 310 H 27.1489 -2.3111 5.53812 0
M  V30 311 H 28.2189 -1.16833 4.70615 0
M  V30 312 N 29.562 -1.4872 -0.521534 0
M  V30 313 C 30.787 -1.61101 -1.30618 0
M  V30 314 C 31.212 -0.274611 -1.86085 0
M  V30 315 O 30.57 0.754937 -1.64834 0
M  V30 316 C 30.618 -2.66709 -2.4269 0
M  V30 317 O 29.722 -2.24456 -3.45967 0
M  V30 318 H 29.063 -0.539921 -0.386499 0
M  V30 319 H 31.593 -1.94767 -0.626645 0
M  V30 320 H 31.603 -2.88245 -2.88754 0
M  V30 321 H 30.278 -3.63727 -2.01682 0
M  V30 322 H 28.855 -2.13168 -3.05964 0
M  V30 323 N 31.0401 0.771051 -1.3745 0
M  V30 324 C 32.0031 1.86598 -1.33093 0
M  V30 325 C 33.0031 1.59076 -0.234845 0
M  V30 326 O 34.1931 1.67145 -0.490732 0
M  V30 327 C 31.3251 3.23747 -1.06773 0
M  V30 328 H 32.5181 1.91873 -2.30488 0
M  V30 329 H 30.0711 0.970876 -1.2249 0
M  V30 330 H 30.8061 3.24148 -0.099129 0
M  V30 331 H 30.5911 3.45115 -1.86112 0
M  V30 332 H 32.0811 4.03824 -1.06377 0
M  V30 333 N 32.5182 1.22032 0.997298 0
M  V30 334 C 33.9342 0.979326 1.26021 0
M  V30 335 C 34.1342 -0.32972 1.98784 0
M  V30 336 O 33.1902 -1.05345 2.29475 0
M  V30 337 C 34.5032 2.17509 2.07631 0
M  V30 338 C 36.0512 2.21817 2.2083 0
M  V30 339 C 36.5262 3.40933 3.05825 0
M  V30 340 N 38.0172 3.41067 3.13412 0
M  V30 341 C 38.7522 4.29885 3.79455 0
M  V30 342 N 38.2482 5.28914 4.47462 0
M  V30 343 N 40.0412 4.17673 3.76173 0
M  V30 344 H 32.1922 2.06202 0.509352 0
M  V30 345 H 34.4552 0.90334 0.287541 0
M  V30 346 H 34.1612 3.12415 1.61524 0
M  V30 347 H 34.0352 2.17206 3.08385 0
M  V30 348 H 36.4222 1.27462 2.66153 0
M  V30 349 H 36.5032 2.2616 1.1952 0
M  V30 350 H 36.1472 4.35586 2.61203 0
M  V30 351 H 36.0772 3.33829 4.07266 0
M  V30 352 H 38.5682 2.69406 2.65007 0
M  V30 353 H 38.8812 5.92973 4.95583 0
M  V30 354 H 37.2262 5.32831 4.46224 0
M  V30 355 H 40.4172 3.39564 3.22202 0
M  V30 356 H 40.5902 4.87098 4.27363 0
M  V30 357 N 33.9963 -1.19345 1.0293 0
M  V30 358 C 35.2243 -1.92997 0.745644 0
M  V30 359 C 35.6393 -1.75519 -0.695589 0
M  V30 360 O 34.9963 -1.07737 -1.47306 0
M  V30 361 C 35.0473 -3.44741 1.08792 0
M  V30 362 O 34.7683 -3.61658 2.47256 0
M  V30 363 C 36.2693 -4.35515 0.827129 0
M  V30 364 H 33.4893 -0.613042 0.272801 0
M  V30 365 H 36.0333 -1.51473 1.3739 0
M  V30 366 H 34.1883 -3.84097 0.504832 0
M  V30 367 H 34.6023 -4.55514 2.60015 0
M  V30 368 H 36.0763 -5.40589 1.11658 0
M  V30 369 H 36.5533 -4.38552 -0.238436 0
M  V30 370 H 37.1593 -4.01841 1.39297 0
M  V30 371 N 35.4744 -0.807222 -1.35358 0
M  V30 372 C 36.8904 -0.491038 -1.51858 0
M  V30 373 C 37.0904 0.987648 -1.75635 0
M  V30 374 O 36.1464 1.77265 -1.79815 0
M  V30 375 C 37.4594 -1.33695 -2.69344 0
M  V30 376 C 39.0074 -1.33246 -2.83222 0
M  V30 377 C 39.4824 -2.1625 -4.03733 0
M  V30 378 N 40.9734 -2.1379 -4.10911 0
M  V30 379 C 41.7084 -2.74772 -5.03277 0
M  V30 380 N 41.2044 -3.44684 -6.0097 0
M  V30 381 N 42.9974 -2.6441 -4.96028 0
M  V30 382 H 35.1484 -1.76485 -1.18181 0
M  V30 383 H 37.4114 -0.751199 -0.578276 0
M  V30 384 H 37.1174 -2.38634 -2.58354 0
M  V30 385 H 36.9914 -0.990618 -3.6396 0
M  V30 386 H 39.3784 -0.290911 -2.93663 0
M  V30 387 H 39.4594 -1.71866 -1.89461 0
M  V30 388 H 39.1034 -3.20445 -3.94052 0
M  V30 389 H 39.0334 -1.74989 -4.96675 0
M  V30 390 H 41.5244 -1.62923 -3.40976 0
M  V30 391 H 41.8374 -3.88501 -6.68047 0
M  V30 392 H 40.1824 -3.48788 -6.01142 0
M  V30 393 H 43.3734 -2.0938 -4.18662 0
M  V30 394 H 43.5464 -3.12225 -5.6782 0
M  V30 395 N 36.9525 1.47285 -0.560781 0
M  V30 396 C 37.9155 2.28535 0.174488 0
M  V30 397 C 38.9155 1.37153 0.839388 0
M  V30 398 O 40.1055 1.59748 0.694702 0
M  V30 399 C 37.2375 3.16934 1.25561 0
M  V30 400 H 38.4305 2.95012 -0.539262 0
M  V30 401 H 35.9835 1.53034 -0.317865 0
M  V30 402 H 36.7185 2.55157 2.00164 0
M  V30 403 H 36.5035 3.8419 0.783604 0
M  V30 404 H 37.9935 3.78143 1.77193 0
M  V30 405 N 38.4306 0.297415 1.54768 0
M  V30 406 C 39.8466 -0.0560823 1.59501 0
M  V30 407 C 40.0466 -1.52725 1.31444 0
M  V30 408 O 39.1026 -2.27947 1.08611 0
M  V30 409 C 40.4156 0.338631 2.98787 0
M  V30 410 C 41.9636 0.287097 3.11681 0
M  V30 411 C 42.4386 0.656579 4.53269 0
M  V30 412 N 43.9296 0.608977 4.59179 0
M  V30 413 C 44.6646 0.867385 5.66802 0
M  V30 414 N 44.1606 1.19157 6.82476 0
M  V30 415 N 45.9536 0.794687 5.56454 0
M  V30 416 H 38.1046 1.25624 1.71267 0
M  V30 417 H 40.3676 0.509057 0.799728 0
M  V30 418 H 40.0736 1.36263 3.2423 0
M  V30 419 H 39.9476 -0.309508 3.75928 0
M  V30 420 H 42.3346 -0.727649 2.85988 0
M  V30 421 H 42.4156 0.969809 2.36703 0
M  V30 422 H 42.0596 1.66912 4.7969 0
M  V30 423 H 41.9896 -0.0481649 5.26578 0
M  V30 424 H 44.4806 0.369198 3.76092 0
M  V30 425 H 44.7936 1.37482 7.60473 0
M  V30 426 H 43.1386 1.22958 6.84037 0
M  V30 427 H 46.3296 0.541098 4.64962 0
M  V30 428 H 46.5026 0.999445 6.40246 0
M  V30 429 N 39.9087 -1.5758 0.0250728 0
M  V30 430 C 41.3247 -1.56124 -0.331282 0
M  V30 431 C 41.5247 -1.03029 -1.73169 0
M  V30 432 O 40.5807 -0.675215 -2.43305 0
M  V30 433 C 41.8937 -3.00139 -0.183584 0
M  V30 434 C 43.4417 -3.11946 -0.256654 0
M  V30 435 C 43.9167 -4.57793 -0.137792 0
M  V30 436 N 45.4077 -4.6279 -0.194904 0
M  V30 437 C 46.1427 -5.7326 -0.126655 0
M  V30 438 N 45.6387 -6.928 -0.00755288 0
M  V30 439 N 47.4317 -5.61811 -0.180348 0
M  V30 440 H 39.5827 -1.90424 0.94087 0
M  V30 441 H 41.8457 -0.875761 0.362968 0
M  V30 442 H 41.5517 -3.4292 0.780927 0
M  V30 443 H 41.4257 -3.64899 -0.955448 0
M  V30 444 H 43.8127 -2.69079 -1.21162 0
M  V30 445 H 43.8937 -2.49915 0.545517 0
M  V30 446 H 43.5377 -5.01339 0.813739 0
M  V30 447 H 43.4677 -5.17798 -0.958775 0
M  V30 448 H 45.9587 -3.76807 -0.287267 0
M  V30 449 H 46.2717 -7.72791 0.0379428 0
M  V30 450 H 44.6167 -6.94995 0.0271731 0
M  V30 451 H 47.8077 -4.6731 -0.271767 0
M  V30 452 H 47.9807 -6.47882 -0.123697 0
M  V30 453 N 41.3868 0.248026 -1.55636 0
M  V30 454 C 42.7978 0.817177 -1.67866 0
M  V30 455 C 43.1488 1.86069 -0.622322 0
M  V30 456 O 42.2738 2.15157 0.231618 0
M  V30 457 C 42.8688 1.489 -3.04326 0
M  V30 458 C 41.4278 2.00587 -3.185 0
M  V30 459 C 40.5748 0.856573 -2.63739 0
M  V30 460 H 43.5258 0.0238579 -1.58682 0
M  V30 461 H 43.5468 2.35698 -2.98708 0
M  V30 462 H 43.0588 0.729279 -3.81186 0
M  V30 463 H 41.1598 2.79443 -2.4646 0
M  V30 464 H 41.2728 2.20402 -4.25393 0
M  V30 465 H 39.6368 1.25678 -2.21534 0
M  V30 466 H 40.4198 0.109953 -3.43124 0
M  V30 467 N 42.8649 1.48995 0.513639 0
M  V30 468 C 43.7749 1.67443 1.64317 0
M  V30 469 C 44.7909 0.556947 1.64846 0
M  V30 470 O 45.9669 0.830082 1.83498 0
M  V30 471 C 43.0319 1.72515 3.00732 0
M  V30 472 C 42.0929 2.96009 3.1093 0
M  V30 473 C 41.3259 3.00829 4.40837 0
M  V30 474 O 41.5489 2.13594 5.28898 0
M  V30 475 O 40.4829 3.93168 4.55744 0
M  V30 476 H 44.3089 2.63106 1.51687 0
M  V30 477 H 41.8939 1.32588 0.688543 0
M  V30 478 H 43.7759 1.78277 3.81831 0
M  V30 479 H 42.4509 0.800278 3.13651 0
M  V30 480 H 41.3579 2.9577 2.29065 0
M  V30 481 H 42.6909 3.87934 3.02933 0
M  V30 482 N 44.343 -0.763751 1.37857 0
M  V30 483 C 45.568 -1.55805 1.36893 0
M  V30 484 C 45.993 -1.88054 -0.0416135 0
M  V30 485 O 45.351 -1.49825 -1.02089 0
M  V30 486 C 45.399 -2.84012 2.22192 0
M  V30 487 O 44.503 -3.78732 1.63204 0
M  V30 488 H 43.844 -0.471638 0.46739 0
M  V30 489 H 46.374 -0.944657 1.81487 0
M  V30 490 H 46.384 -3.33037 2.35691 0
M  V30 491 H 45.059 -2.59869 3.24716 0
M  V30 492 H 43.636 -3.37402 1.58791 0
M  V30 493 N 45.8211 -1.22559 -0.990812 0
M  V30 494 C 46.7681 -0.997519 -2.0813 0
M  V30 495 C 47.7381 0.0814702 -1.659 0
M  V30 496 O 48.9231 -0.0685424 -1.90677 0
M  V30 497 C 46.0631 -0.583615 -3.40129 0
M  V30 498 C 45.1761 -1.7336 -3.9569 0
M  V30 499 C 44.3111 -1.26748 -5.15857 0
M  V30 500 C 43.3501 -2.38888 -5.63559 0
M  V30 501 N 42.4871 -1.93308 -6.74964 0
M  V30 502 H 47.3271 -1.93099 -2.26973 0
M  V30 503 H 44.8641 -0.962114 -1.11273 0
M  V30 504 H 46.8221 -0.324801 -4.15934 0
M  V30 505 H 45.4521 0.312845 -3.2128 0
M  V30 506 H 44.5041 -2.10669 -3.16738 0
M  V30 507 H 45.8161 -2.57704 -4.27071 0
M  V30 508 H 44.9701 -0.966173 -5.98957 0
M  V30 509 H 43.7091 -0.394272 -4.86104 0
M  V30 510 H 42.7141 -2.69805 -4.79046 0
M  V30 511 H 43.9391 -3.26728 -5.95336 0
M  V30 512 H 41.8851 -1.08352 -6.4699 0
M  V30 513 H 41.8021 -2.71217 -7.05675 0
M  V30 514 H 43.0701 -1.66252 -7.61564 0
M  V30 515 N 47.2992 1.18797 -1.03562 0
M  V30 516 C 48.2622 2.20464 -0.626769 0
M  V30 517 C 49.2622 1.57721 0.313173 0
M  V30 518 O 50.4522 1.73917 0.0992615 0
M  V30 519 C 47.5842 3.40802 0.0818498 0
M  V30 520 H 48.7772 2.58149 -1.5264 0
M  V30 521 H 46.3302 1.32593 -0.827578 0
M  V30 522 H 47.0652 3.08642 0.995518 0
M  V30 523 H 46.8502 3.8758 -0.593652 0
M  V30 524 H 48.3402 4.16092 0.354584 0
M  V30 525 N 48.7773 0.814389 1.34928 0
M  V30 526 C 50.0053 0.411136 2.02774 0
M  V30 527 C 50.4203 -0.980316 1.61354 0
M  V30 528 O 49.7773 -1.63299 0.814847 0
M  V30 529 C 49.8283 0.493865 3.58111 0
M  V30 530 O 49.5493 1.83047 3.98027 0
M  V30 531 C 51.0503 0.0844174 4.4322 0
M  V30 532 H 48.2703 0.166037 0.650133 0
M  V30 533 H 50.8143 1.10018 1.72384 0
M  V30 534 H 48.9693 -0.147006 3.87121 0
M  V30 535 H 49.3833 1.79872 4.92693 0
M  V30 536 H 50.8573 0.193404 5.51661 0
M  V30 537 H 51.3343 -0.97113 4.28329 0
M  V30 538 H 51.9403 0.69875 4.19521 0
M  V30 539 N 50.2554 -1.46986 0.568584 0
M  V30 540 C 51.2034 -2.31858 -0.185649 0
M  V30 541 C 52.1974 -1.43624 -0.898249 0
M  V30 542 O 53.4034 -1.60327 -0.818242 0
M  V30 543 H 49.7784 -0.747866 -0.0787399 0
M  V30 544 H 51.7494 -2.93303 0.549191 0
M  V30 545 C 50.4984 -3.26513 -1.19519 0
M  V30 546 H 49.8214 -3.94377 -0.656285 0
M  V30 547 H 51.2614 -3.88707 -1.6936 0
M  V30 548 C 49.7204 -2.50847 -2.24894 0
M  V30 549 O 50.2504 -2.26119 -3.32014 0
M  V30 550 N 48.4564 -2.11656 -1.99124 0
M  V30 551 H 48.0034 -2.31966 -1.12024 0
M  V30 552 H 47.9614 -1.61347 -2.69842 0
M  V30 553 N 51.7335 -0.305618 -1.54608 0
M  V30 554 C 52.6965 0.555591 -2.22364 0
M  V30 555 C 53.6965 1.05768 -1.21119 0
M  V30 556 O 54.8865 0.952972 -1.45822 0
M  V30 557 C 52.0185 1.76974 -2.91364 0
M  V30 558 H 53.2115 -0.0364572 -2.99878 0
M  V30 559 H 50.7645 -0.0565007 -1.56198 0
M  V30 560 H 51.4995 2.40151 -2.17941 0
M  V30 561 H 51.2845 1.41732 -3.65588 0
M  V30 562 H 52.7745 2.38148 -3.43038 0
M  V30 563 N 53.2116 1.57565 -0.0334293 0
M  V30 564 C 54.4396 1.9628 0.654347 0
M  V30 565 C 54.8546 0.910138 1.65414 0
M  V30 566 O 54.2116 -0.107595 1.82183 0
M  V30 567 C 54.2626 3.35067 1.35693 0
M  V30 568 O 53.9836 4.36296 0.397191 0
M  V30 569 C 55.4846 3.88439 2.13613 0
M  V30 570 H 52.7046 0.646369 0.180132 0
M  V30 571 H 55.2486 2.04282 -0.0944721 0
M  V30 572 H 53.4036 3.2827 2.05712 0
M  V30 573 H 53.8176 5.1678 0.896597 0
M  V30 574 H 55.2916 4.8788 2.58219 0
M  V30 575 H 55.7686 3.22914 2.97696 0
M  V30 576 H 56.3746 3.98516 1.48543 0
M  V30 577 N 54.6897 -0.239769 1.55765 0
M  V30 578 C 55.6197 -1.30052 1.9393 0
M  V30 579 C 56.6007 -1.49839 0.805132 0
M  V30 580 O 57.7857 -1.62328 1.06599 0
M  V30 581 C 54.9157 -2.65391 2.2402 0
M  V30 582 C 53.8697 -2.60289 3.39755 0
M  V30 583 C 53.1957 -3.99489 3.55405 0
M  V30 584 C 54.4957 -2.16654 4.75246 0
M  V30 585 H 56.1897 -0.983573 2.82783 0
M  V30 586 H 53.7357 -0.471701 1.36055 0
M  V30 587 H 55.6887 -3.3974 2.49308 0
M  V30 588 H 54.4127 -2.98736 1.32 0
M  V30 589 H 53.0717 -1.88398 3.14487 0
M  V30 590 H 52.7197 -4.30112 2.60793 0
M  V30 591 H 52.4197 -3.96962 4.33238 0
M  V30 592 H 53.9437 -4.75528 3.83022 0
M  V30 593 H 55.3577 -2.80737 4.99859 0
M  V30 594 H 53.7547 -2.25223 5.56232 0
M  V30 595 H 54.8247 -1.11835 4.71827 0
M  V30 596 N 56.1678 -1.49265 -0.50573 0
M  V30 597 C 57.4448 -1.49012 -1.26707 0
M  V30 598 C 57.8248 -0.215205 -2.1 0
M  V30 599 O 57.1728 0.802547 -2.13943 0
M  V30 600 C 57.3828 -2.7663 -2.12783 0
M  V30 601 C 58.7308 -3.25932 -2.72127 0
M  V30 602 O 59.7548 -2.77715 -2.23054 0
M  V30 603 O 58.6138 -4.09897 -3.61451 0
M  V30 604 H 55.7078 -0.596197 -0.57313 0
M  V30 605 H 58.2538 -1.61524 -0.52039 0
M  V30 606 H 57.0258 -3.60916 -1.5118 0
M  V30 607 H 56.6488 -2.66956 -2.94653 0
M  V30 608 N 57.6459 0.756429 -1.3826 0
M  V30 609 C 59.0569 1.33359 -1.30661 0
M  V30 610 C 59.4079 1.96161 0.0388875 0
M  V30 611 O 58.5329 1.94874 0.940918 0
M  V30 612 C 59.1279 2.42477 -2.36622 0
M  V30 613 C 57.6869 2.95922 -2.3261 0
M  V30 614 C 56.8339 1.69275 -2.19639 0
M  V30 615 H 59.7849 0.55552 -1.4866 0
M  V30 616 H 59.8059 3.22345 -2.02174 0
M  V30 617 H 59.3179 1.96739 -3.34538 0
M  V30 618 H 57.4189 3.45996 -1.38267 0
M  V30 619 H 57.5319 3.50494 -3.26636 0
M  V30 620 H 55.8959 1.92793 -1.66442 0
M  V30 621 H 56.6789 1.25619 -3.19491 0
M  V30 622 N 59.124 1.23083 0.984299 0
M  V30 623 C 60.54 0.992637 1.24975 0
M  V30 624 C 60.74 -0.308618 1.99123 0
M  V30 625 O 59.796 -1.02905 2.30579 0
M  V30 626 C 61.109 2.19698 2.05312 0
M  V30 627 C 62.657 2.24147 2.18465 0
M  V30 628 C 63.132 3.44157 3.02192 0
M  V30 629 N 64.623 3.44372 3.09777 0
M  V30 630 C 65.358 4.33886 3.74874 0
M  V30 631 N 64.854 5.3363 4.41827 0
M  V30 632 N 66.647 4.21639 3.71721 0
M  V30 633 H 58.798 2.06731 0.487453 0
M  V30 634 H 61.061 0.906339 0.277944 0
M  V30 635 H 60.767 3.1411 1.58201 0
M  V30 636 H 60.641 2.20465 3.06064 0
M  V30 637 H 63.028 1.30277 2.64786 0
M  V30 638 H 63.109 2.27415 1.17115 0
M  V30 639 H 62.753 4.38332 2.56568 0
M  V30 640 H 62.683 3.3813 4.03702 0
M  V30 641 H 65.174 2.72201 2.62135 0
M  V30 642 H 65.487 5.98196 4.89266 0
M  V30 643 H 63.832 5.37534 4.40548 0
M  V30 644 H 67.023 3.42962 3.18582 0
M  V30 645 H 67.196 4.91604 4.22173 0
M  V30 646 N 60.6021 -1.18246 1.0419 0
M  V30 647 C 61.8271 -1.92736 0.765996 0
M  V30 648 C 62.2521 -1.75728 -0.67091 0
M  V30 649 O 61.6101 -1.06825 -1.46486 0
M  V30 650 C 61.6581 -3.42148 1.13875 0
M  V30 651 O 60.7621 -4.11548 0.264954 0
M  V30 652 H 60.1031 -0.601238 0.281797 0
M  V30 653 H 62.6331 -1.49942 1.39207 0
M  V30 654 H 62.6431 -3.92858 1.1012 0
M  V30 655 H 61.3181 -3.53848 2.18551 0
M  V30 656 H 59.8951 -3.71137 0.362226 0
M  V30 657 N 62.0802 -0.821533 -1.34494 0
M  V30 658 C 63.3272 -0.408946 -1.98328 0
M  V30 659 C 63.6552 1.02764 -1.65136 0
M  V30 660 O 62.9102 1.73026 -0.914349 0
M  V30 661 C 63.2092 -0.556512 -3.53041 0
M  V30 662 C 62.8752 -1.95861 -4.0614 0
M  V30 663 C 61.5372 -2.34217 -4.20352 0
M  V30 664 C 63.8892 -2.87523 -4.34718 0
M  V30 665 C 61.2172 -3.63572 -4.6047 0
M  V30 666 C 63.5692 -4.1634 -4.76281 0
M  V30 667 C 62.2332 -4.54675 -4.88699 0
M  V30 668 H 61.5032 -0.149644 -0.725732 0
M  V30 669 H 64.1502 -1.04521 -1.6046 0
M  V30 670 H 62.4552 0.163148 -3.9146 0
M  V30 671 H 64.1522 -0.217826 -4.00408 0
M  V30 672 H 60.7422 -1.65066 -3.95539 0
M  V30 673 H 64.9262 -2.59133 -4.23277 0
M  V30 674 H 60.1822 -3.93101 -4.68275 0
M  V30 675 H 64.3562 -4.87455 -4.97354 0
M  V30 676 H 61.9832 -5.54959 -5.19542 0
M  V30 677 N 63.5583 1.46682 -0.576371 0
M  V30 678 C 64.4883 2.33028 0.148397 0
M  V30 679 C 65.4693 1.44961 0.889956 0
M  V30 680 O 66.6543 1.73789 0.866662 0
M  V30 681 C 63.7843 3.27117 1.1667 0
M  V30 682 C 62.7383 4.24575 0.540386 0
M  V30 683 C 62.0643 5.08126 1.6647 0
M  V30 684 C 63.3643 5.19722 -0.518331 0
M  V30 685 H 65.0583 2.93875 -0.572509 0
M  V30 686 H 62.6043 1.41315 -0.276768 0
M  V30 687 H 64.5573 3.86374 1.68204 0
M  V30 688 H 63.2813 2.64364 1.9178 0
M  V30 689 H 61.9403 3.66571 0.0461769 0
M  V30 690 H 61.5883 4.41762 2.40531 0
M  V30 691 H 61.2883 5.74122 1.25131 0
M  V30 692 H 62.8123 5.70246 2.18293 0
M  V30 693 H 64.2263 5.73232 -0.0883058 0
M  V30 694 H 62.6233 5.94026 -0.851679 0
M  V30 695 H 63.6933 4.64037 -1.40703 0
M  V30 696 N 65.0364 0.313813 1.54444 0
M  V30 697 C 65.9664 -0.549454 2.26943 0
M  V30 698 C 66.9474 -1.12741 1.27372 0
M  V30 699 O 68.1324 -1.15436 1.56167 0
M  V30 700 C 65.2624 -1.71523 3.01989 0
M  V30 701 C 64.2164 -1.26703 4.08816 0
M  V30 702 C 63.5424 -2.51898 4.71647 0
M  V30 703 C 64.8424 -0.388962 5.2085 0
M  V30 704 H 66.5364 0.0552661 2.99349 0
M  V30 705 H 64.0824 0.0280207 1.43973 0
M  V30 706 H 66.0354 -2.32535 3.51433 0
M  V30 707 H 64.7594 -2.34639 2.27183 0
M  V30 708 H 63.4184 -0.679896 3.6024 0
M  V30 709 H 63.0664 -3.13356 3.93468 0
M  V30 710 H 62.7664 -2.22605 5.43802 0
M  V30 711 H 64.2904 -3.1369 5.23861 0
M  V30 712 H 65.7044 -0.905107 5.6611 0
M  V30 713 H 64.1014 -0.18924 5.99802 0
M  V30 714 H 65.1714 0.582699 4.81386 0
M  V30 715 N 66.5145 -1.57545 0.0417849 0
M  V30 716 C 67.9305 -1.56467 -0.314704 0
M  V30 717 C 68.1305 -1.04859 -1.72066 0
M  V30 718 O 67.1865 -0.700983 -2.42575 0
M  V30 719 C 68.4995 -3.00317 -0.15174 0
M  V30 720 C 70.0475 -3.12201 -0.223553 0
M  V30 721 C 70.5225 -4.57913 -0.0892295 0
M  V30 722 N 72.0135 -4.6297 -0.145808 0
M  V30 723 C 72.7485 -5.73362 -0.0658459 0
M  V30 724 N 72.2445 -6.92769 0.0659282 0
M  V30 725 N 74.0375 -5.6197 -0.12075 0
M  V30 726 H 66.1885 -1.89416 0.961014 0
M  V30 727 H 68.4515 -0.871862 0.372237 0
M  V30 728 H 68.1575 -3.42073 0.817254 0
M  V30 729 H 68.0315 -3.65892 -0.916692 0
M  V30 730 H 70.4185 -2.70349 -1.18301 0
M  V30 731 H 70.4995 -2.49323 0.571994 0
M  V30 732 H 70.1435 -5.00448 0.866867 0
M  V30 733 H 70.0735 -5.18786 -0.903802 0
M  V30 734 H 72.5645 -3.7709 -0.247286 0
M  V30 735 H 72.8775 -7.72707 0.119905 0
M  V30 736 H 71.2225 -6.94927 0.100885 0
M  V30 737 H 74.4135 -4.67572 -0.222187 0
M  V30 738 H 74.5865 -6.47977 -0.0549735 0
M  V30 739 N 67.9926 0.231505 -1.5589 0
M  V30 740 C 68.9406 1.30649 -1.92441 0
M  V30 741 C 69.9346 1.49037 -0.805254 0
M  V30 742 O 71.1406 1.50329 -0.990007 0
M  V30 743 H 67.5156 0.437812 -0.611412 0
M  V30 744 H 69.4866 0.970973 -2.82161 0
M  V30 745 C 68.2356 2.65179 -2.24889 0
M  V30 746 H 67.5586 2.51835 -3.10514 0
M  V30 747 H 68.9986 3.39234 -2.54355 0
M  V30 748 C 67.4576 3.19439 -1.07054 0
M  V30 749 O 67.9876 4.00371 -0.326499 0
M  V30 750 N 66.1936 2.77675 -0.85703 0
M  V30 751 H 65.7406 2.11969 -1.46379 0
M  V30 752 H 65.6986 3.14321 -0.0703223 0
M  V30 753 N 69.4707 1.49531 0.497807 0
M  V30 754 C 70.8817 1.52344 1.07927 0
M  V30 755 C 71.2327 0.311469 1.93712 0
M  V30 756 O 70.3577 -0.578405 2.08527 0
M  V30 757 C 70.9527 2.76062 1.96405 0
M  V30 758 C 69.5117 2.81643 2.49709 0
M  V30 759 C 68.6587 2.46299 1.27404 0
M  V30 760 H 71.6097 1.56182 0.281576 0
M  V30 761 H 71.6307 2.56405 2.81135 0
M  V30 762 H 71.1427 3.64254 1.33943 0
M  V30 763 H 69.2437 1.97739 3.15801 0
M  V30 764 H 69.3567 3.83891 2.86643 0
M  V30 765 H 67.7207 1.98148 1.60029 0
M  V30 766 H 68.5037 3.36769 0.66645 0
M  V30 767 N 70.9488 -0.749086 1.3866 0
M  V30 768 C 71.8968 -1.88428 1.36373 0
M  V30 769 C 72.8908 -1.67561 0.248929 0
M  V30 770 O 74.0968 -1.75074 0.41821 0
M  V30 771 H 70.4718 -0.620023 0.42553 0
M  V30 772 H 72.4428 -1.87473 2.32156 0
M  V30 773 C 71.1918 -3.25961 1.21014 0
M  V30 774 H 70.5148 -3.42607 2.06059 0
M  V30 775 H 71.9548 -4.05625 1.23469 0
M  V30 776 C 70.4138 -3.36799 -0.0825941 0
M  V30 777 O 70.9438 -3.87517 -1.05797 0
M  V30 778 N 69.1498 -2.90258 -0.140939 0
M  V30 779 H 68.6968 -2.49174 0.653477 0
M  V30 780 H 68.6548 -2.97889 -1.00545 0
M  V30 781 N 72.4269 -1.23603 -0.977757 0
M  V30 782 C 73.7039 -0.977897 -1.69401 0
M  V30 783 C 74.0839 0.502738 -2.05026 0
M  V30 784 O 73.4319 1.47459 -1.74551 0
M  V30 785 C 73.6419 -1.89077 -2.93345 0
M  V30 786 C 74.9899 -2.15579 -3.65802 0
M  V30 787 O 76.0139 -1.86648 -3.03383 0
M  V30 788 O 74.8729 -2.64658 -4.78141 0
M  V30 789 H 71.9669 -0.369025 -0.740101 0
M  V30 790 H 74.5129 -1.34657 -1.03274 0
M  V30 791 H 73.2849 -2.89158 -2.63634 0
M  V30 792 H 72.9079 -1.52463 -3.67207 0
M  V30 793 N 73.905 1.17692 -1.04816 0
M  V30 794 C 74.852 2.21581 -0.645797 0
M  V30 795 C 75.822 1.62367 0.350159 0
M  V30 796 O 77.007 1.89254 0.242433 0
M  V30 797 C 74.147 3.45092 -0.0227568 0
M  V30 798 C 73.26 4.18613 -1.06709 0
M  V30 799 C 72.395 5.29602 -0.411767 0
M  V30 800 C 71.434 5.94904 -1.44067 0
M  V30 801 N 70.571 6.97414 -0.809781 0
M  V30 802 H 75.411 2.55353 -1.5362 0
M  V30 803 H 72.948 1.25438 -0.768364 0
M  V30 804 H 74.906 4.15679 0.35588 0
M  V30 805 H 73.536 3.11917 0.831122 0
M  V30 806 H 72.588 3.46779 -1.5636 0
M  V30 807 H 73.9 4.63293 -1.84827 0
M  V30 808 H 73.054 6.06696 0.0206623 0
M  V30 809 H 71.793 4.86045 0.401438 0
M  V30 810 H 70.798 5.16544 -1.88316 0
M  V30 811 H 72.023 6.40542 -2.25571 0
M  V30 812 H 69.969 6.55998 -0.0170186 0
M  V30 813 H 69.886 7.40386 -1.52856 0
M  V30 814 H 71.154 7.78463 -0.401999 0
M  V30 815 N 75.3831 0.828654 1.34056 0
M  V30 816 C 76.6131 0.431993 2.02033 0
M  V30 817 C 77.0211 -0.96844 1.62536 0
M  V30 818 O 76.3641 -1.6391 0.829408 0
M  V30 819 C 76.4261 0.461224 3.56529 0
M  V30 820 C 76.0901 1.81599 4.1937 0
M  V30 821 C 77.0871 2.7777 4.39477 0
M  V30 822 C 74.7721 2.10604 4.56017 0
M  V30 823 C 76.7661 4.01115 4.95364 0
M  V30 824 C 74.4531 3.34207 5.11614 0
M  V30 825 C 75.4511 4.2928 5.31232 0
M  V30 826 O 75.1391 5.50699 5.8565 0
M  V30 827 H 74.8711 0.170943 0.654029 0
M  V30 828 H 77.4251 1.11988 1.72185 0
M  V30 829 H 75.6551 -0.283388 3.8566 0
M  V30 830 H 77.3441 0.0838149 4.05813 0
M  V30 831 H 78.1101 2.56659 4.11523 0
M  V30 832 H 73.9891 1.37402 4.40047 0
M  V30 833 H 77.5331 4.75333 5.10592 0
M  V30 834 H 73.4301 3.55179 5.38997 0
M  V30 835 H 74.1981 5.52298 6.04077 0
M  V30 836 N 76.8612 -1.46375 0.584142 0
M  V30 837 C 77.7712 -2.34115 -0.150728 0
M  V30 838 C 78.7872 -1.49838 -0.884567 0
M  V30 839 O 79.9632 -1.82704 -0.847429 0
M  V30 840 C 77.0282 -3.2705 -1.15062 0
M  V30 841 C 76.0892 -4.27228 -0.421293 0
M  V30 842 C 75.3222 -5.15722 -1.37355 0
M  V30 843 O 75.5452 -5.07176 -2.61014 0
M  V30 844 O 74.4792 -5.95383 -0.883355 0
M  V30 845 H 78.3052 -2.98309 0.569708 0
M  V30 846 H 75.8902 -1.45373 0.344535 0
M  V30 847 H 77.7722 -3.84381 -1.72712 0
M  V30 848 H 76.4472 -2.65451 -1.8525 0
M  V30 849 H 75.3542 -3.7358 0.197085 0
M  V30 850 H 76.6872 -4.91616 0.239641 0
M  V30 851 N 78.3393 -0.321999 -1.54275 0
M  V30 852 C 79.7503 0.166384 -1.85957 0
M  V30 853 C 80.1013 1.51747 -1.24367 0
M  V30 854 O 79.2263 2.09317 -0.549124 0
M  V30 855 C 79.8213 0.308681 -3.37391 0
M  V30 856 C 78.3803 0.741286 -3.69028 0
M  V30 857 C 77.5273 -0.137937 -2.76957 0
M  V30 858 H 80.4783 -0.542335 -1.49146 0
M  V30 859 H 80.4993 1.13984 -3.63026 0
M  V30 860 H 80.0113 -0.674809 -3.82188 0
M  V30 861 H 78.1123 1.73458 -3.29762 0
M  V30 862 H 78.2253 0.546118 -4.75977 0
M  V30 863 H 76.5893 0.386251 -2.51754 0
M  V30 864 H 77.3723 -1.11816 -3.2458 0
M  V30 865 N 79.8174 1.5752 -0.0501392 0
M  V30 866 C 81.0644 1.9265 0.623874 0
M  V30 867 C 81.3924 0.928411 1.70912 0
M  V30 868 O 80.6474 -0.0594525 1.9561 0
M  V30 869 C 80.9464 3.34467 1.25963 0
M  V30 870 C 80.6124 4.49883 0.302689 0
M  V30 871 C 79.2744 4.81184 0.0393636 0
M  V30 872 C 81.6264 5.20002 -0.353205 0
M  V30 873 C 78.9544 5.79951 -0.887308 0
M  V30 874 C 81.3064 6.1976 -1.26806 0
M  V30 875 C 79.9704 6.49491 -1.54007 0
M  V30 876 H 79.2404 0.704957 0.228292 0
M  V30 877 H 81.8874 1.91146 -0.116398 0
M  V30 878 H 80.1924 3.32333 2.07514 0
M  V30 879 H 81.8894 3.58928 1.78806 0
M  V30 880 H 78.4794 4.25457 0.518109 0
M  V30 881 H 82.6634 4.96033 -0.162854 0
M  V30 882 H 77.9194 6.01322 -1.10553 0
M  V30 883 H 82.0934 6.73205 -1.78236 0
M  V30 884 H 79.7204 7.25837 -2.25976 0
M  V30 885 N 81.2955 -0.223234 1.56011 0
M  V30 886 C 82.5415 -0.944891 1.8012 0
M  V30 887 C 82.8965 -1.82039 0.622862 0
M  V30 888 O 82.1895 -1.8773 -0.383143 0
M  V30 889 C 82.3835 -1.81948 3.0762 0
M  V30 890 C 82.2125 -1.03014 4.37742 0
M  V30 891 C 80.9825 -0.72574 5.00061 0
M  V30 892 C 83.1805 -0.396256 5.12771 0
M  V30 893 N 81.1625 0.0851816 6.13841 0
M  V30 894 C 82.5335 0.278137 6.19376 0
M  V30 895 C 84.5885 -0.309117 4.9694 0
M  V30 896 C 83.2915 1.03133 7.11868 0
M  V30 897 C 85.3175 0.430607 5.8983 0
M  V30 898 C 84.6795 1.09355 6.9586 0
M  V30 899 H 80.7785 -0.326081 0.710771 0
M  V30 900 H 83.3625 -0.215914 1.93499 0
M  V30 901 H 81.5335 -2.52029 2.95527 0
M  V30 902 H 83.2655 -2.47848 3.19927 0
M  V30 903 H 80.0205 -1.04335 4.61964 0
M  V30 904 H 80.4445 0.479428 6.753 0
M  V30 905 H 85.0865 -0.807313 4.15021 0
M  V30 906 H 82.8045 1.54105 7.9327 0
M  V30 907 H 86.3905 0.499012 5.79656 0
M  V30 908 H 85.2705 1.65679 7.66499 0
M  V30 909 N 82.7736 -1.49793 -0.48987 0
M  V30 910 C 83.6836 -1.70036 -1.61632 0
M  V30 911 C 84.6996 -0.583102 -1.63939 0
M  V30 912 O 85.8756 -0.859169 -1.82154 0
M  V30 913 C 82.9406 -1.77277 -2.97949 0
M  V30 914 C 82.0016 -3.00918 -3.06181 0
M  V30 915 C 81.2346 -3.07804 -4.35996 0
M  V30 916 O 81.4576 -2.21982 -5.25433 0
M  V30 917 O 80.3916 -4.00369 -4.49431 0
M  V30 918 H 84.2176 -2.65486 -1.47482 0
M  V30 919 H 81.8026 -1.33666 -0.667362 0
M  V30 920 H 83.6846 -1.84329 -3.78947 0
M  V30 921 H 82.3596 -0.850076 -3.12339 0
M  V30 922 H 81.2666 -2.99377 -2.2433 0
M  V30 923 H 82.5996 -3.92704 -2.96723 0
M  V30 924 N 84.2517 0.741722 -1.39055 0
M  V30 925 C 85.5287 1.49252 -1.26425 0
M  V30 926 C 85.9087 2.10705 0.129144 0
M  V30 927 O 85.2567 1.98045 1.13976 0
M  V30 928 C 85.4667 2.54934 -2.38347 0
M  V30 929 C 86.8147 3.21506 -2.77343 0
M  V30 930 O 87.8387 2.65245 -2.37747 0
M  V30 931 O 86.6977 4.23294 -3.45665 0
M  V30 932 H 83.7917 0.662451 -0.495064 0
M  V30 933 H 86.3377 0.776121 -1.50912 0
M  V30 934 H 85.1097 2.07857 -3.31529 0
M  V30 935 H 84.7327 3.34141 -2.15489 0
M  V30 936 N 85.7298 1.2412 0.971189 0
M  V30 937 C 86.6398 1.04747 2.09917 0
M  V30 938 C 87.6558 -0.0107162 1.73997 0
M  V30 939 O 88.8318 0.186714 2.00533 0
M  V30 940 C 85.8968 0.650828 3.40537 0
M  V30 941 C 84.9578 1.7851 3.90426 0
M  V30 942 C 84.1908 1.40729 5.14812 0
M  V30 943 O 84.4138 0.29557 5.69634 0
M  V30 944 O 83.3478 2.23168 5.58999 0
M  V30 945 H 87.1738 1.99304 2.29154 0
M  V30 946 H 84.7588 1.02908 1.08307 0
M  V30 947 H 86.6408 0.440992 4.19086 0
M  V30 948 H 85.3158 -0.265649 3.22608 0
M  V30 949 H 84.2228 2.04966 3.12953 0
M  V30 950 H 85.5558 2.68023 4.12825 0
M  V30 951 N 87.2079 -1.17134 1.05439 0
M  V30 952 C 88.1179 -2.24878 0.668365 0
M  V30 953 C 89.1339 -1.71186 -0.311687 0
M  V30 954 O 90.3099 -2.00738 -0.163161 0
M  V30 955 C 87.3749 -3.46662 0.051648 0
M  V30 956 C 86.4359 -4.15429 1.08246 0
M  V30 957 C 85.6689 -5.31399 0.495082 0
M  V30 958 O 85.8919 -5.66153 -0.694743 0
M  V30 959 O 84.8259 -5.89187 1.23056 0
M  V30 960 H 88.6519 -2.60189 1.56637 0
M  V30 961 H 86.2369 -1.24482 0.826104 0
M  V30 962 H 88.1189 -4.20394 -0.290966 0
M  V30 963 H 86.7939 -3.13142 -0.819971 0
M  V30 964 H 85.7009 -3.43704 1.47711 0
M  V30 965 H 87.0339 -4.52982 1.92532 0
M  V30 966 N 88.686 -0.835752 -1.33615 0
M  V30 967 C 89.633 -0.26473 -2.29277 0
M  V30 968 C 90.603 0.617712 -1.54187 0
M  V30 969 O 91.788 0.556641 -1.825 0
M  V30 970 C 88.928 0.556777 -3.40579 0
M  V30 971 C 88.041 -0.349339 -4.30585 0
M  V30 972 C 87.176 0.482969 -5.29 0
M  V30 973 C 86.215 -0.421732 -6.10645 0
M  V30 974 N 85.352 0.372262 -7.01112 0
M  V30 975 H 90.192 -1.08582 -2.77514 0
M  V30 976 H 87.729 -0.546927 -1.36554 0
M  V30 977 H 89.687 1.04852 -4.03809 0
M  V30 978 H 88.317 1.34286 -2.93542 0
M  V30 979 H 87.369 -0.959372 -3.68104 0
M  V30 980 H 88.681 -1.04445 -4.87742 0
M  V30 981 H 87.835 1.03866 -5.97743 0
M  V30 982 H 86.574 1.21153 -4.72412 0
M  V30 983 H 85.579 -0.989464 -5.40823 0
M  V30 984 H 86.804 -1.14861 -6.69316 0
M  V30 985 H 84.75 1.08426 -6.46977 0
M  V30 986 H 84.667 -0.264198 -7.55538 0
M  V30 987 H 85.935 0.910293 -7.74167 0
M  V30 988 N 90.1641 1.46063 -0.591896 0
M  V30 989 C 91.1121 2.32124 0.148739 0
M  V30 990 C 92.1061 1.45035 0.875286 0
M  V30 991 O 93.3121 1.61609 0.792632 0
M  V30 992 H 89.6871 0.749024 0.066832 0
M  V30 993 H 91.6581 2.92392 -0.595783 0
M  V30 994 C 90.4071 3.28373 1.1431 0
M  V30 995 H 89.7301 3.95371 0.59346 0
M  V30 996 H 91.1701 3.91352 1.63155 0
M  V30 997 C 89.6291 2.54393 2.20875 0
M  V30 998 O 90.1591 2.31373 3.28374 0
M  V30 999 N 88.3651 2.14797 1.95731 0
M  V30 1000 H 87.9121 2.33719 1.08319 0
M  V30 1001 H 87.8701 1.65619 2.67241 0
M  V30 1002 N 91.6422 0.330177 1.54103 0
M  V30 1003 C 92.5522 -0.541534 2.28264 0
M  V30 1004 C 93.5682 -1.12351 1.32866 0
M  V30 1005 O 94.7442 -1.14206 1.65888 0
M  V30 1006 C 91.8092 -1.68322 3.03098 0
M  V30 1007 C 90.8702 -1.13238 4.14096 0
M  V30 1008 C 90.1032 -2.21966 4.85352 0
M  V30 1009 O 90.3262 -3.42437 4.56172 0
M  V30 1010 O 89.2602 -1.87013 5.7211 0
M  V30 1011 H 93.0862 0.060938 3.03639 0
M  V30 1012 H 90.6712 0.09565 1.49093 0
M  V30 1013 H 92.5532 -2.34777 3.49939 0
M  V30 1014 H 91.2282 -2.27176 2.30593 0
M  V30 1015 H 90.1352 -0.432736 3.71589 0
M  V30 1016 H 91.4682 -0.588898 4.88664 0
M  V30 1017 N 93.1203 -1.57491 0.0584922 0
M  V30 1018 C 94.3453 -1.97711 -0.62652 0
M  V30 1019 C 94.7703 -0.936132 -1.63151 0
M  V30 1020 O 94.1283 0.099811 -1.81025 0
M  V30 1021 C 94.1763 -3.36989 -1.28338 0
M  V30 1022 O 93.2803 -3.35433 -2.39913 0
M  V30 1023 H 92.6213 -0.643868 -0.162266 0
M  V30 1024 H 95.1513 -2.04193 0.129064 0
M  V30 1025 H 95.1613 -3.73879 -1.63335 0
M  V30 1026 H 93.8363 -4.12289 -0.546889 0
M  V30 1027 H 92.4133 -3.10298 -2.06809 0
M  V30 1028 N 94.5984 0.214957 -1.56127 0
M  V30 1029 C 95.8464 0.936518 -1.79091 0
M  V30 1030 C 96.1674 1.84606 -0.628148 0
M  V30 1031 O 95.4374 1.92664 0.35462 0
M  V30 1032 H 94.0174 0.3488 -0.660566 0
M  V30 1033 H 96.6794 0.22523 -1.93594 0
M  V30 1034 H 95.7754 1.53943 -2.71492 0
M  V30 1035 N 96.0765 1.50051 0.48192 0
M  V30 1036 C 97.0065 1.71046 1.58951 0
M  V30 1037 C 97.9875 0.559288 1.60642 0
M  V30 1038 O 99.1725 0.797243 1.77081 0
M  V30 1039 C 96.3025 1.79462 2.97339 0
M  V30 1040 C 95.2565 2.94558 3.10515 0
M  V30 1041 C 94.5825 2.88105 4.50444 0
M  V30 1042 C 95.8825 4.35227 2.88747 0
M  V30 1043 H 97.5765 2.6378 1.41635 0
M  V30 1044 H 95.1225 1.26936 0.679942 0
M  V30 1045 H 97.0755 1.92734 3.74742 0
M  V30 1046 H 95.7995 0.833412 3.15788 0
M  V30 1047 H 94.4585 2.80918 2.35543 0
M  V30 1048 H 94.1065 1.89853 4.65795 0
M  V30 1049 H 93.8065 3.65366 4.60197 0
M  V30 1050 H 95.3305 3.03412 5.29881 0
M  V30 1051 H 96.7445 4.49449 3.55905 0
M  V30 1052 H 95.1415 5.13856 3.09955 0
M  V30 1053 H 96.2115 4.48347 1.84696 0
M  V30 1054 N 97.5546 -0.734337 1.39446 0
M  V30 1055 C 98.7826 -1.52358 1.39981 0
M  V30 1056 C 99.1976 -1.88799 -0.0054975 0
M  V30 1057 O 98.5546 -1.54146 -0.976998 0
M  V30 1058 C 98.6056 -2.81072 2.27333 0
M  V30 1059 O 98.3266 -2.46178 3.62392 0
M  V30 1060 C 99.8276 -3.75096 2.36259 0
M  V30 1061 H 97.0476 -0.470806 0.478103 0
M  V30 1062 H 99.5916 -0.907339 1.83269 0
M  V30 1063 H 97.7466 -3.39026 1.87457 0
M  V30 1064 H 98.1606 -3.28866 4.08592 0
M  V30 1065 H 99.6346 -4.62305 3.01626 0
M  V30 1066 H 100.112 -4.16892 1.38194 0
M  V30 1067 H 100.718 -3.23061 2.76608 0
M  V30 1068 N 99.0327 -1.24633 -0.964593 0
M  V30 1069 C 99.9427 -1.05859 -2.09359 0
M  V30 1070 C 100.959 0.00148855 -1.74 0
M  V30 1071 O 102.135 -0.197346 -2.00431 0
M  V30 1072 C 99.1997 -0.668879 -3.40187 0
M  V30 1073 C 98.2607 -1.80578 -3.89474 0
M  V30 1074 C 97.4937 -1.43457 -5.14058 0
M  V30 1075 O 97.7167 -0.325775 -5.69469 0
M  V30 1076 O 96.6507 -2.2613 -5.57807 0
M  V30 1077 H 100.477 -2.00516 -2.28094 0
M  V30 1078 H 98.0617 -1.03481 -1.0776 0
M  V30 1079 H 99.9437 -0.463211 -4.18846 0
M  V30 1080 H 98.6187 0.248536 -3.22744 0
M  V30 1081 H 97.5257 -2.06623 -3.11862 0
M  V30 1082 H 98.8587 -2.70208 -4.11398 0
M  V30 1083 N 100.511 1.16574 -1.06058 0
M  V30 1084 C 101.741 1.90675 -0.795397 0
M  V30 1085 C 102.149 1.77547 0.653735 0
M  V30 1086 O 101.492 1.11611 1.45907 0
M  V30 1087 C 101.554 3.42011 -1.10764 0
M  V30 1088 C 101.218 3.78924 -2.55471 0
M  V30 1089 C 102.215 3.81042 -3.53699 0
M  V30 1090 C 99.8998 4.09626 -2.90708 0
M  V30 1091 C 101.894 4.13346 -4.85205 0
M  V30 1092 C 99.5808 4.41597 -4.22416 0
M  V30 1093 C 100.579 4.43436 -5.19474 0
M  V30 1094 O 100.267 4.74649 -6.48817 0
M  V30 1095 H 99.9988 0.611554 -0.288058 0
M  V30 1096 H 102.553 1.48711 -1.41683 0
M  V30 1097 H 100.783 3.84312 -0.429128 0
M  V30 1098 H 102.472 3.97384 -0.827077 0
M  V30 1099 H 103.238 3.57437 -3.27817 0
M  V30 1100 H 99.1168 4.07361 -2.15819 0
M  V30 1101 H 102.661 4.14696 -5.60957 0
M  V30 1102 H 98.5578 4.64667 -4.48056 0
M  V30 1103 H 99.3258 4.9247 -6.5377 0
M  V30 1104 N 101.989 0.842826 1.3317 0
M  V30 1105 C 103.405 0.531128 1.50503 0
M  V30 1106 C 103.605 -0.940734 1.78192 0
M  V30 1107 O 102.661 -1.72436 1.84451 0
M  V30 1108 C 103.974 1.40789 2.65705 0
M  V30 1109 C 105.522 1.40708 2.79589 0
M  V30 1110 C 105.997 2.26878 3.97857 0
M  V30 1111 N 107.488 2.24609 4.05099 0
M  V30 1112 C 108.223 2.88019 4.95815 0
M  V30 1113 N 107.719 3.60496 5.9162 0
M  V30 1114 N 109.512 2.77469 4.88843 0
M  V30 1115 H 101.663 1.79557 1.1346 0
M  V30 1116 H 103.926 0.766267 0.558156 0
M  V30 1117 H 103.632 2.454 2.51936 0
M  V30 1118 H 103.506 1.08677 3.61205 0
M  V30 1119 H 105.893 0.368668 2.92788 0
M  V30 1120 H 105.974 1.76829 1.84838 0
M  V30 1121 H 105.618 3.3078 3.85418 0
M  V30 1122 H 105.548 1.88096 4.91861 0
M  V30 1123 H 108.039 1.71906 3.36536 0
M  V30 1124 H 108.352 4.06076 6.57512 0
M  V30 1125 H 106.697 3.64604 5.91683 0
M  V30 1126 H 109.888 2.20406 4.12963 0
M  V30 1127 H 110.061 3.2717 5.59342 0
M  V30 1128 N 103.467 -1.45747 0.599634 0
M  V30 1129 C 104.397 -2.33235 -0.111306 0
M  V30 1130 C 105.378 -1.46359 -0.866781 0
M  V30 1131 O 106.563 -1.75146 -0.838904 0
M  V30 1132 C 103.693 -3.28932 -1.11451 0
M  V30 1133 C 102.647 -4.25381 -0.472772 0
M  V30 1134 C 101.973 -5.1071 -1.58365 0
M  V30 1135 C 103.273 -5.18831 0.600948 0
M  V30 1136 H 104.967 -2.92927 0.61919 0
M  V30 1137 H 102.513 -1.40857 0.299215 0
M  V30 1138 H 104.466 -3.89002 -1.62036 0
M  V30 1139 H 103.19 -2.67381 -1.8755 0
M  V30 1140 H 101.849 -3.66598 0.0121472 0
M  V30 1141 H 101.497 -4.45533 -2.33473 0
M  V30 1142 H 101.197 -5.7604 -1.15982 0
M  V30 1143 H 102.721 -5.73647 -2.09194 0
M  V30 1144 H 104.135 -5.73019 0.179491 0
M  V30 1145 H 102.532 -5.92595 0.946076 0
M  V30 1146 H 103.602 -4.6174 1.48068 0
M  V30 1147 N 104.945 -0.338344 -1.53925 0
M  V30 1148 C 106.191 0.260143 -2.01125 0
M  V30 1149 C 106.524 1.50617 -1.22589 0
M  V30 1150 O 105.799 1.91979 -0.312113 0
M  V30 1151 C 106.082 0.579499 -3.55407 0
M  V30 1152 C 105.935 -0.678264 -4.44657 0
M  V30 1153 C 107.254 1.39122 -4.17532 0
M  V30 1154 H 104.373 0.0930772 -0.731099 0
M  V30 1155 H 107.015 -0.457852 -1.84401 0
M  V30 1156 H 105.165 1.19118 -3.69788 0
M  V30 1157 H 106.837 -1.31631 -4.42121 0
M  V30 1158 H 105.08 -1.3042 -4.13731 0
M  V30 1159 H 105.751 -0.410143 -5.50474 0
M  V30 1160 H 108.227 0.874035 -4.06817 0
M  V30 1161 H 107.103 1.58342 -5.25565 0
M  V30 1162 H 107.364 2.39178 -3.71815 0
M  V30 1163 N 106.423 1.57458 -0.0668435 0
M  V30 1164 C 107.648 1.9804 0.616027 0
M  V30 1165 C 108.073 0.944771 1.62652 0
M  V30 1166 O 107.431 -0.0902094 1.81075 0
M  V30 1167 C 107.479 3.37665 1.26549 0
M  V30 1168 O 106.583 3.36701 2.38131 0
M  V30 1169 H 105.924 0.644719 0.158849 0
M  V30 1170 H 108.454 2.04121 -0.139891 0
M  V30 1171 H 108.464 3.7474 1.6135 0
M  V30 1172 H 107.139 4.12573 0.525016 0
M  V30 1173 H 105.716 3.1139 2.0516 0
M  V30 1174 N 107.901 -0.206675 1.56239 0
M  V30 1175 C 109.15 -0.926964 1.79138 0
M  V30 1176 C 109.463 -1.84901 0.638043 0
M  V30 1177 O 110.669 -2.60906 0.751033 0
M  V30 1178 C 109.125 -1.6986 3.17294 0
M  V30 1179 C 108.733 -0.821956 4.40395 0
M  V30 1180 C 110.477 -2.40922 3.4951 0
M  V30 1181 C 108.384 -1.59179 5.69575 0
M  V30 1182 H 107.314 -0.349864 0.667915 0
M  V30 1183 H 109.965 -0.180487 1.8261 0
M  V30 1184 H 108.347 -2.48853 3.08039 0
M  V30 1185 H 109.521 -0.0715019 4.60745 0
M  V30 1186 H 107.836 -0.222741 4.15804 0
M  V30 1187 H 110.433 -2.99047 4.43255 0
M  V30 1188 H 110.776 -3.14542 2.72707 0
M  V30 1189 H 111.309 -1.68905 3.60161 0
M  V30 1190 H 108.048 -0.898589 6.49312 0
M  V30 1191 H 107.568 -2.31648 5.53262 0
M  V30 1192 H 109.247 -2.14862 6.10281 0
M  V30 1193 N 109.379 -1.50304 -0.473955 0
M  V30 1194 C 110.327 -1.69482 -1.59307 0
M  V30 1195 C 111.321 -0.560669 -1.59853 0
M  V30 1196 O 112.527 -0.741087 -1.64036 0
M  V30 1197 H 108.902 -0.534892 -0.528578 0
M  V30 1198 H 110.873 -2.63364 -1.40293 0
M  V30 1199 C 109.622 -1.80354 -2.97267 0
M  V30 1200 H 108.945 -2.67012 -2.97564 0
M  V30 1201 H 110.385 -1.97798 -3.75036 0
M  V30 1202 C 108.844 -0.55448 -3.32306 0
M  V30 1203 O 109.374 0.307661 -4.0052 0
M  V30 1204 N 107.58 -0.409354 -2.87702 0
M  V30 1205 H 107.127 -1.11196 -2.32364 0
M  V30 1206 H 107.085 0.425223 -3.11511 0
M  V30 1207 N 110.857 0.726932 -1.39834 0
M  V30 1208 C 111.804 1.841 -1.39197 0
M  V30 1209 C 112.774 1.642 -0.250502 0
M  V30 1210 O 113.959 1.85494 -0.446846 0
M  V30 1211 C 111.099 3.21697 -1.24919 0
M  V30 1212 C 110.212 3.53247 -2.48678 0
M  V30 1213 C 109.347 4.80289 -2.26928 0
M  V30 1214 C 108.386 5.04707 -3.4632 0
M  V30 1215 N 107.523 6.22956 -3.23836 0
M  V30 1216 H 112.363 1.83979 -2.34427 0
M  V30 1217 H 109.9 0.898876 -1.16442 0
M  V30 1218 H 111.858 4.01137 -1.1465 0
M  V30 1219 H 110.488 3.21076 -0.333153 0
M  V30 1220 H 109.54 2.68447 -2.69519 0
M  V30 1221 H 110.852 3.67205 -3.37582 0
M  V30 1222 H 110.006 5.67725 -2.13947 0
M  V30 1223 H 108.745 4.68519 -1.35431 0
M  V30 1224 H 107.75 4.1573 -3.5979 0
M  V30 1225 H 108.975 5.18357 -4.38729 0
M  V30 1226 H 106.921 6.12459 -2.35011 0
M  V30 1227 H 106.838 6.37539 -4.063 0
M  V30 1228 H 108.106 7.1321 -3.14566 0
M  V30 1229 N 112.336 1.25143 0.95797 0
M  V30 1230 C 113.561 1.12521 1.74223 0
M  V30 1231 C 113.986 -0.317402 1.85403 0
M  V30 1232 O 113.344 -1.2299 1.33204 0
M  V30 1233 C 113.392 1.78062 3.1357 0
M  V30 1234 O 112.496 1.058 3.98598 0
M  V30 1235 H 111.837 0.39304 0.535178 0
M  V30 1236 H 114.367 1.65641 1.201 0
M  V30 1237 H 114.377 1.84213 3.64046 0
M  V30 1238 H 113.052 2.83021 3.04749 0
M  V30 1239 H 111.629 1.07506 3.57067 0
M  V30 1240 N 113.814 -1.1601 1.06675 0
M  V30 1241 C 115.039 -1.91068 0.806706 0
M  V30 1242 C 115.464 -1.77112 -0.633485 0
M  V30 1243 O 114.822 -1.09908 -1.44187 0
M  V30 1244 C 114.87 -3.39655 1.21106 0
M  V30 1245 O 113.974 -4.10893 0.352189 0
M  V30 1246 H 113.315 -0.595125 0.294486 0
M  V30 1247 H 115.845 -1.46955 1.42356 0
M  V30 1248 H 115.855 -3.90434 1.18428 0
M  V30 1249 H 114.53 -3.49132 2.26008 0
M  V30 1250 H 113.107 -3.70285 0.440868 0
M  V30 1251 N 115.292 -0.849877 -1.32721 0
M  V30 1252 C 116.703 -0.506188 -1.79707 0
M  V30 1253 C 117.054 0.975627 -1.70223 0
M  V30 1254 O 116.179 1.76078 -1.25799 0
M  V30 1255 C 116.774 -0.912044 -3.26293 0
M  V30 1256 C 115.333 -0.620326 -3.71253 0
M  V30 1257 C 114.48 -1.11439 -2.53922 0
M  V30 1258 H 117.431 -1.03754 -1.20087 0
M  V30 1259 H 117.452 -0.226493 -3.79825 0
M  V30 1260 H 116.964 -1.99057 -3.33164 0
M  V30 1261 H 115.065 0.447674 -3.69901 0
M  V30 1262 H 115.178 -1.18327 -4.64258 0
M  V30 1263 H 113.542 -0.534834 -2.49021 0
M  V30 1264 H 114.325 -2.19992 -2.6355 0
M  V30 1265 N 116.77 1.45427 -0.607355 0
M  V30 1266 C 117.7 2.3329 0.0989352 0
M  V30 1267 C 118.681 1.46816 0.859007 0
M  V30 1268 O 119.866 1.75588 0.829604 0
M  V30 1269 C 116.996 3.29518 1.09705 0
M  V30 1270 C 115.95 4.25626 0.450206 0
M  V30 1271 C 115.276 5.11542 1.55655 0
M  V30 1272 C 116.576 5.18505 -0.628455 0
M  V30 1273 H 118.27 2.92595 -0.634716 0
M  V30 1274 H 115.816 1.40696 -0.306681 0
M  V30 1275 H 117.769 3.89855 1.59971 0
M  V30 1276 H 116.493 2.68372 1.86129 0
M  V30 1277 H 115.152 3.66586 -0.0315886 0
M  V30 1278 H 114.8 4.46765 2.31107 0
M  V30 1279 H 114.5 5.76647 1.12925 0
M  V30 1280 H 116.024 5.74748 2.06148 0
M  V30 1281 H 117.438 5.72916 -0.209877 0
M  V30 1282 H 115.835 5.92085 -0.977489 0
M  V30 1283 H 116.905 4.60948 -1.50514 0
M  V30 1284 N 118.248 0.346503 1.53744 0
M  V30 1285 C 119.18 -0.543316 2.22667 0
M  V30 1286 C 120.193 -1.06159 1.23427 0
M  V30 1287 O 121.382 -0.971235 1.49764 0
M  V30 1288 C 118.482 -1.76076 2.89569 0
M  V30 1289 C 117.655 -1.37727 4.15151 0
M  V30 1290 C 116.714 -2.45471 4.65436 0
M  V30 1291 O 115.74 -2.08655 5.29577 0
M  V30 1292 N 116.942 -3.7677 4.41616 0
M  V30 1293 H 119.707 0.0469703 2.99663 0
M  V30 1294 H 117.268 0.170766 1.60997 0
M  V30 1295 H 119.26 -2.47593 3.20125 0
M  V30 1296 H 117.83 -2.25835 2.16142 0
M  V30 1297 H 117.05 -0.492746 3.91108 0
M  V30 1298 H 118.338 -1.09708 4.96832 0
M  V30 1299 H 117.736 -4.09467 3.90325 0
M  V30 1300 H 116.293 -4.44448 4.7677 0
M  V30 1301 N 119.726 -1.57421 0.075193 0
M  V30 1302 C 120.673 -2.12915 -0.890843 0
M  V30 1303 C 121.643 -1.04252 -1.29309 0
M  V30 1304 O 122.828 -1.31933 -1.37834 0
M  V30 1305 C 119.968 -2.69795 -2.15186 0
M  V30 1306 C 119.081 -3.92624 -1.80194 0
M  V30 1307 C 118.216 -4.37736 -3.00933 0
M  V30 1308 C 117.255 -5.53205 -2.61974 0
M  V30 1309 N 116.392 -5.9326 -3.75483 0
M  V30 1310 H 121.232 -2.95156 -0.410735 0
M  V30 1311 H 118.769 -1.45854 -0.191086 0
M  V30 1312 H 120.727 -3.00883 -2.89008 0
M  V30 1313 H 119.357 -1.90313 -2.60731 0
M  V30 1314 H 118.409 -3.67977 -0.964218 0
M  V30 1315 H 119.721 -4.76482 -1.47534 0
M  V30 1316 H 118.875 -4.70503 -3.8303 0
M  V30 1317 H 117.614 -3.52739 -3.36789 0
M  V30 1318 H 116.619 -5.20086 -1.783 0
M  V30 1319 H 117.844 -6.39936 -2.27284 0
M  V30 1320 H 115.79 -5.11212 -4.11094 0
M  V30 1321 H 115.707 -6.71865 -3.46602 0
M  V30 1322 H 116.975 -6.30651 -4.58148 0
M  V30 1323 N 121.204 0.198386 -1.56346 0
M  V30 1324 C 122.136 1.26987 -1.90806 0
M  V30 1325 C 123.149 1.41877 -0.798419 0
M  V30 1326 O 124.338 1.42362 -1.07682 0
M  V30 1327 C 121.438 2.64246 -2.12196 0
M  V30 1328 C 120.611 2.71007 -3.43328 0
M  V30 1329 C 119.67 3.89439 -3.5387 0
M  V30 1330 O 118.696 3.76695 -4.26719 0
M  V30 1331 N 119.898 5.04752 -2.86715 0
M  V30 1332 H 122.663 0.977433 -2.83313 0
M  V30 1333 H 120.224 0.388322 -1.57174 0
M  V30 1334 H 122.216 3.41896 -2.1654 0
M  V30 1335 H 120.786 2.85992 -1.26204 0
M  V30 1336 H 120.006 1.79657 -3.50881 0
M  V30 1337 H 121.294 2.72512 -4.29668 0
M  V30 1338 H 120.692 5.18004 -2.2735 0
M  V30 1339 H 119.249 5.8036 -2.96691 0
M  V30 1340 N 122.682 1.50554 0.465978 0
M  V30 1341 C 123.612 1.72722 1.57128 0
M  V30 1342 C 124.593 0.576294 1.6004 0
M  V30 1343 O 125.778 0.81598 1.76225 0
M  V30 1344 C 122.908 1.82605 2.95419 0
M  V30 1345 C 121.862 2.97835 3.07373 0
M  V30 1346 C 121.188 2.92867 4.47363 0
M  V30 1347 C 122.488 4.38265 2.84114 0
M  V30 1348 H 124.182 2.65267 1.38829 0
M  V30 1349 H 121.728 1.2765 0.666441 0
M  V30 1350 H 123.681 1.96698 3.72677 0
M  V30 1351 H 122.405 0.866858 3.14886 0
M  V30 1352 H 121.064 2.83401 2.3255 0
M  V30 1353 H 120.712 1.94783 4.63755 0
M  V30 1354 H 120.412 3.70227 4.56296 0
M  V30 1355 H 121.936 3.09015 5.26633 0
M  V30 1356 H 123.35 4.53198 3.51118 0
M  V30 1357 H 121.747 5.17115 3.04487 0
M  V30 1358 H 122.817 4.50281 1.7993 0
M  V30 1359 N 124.16 -0.719506 1.40217 0
M  V30 1360 C 125.571 -1.29848 1.34151 0
M  V30 1361 C 125.922 -1.96196 0.0131349 0
M  V30 1362 O 125.047 -1.973 -0.88892 0
M  V30 1363 C 125.642 -2.36118 2.42968 0
M  V30 1364 C 124.201 -2.8965 2.40374 0
M  V30 1365 C 123.348 -1.63393 2.24049 0
M  V30 1366 H 126.299 -0.51591 1.5008 0
M  V30 1367 H 126.32 -3.16871 2.10649 0
M  V30 1368 H 125.832 -1.878 3.39636 0
M  V30 1369 H 123.933 -3.42208 1.47392 0
M  V30 1370 H 124.046 -3.4171 3.35814 0
M  V30 1371 H 122.41 -1.88312 1.71495 0
M  V30 1372 H 123.193 -1.17104 3.2271 0
M  V30 1373 N 125.638 -1.25649 -0.95132 0
M  V30 1374 C 126.601 -1.06399 -2.03007 0
M  V30 1375 C 127.601 -0.0156794 -1.60792 0
M  V30 1376 O 128.791 -0.25817 -1.72276 0
M  V30 1377 C 125.923 -0.616184 -3.35285 0
M  V30 1378 H 127.116 -2.02164 -2.21517 0
M  V30 1379 H 124.669 -1.08103 -1.12887 0
M  V30 1380 H 125.404 0.343917 -3.22471 0
M  V30 1381 H 125.189 -1.37301 -3.67275 0
M  V30 1382 H 126.679 -0.503032 -4.14559 0
M  V30 1383 N 127.117 1.15442 -1.07289 0
M  V30 1384 C 128.364 1.86213 -0.795668 0
M  V30 1385 C 128.692 1.82291 0.678238 0
M  V30 1386 O 127.947 1.24057 1.51355 0
M  V30 1387 C 128.246 3.3489 -1.24834 0
M  V30 1388 C 127.912 3.59007 -2.72809 0
M  V30 1389 C 126.574 3.65298 -3.13227 0
M  V30 1390 C 128.926 3.68762 -3.68326 0
M  V30 1391 C 126.254 3.78854 -4.4798 0
M  V30 1392 C 128.606 3.83842 -5.0284 0
M  V30 1393 C 127.27 3.88378 -5.4288 0
M  V30 1394 H 126.54 0.681403 -0.291155 0
M  V30 1395 H 129.187 1.36435 -1.34379 0
M  V30 1396 H 127.492 3.8687 -0.619595 0
M  V30 1397 H 129.189 3.88052 -1.01076 0
M  V30 1398 H 125.779 3.5475 -2.40521 0
M  V30 1399 H 129.963 3.63202 -3.38227 0
M  V30 1400 H 125.219 3.80623 -4.78472 0
M  V30 1401 H 129.393 3.90332 -5.76727 0
M  V30 1402 H 127.02 3.98635 -6.47298 0
M  V30 1403 N 128.595 0.856903 1.32268 0
M  V30 1404 C 129.844 0.457599 1.96441 0
M  V30 1405 C 130.157 -0.992426 1.68553 0
M  V30 1406 O 131.363 -1.49727 2.26482 0
M  V30 1407 C 129.819 0.767358 3.51624 0
M  V30 1408 C 129.427 2.23326 3.88367 0
M  V30 1409 C 131.171 0.435887 4.22256 0
M  V30 1410 C 129.078 2.48613 5.36606 0
M  V30 1411 H 128.008 0.167387 0.735185 0
M  V30 1412 H 130.659 1.048 1.5063 0
M  V30 1413 H 129.041 0.106367 3.95857 0
M  V30 1414 H 130.215 2.93623 3.55137 0
M  V30 1415 H 128.53 2.52948 3.30766 0
M  V30 1416 H 131.127 0.602202 5.31298 0
M  V30 1417 H 131.47 -0.622672 4.11617 0
M  V30 1418 H 132.003 1.05286 3.83614 0
M  V30 1419 H 128.742 3.53101 5.52268 0
M  V30 1420 H 128.262 1.82896 5.71235 0
M  V30 1421 H 129.941 2.32676 6.03714 0
M  V30 1422 N 130.073 -1.45103 0.615059 0
M  V30 1423 C 131.298 -2.07064 0.117988 0
M  V30 1424 C 131.723 -1.4554 -1.19163 0
M  V30 1425 O 131.081 -0.550855 -1.72729 0
M  V30 1426 C 131.129 -3.606 -0.000288387 0
M  V30 1427 O 130.233 -3.98847 -1.04856 0
M  V30 1428 H 129.574 -0.659467 0.0774581 0
M  V30 1429 H 132.104 -1.86236 0.847186 0
M  V30 1430 H 132.114 -4.07529 -0.196091 0
M  V30 1431 H 130.789 -4.04765 0.955932 0
M  V30 1432 H 129.366 -3.63577 -0.828619 0
M  V30 1433 N 131.551 -0.354651 -1.53558 0
M  V30 1434 C 132.461 0.50515 -2.29097 0
M  V30 1435 C 133.477 1.10223 -1.34636 0
M  V30 1436 O 134.653 1.11553 -1.67684 0
M  V30 1437 C 131.718 1.63479 -3.05738 0
M  V30 1438 C 130.779 1.06636 -4.15845 0
M  V30 1439 C 130.012 2.14217 -4.88822 0
M  V30 1440 O 130.235 3.35137 -4.61562 0
M  V30 1441 O 129.169 1.77887 -5.75013 0
M  V30 1442 H 132.995 -0.109237 -3.03503 0
M  V30 1443 H 130.58 -0.119357 -1.48922 0
M  V30 1444 H 132.462 2.2918 -3.5363 0
M  V30 1445 H 131.137 2.23478 -2.34178 0
M  V30 1446 H 130.044 0.373565 -3.7223 0
M  V30 1447 H 131.377 0.511081 -4.89539 0
M  V30 1448 N 133.029 1.57378 -0.0835403 0
M  V30 1449 C 134.306 1.85363 0.624507 0
M  V30 1450 C 134.686 0.978239 1.87066 0
M  V30 1451 O 134.034 0.0475908 2.2845 0
M  V30 1452 C 134.244 3.35795 0.950947 0
M  V30 1453 C 135.592 4.03581 1.31939 0
M  V30 1454 O 136.616 3.40609 1.04232 0
M  V30 1455 O 135.475 5.14672 1.83779 0
M  V30 1456 H 132.569 0.766162 0.311329 0
M  V30 1457 H 135.115 1.69307 -0.115362 0
M  V30 1458 H 133.887 3.91244 0.0663899 0
M  V30 1459 H 133.51 3.57154 1.74719 0
M  V30 1460 N 134.507 -0.190092 1.56449 0
M  V30 1461 C 135.47 -1.21925 1.9408 0
M  V30 1462 C 136.47 -1.38176 0.822431 0
M  V30 1463 O 137.66 -1.35903 1.08977 0
M  V30 1464 C 134.792 -2.58773 2.21922 0
M  V30 1465 H 135.985 -0.897464 2.86157 0
M  V30 1466 H 133.538 -0.43181 1.50217 0
M  V30 1467 H 134.273 -2.95998 1.32499 0
M  V30 1468 H 134.058 -2.48348 3.03424 0
M  V30 1469 H 135.548 -3.32978 2.52022 0
M  V30 1470 N 135.985 -1.50799 -0.457987 0
M  V30 1471 C 137.21 -1.66496 -1.23668 0
M  V30 1472 C 137.635 -0.353288 -1.84752 0
M  V30 1473 O 136.993 0.684346 -1.67888 0
M  V30 1474 C 137.041 -2.76763 -2.3116 0
M  V30 1475 O 136.145 -2.38928 -3.36136 0
M  V30 1476 H 135.486 -0.555828 -0.363252 0
M  V30 1477 H 138.016 -1.9725 -0.543474 0
M  V30 1478 H 138.026 -3.00232 -2.76269 0
M  V30 1479 H 136.701 -3.71954 -1.86073 0
M  V30 1480 H 135.278 -2.25953 -2.96647 0
M  V30 1481 N 137.463 0.71206 -1.40597 0
M  V30 1482 C 138.711 1.46907 -1.38791 0
M  V30 1483 C 139.032 1.94998 0.00780391 0
M  V30 1484 O 138.302 1.70587 0.963174 0
M  V30 1485 H 136.882 0.545043 -0.51082 0
M  V30 1486 H 139.544 0.843882 -1.75683 0
M  V30 1487 H 138.64 2.34021 -2.06496 0
M  V30 1488 N 138.941 1.26152 0.944643 0
M  V30 1489 C 140.171 1.14094 1.72239 0
M  V30 1490 C 140.579 -0.306931 1.86694 0
M  V30 1491 O 139.922 -1.22222 1.3714 0
M  V30 1492 C 139.984 1.73316 3.14963 0
M  V30 1493 C 139.648 3.2239 3.23904 0
M  V30 1494 C 140.645 4.19252 3.07447 0
M  V30 1495 C 138.33 3.62788 3.47405 0
M  V30 1496 C 140.324 5.54491 3.14353 0
M  V30 1497 C 138.011 4.98162 3.53947 0
M  V30 1498 C 139.009 5.93823 3.37436 0
M  V30 1499 O 138.697 7.26732 3.43679 0
M  V30 1500 H 138.429 0.398292 0.546205 0
M  V30 1501 H 140.983 1.67201 1.19301 0
M  V30 1502 H 139.213 1.14667 3.69308 0
M  V30 1503 H 140.902 1.56214 3.74636 0
M  V30 1504 H 141.668 3.8938 2.8915 0
M  V30 1505 H 137.547 2.88816 3.59313 0
M  V30 1506 H 141.091 6.29137 3.01384 0
M  V30 1507 H 136.988 5.27695 3.71763 0
M  V30 1508 H 137.756 7.3496 3.60245 0
M  V30 1509 N 140.419 -1.14872 1.07899 0
M  V30 1510 C 141.349 -2.2193 0.725887 0
M  V30 1511 C 142.33 -1.67622 -0.28927 0
M  V30 1512 O 143.515 -1.93533 -0.160787 0
M  V30 1513 C 140.645 -3.47061 0.128856 0
M  V30 1514 C 139.599 -4.14363 1.07178 0
M  V30 1515 C 138.925 -5.33636 0.337229 0
M  V30 1516 C 140.225 -4.63492 2.40775 0
M  V30 1517 H 141.919 -2.51724 1.62097 0
M  V30 1518 H 139.465 -1.20991 0.780838 0
M  V30 1519 H 141.418 -4.21199 -0.130147 0
M  V30 1520 H 140.142 -3.16617 -0.80134 0
M  V30 1521 H 138.801 -3.42173 1.3158 0
M  V30 1522 H 138.449 -4.99449 -0.596606 0
M  V30 1523 H 138.149 -5.79609 0.965788 0
M  V30 1524 H 139.673 -6.10539 0.0861567 0
M  V30 1525 H 141.087 -5.2913 2.20669 0
M  V30 1526 H 139.484 -5.20148 2.99276 0
M  V30 1527 H 140.554 -3.78834 3.02676 0
M  V30 1528 N 141.898 -0.863906 -1.31812 0
M  V30 1529 C 143.126 -0.486111 -2.01108 0
M  V30 1530 C 143.541 0.919755 -1.64882 0
M  V30 1531 O 142.898 1.60162 -0.874893 0
M  V30 1532 C 142.949 -0.626435 -3.56031 0
M  V30 1533 O 142.67 -1.97693 -3.90959 0
M  V30 1534 C 144.171 -0.248857 -4.42601 0
M  V30 1535 H 141.391 -0.190052 -0.643523 0
M  V30 1536 H 143.935 -1.1634 -1.68182 0
M  V30 1537 H 142.09 0.00322717 -3.874 0
M  V30 1538 H 142.504 -1.98034 -4.85678 0
M  V30 1539 H 143.978 -0.398016 -5.50563 0
M  V30 1540 H 144.455 0.811489 -4.31638 0
M  V30 1541 H 145.061 -0.853971 -4.16638 0
M  V30 1542 N 143.376 1.44774 -0.622745 0
M  V30 1543 C 144.601 2.06999 -0.128968 0
M  V30 1544 C 145.026 1.4617 1.1839 0
M  V30 1545 O 144.384 0.560007 1.72434 0
M  V30 1546 C 144.432 3.60595 -0.0188351 0
M  V30 1547 O 143.536 3.99398 1.02739 0
M  V30 1548 H 142.877 0.659047 -0.0809544 0
M  V30 1549 H 145.407 1.85784 -0.85705 0
M  V30 1550 H 145.417 4.07627 0.174476 0
M  V30 1551 H 144.092 4.04252 -0.977384 0
M  V30 1552 H 142.669 3.64011 0.809326 0
M  V30 1553 N 144.854 0.36279 1.53368 0
M  V30 1554 C 146.079 -0.231226 2.06107 0
M  V30 1555 C 146.504 -1.419 1.23474 0
M  V30 1556 O 145.862 -1.79524 0.253128 0
M  V30 1557 C 145.91 -0.605523 3.5548 0
M  V30 1558 O 145.014 -1.70312 3.7559 0
M  V30 1559 H 144.355 -0.034327 0.663112 0
M  V30 1560 H 146.885 0.522584 1.97814 0
M  V30 1561 H 146.895 -0.877314 3.98456 0
M  V30 1562 H 145.57 0.263004 4.15068 0
M  V30 1563 H 144.147 -1.4271 3.44512 0
M  V30 1564 N 146.332 -1.57332 0.0918853 0
M  V30 1565 C 147.578 -1.95328 -0.567313 0
M  V30 1566 C 147.933 -0.972866 -1.65991 0
M  V30 1567 O 147.226 0.00166256 -1.916 0
M  V30 1568 C 147.42 -3.37689 -1.17051 0
M  V30 1569 C 147.249 -4.49489 -0.137875 0
M  V30 1570 C 146.019 -5.04498 0.284515 0
M  V30 1571 C 148.217 -5.10393 0.63271 0
M  V30 1572 N 146.199 -5.99853 1.30576 0
M  V30 1573 C 147.57 -6.01435 1.50587 0
M  V30 1574 C 149.625 -4.93143 0.68658 0
M  V30 1575 C 148.328 -6.77077 2.42815 0
M  V30 1576 C 150.354 -5.69445 1.59645 0
M  V30 1577 C 149.716 -6.60151 2.45725 0
M  V30 1578 H 145.815 -0.761467 -0.178023 0
M  V30 1579 H 148.399 -1.93924 0.173706 0
M  V30 1580 H 146.57 -3.39793 -1.88136 0
M  V30 1581 H 148.302 -3.62872 -1.79181 0
M  V30 1582 H 145.057 -4.73489 -0.102593 0
M  V30 1583 H 145.481 -6.52231 1.81449 0
M  V30 1584 H 150.123 -4.22785 0.035244 0
M  V30 1585 H 147.841 -7.46699 3.08975 0
M  V30 1586 H 151.427 -5.58112 1.64323 0
M  V30 1587 H 150.307 -7.18159 3.14987 0
M  V30 1588 N 147.81 0.181792 -1.56548 0
M  V30 1589 C 148.74 1.22765 -1.98623 0
M  V30 1590 C 149.721 1.46747 -0.860189 0
M  V30 1591 O 150.906 1.58259 -1.12551 0
M  V30 1592 C 148.036 2.56894 -2.33715 0
M  V30 1593 C 146.99 2.475 -3.49182 0
M  V30 1594 C 146.316 3.86023 -3.69986 0
M  V30 1595 C 147.616 1.98866 -4.82959 0
M  V30 1596 H 149.31 0.877942 -2.86239 0
M  V30 1597 H 146.856 0.42088 -1.37712 0
M  V30 1598 H 148.809 3.30253 -2.61746 0
M  V30 1599 H 147.533 2.93632 -1.42997 0
M  V30 1600 H 146.192 1.76596 -3.21262 0
M  V30 1601 H 145.84 4.20136 -2.76576 0
M  V30 1602 H 145.54 3.80609 -4.47672 0
M  V30 1603 H 147.064 4.60984 -4.00407 0
M  V30 1604 H 148.478 2.61992 -5.09934 0
M  V30 1605 H 146.875 2.04424 -5.64208 0
M  V30 1606 H 147.945 0.942465 -4.75653 0
M  V30 1607 N 149.288 1.51039 0.449983 0
M  V30 1608 C 150.516 1.66869 1.2232 0
M  V30 1609 C 150.931 0.360727 1.85322 0
M  V30 1610 O 150.288 -0.659531 1.70166 0
M  V30 1611 C 150.339 2.77524 2.31652 0
M  V30 1612 O 150.06 4.03252 1.7123 0
M  V30 1613 C 151.561 3.04512 3.2216 0
M  V30 1614 H 148.781 0.560326 0.369155 0
M  V30 1615 H 151.325 1.97385 0.534719 0
M  V30 1616 H 149.48 2.49642 2.96239 0
M  V30 1617 H 149.894 4.64609 2.43389 0
M  V30 1618 H 151.368 3.85551 3.95038 0
M  V30 1619 H 151.845 2.16415 3.8218 0
M  V30 1620 H 152.451 3.34005 2.63288 0
M  V30 1621 N 150.766 -0.704594 1.40972 0
M  V30 1622 C 151.696 -1.83124 1.44872 0
M  V30 1623 C 152.677 -1.67281 0.30838 0
M  V30 1624 O 153.862 -1.87149 0.518556 0
M  V30 1625 C 150.992 -3.21181 1.32136 0
M  V30 1626 C 149.946 -3.51714 2.43888 0
M  V30 1627 C 149.272 -4.89032 2.16222 0
M  V30 1628 C 150.572 -3.516 3.86232 0
M  V30 1629 H 152.266 -1.80117 2.39161 0
M  V30 1630 H 149.812 -0.865145 1.15114 0
M  V30 1631 H 151.765 -3.99702 1.33479 0
M  V30 1632 H 150.489 -3.24791 0.343279 0
M  V30 1633 H 149.148 -2.75539 2.41813 0
M  V30 1634 H 148.796 -4.89256 1.16778 0
M  V30 1635 H 148.496 -5.10426 2.911 0
M  V30 1636 H 150.02 -5.69873 2.19265 0
M  V30 1637 H 151.434 -4.2014 3.9007 0
M  V30 1638 H 149.831 -3.84523 4.60719 0
M  V30 1639 H 150.901 -2.50757 4.15029 0
M  V30 1640 N 152.244 -1.26651 -0.937939 0
M  V30 1641 C 153.491 -1.12387 -1.6845 0
M  V30 1642 C 153.819 0.332208 -1.91642 0
M  V30 1643 O 153.074 1.2602 -1.49725 0
M  V30 1644 C 153.373 -1.84168 -3.06295 0
M  V30 1645 C 153.039 -3.34056 -3.02849 0
M  V30 1646 C 151.701 -3.74942 -3.01616 0
M  V30 1647 C 154.053 -4.29741 -2.9491 0
M  V30 1648 C 151.381 -5.09894 -2.90215 0
M  V30 1649 C 153.733 -5.64738 -2.8505 0
M  V30 1650 C 152.397 -6.0493 -2.82162 0
M  V30 1651 H 151.667 -0.411252 -0.616403 0
M  V30 1652 H 154.314 -1.57134 -1.09459 0
M  V30 1653 H 152.619 -1.319 -3.6893 0
M  V30 1654 H 154.316 -1.70569 -3.62915 0
M  V30 1655 H 150.906 -3.01534 -3.0459 0
M  V30 1656 H 155.09 -3.99133 -2.94969 0
M  V30 1657 H 150.346 -5.40194 -2.86358 0
M  V30 1658 H 154.52 -6.38561 -2.77872 0
M  V30 1659 H 152.147 -7.09457 -2.73084 0
M  V30 1660 N 153.722 1.14298 -1.08507 0
M  V30 1661 C 154.968 1.85633 -0.816581 0
M  V30 1662 C 155.301 1.82784 0.656021 0
M  V30 1663 O 154.576 1.25926 1.48233 0
M  V30 1664 C 154.859 3.34223 -1.34041 0
M  V30 1665 C 154.712 3.45639 -2.87843 0
M  V30 1666 C 156.031 4.29356 -0.9665 0
M  V30 1667 H 153.15 0.67402 -0.298104 0
M  V30 1668 H 155.792 1.34214 -1.34487 0
M  V30 1669 H 153.942 3.78144 -0.89104 0
M  V30 1670 H 155.614 3.10498 -3.41158 0
M  V30 1671 H 153.857 2.86817 -3.25451 0
M  V30 1672 H 154.528 4.50089 -3.19569 0
M  V30 1673 H 157.004 3.93457 -1.35391 0
M  V30 1674 H 155.88 5.3178 -1.3602 0
M  V30 1675 H 156.141 4.41919 0.126362 0
M  V30 1676 N 155.201 0.870884 1.31352 0
M  V30 1677 C 156.612 0.534714 1.78879 0
M  V30 1678 C 156.963 -0.948423 1.71754 0
M  V30 1679 O 156.088 -1.74055 1.28584 0
M  V30 1680 C 156.683 0.963839 3.24801 0
M  V30 1681 C 155.242 0.679311 3.70219 0
M  V30 1682 C 154.389 1.15465 2.52117 0
M  V30 1683 H 157.34 1.05651 1.18421 0
M  V30 1684 H 157.361 0.286892 3.79417 0
M  V30 1685 H 156.873 2.04332 3.29955 0
M  V30 1686 H 154.974 -0.388769 3.70566 0
M  V30 1687 H 155.087 1.25698 4.62317 0
M  V30 1688 H 153.451 0.574383 2.48139 0
M  V30 1689 H 154.234 2.24157 2.60016 0
M  V30 1690 N 156.679 -1.44442 0.630414 0
M  V30 1691 C 157.904 -2.06927 0.139944 0
M  V30 1692 C 158.329 -1.46795 -1.17613 0
M  V30 1693 O 157.687 -0.569144 -1.72135 0
M  V30 1694 C 157.735 -3.6058 0.0379581 0
M  V30 1695 O 156.839 -3.99937 -1.0062 0
M  V30 1696 H 156.18 -0.658608 0.0844483 0
M  V30 1697 H 158.71 -1.85327 0.866891 0
M  V30 1698 H 158.72 -4.07714 -0.152856 0
M  V30 1699 H 157.395 -4.03728 0.998809 0
M  V30 1700 H 155.972 -3.64436 -0.79001 0
M  V30 1701 N 158.157 -0.370918 -1.53173 0
M  V30 1702 C 159.403 0.217423 -2.01631 0
M  V30 1703 C 159.736 1.47983 -1.25756 0
M  V30 1704 O 159.011 1.91274 -0.352764 0
M  V30 1705 C 159.294 0.503982 -3.56556 0
M  V30 1706 C 159.147 -0.77243 -4.43118 0
M  V30 1707 C 160.466 1.30234 -4.20389 0
M  V30 1708 H 157.585 0.0775486 -0.732909 0
M  V30 1709 H 160.227 -0.496863 -1.83388 0
M  V30 1710 H 158.377 1.11248 -3.72231 0
M  V30 1711 H 160.049 -1.4098 -4.39229 0
M  V30 1712 H 158.292 -1.39167 -4.10871 0
M  V30 1713 H 158.963 -0.526815 -5.4948 0
M  V30 1714 H 161.439 0.787546 -4.08579 0
M  V30 1715 H 160.315 1.47158 -5.28806 0
M  V30 1716 H 160.576 2.31237 -3.76805 0
M  V30 1717 N 159.635 1.57281 -0.100228 0
M  V30 1718 C 160.865 1.98591 0.569681 0
M  V30 1719 C 161.273 0.978315 1.61943 0
M  V30 1720 O 160.616 -0.0396108 1.83657 0
M  V30 1721 C 160.678 3.36282 1.271 0
M  V30 1722 C 160.342 4.55488 0.371409 0
M  V30 1723 C 161.339 5.18491 -0.382504 0
M  V30 1724 C 159.024 5.01474 0.287965 0
M  V30 1725 C 161.018 6.25852 -1.20779 0
M  V30 1726 C 158.705 6.08701 -0.540965 0
M  V30 1727 C 159.703 6.70755 -1.28749 0
M  V30 1728 O 159.391 7.75914 -2.10269 0
M  V30 1729 H 159.123 0.65752 0.156982 0
M  V30 1730 H 161.677 2.0463 -0.177734 0
M  V30 1731 H 159.907 3.26941 2.0651 0
M  V30 1732 H 161.596 3.62005 1.83595 0
M  V30 1733 H 162.362 4.83891 -0.3278 0
M  V30 1734 H 158.241 4.52932 0.858689 0
M  V30 1735 H 161.785 6.74218 -1.79096 0
M  V30 1736 H 157.682 6.42732 -0.597131 0
M  V30 1737 H 158.45 7.92925 -2.03007 0
M  V30 1738 N 161.113 -0.173488 1.56642 0
M  V30 1739 C 162.341 -0.906095 1.86004 0
M  V30 1740 C 162.756 -1.75921 0.685355 0
M  V30 1741 O 162.113 -1.79198 -0.345578 0
M  V30 1742 C 162.164 -1.78462 3.14378 0
M  V30 1743 O 161.885 -0.965914 4.27319 0
M  V30 1744 C 163.386 -2.62707 3.57071 0
M  V30 1745 H 160.606 -0.263341 0.617165 0
M  V30 1746 H 163.15 -0.174236 2.03756 0
M  V30 1747 H 161.305 -2.46984 2.98459 0
M  V30 1748 H 161.719 -1.56655 5.00559 0
M  V30 1749 H 163.193 -3.19969 4.49804 0
M  V30 1750 H 163.67 -3.37472 2.81086 0
M  V30 1751 H 164.276 -1.99521 3.75595 0
M  V30 1752 N 162.591 -1.51276 -0.441967 0
M  V30 1753 C 163.839 -1.63392 -1.18943 0
M  V30 1754 C 164.16 -0.350159 -1.9183 0
M  V30 1755 O 163.43 0.633784 -1.85364 0
M  V30 1756 H 162.01 -0.602164 -0.442049 0
M  V30 1757 H 164.672 -1.88186 -0.507165 0
M  V30 1758 H 163.768 -2.45934 -1.92154 0
M  V30 1759 N 164.069 0.697108 -1.41344 0
M  V30 1760 C 165.315 1.4593 -1.40827 0
M  V30 1761 C 165.648 1.94193 -0.0167098 0
M  V30 1762 O 164.923 1.69425 0.955263 0
M  V30 1763 C 165.206 2.67229 -2.41373 0
M  V30 1764 C 165.059 2.24741 -3.8963 0
M  V30 1765 C 166.378 3.69423 -2.39196 0
M  V30 1766 H 163.497 0.529303 -0.512842 0
M  V30 1767 H 166.139 0.794112 -1.72609 0
M  V30 1768 H 164.289 3.23982 -2.14401 0
M  V30 1769 H 165.961 1.73327 -4.27499 0
M  V30 1770 H 164.204 1.56542 -4.0457 0
M  V30 1771 H 164.875 3.1177 -4.55525 0
M  V30 1772 H 167.351 3.2234 -2.63128 0
M  V30 1773 H 166.227 4.51907 -3.11563 0
M  V30 1774 H 166.488 4.19012 -1.41001 0
M  V30 1775 N 165.547 1.27147 0.931209 0
M  V30 1776 C 166.794 1.13278 1.67852 0
M  V30 1777 C 167.122 -0.32204 1.91815 0
M  V30 1778 O 166.377 -1.25224 1.50391 0
M  V30 1779 C 166.676 1.8579 3.05314 0
M  V30 1780 C 166.342 3.35657 3.01073 0
M  V30 1781 C 165.004 3.76536 2.99623 0
M  V30 1782 C 167.356 4.31299 2.92627 0
M  V30 1783 C 164.684 5.11426 2.87506 0
M  V30 1784 C 167.036 5.66242 2.82051 0
M  V30 1785 C 165.7 6.06418 2.7895 0
M  V30 1786 H 164.97 0.414515 0.614214 0
M  V30 1787 H 167.617 1.57712 1.08624 0
M  V30 1788 H 165.922 1.33854 3.68226 0
M  V30 1789 H 167.619 1.72491 3.62005 0
M  V30 1790 H 164.209 3.03146 3.02986 0
M  V30 1791 H 168.393 4.00692 2.92848 0
M  V30 1792 H 163.649 5.41705 2.83489 0
M  V30 1793 H 167.823 6.40026 2.74481 0
M  V30 1794 H 165.45 7.10895 2.69318 0
M  V30 1795 N 167.025 -1.13721 1.09112 0
M  V30 1796 C 168.271 -1.85198 0.826414 0
M  V30 1797 C 168.604 -1.83129 -0.646319 0
M  V30 1798 O 167.879 -1.2671 -1.47563 0
M  V30 1799 C 168.162 -3.33507 1.35812 0
M  V30 1800 C 168.015 -3.44108 2.89672 0
M  V30 1801 C 169.334 -4.28838 0.989256 0
M  V30 1802 H 166.453 -0.67243 0.301675 0
M  V30 1803 H 169.095 -1.33499 1.35197 0
M  V30 1804 H 167.245 -3.77666 0.911082 0
M  V30 1805 H 168.917 -3.08684 3.428 0
M  V30 1806 H 167.16 -2.85087 3.26967 0
M  V30 1807 H 167.831 -4.48388 3.21951 0
M  V30 1808 H 170.307 -3.92734 1.37475 0
M  V30 1809 H 169.183 -5.31051 1.38838 0
M  V30 1810 H 169.444 -4.4198 -0.102924 0
M  V30 1811 N 168.503 -0.877838 -1.30888 0
M  V30 1812 C 169.749 -0.493426 -1.96706 0
M  V30 1813 C 170.082 0.953504 -1.6918 0
M  V30 1814 O 169.357 1.67266 -0.992594 0
M  V30 1815 C 169.64 -0.760429 -3.51979 0
M  V30 1816 C 169.493 -2.25747 -3.89048 0
M  V30 1817 C 170.812 -0.232148 -4.39487 0
M  V30 1818 H 167.931 -0.180746 -0.714493 0
M  V30 1819 H 170.573 -1.10052 -1.54882 0
M  V30 1820 H 168.723 -0.243715 -3.87735 0
M  V30 1821 H 170.395 -2.84204 -3.63354 0
M  V30 1822 H 168.638 -2.72694 -3.37373 0
M  V30 1823 H 169.309 -2.39491 -4.97341 0
M  V30 1824 H 171.785 -0.674314 -4.106 0
M  V30 1825 H 170.661 -0.448355 -5.47066 0
M  V30 1826 H 170.922 0.866297 -4.33529 0
M  V30 1827 N 169.982 1.44106 -0.638065 0
M  V30 1828 C 171.207 2.0685 -0.150916 0
M  V30 1829 C 171.632 1.47417 1.16833 0
M  V30 1830 O 170.99 0.578264 1.71831 0
M  V30 1831 C 171.038 3.60555 -0.05708 0
M  V30 1832 O 170.142 4.00465 0.984972 0
M  V30 1833 H 169.483 0.658151 -0.0879399 0
M  V30 1834 H 172.013 1.84865 -0.876707 0
M  V30 1835 H 172.023 4.07789 0.131232 0
M  V30 1836 H 170.698 4.03193 -1.02021 0
M  V30 1837 H 169.275 3.64849 0.770672 0
M  V30 1838 N 171.46 0.379036 1.52974 0
M  V30 1839 C 172.39 -0.452706 2.29069 0
M  V30 1840 C 173.371 -1.07237 1.32039 0
M  V30 1841 O 174.556 -1.08708 1.60923 0
M  V30 1842 C 171.686 -1.5856 3.08992 0
M  V30 1843 C 170.64 -1.0925 4.13822 0
M  V30 1844 C 169.966 -2.31668 4.81907 0
M  V30 1845 C 171.266 -0.167702 5.22031 0
M  V30 1846 H 172.96 0.182181 2.98845 0
M  V30 1847 H 170.506 0.0890592 1.43724 0
M  V30 1848 H 172.459 -2.1742 3.6098 0
M  V30 1849 H 171.183 -2.24792 2.36931 0
M  V30 1850 H 169.842 -0.526494 3.628 0
M  V30 1851 H 169.49 -2.96386 4.06404 0
M  V30 1852 H 169.19 -1.9934 5.52754 0
M  V30 1853 H 170.714 -2.91189 5.36695 0
M  V30 1854 H 172.128 -0.664186 5.6944 0
M  V30 1855 H 170.525 0.0653265 6.00064 0
M  V30 1856 H 171.595 0.786347 4.78482 0
M  V30 1857 N 172.938 -1.57226 0.108567 0
M  V30 1858 C 174.349 -1.8195 -0.418464 0
M  V30 1859 C 174.7 -1.02508 -1.67292 0
M  V30 1860 O 173.825 -0.258496 -2.14851 0
M  V30 1861 C 174.42 -3.30028 -0.765979 0
M  V30 1862 C 172.979 -3.55469 -1.23769 0
M  V30 1863 C 172.126 -2.7625 -0.241106 0
M  V30 1864 H 175.077 -1.55149 0.33384 0
M  V30 1865 H 175.098 -3.44086 -1.62434 0
M  V30 1866 H 174.61 -3.87821 0.147219 0
M  V30 1867 H 172.711 -3.03022 -2.16814 0
M  V30 1868 H 172.824 -4.6408 -1.19022 0
M  V30 1869 H 171.188 -2.44133 -0.72602 0
M  V30 1870 H 171.971 -3.36797 0.665007 0
M  V30 1871 N 174.416 0.165178 -1.56732 0
M  V30 1872 C 175.346 1.20651 -1.99914 0
M  V30 1873 C 176.327 1.45827 -0.875705 0
M  V30 1874 O 177.512 1.57057 -1.14223 0
M  V30 1875 C 174.642 2.54401 -2.36427 0
M  V30 1876 C 173.596 2.43782 -3.51787 0
M  V30 1877 C 172.922 3.82078 -3.7406 0
M  V30 1878 C 174.222 1.93732 -4.85041 0
M  V30 1879 H 175.916 0.847534 -2.87154 0
M  V30 1880 H 173.462 0.40625 -1.38151 0
M  V30 1881 H 175.415 3.27458 -2.65234 0
M  V30 1882 H 174.139 2.92098 -1.46103 0
M  V30 1883 H 172.798 1.73178 -3.23117 0
M  V30 1884 H 172.446 4.17179 -2.81017 0
M  V30 1885 H 172.146 3.7584 -4.51684 0
M  V30 1886 H 173.67 4.56712 -4.05274 0
M  V30 1887 H 175.084 2.56569 -5.12684 0
M  V30 1888 H 173.481 1.98428 -5.66345 0
M  V30 1889 H 174.551 0.891962 -4.76626 0
M  V30 1890 N 175.894 1.51508 0.433938 0
M  V30 1891 C 176.842 1.73646 1.54757 0
M  V30 1892 C 177.836 0.602854 1.5831 0
M  V30 1893 O 179.042 0.784318 1.62014 0
M  V30 1894 H 175.417 0.548718 0.51421 0
M  V30 1895 H 177.388 2.66991 1.33261 0
M  V30 1896 C 176.137 1.88172 2.92381 0
M  V30 1897 H 175.46 2.74808 2.90381 0
M  V30 1898 H 176.9 2.07672 3.6966 0
M  V30 1899 C 175.359 0.64239 3.30719 0
M  V30 1900 O 175.889 -0.201362 4.01195 0
M  V30 1901 N 174.095 0.485489 2.86516 0
M  V30 1902 H 173.642 1.17318 2.29334 0
M  V30 1903 H 173.6 -0.342482 3.12529 0
M  V30 1904 N 177.372 -0.689602 1.41712 0
M  V30 1905 C 178.621 -1.44534 1.40686 0
M  V30 1906 C 178.934 -1.95588 0.0213352 0
M  V30 1907 O 180.14 -2.71271 -0.111534 0
M  V30 1908 C 178.596 -2.61387 2.47396 0
M  V30 1909 C 178.204 -2.17094 3.91885 0
M  V30 1910 C 179.948 -3.38986 2.55517 0
M  V30 1911 C 177.855 -3.3094 4.90135 0
M  V30 1912 H 176.785 -0.542925 0.52321 0
M  V30 1913 H 179.436 -0.748054 1.6756 0
M  V30 1914 H 177.818 -3.33412 2.13664 0
M  V30 1915 H 178.992 -1.52318 4.34897 0
M  V30 1916 H 177.307 -1.52473 3.8748 0
M  V30 1917 H 179.904 -4.23747 3.26102 0
M  V30 1918 H 180.247 -3.84578 1.59391 0
M  V30 1919 H 180.78 -2.74021 2.8837 0
M  V30 1920 H 177.519 -2.90355 5.87685 0
M  V30 1921 H 177.039 -3.94546 4.51767 0
M  V30 1922 H 178.718 -3.9663 5.11169 0
M  V30 1923 N 178.85 -1.27639 -0.924453 0
M  V30 1924 C 179.783 -1.04966 -2.02626 0
M  V30 1925 C 180.761 0.0309505 -1.62571 0
M  V30 1926 O 181.945 -0.114846 -1.8815 0
M  V30 1927 C 179.072 -0.59292 -3.3347 0
M  V30 1928 C 178.118 -1.66858 -3.92506 0
M  V30 1929 S 178.951 -3.2619 -4.24689 0
M  V30 1930 C 180.107 -2.82325 -5.58609 0
M  V30 1931 H 180.34 -1.98252 -2.21547 0
M  V30 1932 H 177.873 -1.11506 -1.06798 0
M  V30 1933 H 179.831 -0.336086 -4.09122 0
M  V30 1934 H 178.492 0.319939 -3.12466 0
M  V30 1935 H 177.685 -1.30038 -4.86935 0
M  V30 1936 H 177.287 -1.87766 -3.2345 0
M  V30 1937 H 179.579 -2.2783 -6.38044 0
M  V30 1938 H 180.522 -3.75511 -6.00331 0
M  V30 1939 H 180.93 -2.21367 -5.19285 0
M  V30 1940 N 180.328 1.1314 -1.09713 0
M  V30 1941 C 181.291 2.16831 -0.742751 0
M  V30 1942 C 182.291 1.59159 0.229129 0
M  V30 1943 O 183.481 1.74199 0.00693237 0
M  V30 1944 C 180.613 3.40756 -0.0989168 0
M  V30 1945 H 181.806 2.49695 -1.66109 0
M  V30 1946 H 179.359 1.2802 -0.896699 0
M  V30 1947 H 180.094 3.13485 0.830514 0
M  V30 1948 H 179.879 3.83888 -0.798265 0
M  V30 1949 H 181.369 4.17386 0.133524 0
M  V30 1950 N 181.806 0.884767 1.30421 0
M  V30 1951 C 183.055 0.499164 1.95426 0
M  V30 1952 C 183.368 -0.95645 1.70621 0
M  V30 1953 O 184.574 -1.44889 2.29607 0
M  V30 1954 C 183.03 0.84177 3.49917 0
M  V30 1955 C 182.638 2.31514 3.83543 0
M  V30 1956 C 184.382 0.525355 4.21237 0
M  V30 1957 C 182.289 2.59939 5.31212 0
M  V30 1958 H 181.219 0.182944 0.73147 0
M  V30 1959 H 183.87 1.07971 1.48373 0
M  V30 1960 H 182.252 0.190311 3.95542 0
M  V30 1961 H 183.426 3.0109 3.48829 0
M  V30 1962 H 181.741 2.59907 3.25326 0
M  V30 1963 H 184.338 0.714762 5.29901 0
M  V30 1964 H 184.681 -0.535222 4.12845 0
M  V30 1965 H 185.214 1.134 3.81294 0
M  V30 1966 H 181.953 3.64736 5.44654 0
M  V30 1967 H 181.473 1.94972 5.67227 0
M  V30 1968 H 183.152 2.45429 5.98643 0
M  V30 1969 N 183.284 -1.43765 0.645699 0
M  V30 1970 C 184.53 -2.02197 0.156271 0
M  V30 1971 C 184.863 -1.50776 -1.22393 0
M  V30 1972 O 184.138 -0.697771 -1.81553 0
M  V30 1973 C 184.421 -3.59749 0.158872 0
M  V30 1974 C 184.274 -4.21419 1.57245 0
M  V30 1975 C 185.593 -4.37149 -0.50879 0
M  V30 1976 H 182.712 -0.734694 0.0582602 0
M  V30 1977 H 185.354 -1.71157 0.824951 0
M  V30 1978 H 183.504 -3.86325 -0.410525 0
M  V30 1979 H 185.176 -4.059 2.19186 0
M  V30 1980 H 183.419 -3.78356 2.122 0
M  V30 1981 H 184.09 -5.30482 1.52619 0
M  V30 1982 H 186.566 -4.16093 -0.024412 0
M  V30 1983 H 185.442 -5.4683 -0.476213 0
M  V30 1984 H 185.703 -4.12839 -1.58165 0
M  V30 1985 N 184.763 -0.387143 -1.52771 0
M  V30 1986 C 186.009 0.196025 -2.0185 0
M  V30 1987 C 186.342 1.46641 -1.27319 0
M  V30 1988 O 185.617 1.90889 -0.373032 0
M  V30 1989 C 185.9 0.466136 -3.5707 0
M  V30 1990 C 185.753 -0.819385 -4.42274 0
M  V30 1991 C 187.072 1.25768 -4.21747 0
M  V30 1992 H 184.191 0.0697708 -0.73369 0
M  V30 1993 H 186.833 -0.516286 -1.82851 0
M  V30 1994 H 184.983 1.07293 -3.7339 0
M  V30 1995 H 186.655 -1.4563 -4.37709 0
M  V30 1996 H 184.898 -1.43517 -4.09372 0
M  V30 1997 H 185.569 -0.585065 -5.48891 0
M  V30 1998 H 188.045 0.744167 -4.09391 0
M  V30 1999 H 186.921 1.41541 -5.30337 0
M  V30 2000 H 187.182 2.27228 -3.79236 0
M  V30 2001 N 186.241 1.57166 -0.116904 0
M  V30 2002 C 187.488 1.95123 0.541603 0
M  V30 2003 C 187.816 1.00006 1.6682 0
M  V30 2004 O 187.071 0.0235658 1.95686 0
M  V30 2005 C 187.37 3.39508 1.11664 0
M  V30 2006 C 187.036 4.50762 0.111606 0
M  V30 2007 C 185.698 4.80918 -0.164758 0
M  V30 2008 C 188.05 5.18036 -0.573438 0
M  V30 2009 C 185.378 5.75666 -1.13249 0
M  V30 2010 C 187.73 6.13824 -1.52978 0
M  V30 2011 C 186.394 6.42374 -1.81415 0
M  V30 2012 H 185.664 0.714005 0.198187 0
M  V30 2013 H 188.311 1.9048 -0.197365 0
M  V30 2014 H 186.616 3.40835 1.93232 0
M  V30 2015 H 188.313 3.66189 1.63422 0
M  V30 2016 H 184.903 4.27272 0.337192 0
M  V30 2017 H 189.087 4.94896 -0.373092 0
M  V30 2018 H 184.343 5.96092 -1.35958 0
M  V30 2019 H 188.517 6.65039 -2.06629 0
M  V30 2020 H 186.144 7.15599 -2.56557 0
M  V30 2021 N 187.719 -0.156864 1.56817 0
M  V30 2022 C 188.968 -0.869504 1.81996 0
M  V30 2023 C 189.281 -1.82777 0.696545 0
M  V30 2024 O 190.487 -2.58384 0.833658 0
M  V30 2025 C 188.943 -1.59679 3.22538 0
M  V30 2026 C 188.551 -0.681431 4.42787 0
M  V30 2027 C 190.295 -2.2968 3.56997 0
M  V30 2028 C 188.202 -1.40978 5.74351 0
M  V30 2029 H 187.132 -0.328438 0.678708 0
M  V30 2030 H 189.783 -0.1223 1.83092 0
M  V30 2031 H 188.165 -2.38927 3.158 0
M  V30 2032 H 189.339 0.0751166 4.60739 0
M  V30 2033 H 187.654 -0.0903431 4.16302 0
M  V30 2034 H 190.251 -2.84794 4.52544 0
M  V30 2035 H 190.594 -3.05707 2.82576 0
M  V30 2036 H 191.127 -1.57361 3.65352 0
M  V30 2037 H 187.866 -0.691561 6.51842 0
M  V30 2038 H 187.386 -2.13929 5.60352 0
M  V30 2039 H 189.065 -1.95337 6.16808 0
M  V30 2040 N 189.197 -1.51736 -0.425897 0
M  V30 2041 C 190.127 -1.76827 -1.52494 0
M  V30 2042 C 191.108 -0.618524 -1.58456 0
M  V30 2043 O 192.293 -0.862416 -1.74 0
M  V30 2044 C 189.423 -1.90374 -2.90474 0
M  V30 2045 C 188.377 -3.0588 -2.99369 0
M  V30 2046 C 187.703 -3.04625 -4.3944 0
M  V30 2047 C 189.003 -4.45644 -2.72394 0
M  V30 2048 H 190.697 -2.68855 -1.31748 0
M  V30 2049 H 188.243 -1.29372 -0.632362 0
M  V30 2050 H 190.196 -2.0651 -3.6733 0
M  V30 2051 H 188.92 -0.95004 -3.12477 0
M  V30 2052 H 187.579 -2.89467 -2.24954 0
M  V30 2053 H 187.227 -2.0701 -4.58428 0
M  V30 2054 H 186.927 -3.82195 -4.46319 0
M  V30 2055 H 188.451 -3.22869 -5.18255 0
M  V30 2056 H 189.865 -4.62348 -3.38979 0
M  V30 2057 H 188.262 -5.25006 -2.9067 0
M  V30 2058 H 189.332 -4.54893 -1.67929 0
M  V30 2059 N 190.675 0.682077 -1.42076 0
M  V30 2060 C 191.622 1.79578 -1.44984 0
M  V30 2061 C 192.592 1.6332 -0.302614 0
M  V30 2062 O 193.777 1.83978 -0.505633 0
M  V30 2063 C 190.917 3.1756 -1.35091 0
M  V30 2064 C 190.03 3.45156 -2.59791 0
M  V30 2065 C 189.165 4.72826 -2.42093 0
M  V30 2066 C 188.204 4.93433 -3.62202 0
M  V30 2067 N 187.341 6.12338 -3.43491 0
M  V30 2068 H 192.181 1.76427 -2.40161 0
M  V30 2069 H 189.718 0.861376 -1.19242 0
M  V30 2070 H 191.676 3.97287 -1.27354 0
M  V30 2071 H 190.306 3.19854 -0.435133 0
M  V30 2072 H 189.358 2.59736 -2.77923 0
M  V30 2073 H 190.67 3.5628 -3.49094 0
M  V30 2074 H 189.824 5.60631 -2.319 0
M  V30 2075 H 188.563 4.63973 -1.50268 0
M  V30 2076 H 187.568 4.04073 -3.72834 0
M  V30 2077 H 188.793 5.04136 -4.54998 0
M  V30 2078 H 186.739 6.04672 -2.54377 0
M  V30 2079 H 186.656 6.2429 -4.26377 0
M  V30 2080 H 187.924 7.02841 -3.37097 0
M  V30 2081 N 192.153 1.28127 0.917671 0
M  V30 2082 C 193.086 1.06039 2.02067 0
M  V30 2083 C 194.064 -0.0223285 1.62585 0
M  V30 2084 O 195.248 0.124823 1.88086 0
M  V30 2085 C 192.375 0.610596 3.33151 0
M  V30 2086 C 191.421 1.68937 3.91615 0
M  V30 2087 S 192.254 3.28437 4.22953 0
M  V30 2088 C 193.41 2.85283 5.57103 0
M  V30 2089 H 193.643 1.99425 2.20493 0
M  V30 2090 H 191.176 1.12071 1.06205 0
M  V30 2091 H 193.134 0.357778 4.08938 0
M  V30 2092 H 191.795 -0.303364 3.12632 0
M  V30 2093 H 190.988 1.32619 4.86239 0
M  V30 2094 H 190.59 1.89478 3.2245 0
M  V30 2095 H 192.882 2.3121 6.36827 0
M  V30 2096 H 193.825 3.7869 5.98331 0
M  V30 2097 H 194.233 2.24118 5.18104 0
M  V30 2098 N 193.631 -1.12557 1.10312 0
M  V30 2099 C 194.578 -2.18247 0.750781 0
M  V30 2100 C 195.548 -1.63853 -0.272293 0
M  V30 2101 O 196.733 -1.90195 -0.151862 0
M  V30 2102 C 193.873 -3.44591 0.187379 0
M  V30 2103 C 192.986 -4.13046 1.2656 0
M  V30 2104 C 192.121 -5.27034 0.663978 0
M  V30 2105 C 191.16 -5.87353 1.72287 0
M  V30 2106 N 190.297 -6.92757 1.1416 0
M  V30 2107 H 195.137 -2.47732 1.65628 0
M  V30 2108 H 192.674 -1.21629 0.827337 0
M  V30 2109 H 194.632 -4.16904 -0.157148 0
M  V30 2110 H 193.262 -3.15527 -0.681355 0
M  V30 2111 H 192.314 -3.38924 1.72727 0
M  V30 2112 H 193.626 -4.53947 2.06721 0
M  V30 2113 H 192.78 -6.06104 0.268824 0
M  V30 2114 H 191.519 -4.87407 -0.169082 0
M  V30 2115 H 190.524 -5.06971 2.12746 0
M  V30 2116 H 191.749 -6.29051 2.55875 0
M  V30 2117 H 189.695 -6.5517 0.329984 0
M  V30 2118 H 189.612 -7.3225 1.88007 0
M  V30 2119 H 190.88 -7.75658 0.772956 0
M  V30 2120 N 195.109 -0.891671 -1.2995 0
M  V30 2121 C 196.355 -0.514261 -1.96171 0
M  V30 2122 C 196.688 0.935506 -1.70182 0
M  V30 2123 O 195.963 1.66204 -1.01028 0
M  V30 2124 C 196.246 -0.797719 -3.51153 0
M  V30 2125 C 196.099 -2.2986 -3.86632 0
M  V30 2126 C 197.418 -0.278749 -4.39216 0
M  V30 2127 H 194.537 -0.188314 -0.712535 0
M  V30 2128 H 197.179 -1.11689 -1.53706 0
M  V30 2129 H 195.329 -0.284826 -3.87455 0
M  V30 2130 H 197.001 -2.88042 -3.60319 0
M  V30 2131 H 195.244 -2.76257 -3.34462 0
M  V30 2132 H 195.915 -2.44753 -4.94773 0
M  V30 2133 H 198.391 -0.717825 -4.09862 0
M  V30 2134 H 197.267 -0.506353 -5.46559 0
M  V30 2135 H 197.528 0.820266 -4.34424 0
M  V30 2136 N 196.587 1.43421 -0.653314 0
M  V30 2137 C 197.534 2.30768 0.0382271 0
M  V30 2138 C 198.504 1.44755 0.814576 0
M  V30 2139 O 199.689 1.73624 0.791162 0
M  V30 2140 C 196.829 3.30336 0.998599 0
M  V30 2141 C 195.942 4.31448 0.218342 0
M  V30 2142 C 195.077 5.18098 1.17252 0
M  V30 2143 C 194.116 6.10902 0.382702 0
M  V30 2144 N 193.253 6.90176 1.28848 0
M  V30 2145 H 198.093 2.89357 -0.712511 0
M  V30 2146 H 195.63 1.42548 -0.363128 0
M  V30 2147 H 197.588 3.86572 1.56901 0
M  V30 2148 H 196.218 2.73397 1.71621 0
M  V30 2149 H 195.27 3.77506 -0.46836 0
M  V30 2150 H 196.582 4.97227 -0.395812 0
M  V30 2151 H 195.736 5.7896 1.81356 0
M  V30 2152 H 194.475 4.52444 1.82058 0
M  V30 2153 H 193.48 5.49128 -0.27169 0
M  V30 2154 H 194.705 6.78598 -0.260957 0
M  V30 2155 H 192.651 6.27171 1.92334 0
M  V30 2156 H 192.568 7.52478 0.728887 0
M  V30 2157 H 193.836 7.55543 1.91766 0
M  V30 2158 N 198.065 0.39524 1.52563 0
M  V30 2159 C 199.012 -0.437036 2.26624 0
M  V30 2160 C 199.982 -1.05281 1.28472 0
M  V30 2161 O 201.167 -1.07971 1.57311 0
M  V30 2162 C 198.307 -1.55524 3.08069 0
M  V30 2163 C 197.42 -0.961745 4.21158 0
M  V30 2164 C 196.555 -2.05149 4.89987 0
M  V30 2165 C 195.594 -1.4342 5.95061 0
M  V30 2166 N 194.731 -2.46351 6.57462 0
M  V30 2167 H 199.571 0.200976 2.97322 0
M  V30 2168 H 197.108 0.110944 1.46681 0
M  V30 2169 H 199.066 -2.21437 3.53584 0
M  V30 2170 H 197.696 -2.16348 2.3957 0
M  V30 2171 H 196.748 -0.192048 3.79915 0
M  V30 2172 H 198.06 -0.470701 4.96574 0
M  V30 2173 H 197.214 -2.78819 5.38837 0
M  V30 2174 H 195.953 -2.57615 4.14109 0
M  V30 2175 H 194.958 -0.682774 5.45544 0
M  V30 2176 H 196.183 -0.917416 6.72875 0
M  V30 2177 H 194.129 -2.97975 5.8442 0
M  V30 2178 H 194.046 -2.02019 7.28508 0
M  V30 2179 H 195.314 -3.19633 7.10954 0
M  V30 2180 N 199.544 -1.57102 0.125237 0
M  V30 2181 C 200.955 -1.82384 -0.399142 0
M  V30 2182 C 201.306 -1.04276 -1.66195 0
M  V30 2183 O 200.431 -0.281269 -2.14564 0
M  V30 2184 C 201.026 -3.30821 -0.730932 0
M  V30 2185 C 199.585 -3.56762 -1.19992 0
M  V30 2186 C 198.732 -2.7649 -0.211792 0
M  V30 2187 H 201.683 -1.54786 0.350277 0
M  V30 2188 H 201.704 -3.4579 -1.58775 0
M  V30 2189 H 201.216 -3.87643 0.188345 0
M  V30 2190 H 199.317 -3.05305 -2.13588 0
M  V30 2191 H 199.43 -4.65317 -1.14093 0
M  V30 2192 H 197.794 -2.4489 -0.700085 0
M  V30 2193 H 198.577 -3.36073 0.700691 0
M  V30 2194 N 201.022 0.148545 -1.56898 0
M  V30 2195 C 201.985 1.16736 -1.97244 0
M  V30 2196 C 202.985 1.35947 -0.858777 0
M  V30 2197 O 204.175 1.32966 -1.12542 0
M  V30 2198 C 201.307 2.52798 -2.28705 0
M  V30 2199 H 202.5 0.821279 -2.88435 0
M  V30 2200 H 200.053 0.391831 -1.51309 0
M  V30 2201 H 200.788 2.92381 -1.403 0
M  V30 2202 H 200.573 2.40216 -3.09901 0
M  V30 2203 H 202.063 3.26179 -2.60762 0
M  V30 2204 N 202.5 1.5196 0.417844 0
M  V30 2205 C 203.746 1.65836 1.16732 0
M  V30 2206 C 204.079 0.382881 1.90388 0
M  V30 2207 O 203.354 -0.618368 1.84408 0
M  V30 2208 C 203.637 2.87466 2.16876 0
M  V30 2209 C 203.49 4.25041 1.47174 0
M  V30 2210 C 204.809 3.04613 3.17646 0
M  V30 2211 H 201.928 0.603515 0.423011 0
M  V30 2212 H 204.57 1.84494 0.454105 0
M  V30 2213 H 202.72 2.71689 2.777 0
M  V30 2214 H 204.392 4.52527 0.895376 0
M  V30 2215 H 202.635 4.26843 0.773806 0
M  V30 2216 H 203.306 5.06176 2.20204 0
M  V30 2217 H 205.782 3.1923 2.66892 0
M  V30 2218 H 204.658 3.91247 3.8499 0
M  V30 2219 H 204.919 2.17541 3.84874 0
M  V30 2220 N 203.978 -0.674533 1.42435 0
M  V30 2221 C 205.224 -1.43671 1.43131 0
M  V30 2222 C 205.557 -1.94142 0.0476021 0
M  V30 2223 O 204.832 -1.70924 -0.928188 0
M  V30 2224 C 205.115 -2.63355 2.45594 0
M  V30 2225 C 204.968 -2.18514 3.93156 0
M  V30 2226 C 206.287 -3.65571 2.45043 0
M  V30 2227 H 203.406 -0.521077 0.521198 0
M  V30 2228 H 206.048 -0.766551 1.7385 0
M  V30 2229 H 204.198 -3.2053 2.19528 0
M  V30 2230 H 205.87 -1.66504 4.30202 0
M  V30 2231 H 204.113 -1.50086 4.07009 0
M  V30 2232 H 204.784 -3.04484 4.60428 0
M  V30 2233 H 207.26 -3.18113 2.68223 0
M  V30 2234 H 206.136 -4.46893 3.18713 0
M  V30 2235 H 206.397 -4.16716 1.47649 0
M  V30 2236 N 205.456 -1.28612 -0.910864 0
M  V30 2237 C 206.686 -1.1862 -1.69153 0
M  V30 2238 C 207.094 0.257324 -1.87442 0
M  V30 2239 O 206.437 1.18543 -1.40332 0
M  V30 2240 C 206.499 -1.81606 -3.10257 0
M  V30 2241 C 206.163 -3.30864 -3.15243 0
M  V30 2242 C 207.16 -4.27256 -2.96223 0
M  V30 2243 C 204.845 -3.71871 -3.37664 0
M  V30 2244 C 206.839 -5.62631 -2.99541 0
M  V30 2245 C 204.526 -5.07371 -3.40614 0
M  V30 2246 C 205.524 -6.02561 -3.21573 0
M  V30 2247 O 205.212 -7.35589 -3.2429 0
M  V30 2248 H 204.944 -0.412633 -0.535453 0
M  V30 2249 H 207.498 -1.70306 -1.14827 0
M  V30 2250 H 205.728 -1.24418 -3.66138 0
M  V30 2251 H 207.417 -1.66092 -3.70362 0
M  V30 2252 H 208.183 -3.9691 -2.78725 0
M  V30 2253 H 204.062 -2.98241 -3.5153 0
M  V30 2254 H 207.606 -6.36907 -2.84597 0
M  V30 2255 H 203.503 -5.37366 -3.57642 0
M  V30 2256 H 204.271 -7.44252 -3.40633 0
M  V30 2257 N 206.934 1.1197 -1.10907 0
M  V30 2258 C 207.867 2.16998 -0.706192 0
M  V30 2259 C 208.845 1.59903 0.294897 0
M  V30 2260 O 210.029 1.87513 0.192636 0
M  V30 2261 C 207.156 3.38673 -0.0427664 0
M  V30 2262 C 206.202 4.14414 -1.00811 0
M  V30 2263 S 207.035 4.72079 -2.52789 0
M  V30 2264 C 208.191 5.97083 -1.87731 0
M  V30 2265 H 208.424 2.50837 -1.59587 0
M  V30 2266 H 205.957 1.23508 -0.926555 0
M  V30 2267 H 207.915 4.09142 0.333668 0
M  V30 2268 H 206.576 3.03105 0.823788 0
M  V30 2269 H 205.769 5.016 -0.491259 0
M  V30 2270 H 205.371 3.49678 -1.3267 0
M  V30 2271 H 207.663 6.66599 -1.21044 0
M  V30 2272 H 208.606 6.53403 -2.72892 0
M  V30 2273 H 209.014 5.4837 -1.33979 0
M  V30 2274 N 208.412 0.89855 1.29475 0
M  V30 2275 C 209.342 0.39201 2.30186 0
M  V30 2276 C 210.323 -0.532359 1.61555 0
M  V30 2277 O 211.508 -0.443331 1.89072 0
M  V30 2278 C 208.638 -0.382353 3.45189 0
M  V30 2279 C 207.592 0.451483 4.25612 0
M  V30 2280 C 206.918 -0.450307 5.328 0
M  V30 2281 C 208.218 1.70079 4.93832 0
M  V30 2282 H 209.912 1.23362 2.72804 0
M  V30 2283 H 207.458 0.594638 1.31149 0
M  V30 2284 H 209.411 -0.747451 4.14718 0
M  V30 2285 H 208.135 -1.25774 3.01411 0
M  V30 2286 H 206.794 0.798897 3.57789 0
M  V30 2287 H 206.442 -1.32379 4.85268 0
M  V30 2288 H 206.142 0.103902 5.87508 0
M  V30 2289 H 207.666 -0.811623 6.05182 0
M  V30 2290 H 209.08 1.40549 5.55805 0
M  V30 2291 H 207.477 2.19623 5.58467 0
M  V30 2292 H 208.547 2.43744 4.19186 0
M  V30 2293 N 209.89 -1.43072 0.660911 0
M  V30 2294 C 210.84 -2.27948 -0.04847 0
M  V30 2295 C 211.824 -1.40325 -0.787246 0
M  V30 2296 O 213.016 -1.63893 -0.668446 0
M  V30 2297 C 210.145 -3.28143 -1.00881 0
M  V30 2298 C 209.231 -4.23252 -0.268108 0
M  V30 2299 N 209.622 -5.00656 0.719528 0
M  V30 2300 C 207.92 -4.43092 -0.508493 0
M  V30 2301 C 208.621 -5.70019 1.15988 0
M  V30 2302 N 207.597 -5.41364 0.492584 0
M  V30 2303 H 211.399 -2.85213 0.709279 0
M  V30 2304 H 208.913 -1.54869 0.488822 0
M  V30 2305 H 210.91 -3.87736 -1.53188 0
M  V30 2306 H 209.57 -2.7244 -1.76654 0
M  V30 2307 H 210.581 -5.06115 1.09855 0
M  V30 2308 H 207.258 -3.98449 -1.24679 0
M  V30 2309 H 208.648 -6.4214 1.97751 0
M  V30 2310 N 211.368 -0.403325 -1.52352 0
M  V30 2311 C 212.298 0.416205 -2.29761 0
M  V30 2312 C 213.279 1.05123 -1.33728 0
M  V30 2313 O 214.464 1.06134 -1.62632 0
M  V30 2314 C 211.594 1.53624 -3.11475 0
M  V30 2315 C 210.548 1.02653 -4.15507 0
M  V30 2316 C 209.874 2.23971 -4.85532 0
M  V30 2317 C 211.174 0.08463 -5.22231 0
M  V30 2318 H 212.868 -0.229701 -2.98518 0
M  V30 2319 H 210.414 -0.111913 -1.43564 0
M  V30 2320 H 212.367 2.1165 -3.64393 0
M  V30 2321 H 211.091 2.20994 -2.40477 0
M  V30 2322 H 209.75 0.46871 -3.63591 0
M  V30 2323 H 209.398 2.89883 -4.11068 0
M  V30 2324 H 209.098 1.90521 -5.55856 0
M  V30 2325 H 210.622 2.82614 -5.41259 0
M  V30 2326 H 212.036 0.573509 -5.70424 0
M  V30 2327 H 210.433 -0.160783 -5.99885 0
M  V30 2328 H 211.503 -0.86237 -4.7717 0
M  V30 2329 N 212.846 1.57033 -0.133567 0
M  V30 2330 C 213.809 2.14897 0.796995 0
M  V30 2331 C 214.809 1.0874 1.18458 0
M  V30 2332 O 215.999 1.34446 1.1077 0
M  V30 2333 C 213.131 2.70112 2.07973 0
M  V30 2334 H 214.324 2.98457 0.293873 0
M  V30 2335 H 211.877 1.55871 0.115787 0
M  V30 2336 H 212.612 1.9018 2.62682 0
M  V30 2337 H 212.397 3.47764 1.81115 0
M  V30 2338 H 213.887 3.14738 2.74462 0
M  V30 2339 N 214.325 -0.140222 1.56975 0
M  V30 2340 C 215.553 -0.866437 1.87884 0
M  V30 2341 C 215.968 -1.74428 0.722517 0
M  V30 2342 O 215.325 -1.79891 -0.30749 0
M  V30 2343 C 215.376 -1.71753 3.18093 0
M  V30 2344 O 215.097 -0.875056 4.29272 0
M  V30 2345 C 216.598 -2.55074 3.62563 0
M  V30 2346 H 213.818 -0.25019 0.622612 0
M  V30 2347 H 216.362 -0.130977 2.0408 0
M  V30 2348 H 214.517 -2.40598 3.03631 0
M  V30 2349 H 214.931 -1.46002 5.03769 0
M  V30 2350 H 216.405 -3.10356 4.5649 0
M  V30 2351 H 216.882 -3.31434 2.88181 0
M  V30 2352 H 217.488 -1.91509 3.79743 0
M  V30 2353 N 215.803 -1.52179 -0.40978 0
M  V30 2354 C 216.766 -1.74853 -1.48186 0
M  V30 2355 C 217.766 -0.618417 -1.48433 0
M  V30 2356 O 218.956 -0.886286 -1.49969 0
M  V30 2357 C 216.088 -1.8303 -2.87598 0
M  V30 2358 H 217.281 -2.70559 -1.29374 0
M  V30 2359 H 214.834 -1.42586 -0.640233 0
M  V30 2360 H 215.569 -0.89236 -3.11781 0
M  V30 2361 H 215.354 -2.65187 -2.88822 0
M  V30 2362 H 216.844 -2.02316 -3.65319 0
M  V30 2363 N 217.281 0.66697 -1.42791 0
M  V30 2364 C 218.558 1.4234 -1.34159 0
M  V30 2365 C 218.938 2.11093 0.0172729 0
M  V30 2366 O 218.286 2.03808 1.03318 0
M  V30 2367 C 218.496 2.41942 -2.51526 0
M  V30 2368 C 219.844 3.06353 -2.93995 0
M  V30 2369 O 220.868 2.52269 -2.51473 0
M  V30 2370 O 219.727 4.04376 -3.67617 0
M  V30 2371 H 216.821 0.635277 -0.529483 0
M  V30 2372 H 219.367 0.695034 -1.54814 0
M  V30 2373 H 218.139 1.89991 -3.42081 0
M  V30 2374 H 217.762 3.22249 -2.32898 0
M  V30 2375 N 218.759 1.29093 0.90403 0
M  V30 2376 C 220.005 1.16986 1.65656 0
M  V30 2377 C 220.338 -0.278925 1.92186 0
M  V30 2378 O 219.613 -1.2019 1.5292 0
M  V30 2379 C 219.896 1.97908 3.0084 0
M  V30 2380 C 219.749 3.50903 2.81403 0
M  V30 2381 C 221.068 1.80208 4.01513 0
M  V30 2382 H 218.187 0.426346 0.601164 0
M  V30 2383 H 220.829 1.58518 1.04747 0
M  V30 2384 H 218.979 1.62616 3.52829 0
M  V30 2385 H 220.651 3.96153 2.36348 0
M  V30 2386 H 218.894 3.76045 2.1627 0
M  V30 2387 H 219.565 4.02791 3.77443 0
M  V30 2388 H 222.041 2.11025 3.58619 0
M  V30 2389 H 220.917 2.39184 4.94047 0
M  V30 2390 H 221.178 0.756119 4.35586 0
M  V30 2391 N 220.237 -1.11381 1.11499 0
M  V30 2392 C 221.167 -2.19509 0.796125 0
M  V30 2393 C 222.148 -1.68458 -0.235796 0
M  V30 2394 O 223.333 -1.93947 -0.0991344 0
M  V30 2395 C 220.463 -3.46475 0.239205 0
M  V30 2396 C 219.417 -4.10744 1.20307 0
M  V30 2397 C 218.743 -5.32293 0.50683 0
M  V30 2398 C 220.043 -4.55597 2.55399 0
M  V30 2399 H 221.737 -2.46439 1.70024 0
M  V30 2400 H 219.283 -1.18446 0.818935 0
M  V30 2401 H 221.236 -4.214 0.00392006 0
M  V30 2402 H 219.96 -3.19006 -0.700206 0
M  V30 2403 H 218.619 -3.37813 1.42399 0
M  V30 2404 H 218.267 -5.01095 -0.437408 0
M  V30 2405 H 217.967 -5.76243 1.1497 0
M  V30 2406 H 219.491 -6.09956 0.280351 0
M  V30 2407 H 220.905 -5.21841 2.37391 0
M  V30 2408 H 219.302 -5.10363 3.15673 0
M  V30 2409 H 220.372 -3.69013 3.14575 0
M  V30 2410 N 221.715 -0.905404 -1.28997 0
M  V30 2411 C 222.962 -0.534248 -1.95325 0
M  V30 2412 C 223.29 0.920535 -1.71337 0
M  V30 2413 O 222.545 1.66861 -1.02254 0
M  V30 2414 C 222.844 -0.779906 -3.48787 0
M  V30 2415 C 222.51 -2.21293 -3.92861 0
M  V30 2416 C 221.172 -2.60475 -4.04606 0
M  V30 2417 C 223.524 -3.14587 -4.15553 0
M  V30 2418 C 220.852 -3.9212 -4.36416 0
M  V30 2419 C 223.204 -4.45787 -4.48839 0
M  V30 2420 C 221.868 -4.84834 -4.58794 0
M  V30 2421 H 221.138 -0.195495 -0.714747 0
M  V30 2422 H 223.785 -1.14514 -1.53488 0
M  V30 2423 H 222.09 -0.0861365 -3.91705 0
M  V30 2424 H 223.787 -0.472029 -3.98212 0
M  V30 2425 H 220.377 -1.89887 -3.84241 0
M  V30 2426 H 224.561 -2.85528 -4.0594 0
M  V30 2427 H 219.817 -4.22086 -4.42327 0
M  V30 2428 H 223.991 -5.18098 -4.65346 0
M  V30 2429 H 221.618 -5.86877 -4.83197 0
M  V30 2430 N 223.193 1.4272 -0.668489 0
M  V30 2431 C 224.439 2.01923 -0.188419 0
M  V30 2432 C 224.772 1.52704 1.19979 0
M  V30 2433 O 224.047 0.726566 1.8042 0
M  V30 2434 C 224.33 3.59451 -0.216085 0
M  V30 2435 C 224.183 4.18864 -1.6393 0
M  V30 2436 C 225.502 4.37903 0.439179 0
M  V30 2437 H 222.621 0.733674 -0.0699412 0
M  V30 2438 H 225.263 1.69822 -0.852076 0
M  V30 2439 H 223.413 3.86929 0.349012 0
M  V30 2440 H 225.085 4.02362 -2.25616 0
M  V30 2441 H 223.328 3.74933 -2.18193 0
M  V30 2442 H 223.999 5.27987 -1.61039 0
M  V30 2443 H 226.475 4.16079 -0.0417878 0
M  V30 2444 H 225.351 5.47519 0.389157 0
M  V30 2445 H 225.612 4.15303 1.51577 0
M  V30 2446 N 224.671 0.411399 1.52136 0
M  V30 2447 C 225.896 -0.165538 2.06738 0
M  V30 2448 C 226.321 -1.379 1.27926 0
M  V30 2449 O 225.679 -1.78628 0.310114 0
M  V30 2450 C 225.727 -0.492124 3.57226 0
M  V30 2451 O 224.831 -1.58276 3.80818 0
M  V30 2452 H 224.172 -0.0132132 0.663869 0
M  V30 2453 H 226.702 0.585253 1.96051 0
M  V30 2454 H 226.712 -0.750104 4.01045 0
M  V30 2455 H 225.387 0.394922 4.14021 0
M  V30 2456 H 223.964 -1.31677 3.48877 0
M  V30 2457 N 226.149 -1.5696 0.141893 0
M  V30 2458 C 227.395 -1.9625 -0.511248 0
M  V30 2459 C 227.728 -1.02654 -1.64851 0
M  V30 2460 O 227.003 -0.0679676 -1.94381 0
M  V30 2461 C 227.286 -3.45285 -1.02227 0
M  V30 2462 C 227.139 -4.49658 0.113138 0
M  V30 2463 C 228.458 -3.96698 -1.90574 0
M  V30 2464 H 225.577 -0.713567 -0.184367 0
M  V30 2465 H 228.219 -1.88698 0.222087 0
M  V30 2466 H 226.369 -3.51852 -1.64719 0
M  V30 2467 H 228.041 -4.55174 0.749302 0
M  V30 2468 H 226.284 -4.26857 0.773026 0
M  V30 2469 H 226.955 -5.51258 -0.286053 0
M  V30 2470 H 229.431 -3.92578 -1.37918 0
M  V30 2471 H 228.307 -5.01453 -2.2324 0
M  V30 2472 H 228.568 -3.3875 -2.84079 0
M  V30 2473 N 227.627 0.131896 -1.57047 0
M  V30 2474 C 228.557 1.16384 -2.02428 0
M  V30 2475 C 229.538 1.43936 -0.90644 0
M  V30 2476 O 230.723 1.54599 -1.17528 0
M  V30 2477 C 227.853 2.49328 -2.4177 0
M  V30 2478 C 226.807 2.36266 -3.56879 0
M  V30 2479 C 226.133 3.74057 -3.8208 0
M  V30 2480 C 227.433 1.834 -4.89042 0
M  V30 2481 H 229.127 0.786433 -2.88887 0
M  V30 2482 H 226.673 0.376855 -1.38981 0
M  V30 2483 H 228.626 3.21759 -2.7212 0
M  V30 2484 H 227.35 2.88934 -1.52266 0
M  V30 2485 H 226.009 1.66286 -3.26718 0
M  V30 2486 H 225.657 4.11125 -2.89803 0
M  V30 2487 H 225.357 3.66174 -4.59554 0
M  V30 2488 H 226.881 4.48012 -4.1487 0
M  V30 2489 H 228.295 2.45636 -5.18011 0
M  V30 2490 H 226.692 1.8637 -5.70426 0
M  V30 2491 H 227.762 0.790662 -4.7841 0
M  V30 2492 N 229.106 1.52395 0.401703 0
M  V30 2493 C 230.517 1.58899 0.980202 0
M  V30 2494 C 230.868 0.434032 1.91339 0
M  V30 2495 O 229.993 -0.444619 2.11783 0
M  V30 2496 C 230.588 2.87994 1.78451 0
M  V30 2497 C 229.147 2.96953 2.31292 0
M  V30 2498 C 228.294 2.53903 1.11483 0
M  V30 2499 H 231.245 1.57657 0.18168 0
M  V30 2500 H 231.266 2.73765 2.64259 0
M  V30 2501 H 230.778 3.72035 1.10506 0
M  V30 2502 H 228.879 2.17422 3.02586 0
M  V30 2503 H 228.992 4.01344 2.61649 0
M  V30 2504 H 227.356 2.07925 1.47104 0
M  V30 2505 H 228.139 3.40326 0.450928 0
M  V30 2506 N 230.584 -0.659388 1.43143 0
M  V30 2507 C 231.831 -1.41935 1.44433 0
M  V30 2508 C 232.159 -1.94387 0.0663522 0
M  V30 2509 O 231.414 -1.72314 -0.927706 0
M  V30 2510 C 231.713 -2.62206 2.42864 0
M  V30 2511 C 231.379 -2.28208 3.88886 0
M  V30 2512 C 230.041 -2.18647 4.28657 0
M  V30 2513 C 232.393 -2.00887 4.8093 0
M  V30 2514 C 229.721 -1.79914 5.58433 0
M  V30 2515 C 232.073 -1.63653 6.11065 0
M  V30 2516 C 230.737 -1.52614 6.49819 0
M  V30 2517 H 230.007 -0.519376 0.528517 0
M  V30 2518 H 232.654 -0.750453 1.76183 0
M  V30 2519 H 230.959 -3.34199 2.04495 0
M  V30 2520 H 232.656 -3.2041 2.41119 0
M  V30 2521 H 229.246 -2.36557 3.57406 0
M  V30 2522 H 233.43 -2.07198 4.5098 0
M  V30 2523 H 228.686 -1.69948 5.87305 0
M  V30 2524 H 232.86 -1.41543 6.81864 0
M  V30 2525 H 230.487 -1.22371 7.50286 0
M  V30 2526 N 232.062 -1.29571 -0.897171 0
M  V30 2527 C 233.009 -1.14916 -2.00158 0
M  V30 2528 C 233.979 -0.0418149 -1.66047 0
M  V30 2529 O 235.164 -0.209793 -1.89643 0
M  V30 2530 C 232.304 -0.834307 -3.34863 0
M  V30 2531 C 231.417 -2.02234 -3.8174 0
M  V30 2532 C 230.552 -1.64664 -5.05034 0
M  V30 2533 C 229.591 -2.80033 -5.44286 0
M  V30 2534 N 228.728 -2.42843 -6.58765 0
M  V30 2535 H 233.568 -2.09403 -2.12025 0
M  V30 2536 H 231.105 -1.042 -1.0383 0
M  V30 2537 H 233.063 -0.632436 -4.12379 0
M  V30 2538 H 231.693 0.0736656 -3.22716 0
M  V30 2539 H 230.745 -2.33583 -3.00238 0
M  V30 2540 H 232.057 -2.88673 -4.06779 0
M  V30 2541 H 231.211 -1.4078 -5.9014 0
M  V30 2542 H 229.95 -0.753766 -4.8184 0
M  V30 2543 H 228.955 -3.04596 -4.57713 0
M  V30 2544 H 230.18 -3.69989 -5.6946 0
M  V30 2545 H 228.126 -1.56046 -6.3717 0
M  V30 2546 H 228.043 -3.22815 -6.83613 0
M  V30 2547 H 229.311 -2.22285 -7.47134 0
M  V30 2548 N 233.54 1.10788 -1.12088 0
M  V30 2549 C 234.789 1.82036 -0.868659 0
M  V30 2550 C 235.102 1.85929 0.607426 0
M  V30 2551 O 236.308 2.53346 0.97613 0
M  V30 2552 C 234.764 3.26951 -1.50435 0
M  V30 2553 C 234.372 3.31367 -3.01496 0
M  V30 2554 C 236.116 4.03053 -1.33225 0
M  V30 2555 C 234.023 4.7072 -3.58017 0
M  V30 2556 H 232.953 0.682108 -0.321318 0
M  V30 2557 H 235.604 1.24618 -1.34694 0
M  V30 2558 H 233.986 3.84343 -0.953735 0
M  V30 2559 H 235.16 2.83819 -3.6302 0
M  V30 2560 H 233.475 2.6875 -3.18061 0
M  V30 2561 H 236.072 5.05981 -1.72878 0
M  V30 2562 H 236.415 4.15387 -0.275529 0
M  V30 2563 H 236.948 3.52066 -1.85188 0
M  V30 2564 H 233.687 4.63585 -4.63432 0
M  V30 2565 H 233.207 5.1865 -3.01268 0
M  V30 2566 H 234.886 5.39685 -3.56859 0
M  V30 2567 N 235.018 0.912232 1.28515 0
M  V30 2568 C 236.243 0.559774 1.99703 0
M  V30 2569 C 236.668 -0.851393 1.67729 0
M  V30 2570 O 236.026 -1.56875 0.908834 0
M  V30 2571 C 236.074 0.773874 3.52198 0
M  V30 2572 O 235.178 -0.167842 4.12058 0
M  V30 2573 H 234.519 0.21723 0.627461 0
M  V30 2574 H 237.049 1.22725 1.63706 0
M  V30 2575 H 237.059 0.683386 4.02236 0
M  V30 2576 H 235.734 1.80261 3.74805 0
M  V30 2577 H 234.311 -0.0287509 3.72889 0
M  V30 2578 N 236.496 -1.42363 0.676048 0
M  V30 2579 C 237.726 -2.05561 0.206967 0
M  V30 2580 C 238.134 -1.50887 -1.14148 0
M  V30 2581 O 237.477 -0.643933 -1.72044 0
M  V30 2582 C 237.539 -3.5944 0.0659508 0
M  V30 2583 C 237.203 -4.36812 1.34331 0
M  V30 2584 C 238.2 -4.67383 2.27704 0
M  V30 2585 C 235.885 -4.76429 1.59125 0
M  V30 2586 C 237.879 -5.36509 3.44147 0
M  V30 2587 C 235.566 -5.45294 2.75857 0
M  V30 2588 C 236.564 -5.75259 3.68193 0
M  V30 2589 O 236.252 -6.42712 4.82883 0
M  V30 2590 H 235.984 -0.668872 0.0979084 0
M  V30 2591 H 238.538 -1.83467 0.923531 0
M  V30 2592 H 236.768 -3.80197 -0.706204 0
M  V30 2593 H 238.457 -4.0427 -0.363418 0
M  V30 2594 H 239.223 -4.37275 2.09799 0
M  V30 2595 H 235.102 -4.52498 0.881258 0
M  V30 2596 H 238.646 -5.59814 4.16238 0
M  V30 2597 H 234.543 -5.7482 2.93688 0
M  V30 2598 H 235.311 -6.61204 4.82444 0
M  V30 2599 N 237.974 -0.419461 -1.51915 0
M  V30 2600 C 239.204 0.151915 -2.06041 0
M  V30 2601 C 239.612 1.38539 -1.28855 0
M  V30 2602 O 238.955 1.80592 -0.336463 0
M  V30 2603 C 239.017 0.557119 -3.55157 0
M  V30 2604 C 238.681 -0.567054 -4.53468 0
M  V30 2605 C 239.678 -1.43379 -4.99738 0
M  V30 2606 C 237.363 -0.742693 -4.96779 0
M  V30 2607 C 239.357 -2.46102 -5.87973 0
M  V30 2608 C 237.044 -1.77322 -5.84808 0
M  V30 2609 C 238.042 -2.63078 -6.30301 0
M  V30 2610 O 237.73 -3.64364 -7.16585 0
M  V30 2611 H 237.462 0.0193293 -0.675724 0
M  V30 2612 H 240.016 -0.592073 -1.96682 0
M  V30 2613 H 238.246 1.35355 -3.62238 0
M  V30 2614 H 239.935 1.05759 -3.9188 0
M  V30 2615 H 240.701 -1.30954 -4.66986 0
M  V30 2616 H 236.58 -0.0848307 -4.60922 0
M  V30 2617 H 240.124 -3.13071 -6.23404 0
M  V30 2618 H 236.021 -1.89773 -6.16974 0
M  V30 2619 H 236.789 -3.60731 -7.34721 0
M  V30 2620 N 239.452 1.56882 -0.150215 0
M  V30 2621 C 240.699 1.96228 0.500093 0
M  V30 2622 C 241.027 1.03522 1.64661 0
M  V30 2623 O 240.282 0.0650683 1.95592 0
M  V30 2624 C 240.581 3.41801 1.04437 0
M  V30 2625 C 240.247 4.50897 0.0159671 0
M  V30 2626 C 238.909 4.8046 -0.266731 0
M  V30 2627 C 241.261 5.16703 -0.683192 0
M  V30 2628 C 238.589 5.73135 -1.25434 0
M  V30 2629 C 240.941 6.10441 -1.65964 0
M  V30 2630 C 239.605 6.38382 -1.95 0
M  V30 2631 H 238.875 0.718048 0.182997 0
M  V30 2632 H 241.522 1.90019 -0.237724 0
M  V30 2633 H 239.827 3.44857 1.85959 0
M  V30 2634 H 241.524 3.69573 1.55618 0
M  V30 2635 H 238.114 4.27891 0.246485 0
M  V30 2636 H 242.298 4.93993 -0.477983 0
M  V30 2637 H 237.554 5.93074 -1.48571 0
M  V30 2638 H 241.728 6.60507 -2.20689 0
M  V30 2639 H 239.355 7.09996 -2.71679 0
M  V30 2640 N 240.93 -0.123565 1.57115 0
M  V30 2641 C 242.155 -0.850398 1.89164 0
M  V30 2642 C 242.58 -1.7286 0.741688 0
M  V30 2643 O 241.938 -1.78665 -0.307958 0
M  V30 2644 C 241.986 -1.66353 3.19936 0
M  V30 2645 O 241.09 -2.77004 3.0552 0
M  V30 2646 H 240.431 -0.235454 0.620852 0
M  V30 2647 H 242.961 -0.107335 2.04318 0
M  V30 2648 H 242.971 -2.05372 3.52543 0
M  V30 2649 H 241.646 -1.01881 4.03228 0
M  V30 2650 H 240.223 -2.41221 2.84371 0
M  V30 2651 N 242.408 -1.52605 -0.393616 0
M  V30 2652 C 243.656 -1.67093 -1.13685 0
M  V30 2653 C 243.977 -0.411011 -1.90619 0
M  V30 2654 O 243.247 0.574491 -1.87287 0
M  V30 2655 H 241.827 -0.615923 -0.422668 0
M  V30 2656 H 244.489 -1.89704 -0.447039 0
M  V30 2657 H 243.585 -2.51922 -1.84232 0
M  V30 2658 N 243.887 0.651787 -1.4349 0
M  V30 2659 C 245.112 1.44434 -1.48841 0
M  V30 2660 C 245.537 1.8779 -0.107955 0
M  V30 2661 O 244.895 1.57464 0.898602 0
M  V30 2662 C 244.943 2.65458 -2.44059 0
M  V30 2663 O 244.047 3.64566 -1.92784 0
M  V30 2664 H 243.388 0.433005 -0.503391 0
M  V30 2665 H 245.918 0.797451 -1.88419 0
M  V30 2666 H 245.928 3.13255 -2.6141 0
M  V30 2667 H 244.603 2.33244 -3.4434 0
M  V30 2668 H 243.18 3.23716 -1.851 0
M  V30 2669 N 245.365 1.30045 0.890287 0
M  V30 2670 C 246.642 1.09227 1.62262 0
M  V30 2671 C 247.022 -0.360305 2.08002 0
M  V30 2672 O 246.37 -1.35084 1.84295 0
M  V30 2673 C 246.58 2.08835 2.79623 0
M  V30 2674 C 247.928 2.40266 3.50082 0
M  V30 2675 O 248.952 2.07104 2.89804 0
M  V30 2676 O 247.811 2.96967 4.58773 0
M  V30 2677 H 244.905 0.419132 0.712922 0
M  V30 2678 H 247.451 1.41451 0.937529 0
M  V30 2679 H 246.223 3.06633 2.43089 0
M  V30 2680 H 245.846 1.77397 3.55832 0
M  V30 2681 N 246.843 -1.10192 1.12674 0
M  V30 2682 C 248.089 -1.82658 0.894847 0
M  V30 2683 C 248.444 -1.83666 -0.573107 0
M  V30 2684 O 247.737 -1.28816 -1.41835 0
M  V30 2685 C 247.931 -3.28552 1.4067 0
M  V30 2686 C 247.76 -3.41756 2.92289 0
M  V30 2687 C 246.53 -3.54021 3.60551 0
M  V30 2688 C 248.728 -3.34949 3.90274 0
M  V30 2689 N 246.71 -3.55827 5.0026 0
M  V30 2690 C 248.081 -3.43531 5.16127 0
M  V30 2691 C 250.136 -3.18565 3.8265 0
M  V30 2692 C 248.839 -3.37416 6.3525 0
M  V30 2693 C 250.865 -3.13772 5.01299 0
M  V30 2694 C 250.227 -3.22938 6.26012 0
M  V30 2695 H 246.326 -0.683044 0.380756 0
M  V30 2696 H 248.91 -1.31752 1.43351 0
M  V30 2697 H 247.081 -3.77946 0.895055 0
M  V30 2698 H 248.813 -3.88991 1.11661 0
M  V30 2699 H 245.568 -3.57135 3.1105 0
M  V30 2700 H 245.992 -3.60335 5.73138 0
M  V30 2701 H 250.634 -3.10354 2.87124 0
M  V30 2702 H 248.352 -3.44391 7.3104 0
M  V30 2703 H 251.938 -3.02242 4.97133 0
M  V30 2704 H 250.818 -3.19235 7.16281 0
M  V30 2705 N 248.321 -0.919034 -1.28029 0
M  V30 2706 C 249.253 -0.368762 -2.26214 0
M  V30 2707 C 250.266 0.495716 -1.55069 0
M  V30 2708 O 251.455 0.30974 -1.75792 0
M  V30 2709 C 248.555 0.491049 -3.35324 0
M  V30 2710 C 247.728 -0.352133 -4.3598 0
M  V30 2711 C 246.787 0.443622 -5.24327 0
M  V30 2712 O 245.813 -0.14566 -5.69014 0
M  V30 2713 N 247.015 1.74545 -5.53637 0
M  V30 2714 H 249.78 -1.21273 -2.74068 0
M  V30 2715 H 247.341 -0.785541 -1.41566 0
M  V30 2716 H 249.333 1.03026 -3.91366 0
M  V30 2717 H 247.903 1.23574 -2.87138 0
M  V30 2718 H 247.123 -1.07269 -3.79324 0
M  V30 2719 H 248.411 -0.928883 -5.00249 0
M  V30 2720 H 247.809 2.24666 -5.19174 0
M  V30 2721 H 246.366 2.23138 -6.12416 0
M  V30 2722 N 249.799 1.42003 -0.683588 0
M  V30 2723 C 251.046 2.01413 -0.209514 0
M  V30 2724 C 251.374 1.54088 1.1869 0
M  V30 2725 O 250.629 0.737591 1.81268 0
M  V30 2726 C 250.928 3.56827 -0.202357 0
M  V30 2727 C 250.594 4.23617 -1.54464 0
M  V30 2728 C 249.256 4.41577 -1.91215 0
M  V30 2729 C 251.608 4.61178 -2.42826 0
M  V30 2730 C 248.936 4.9437 -3.15935 0
M  V30 2731 C 251.288 5.15355 -3.66867 0
M  V30 2732 C 249.952 5.31528 -4.03776 0
M  V30 2733 H 249.222 0.737023 -0.0766668 0
M  V30 2734 H 251.869 1.70067 -0.880312 0
M  V30 2735 H 250.174 3.87892 0.551969 0
M  V30 2736 H 251.871 4.00588 0.181793 0
M  V30 2737 H 248.461 4.10004 -1.24877 0
M  V30 2738 H 252.645 4.46968 -2.15717 0
M  V30 2739 H 247.901 5.05076 -3.44541 0
M  V30 2740 H 252.075 5.43402 -4.35531 0
M  V30 2741 H 249.702 5.72199 -5.00492 0
M  V30 2742 N 251.277 0.427512 1.51691 0
M  V30 2743 C 252.525 -0.141948 2.01601 0
M  V30 2744 C 252.846 -1.44067 1.31414 0
M  V30 2745 O 252.116 -1.90763 0.445658 0
M  V30 2746 H 250.696 -0.0554468 0.744939 0
M  V30 2747 H 253.358 0.567968 1.86441 0
M  V30 2748 H 252.454 -0.324913 3.10404 0
M  V30 2749 N 252.755 -1.56801 0.158532 0
M  V30 2750 C 253.98 -2.01295 -0.499516 0
M  V30 2751 C 254.405 -1.03799 -1.56867 0
M  V30 2752 O 253.763 -0.0155162 -1.81293 0
M  V30 2753 C 253.811 -3.44469 -1.06647 0
M  V30 2754 O 252.915 -3.50012 -2.18095 0
M  V30 2755 H 252.256 -0.652884 -0.12099 0
M  V30 2756 H 254.786 -2.02958 0.258661 0
M  V30 2757 H 254.796 -3.8351 -1.39227 0
M  V30 2758 H 253.471 -4.14932 -0.283581 0
M  V30 2759 H 252.048 -3.22822 -1.86656 0
M  V30 2760 N 254.233 0.115231 -1.57178 0
M  V30 2761 C 255.143 1.15994 -2.03918 0
M  V30 2762 C 256.159 1.45103 -0.960268 0
M  V30 2763 O 257.335 1.56144 -1.27204 0
M  V30 2764 C 254.4 2.46568 -2.43732 0
M  V30 2765 C 253.461 2.24822 -3.65723 0
M  V30 2766 C 252.694 3.4917 -4.03629 0
M  V30 2767 O 252.917 4.56623 -3.41835 0
M  V30 2768 O 251.851 3.39949 -4.96708 0
M  V30 2769 H 255.677 0.793019 -2.93164 0
M  V30 2770 H 253.262 0.3263 -1.45793 0
M  V30 2771 H 255.144 3.23492 -2.70057 0
M  V30 2772 H 253.819 2.82726 -1.57631 0
M  V30 2773 H 252.726 1.45744 -3.44542 0
M  V30 2774 H 254.059 1.93566 -4.52541 0
M  V30 2775 N 255.711 1.52812 0.385517 0
M  V30 2776 C 256.641 1.80808 1.47752 0
M  V30 2777 C 257.622 0.660318 1.5676 0
M  V30 2778 O 258.807 0.908246 1.71652 0
M  V30 2779 C 255.937 1.98008 2.85324 0
M  V30 2780 C 254.891 3.13709 2.91154 0
M  V30 2781 C 254.217 3.16169 4.31209 0
M  V30 2782 C 255.517 4.52709 2.60483 0
M  V30 2783 H 257.211 2.72253 1.24573 0
M  V30 2784 H 254.757 1.31003 0.597839 0
M  V30 2785 H 256.71 2.16176 3.61726 0
M  V30 2786 H 255.434 1.03255 3.09848 0
M  V30 2787 H 254.093 2.95329 2.17201 0
M  V30 2788 H 253.741 2.19092 4.52778 0
M  V30 2789 H 253.441 3.93894 4.36029 0
M  V30 2790 H 254.965 3.36496 5.09512 0
M  V30 2791 H 256.379 4.71173 3.26602 0
M  V30 2792 H 254.776 5.32528 2.76648 0
M  V30 2793 H 255.846 4.59186 1.55809 0
M  V30 2794 N 257.189 -0.644168 1.43834 0
M  V30 2795 C 258.429 -1.41565 1.47441 0
M  V30 2796 C 258.793 -1.91743 0.0992723 0
M  V30 2797 O 259.994 -2.68798 0.0100192 0
M  V30 2798 C 258.265 -2.55902 2.49498 0
M  V30 2799 S 259.824 -3.44287 2.72051 0
M  V30 2800 H 256.642 -0.483118 0.521649 0
M  V30 2801 H 259.244 -0.747008 1.80666 0
M  V30 2802 H 257.948 -2.17327 3.48134 0
M  V30 2803 H 257.479 -3.27607 2.17801 0
M  V30 2804 H 259.494 -4.52927 2.0266 0
M  V30 2805 N 258.668 -1.30515 -0.883378 0
M  V30 2806 C 260.084 -1.08881 -1.16692 0
M  V30 2807 C 260.284 0.149409 -2.00945 0
M  V30 2808 O 259.34 0.84257 -2.38027 0
M  V30 2809 C 260.653 -2.35319 -1.87204 0
M  V30 2810 C 262.201 -2.40799 -1.99962 0
M  V30 2811 C 262.676 -3.67083 -2.73887 0
M  V30 2812 N 264.167 -3.679 -2.81432 0
M  V30 2813 C 264.902 -4.62303 -3.3921 0
M  V30 2814 N 264.398 -5.67052 -3.98025 0
M  V30 2815 N 266.191 -4.49845 -3.3704 0
M  V30 2816 H 258.342 -2.09951 -0.321633 0
M  V30 2817 H 260.605 -0.92556 -0.205043 0
M  V30 2818 H 260.311 -3.25689 -1.3274 0
M  V30 2819 H 260.185 -2.44089 -2.87577 0
M  V30 2820 H 262.572 -1.50907 -2.53597 0
M  V30 2821 H 262.653 -2.36003 -0.98673 0
M  V30 2822 H 262.297 -4.57334 -2.20925 0
M  V30 2823 H 262.227 -3.69141 -3.75556 0
M  V30 2824 H 264.718 -2.92171 -2.39676 0
M  V30 2825 H 265.031 -6.35184 -4.40183 0
M  V30 2826 H 263.376 -5.70842 -3.96439 0
M  V30 2827 H 266.567 -3.67194 -2.90321 0
M  V30 2828 H 266.74 -5.23597 -3.81772 0
M  V30 2829 N 260.146 1.09593 -1.13257 0
M  V30 2830 C 261.393 1.81734 -0.893257 0
M  V30 2831 C 261.721 1.8563 0.580656 0
M  V30 2832 O 260.976 1.31906 1.44566 0
M  V30 2833 C 261.275 3.27802 -1.42411 0
M  V30 2834 C 260.941 3.44041 -2.91456 0
M  V30 2835 C 259.603 3.48181 -3.3215 0
M  V30 2836 C 261.955 3.48719 -3.87356 0
M  V30 2837 C 259.283 3.54575 -4.67433 0
M  V30 2838 C 261.635 3.56648 -5.2248 0
M  V30 2839 C 260.299 3.59055 -5.62704 0
M  V30 2840 H 259.569 0.665011 -0.326866 0
M  V30 2841 H 262.216 1.2912 -1.41422 0
M  V30 2842 H 260.521 3.83042 -0.823795 0
M  V30 2843 H 262.218 3.82149 -1.21503 0
M  V30 2844 H 258.808 3.41502 -2.58987 0
M  V30 2845 H 262.992 3.44763 -3.57004 0
M  V30 2846 H 258.248 3.54725 -4.97976 0
M  V30 2847 H 262.422 3.59212 -5.96607 0
M  V30 2848 H 260.049 3.63763 -6.67518 0
M  V30 2849 N 261.624 0.925811 1.2754 0
M  V30 2850 C 262.87 0.566092 1.94739 0
M  V30 2851 C 263.203 -0.890057 1.72603 0
M  V30 2852 O 262.478 -1.63467 1.05399 0
M  V30 2853 C 262.761 0.89054 3.48915 0
M  V30 2854 C 262.614 2.4003 3.80402 0
M  V30 2855 C 263.933 0.395101 4.38323 0
M  V30 2856 H 261.052 0.20714 0.707292 0
M  V30 2857 H 263.694 1.15725 1.50691 0
M  V30 2858 H 261.844 0.387452 3.86563 0
M  V30 2859 H 263.516 2.97494 3.52555 0
M  V30 2860 H 261.759 2.85028 3.2702 0
M  V30 2861 H 262.43 2.57785 4.8811 0
M  V30 2862 H 264.906 0.826241 4.07814 0
M  V30 2863 H 263.782 0.651086 5.45025 0
M  V30 2864 H 264.043 -0.704798 4.36446 0
M  V30 2865 N 263.102 -1.41638 0.69111 0
M  V30 2866 C 264.33 -2.05628 0.22909 0
M  V30 2867 C 264.745 -1.51992 -1.11999 0
M  V30 2868 O 264.102 -0.666322 -1.69901 0
M  V30 2869 C 264.153 -3.61084 0.173283 0
M  V30 2870 O 263.874 -4.12735 1.46907 0
M  V30 2871 C 265.375 -4.42213 -0.310266 0
M  V30 2872 H 262.595 -0.662327 0.107534 0
M  V30 2873 H 265.139 -1.81489 0.942438 0
M  V30 2874 H 263.294 -3.84278 -0.490858 0
M  V30 2875 H 263.708 -5.06743 1.35322 0
M  V30 2876 H 265.182 -5.51194 -0.298196 0
M  V30 2877 H 265.659 -4.1799 -1.34838 0
M  V30 2878 H 266.265 -4.24074 0.322716 0
M  V30 2879 N 264.58 -0.43555 -1.51462 0
M  V30 2880 C 265.543 0.365137 -2.26273 0
M  V30 2881 C 266.543 0.951227 -1.29647 0
M  V30 2882 O 267.733 0.825958 -1.53374 0
M  V30 2883 C 264.865 1.51645 -3.05314 0
M  V30 2884 H 266.058 -0.290474 -2.9849 0
M  V30 2885 H 263.611 -0.188676 -1.55157 0
M  V30 2886 H 264.346 2.20816 -2.3751 0
M  V30 2887 H 264.131 1.10238 -3.76284 0
M  V30 2888 H 265.621 2.08218 -3.61987 0
M  V30 2889 N 266.058 1.56714 -0.166846 0
M  V30 2890 C 267.021 2.16539 0.751232 0
M  V30 2891 C 268.021 1.11228 1.16125 0
M  V30 2892 O 269.211 1.36765 1.07894 0
M  V30 2893 C 266.343 2.74462 2.02196 0
M  V30 2894 H 267.536 2.99013 0.230499 0
M  V30 2895 H 265.089 1.56081 0.0826982 0
M  V30 2896 H 265.824 1.95709 2.58589 0
M  V30 2897 H 265.609 3.51527 1.73698 0
M  V30 2898 H 267.099 3.20489 2.67725 0
M  V30 2899 N 267.536 -0.106894 1.57237 0
M  V30 2900 C 268.783 -0.812526 1.85484 0
M  V30 2901 C 269.111 -1.79304 0.753687 0
M  V30 2902 O 268.366 -1.94047 -0.253853 0
M  V30 2903 C 268.665 -1.58628 3.20268 0
M  V30 2904 C 268.331 -0.748967 4.44636 0
M  V30 2905 C 266.993 -0.518104 4.78403 0
M  V30 2906 C 269.345 -0.166122 5.20935 0
M  V30 2907 C 266.673 0.305659 5.85903 0
M  V30 2908 C 269.025 0.644899 6.29304 0
M  V30 2909 C 267.689 0.885965 6.61594 0
M  V30 2910 H 266.959 -0.297324 0.678734 0
M  V30 2911 H 269.606 -0.0744332 1.91355 0
M  V30 2912 H 267.911 -2.39562 3.10028 0
M  V30 2913 H 269.608 -2.13643 3.39349 0
M  V30 2914 H 266.198 -0.939006 4.18187 0
M  V30 2915 H 270.382 -0.33167 4.95191 0
M  V30 2916 H 265.638 0.501528 6.0934 0
M  V30 2917 H 269.812 1.10345 6.87602 0
M  V30 2918 H 267.439 1.52609 7.44725 0
M  V30 2919 N 269.014 -1.53014 -0.377408 0
M  V30 2920 C 270.244 -1.72265 -1.14054 0
M  V30 2921 C 270.652 -0.44601 -1.83868 0
M  V30 2922 O 269.995 0.590095 -1.73964 0
M  V30 2923 C 270.057 -2.82492 -2.22348 0
M  V30 2924 C 269.721 -4.23233 -1.72402 0
M  V30 2925 C 270.718 -5.05992 -1.19448 0
M  V30 2926 C 268.403 -4.696 -1.78273 0
M  V30 2927 C 270.397 -6.33203 -0.730268 0
M  V30 2928 C 268.084 -5.96792 -1.31464 0
M  V30 2929 C 269.082 -6.78424 -0.789297 0
M  V30 2930 O 268.77 -8.0323 -0.328077 0
M  V30 2931 H 268.502 -0.579873 -0.347453 0
M  V30 2932 H 271.056 -2.00502 -0.445882 0
M  V30 2933 H 269.286 -2.49702 -2.95272 0
M  V30 2934 H 270.975 -2.90034 -2.83963 0
M  V30 2935 H 271.741 -4.71349 -1.14259 0
M  V30 2936 H 267.62 -4.06142 -2.18106 0
M  V30 2937 H 271.164 -6.96868 -0.319542 0
M  V30 2938 H 267.061 -6.30937 -1.36342 0
M  V30 2939 H 267.829 -8.1727 -0.448493 0
M  V30 2940 N 270.492 0.636531 -1.44174 0
M  V30 2941 C 271.732 1.40781 -1.48189 0
M  V30 2942 C 272.096 1.91688 -0.10944 0
M  V30 2943 O 273.297 2.68789 -0.0242741 0
M  V30 2944 C 271.568 2.54575 -2.50851 0
M  V30 2945 S 273.127 3.4284 -2.73873 0
M  V30 2946 H 269.945 0.480345 -0.524204 0
M  V30 2947 H 272.547 0.737416 -1.81059 0
M  V30 2948 H 271.251 2.15478 -3.49281 0
M  V30 2949 H 270.782 3.26447 -2.19536 0
M  V30 2950 H 272.797 4.51846 -2.05059 0
M  V30 2951 N 271.97 1.30982 0.876444 0
M  V30 2952 C 272.918 1.18006 2.00443 0
M  V30 2953 C 273.912 0.0898871 1.69161 0
M  V30 2954 O 275.118 0.251333 1.78237 0
M  V30 2955 H 271.493 0.365196 0.65737 0
M  V30 2956 H 273.464 2.13453 2.0852 0
M  V30 2957 C 272.213 0.897521 3.35916 0
M  V30 2958 H 271.536 1.7285 3.60504 0
M  V30 2959 H 272.976 0.846874 4.15456 0
M  V30 2960 C 271.435 -0.399674 3.34521 0
M  V30 2961 O 271.965 -1.41852 3.7582 0
M  V30 2962 N 270.171 -0.413893 2.87637 0
M  V30 2963 H 269.718 0.41571 2.54224 0
M  V30 2964 H 269.676 -1.28175 2.87086 0
M  V30 2965 N 273.449 -1.08991 1.13837 0
M  V30 2966 C 274.382 -2.15049 0.763477 0
M  V30 2967 C 275.36 -1.60629 -0.252398 0
M  V30 2968 O 276.544 -1.87958 -0.142853 0
M  V30 2969 C 273.671 -3.38441 0.132545 0
M  V30 2970 C 272.717 -4.11596 1.11763 0
M  V30 2971 S 273.55 -4.6521 2.65216 0
M  V30 2972 C 274.706 -5.91896 2.03495 0
M  V30 2973 H 274.939 -2.46518 1.66182 0
M  V30 2974 H 272.472 -1.21008 0.958976 0
M  V30 2975 H 274.43 -4.09883 -0.225074 0
M  V30 2976 H 273.091 -3.05182 -0.743135 0
M  V30 2977 H 272.284 -5.00121 0.624076 0
M  V30 2978 H 271.886 -3.46038 1.41894 0
M  V30 2979 H 274.178 -6.63156 1.38675 0
M  V30 2980 H 275.121 -6.45938 2.9012 0
M  V30 2981 H 275.529 -5.44625 1.48471 0
M  V30 2982 N 274.927 -0.932562 -1.27047 0
M  V30 2983 C 276.157 -0.591173 -1.97961 0
M  V30 2984 C 276.565 0.836219 -1.69717 0
M  V30 2985 O 275.908 1.56801 -0.957036 0
M  V30 2986 C 275.97 -0.743082 -3.51736 0
M  V30 2987 C 275.634 -2.1435 -4.03613 0
M  V30 2988 C 276.631 -3.11815 -4.16014 0
M  V30 2989 C 274.316 -2.46175 -4.37839 0
M  V30 2990 C 276.31 -4.39211 -4.61923 0
M  V30 2991 C 273.997 -3.73806 -4.83438 0
M  V30 2992 C 274.995 -4.70137 -4.95439 0
M  V30 2993 O 274.683 -5.95496 -5.40037 0
M  V30 2994 H 274.415 -0.222375 -0.638377 0
M  V30 2995 H 276.969 -1.25317 -1.62742 0
M  V30 2996 H 275.199 -0.0239739 -3.86693 0
M  V30 2997 H 276.888 -0.40603 -4.03864 0
M  V30 2998 H 277.654 -2.88549 -3.89826 0
M  V30 2999 H 273.533 -1.71936 -4.27737 0
M  V30 3000 H 277.077 -5.14404 -4.71205 0
M  V30 3001 H 272.974 -3.96888 -5.09068 0
M  V30 3002 H 273.742 -5.98554 -5.58279 0
M  V30 3003 N 276.405 1.4127 -0.698611 0
M  V30 3004 C 277.368 2.29158 -0.044132 0
M  V30 3005 C 278.368 1.44529 0.704841 0
M  V30 3006 O 279.558 1.65643 0.539276 0
M  V30 3007 C 276.69 3.27459 0.947809 0
M  V30 3008 H 277.883 2.88529 -0.817994 0
M  V30 3009 H 275.436 1.49307 -0.46228 0
M  V30 3010 H 276.171 2.73073 1.74933 0
M  V30 3011 H 275.956 3.8991 0.41385 0
M  V30 3012 H 277.446 3.93311 1.40344 0
M  V30 3013 N 277.883 0.443576 1.51229 0
M  V30 3014 C 279.108 -0.121648 2.07043 0
M  V30 3015 C 279.533 -1.35156 1.30823 0
M  V30 3016 O 278.891 -1.7793 0.347934 0
M  V30 3017 C 278.939 -0.41624 3.5819 0
M  V30 3018 O 278.043 -1.50163 3.8409 0
M  V30 3019 H 277.384 0.000871367 0.663999 0
M  V30 3020 H 279.914 0.626706 1.94765 0
M  V30 3021 H 279.924 -0.664867 4.02546 0
M  V30 3022 H 278.599 0.482653 4.1309 0
M  V30 3023 H 277.176 -1.24248 3.51592 0
M  V30 3024 N 279.361 -1.56624 0.175154 0
M  V30 3025 C 280.61 -1.96173 -0.468921 0
M  V30 3026 C 280.923 -1.06401 -1.64128 0
M  V30 3027 O 282.129 -1.35648 -2.35185 0
M  V30 3028 C 280.585 -3.48833 -0.885633 0
M  V30 3029 C 280.193 -4.47237 0.261343 0
M  V30 3030 C 281.937 -3.97194 -1.49791 0
M  V30 3031 C 279.844 -5.9114 -0.175214 0
M  V30 3032 H 278.774 -0.732455 -0.178958 0
M  V30 3033 H 281.425 -1.81591 0.263997 0
M  V30 3034 H 279.807 -3.58848 -1.67464 0
M  V30 3035 H 280.981 -4.4894 1.03871 0
M  V30 3036 H 279.296 -4.08956 0.783827 0
M  V30 3037 H 281.893 -5.02167 -1.83665 0
M  V30 3038 H 282.236 -3.40351 -2.39722 0
M  V30 3039 H 282.769 -3.90212 -0.773267 0
M  V30 3040 H 279.508 -6.51865 0.689414 0
M  V30 3041 H 279.028 -5.92735 -0.91786 0
M  V30 3042 H 280.707 -6.44044 -0.617792 0
M  V30 3043 N 280.839 0.0985539 -1.57292 0
M  V30 3044 C 281.769 1.12064 -2.04851 0
M  V30 3045 C 282.75 1.41981 -0.936767 0
M  V30 3046 O 283.935 1.52071 -1.20781 0
M  V30 3047 C 281.065 2.44144 -2.47004 0
M  V30 3048 C 280.019 2.28643 -3.6181 0
M  V30 3049 C 279.345 3.65869 -3.89929 0
M  V30 3050 C 280.645 1.72986 -4.92822 0
M  V30 3051 H 282.339 0.724979 -2.9049 0
M  V30 3052 H 279.885 0.34729 -1.39749 0
M  V30 3053 H 281.838 3.15914 -2.78884 0
M  V30 3054 H 280.562 2.85639 -1.5836 0
M  V30 3055 H 279.221 1.59318 -3.30172 0
M  V30 3056 H 278.869 4.04885 -2.98458 0
M  V30 3057 H 278.569 3.56344 -4.67218 0
M  V30 3058 H 280.093 4.39112 -4.2428 0
M  V30 3059 H 281.507 2.34593 -5.23105 0
M  V30 3060 H 279.904 1.74229 -5.74251 0
M  V30 3061 H 280.974 0.689007 -4.7998 0
M  V30 3062 N 282.317 1.53212 0.369288 0
M  V30 3063 C 283.247 1.82365 1.45826 0
M  V30 3064 C 284.228 0.676907 1.56051 0
M  V30 3065 O 285.413 0.926401 1.70679 0
M  V30 3066 C 282.543 2.01023 2.83208 0
M  V30 3067 C 281.497 3.1678 2.8781 0
M  V30 3068 C 280.823 3.20724 4.27832 0
M  V30 3069 C 282.123 4.55447 2.55667 0
M  V30 3070 H 283.817 2.73559 1.21678 0
M  V30 3071 H 281.363 1.3163 0.583911 0
M  V30 3072 H 283.316 2.20001 3.59413 0
M  V30 3073 H 282.04 1.06536 3.08736 0
M  V30 3074 H 280.699 2.97616 2.14056 0
M  V30 3075 H 280.347 2.23882 4.50429 0
M  V30 3076 H 280.047 3.98496 4.31827 0
M  V30 3077 H 281.571 3.41881 5.05915 0
M  V30 3078 H 282.985 4.74611 3.21586 0
M  V30 3079 H 281.382 5.35432 2.70984 0
M  V30 3080 H 282.452 4.60812 1.5093 0
M  V30 3081 N 283.795 -0.628877 1.44509 0
M  V30 3082 C 284.728 -1.75367 1.46019 0
M  V30 3083 C 285.706 -1.59444 0.318787 0
M  V30 3084 O 286.89 -1.81297 0.516099 0
M  V30 3085 C 284.017 -3.12965 1.29501 0
M  V30 3086 C 283.063 -3.47532 2.47233 0
M  V30 3087 S 283.896 -3.44758 4.09758 0
M  V30 3088 C 285.052 -4.84973 3.95667 0
M  V30 3089 H 285.285 -1.7382 2.41193 0
M  V30 3090 H 282.818 -0.803686 1.31834 0
M  V30 3091 H 284.776 -3.92367 1.20658 0
M  V30 3092 H 283.437 -3.12049 0.358341 0
M  V30 3093 H 282.63 -4.47664 2.31544 0
M  V30 3094 H 282.232 -2.75598 2.52828 0
M  V30 3095 H 284.524 -5.74255 3.59496 0
M  V30 3096 H 285.467 -5.05716 4.95638 0
M  V30 3097 H 285.875 -4.59653 3.27688 0
M  V30 3098 N 285.273 -1.31445 -0.869486 0
M  V30 3099 C 286.501 -1.24122 -1.65534 0
M  V30 3100 C 286.916 0.193387 -1.87807 0
M  V30 3101 O 286.273 1.12557 -1.43656 0
M  V30 3102 C 286.324 -1.98229 -3.02304 0
M  V30 3103 O 286.045 -3.3609 -2.81026 0
M  V30 3104 C 287.546 -1.97751 -3.96749 0
M  V30 3105 H 284.766 -0.428868 -0.516055 0
M  V30 3106 H 287.31 -1.73328 -1.08525 0
M  V30 3107 H 285.465 -1.52782 -3.56001 0
M  V30 3108 H 285.879 -3.7383 -3.67902 0
M  V30 3109 H 287.353 -2.54114 -4.90031 0
M  V30 3110 H 287.83 -0.960137 -4.28577 0
M  V30 3111 H 288.436 -2.43079 -3.48988 0
M  V30 3112 N 286.751 1.08385 -1.14413 0
M  V30 3113 C 287.997 1.81044 -0.913834 0
M  V30 3114 C 288.33 1.86004 0.558209 0
M  V30 3115 O 287.605 1.33606 1.4135 0
M  V30 3116 C 287.888 3.26648 -1.51569 0
M  V30 3117 C 287.741 3.29895 -3.0576 0
M  V30 3118 C 289.06 4.23629 -1.19273 0
M  V30 3119 H 286.179 0.65727 -0.333414 0
M  V30 3120 H 288.821 1.26896 -1.41412 0
M  V30 3121 H 286.971 3.72889 -1.09023 0
M  V30 3122 H 288.643 2.91977 -3.57137 0
M  V30 3123 H 286.886 2.69163 -3.40197 0
M  V30 3124 H 287.557 4.32516 -3.42977 0
M  V30 3125 H 290.033 3.85727 -1.56057 0
M  V30 3126 H 288.909 5.23822 -1.64017 0
M  V30 3127 H 289.17 4.41968 -0.108068 0
M  V30 3128 N 288.23 0.939286 1.26551 0
M  V30 3129 C 289.479 0.581601 1.93133 0
M  V30 3130 C 289.792 -0.883224 1.74524 0
M  V30 3131 O 290.998 -1.3502 2.35546 0
M  V30 3132 C 289.454 0.989425 3.46032 0
M  V30 3133 C 289.062 2.47573 3.73379 0
M  V30 3134 C 290.806 0.703544 4.18629 0
M  V30 3135 C 288.713 2.82235 5.19709 0
M  V30 3136 H 287.643 0.213803 0.723052 0
M  V30 3137 H 290.294 1.14167 1.4366 0
M  V30 3138 H 288.676 0.357902 3.94379 0
M  V30 3139 H 289.85 3.15614 3.35744 0
M  V30 3140 H 288.165 2.73471 3.1401 0
M  V30 3141 H 290.762 0.938869 5.26393 0
M  V30 3142 H 291.105 -0.359639 4.14744 0
M  V30 3143 H 291.638 1.2947 3.76141 0
M  V30 3144 H 288.377 3.87509 5.28694 0
M  V30 3145 H 287.897 2.18854 5.58447 0
M  V30 3146 H 289.576 2.70599 5.87695 0
M  V30 3147 N 289.708 -1.40897 0.706093 0
M  V30 3148 C 290.933 -2.05895 0.249435 0
M  V30 3149 C 291.358 -1.52823 -1.09666 0
M  V30 3150 O 290.716 -0.659589 -1.68876 0
M  V30 3151 C 290.764 -3.59872 0.22904 0
M  V30 3152 O 289.868 -4.04708 -0.792784 0
M  V30 3153 H 289.209 -0.653206 0.119241 0
M  V30 3154 H 291.739 -1.80471 0.96391 0
M  V30 3155 H 291.749 -4.07951 0.0634791 0
M  V30 3156 H 290.424 -3.97866 1.21141 0
M  V30 3157 H 289.001 -3.68111 -0.59572 0
M  V30 3158 N 291.186 -0.45159 -1.50991 0
M  V30 3159 C 292.435 0.111653 -2.01391 0
M  V30 3160 C 292.748 1.42529 -1.33959 0
M  V30 3161 O 293.954 2.07232 -1.75405 0
M  V30 3162 C 292.41 0.249514 -3.59034 0
M  V30 3163 C 292.018 -1.05453 -4.35412 0
M  V30 3164 C 293.762 0.765762 -4.17536 0
M  V30 3165 C 291.669 -0.881529 -5.84793 0
M  V30 3166 H 290.599 0.0455022 -0.752626 0
M  V30 3167 H 293.25 -0.583524 -1.73975 0
M  V30 3168 H 291.632 1.00803 -3.82955 0
M  V30 3169 H 292.806 -1.82248 -4.23229 0
M  V30 3170 H 291.121 -1.50039 -3.88429 0
M  V30 3171 H 293.718 0.911913 -5.26866 0
M  V30 3172 H 294.061 1.75201 -3.77638 0
M  V30 3173 H 294.594 0.0651744 -3.97747 0
M  V30 3174 H 291.333 -1.84057 -6.29129 0
M  V30 3175 H 290.853 -0.153625 -5.99603 0
M  V30 3176 H 292.532 -0.540363 -6.4474 0
M  V30 3177 N 292.664 1.56529 -0.183458 0
M  V30 3178 C 293.941 1.88959 0.50536 0
M  V30 3179 C 294.321 1.09523 1.80466 0
M  V30 3180 O 293.669 0.19278 2.27685 0
M  V30 3181 C 293.879 3.41162 0.73547 0
M  V30 3182 C 295.227 4.11155 1.06005 0
M  V30 3183 O 296.251 3.46548 0.823594 0
M  V30 3184 O 295.11 5.25318 1.50675 0
M  V30 3185 H 292.204 0.78441 0.261973 0
M  V30 3186 H 294.75 1.68231 -0.222802 0
M  V30 3187 H 293.522 3.90874 -0.182561 0
M  V30 3188 H 293.145 3.67543 1.51651 0
M  V30 3189 N 294.142 -0.090211 1.57342 0
M  V30 3190 C 295.558 -0.444547 1.53284 0
M  V30 3191 C 295.758 -1.80238 0.900914 0
M  V30 3192 O 294.814 -2.4759 0.495513 0
M  V30 3193 C 296.127 -0.402543 2.97993 0
M  V30 3194 C 297.675 -0.48405 3.09234 0
M  V30 3195 C 298.15 -0.472144 4.5556 0
M  V30 3196 N 299.641 -0.532757 4.60126 0
M  V30 3197 C 300.376 -0.545462 5.708 0
M  V30 3198 N 299.872 -0.514082 6.9089 0
M  V30 3199 N 301.665 -0.59064 5.58988 0
M  V30 3200 H 293.816 0.799121 1.96794 0
M  V30 3201 H 296.079 0.297965 0.899956 0
M  V30 3202 H 295.785 0.528106 3.47712 0
M  V30 3203 H 295.659 -1.21969 3.56936 0
M  V30 3204 H 298.046 -1.40512 2.595 0
M  V30 3205 H 298.127 0.361328 2.53235 0
M  V30 3206 H 297.771 0.445 5.05947 0
M  V30 3207 H 297.701 -1.3348 5.09402 0
M  V30 3208 H 300.192 -0.562006 3.73698 0
M  V30 3209 H 300.505 -0.527195 7.71 0
M  V30 3210 H 298.85 -0.481054 6.93333 0
M  V30 3211 H 302.041 -0.61272 4.64073 0
M  V30 3212 H 302.214 -0.597073 6.45243 0
M  V30 3213 N 295.62 -1.53406 -0.361157 0
M  V30 3214 C 296.867 -1.69802 -1.10333 0
M  V30 3215 C 297.195 -0.452087 -1.89173 0
M  V30 3216 O 296.45 0.566017 -1.87336 0
M  V30 3217 C 296.749 -2.90211 -2.08596 0
M  V30 3218 C 296.415 -4.26539 -1.46203 0
M  V30 3219 C 295.077 -4.6361 -1.28915 0
M  V30 3220 C 297.429 -5.113 -1.01101 0
M  V30 3221 C 294.757 -5.83075 -0.651157 0
M  V30 3222 C 297.109 -6.31415 -0.387007 0
M  V30 3223 C 295.773 -6.67195 -0.201657 0
M  V30 3224 H 295.043 -0.621351 -0.403737 0
M  V30 3225 H 297.69 -1.87598 -0.384609 0
M  V30 3226 H 295.995 -2.66946 -2.86788 0
M  V30 3227 H 297.692 -3.00091 -2.65982 0
M  V30 3228 H 294.282 -3.97352 -1.60653 0
M  V30 3229 H 298.466 -4.83206 -1.13249 0
M  V30 3230 H 293.722 -6.09385 -0.496006 0
M  V30 3231 H 297.896 -6.96394 -0.0293563 0
M  V30 3232 H 295.523 -7.59628 0.294766 0
M  V30 3233 N 297.098 0.621204 -1.44841 0
M  V30 3234 C 298.028 1.74366 -1.55303 0
M  V30 3235 C 299.009 1.65199 -0.405385 0
M  V30 3236 O 300.194 1.83807 -0.626787 0
M  V30 3237 C 297.324 3.12931 -1.50637 0
M  V30 3238 C 296.278 3.36896 -2.63979 0
M  V30 3239 C 295.604 4.75594 -2.44366 0
M  V30 3240 C 296.904 3.28483 -4.06074 0
M  V30 3241 H 298.598 1.65867 -2.49256 0
M  V30 3242 H 296.144 0.796558 -1.19962 0
M  V30 3243 H 298.097 3.9124 -1.56555 0
M  V30 3244 H 296.821 3.22237 -0.532057 0
M  V30 3245 H 295.48 2.60972 -2.57467 0
M  V30 3246 H 295.128 4.81616 -1.45105 0
M  V30 3247 H 294.828 4.92586 -3.20364 0
M  V30 3248 H 296.352 5.5612 -2.52117 0
M  V30 3249 H 297.766 3.96684 -4.13902 0
M  V30 3250 H 296.163 3.57008 -4.82354 0
M  V30 3251 H 297.233 2.26133 -4.28943 0
M  V30 3252 N 298.576 1.31904 0.862503 0
M  V30 3253 C 299.539 1.20131 1.95195 0
M  V30 3254 C 300.539 0.126409 1.60302 0
M  V30 3255 O 301.729 0.376234 1.70089 0
M  V30 3256 C 298.861 0.845691 3.30244 0
M  V30 3257 H 300.054 2.16943 2.07064 0
M  V30 3258 H 297.607 1.15622 1.05172 0
M  V30 3259 H 298.342 -0.120957 3.24074 0
M  V30 3260 H 298.127 1.62276 3.56944 0
M  V30 3261 H 299.617 0.787418 4.10109 0
M  V30 3262 N 300.054 -1.07777 1.14986 0
M  V30 3263 C 301.3 -1.80557 0.923422 0
M  V30 3264 C 301.633 -1.86298 -0.548337 0
M  V30 3265 O 300.908 -1.34354 -1.40639 0
M  V30 3266 C 301.191 -3.25839 1.53299 0
M  V30 3267 C 301.044 -3.28269 3.07505 0
M  V30 3268 C 302.363 -4.22991 1.21518 0
M  V30 3269 H 299.482 -0.655493 0.336894 0
M  V30 3270 H 302.124 -1.26144 1.42083 0
M  V30 3271 H 300.274 -3.72306 1.10999 0
M  V30 3272 H 301.946 -2.90079 3.58681 0
M  V30 3273 H 300.189 -2.67355 3.4162 0
M  V30 3274 H 300.86 -4.30691 3.45266 0
M  V30 3275 H 303.336 -3.84894 1.581 0
M  V30 3276 H 302.212 -5.22945 1.66793 0
M  V30 3277 H 302.473 -4.41904 0.131505 0
M  V30 3278 N 301.532 -0.945985 -1.26051 0
M  V30 3279 C 302.778 -0.597002 -1.93814 0
M  V30 3280 C 303.111 0.862484 -1.73997 0
M  V30 3281 O 302.386 1.61769 -1.07986 0
M  V30 3282 C 302.669 -0.945937 -3.47454 0
M  V30 3283 C 302.522 -2.46052 -3.76535 0
M  V30 3284 C 303.841 -0.464785 -4.37639 0
M  V30 3285 H 300.96 -0.218366 -0.703907 0
M  V30 3286 H 303.602 -1.18107 -1.48831 0
M  V30 3287 H 301.752 -0.448902 -3.85898 0
M  V30 3288 H 303.424 -3.03065 -3.47778 0
M  V30 3289 H 301.667 -2.90194 -3.22444 0
M  V30 3290 H 302.338 -2.65517 -4.83947 0
M  V30 3291 H 304.814 -0.891016 -4.06448 0
M  V30 3292 H 303.69 -0.737712 -5.4392 0
M  V30 3293 H 303.951 0.635274 -4.37512 0
M  V30 3294 N 303.011 1.40521 -0.713556 0
M  V30 3295 C 304.241 2.0494 -0.261395 0
M  V30 3296 C 304.649 1.53861 1.10107 0
M  V30 3297 O 303.992 0.689321 1.70276 0
M  V30 3298 C 304.054 3.59138 -0.161227 0
M  V30 3299 C 303.718 4.33096 -1.45865 0
M  V30 3300 C 304.715 4.61182 -2.40016 0
M  V30 3301 C 302.4 4.72043 -1.71701 0
M  V30 3302 C 304.394 5.27196 -3.58251 0
M  V30 3303 C 302.081 5.37789 -2.90218 0
M  V30 3304 C 303.079 5.65295 -3.83315 0
M  V30 3305 O 302.767 6.29683 -4.99754 0
M  V30 3306 H 302.499 0.666041 -0.115608 0
M  V30 3307 H 305.053 1.80954 -0.971849 0
M  V30 3308 H 303.283 3.81936 0.605153 0
M  V30 3309 H 304.972 4.05091 0.256105 0
M  V30 3310 H 305.738 4.31559 -2.21318 0
M  V30 3311 H 301.617 4.50003 -1.00092 0
M  V30 3312 H 305.161 5.48582 -4.30934 0
M  V30 3313 H 301.058 5.66831 -3.08825 0
M  V30 3314 H 301.826 6.4818 -4.99805 0
M  V30 3315 N 304.489 0.459591 1.5075 0
M  V30 3316 C 305.9 0.00171547 1.867 0
M  V30 3317 C 306.251 -1.39934 1.37525 0
M  V30 3318 O 305.376 -2.03523 0.735349 0
M  V30 3319 C 305.971 -0.00366298 3.388 0
M  V30 3320 C 304.53 -0.406026 3.74204 0
M  V30 3321 C 303.677 0.38673 2.7459 0
M  V30 3322 H 306.628 0.674413 1.43657 0
M  V30 3323 H 306.649 -0.808371 3.71814 0
M  V30 3324 H 306.161 1.01617 3.74561 0
M  V30 3325 H 304.262 -1.43063 3.4404 0
M  V30 3326 H 304.375 -0.115362 4.78961 0
M  V30 3327 H 302.739 -0.158019 2.54209 0
M  V30 3328 H 303.522 1.40585 3.13194 0
M  V30 3329 N 305.967 -1.56429 0.191757 0
M  V30 3330 C 306.9 -2.14829 -0.76967 0
M  V30 3331 C 307.878 -1.08405 -1.2119 0
M  V30 3332 O 309.062 -1.36498 -1.30002 0
M  V30 3333 C 306.189 -2.70446 -2.03903 0
M  V30 3334 C 305.235 -3.89428 -1.7392 0
M  V30 3335 S 306.068 -5.28048 -0.890265 0
M  V30 3336 C 307.224 -5.87085 -2.16984 0
M  V30 3337 H 307.457 -2.96042 -0.273204 0
M  V30 3338 H 304.99 -1.54383 -0.0231975 0
M  V30 3339 H 306.948 -3.03134 -2.76803 0
M  V30 3340 H 305.609 -1.89281 -2.50662 0
M  V30 3341 H 304.802 -4.26742 -2.68155 0
M  V30 3342 H 304.404 -3.57732 -1.09103 0
M  V30 3343 H 306.696 -6.01244 -3.12269 0
M  V30 3344 H 307.639 -6.83747 -1.84108 0
M  V30 3345 H 308.047 -5.15663 -2.29678 0
M  V30 3346 N 307.445 0.0818655 -1.57387 0
M  V30 3347 C 308.377 1.12484 -1.997 0
M  V30 3348 C 309.39 1.35564 -0.90146 0
M  V30 3349 O 310.579 1.33982 -1.17945 0
M  V30 3350 C 307.679 2.47778 -2.31213 0
M  V30 3351 C 306.852 2.44793 -3.62485 0
M  V30 3352 C 305.911 3.62117 -3.81782 0
M  V30 3353 O 304.937 3.44005 -4.53486 0
M  V30 3354 N 306.139 4.82094 -3.23367 0
M  V30 3355 H 308.904 0.764585 -2.89783 0
M  V30 3356 H 306.465 0.270664 -1.59621 0
M  V30 3357 H 308.457 3.24891 -2.41304 0
M  V30 3358 H 307.027 2.75843 -1.4707 0
M  V30 3359 H 306.247 1.53134 -3.6324 0
M  V30 3360 H 307.535 2.39889 -4.48699 0
M  V30 3361 H 306.933 4.99713 -2.65148 0
M  V30 3362 H 305.49 5.56753 -3.38923 0
M  V30 3363 N 308.923 1.53595 0.353017 0
M  V30 3364 C 310.148 1.7462 1.11904 0
M  V30 3365 C 310.573 0.479721 1.8188 0
M  V30 3366 O 309.931 -0.567066 1.72204 0
M  V30 3367 C 309.979 2.92029 2.11545 0
M  V30 3368 O 309.083 2.61516 3.18878 0
M  V30 3369 H 308.424 0.579531 0.324099 0
M  V30 3370 H 310.954 2.00525 0.406301 0
M  V30 3371 H 310.964 3.18551 2.5493 0
M  V30 3372 H 309.639 3.83888 1.60008 0
M  V30 3373 H 308.216 2.45852 2.80377 0
M  V30 3374 N 310.401 -0.613514 1.45168 0
M  V30 3375 C 311.331 -1.7354 1.56225 0
M  V30 3376 C 312.312 -1.64981 0.41414 0
M  V30 3377 O 313.497 -1.83472 0.636526 0
M  V30 3378 C 310.627 -3.12128 1.52295 0
M  V30 3379 C 309.581 -3.35491 2.65762 0
M  V30 3380 C 308.907 -4.74291 2.46885 0
M  V30 3381 C 310.207 -3.26325 4.0781 0
M  V30 3382 H 311.901 -1.64543 2.50132 0
M  V30 3383 H 309.447 -0.790185 1.20383 0
M  V30 3384 H 311.4 -3.90404 1.58628 0
M  V30 3385 H 310.124 -3.2195 0.549139 0
M  V30 3386 H 308.783 -2.59603 2.58847 0
M  V30 3387 H 308.431 -4.80839 1.47657 0
M  V30 3388 H 308.131 -4.9088 3.22972 0
M  V30 3389 H 309.655 -5.54775 2.55063 0
M  V30 3390 H 311.069 -3.94483 4.16 0
M  V30 3391 H 309.466 -3.54445 4.8424 0
M  V30 3392 H 310.536 -2.23855 4.30136 0
M  V30 3393 N 311.879 -1.3236 -0.855495 0
M  V30 3394 C 313.104 -1.2601 -1.64731 0
M  V30 3395 C 313.529 0.169068 -1.87339 0
M  V30 3396 O 312.887 1.12016 -1.42556 0
M  V30 3397 C 312.935 -2.02417 -2.98429 0
M  V30 3398 O 312.039 -1.3714 -3.8893 0
M  V30 3399 H 311.38 -0.434325 -0.502253 0
M  V30 3400 H 313.91 -1.74661 -1.06558 0
M  V30 3401 H 313.92 -2.12559 -3.48257 0
M  V30 3402 H 312.595 -3.06343 -2.81295 0
M  V30 3403 H 311.172 -1.3554 -3.47395 0
M  V30 3404 N 313.357 1.07166 -1.15556 0
M  V30 3405 C 314.603 1.80222 -0.942961 0
M  V30 3406 C 314.958 1.85121 0.524209 0
M  V30 3407 O 314.251 1.32531 1.38369 0
M  V30 3408 C 314.445 3.24707 -1.49332 0
M  V30 3409 C 314.274 3.33887 -3.01247 0
M  V30 3410 C 313.044 3.44337 -3.69811 0
M  V30 3411 C 315.242 3.24484 -3.99017 0
M  V30 3412 N 313.224 3.42439 -5.09518 0
M  V30 3413 C 314.595 3.29726 -5.25053 0
M  V30 3414 C 316.65 3.08307 -3.90962 0
M  V30 3415 C 315.353 3.20455 -6.43973 0
M  V30 3416 C 317.379 3.00371 -5.09442 0
M  V30 3417 C 316.741 3.06227 -6.34354 0
M  V30 3418 H 312.84 0.672709 -0.398731 0
M  V30 3419 H 315.424 1.27905 -1.46794 0
M  V30 3420 H 313.595 3.7544 -0.994946 0
M  V30 3421 H 315.327 3.85894 -1.21935 0
M  V30 3422 H 312.082 3.48762 -3.20409 0
M  V30 3423 H 312.506 3.45013 -5.8249 0
M  V30 3424 H 317.148 3.02633 -2.95251 0
M  V30 3425 H 314.866 3.24888 -7.39914 0
M  V30 3426 H 318.452 2.88955 -5.04971 0
M  V30 3427 H 317.332 3.00132 -7.24493 0
M  V30 3428 N 314.835 0.952656 1.25548 0
M  V30 3429 C 316.251 0.656769 1.4546 0
M  V30 3430 C 316.451 -0.78633 1.85524 0
M  V30 3431 O 315.507 -1.56183 1.98402 0
M  V30 3432 C 316.82 1.62801 2.52817 0
M  V30 3433 C 318.368 1.63897 2.66659 0
M  V30 3434 C 318.843 2.5978 3.77198 0
M  V30 3435 N 320.334 2.58133 3.84606 0
M  V30 3436 C 321.069 3.29003 4.69621 0
M  V30 3437 N 320.565 4.09339 5.58939 0
M  V30 3438 N 322.358 3.179 4.63569 0
M  V30 3439 H 314.509 1.88526 0.978344 0
M  V30 3440 H 316.772 0.810815 0.491206 0
M  V30 3441 H 316.478 2.65869 2.30232 0
M  V30 3442 H 316.352 1.38898 3.50695 0
M  V30 3443 H 318.739 0.615481 2.8861 0
M  V30 3444 H 318.82 1.91858 1.69187 0
M  V30 3445 H 318.464 3.62254 3.55997 0
M  V30 3446 H 318.394 2.29105 4.7415 0
M  V30 3447 H 320.885 1.99809 3.20757 0
M  V30 3448 H 321.198 4.6034 6.20731 0
M  V30 3449 H 319.543 4.13438 5.58654 0
M  V30 3450 H 322.734 2.54612 3.92798 0
M  V30 3451 H 322.907 3.73398 5.29602 0
M  V30 3452 N 316.313 -1.40141 0.720998 0
M  V30 3453 C 317.541 -2.05096 0.272656 0
M  V30 3454 C 317.956 -1.54334 -1.0875 0
M  V30 3455 O 317.313 -0.702211 -1.6845 0
M  V30 3456 C 317.364 -3.60636 0.249835 0
M  V30 3457 O 317.085 -4.09526 1.55629 0
M  V30 3458 C 318.586 -4.42772 -0.216396 0
M  V30 3459 H 315.806 -0.659897 0.121558 0
M  V30 3460 H 318.35 -1.79449 0.980723 0
M  V30 3461 H 316.505 -3.85232 -0.409237 0
M  V30 3462 H 316.919 -5.03758 1.4604 0
M  V30 3463 H 318.393 -5.51702 -0.181212 0
M  V30 3464 H 318.87 -4.20756 -1.25941 0
M  V30 3465 H 319.476 -4.23294 0.412596 0
M  V30 3466 N 317.792 -0.46758 -1.50504 0
M  V30 3467 C 318.722 0.318381 -2.31319 0
M  V30 3468 C 319.703 0.993564 -1.38066 0
M  V30 3469 O 320.888 0.991411 -1.66987 0
M  V30 3470 C 318.018 1.40275 -3.17711 0
M  V30 3471 C 316.972 0.849373 -4.19487 0
M  V30 3472 C 316.298 2.03177 -4.94594 0
M  V30 3473 C 317.598 -0.136942 -5.2212 0
M  V30 3474 H 319.292 -0.356106 -2.97275 0
M  V30 3475 H 316.838 -0.172703 -1.42961 0
M  V30 3476 H 318.791 1.96004 -3.73042 0
M  V30 3477 H 317.515 2.10596 -2.49634 0
M  V30 3478 H 316.174 0.314076 -3.65252 0
M  V30 3479 H 315.822 2.72187 -4.22993 0
M  V30 3480 H 315.522 1.66774 -5.63436 0
M  V30 3481 H 317.046 2.59403 -5.52759 0
M  V30 3482 H 318.46 0.331056 -5.72343 0
M  V30 3483 H 316.857 -0.41507 -5.98663 0
M  V30 3484 H 317.927 -1.06398 -4.73083 0
M  V30 3485 N 319.27 1.56325 -0.20005 0
M  V30 3486 C 320.518 1.97329 0.436547 0
M  V30 3487 C 320.839 1.08826 1.61808 0
M  V30 3488 O 320.109 0.160604 1.95241 0
M  V30 3489 H 318.689 0.728714 0.164272 0
M  V30 3490 H 321.351 1.92761 -0.287937 0
M  V30 3491 H 320.447 3.02264 0.777353 0
M  V30 3492 N 320.748 -0.0735177 1.57428 0
M  V30 3493 C 322.164 -0.428264 1.53747 0
M  V30 3494 C 322.364 -1.79272 0.91998 0
M  V30 3495 O 321.42 -2.47051 0.521745 0
M  V30 3496 C 322.733 -0.370914 2.98404 0
M  V30 3497 C 324.281 -0.451224 3.0973 0
M  V30 3498 C 324.756 -0.4238 4.56035 0
M  V30 3499 N 326.247 -0.483925 4.60665 0
M  V30 3500 C 326.982 -0.484891 5.71346 0
M  V30 3501 N 326.478 -0.440775 6.91396 0
M  V30 3502 N 328.271 -0.531319 5.59583 0
M  V30 3503 H 320.422 0.819949 1.95935 0
M  V30 3504 H 322.685 0.307493 0.896745 0
M  V30 3505 H 322.391 0.564956 3.47133 0
M  V30 3506 H 322.265 -1.18176 3.5821 0
M  V30 3507 H 324.652 -1.37752 2.60976 0
M  V30 3508 H 324.733 0.388167 2.52838 0
M  V30 3509 H 324.377 0.498638 5.05446 0
M  V30 3510 H 324.307 -1.2807 5.10789 0
M  V30 3511 H 326.798 -0.522338 3.74273 0
M  V30 3512 H 327.111 -0.44539 7.71515 0
M  V30 3513 H 325.456 -0.40749 6.93804 0
M  V30 3514 H 328.647 -0.563464 4.64696 0
M  V30 3515 H 328.82 -0.528603 6.4584 0
M  V30 3516 N 322.226 -1.5378 -0.344866 0
M  V30 3517 C 323.189 -1.80981 -1.40637 0
M  V30 3518 C 324.189 -0.680816 -1.45676 0
M  V30 3519 O 325.379 -0.949095 -1.46075 0
M  V30 3520 C 322.511 -1.95063 -2.79577 0
M  V30 3521 H 323.704 -2.75803 -1.17783 0
M  V30 3522 H 321.257 -1.45173 -0.579181 0
M  V30 3523 H 321.992 -1.02379 -3.07716 0
M  V30 3524 H 321.777 -2.77198 -2.77315 0
M  V30 3525 H 323.267 -2.17629 -3.56409 0
M  V30 3526 N 323.704 0.605807 -1.45491 0
M  V30 3527 C 324.929 1.39625 -1.53361 0
M  V30 3528 C 325.354 1.87351 -0.167645 0
M  V30 3529 O 324.712 1.60243 0.848051 0
M  V30 3530 C 324.76 2.57559 -2.5238 0
M  V30 3531 O 323.864 3.58248 -2.04285 0
M  V30 3532 H 323.205 0.416771 -0.516912 0
M  V30 3533 H 325.735 0.737103 -1.90861 0
M  V30 3534 H 325.745 3.0478 -2.71244 0
M  V30 3535 H 324.42 2.22171 -3.51586 0
M  V30 3536 H 322.997 3.17664 -1.95305 0
M  V30 3537 N 325.182 1.32811 0.848464 0
M  V30 3538 C 326.429 1.23724 1.60308 0
M  V30 3539 C 326.757 -0.1994 1.93475 0
M  V30 3540 O 326.012 -1.15406 1.5805 0
M  V30 3541 C 326.311 2.04831 2.92881 0
M  V30 3542 C 325.977 3.54125 2.79117 0
M  V30 3543 C 324.639 3.94829 2.7507 0
M  V30 3544 C 326.991 4.49036 2.64606 0
M  V30 3545 C 324.319 5.28675 2.544 0
M  V30 3546 C 326.671 5.83033 2.4547 0
M  V30 3547 C 325.335 6.22931 2.39819 0
M  V30 3548 H 324.605 0.452737 0.586609 0
M  V30 3549 H 327.252 1.64301 0.983743 0
M  V30 3550 H 325.557 1.57001 3.58968 0
M  V30 3551 H 327.254 1.95164 3.50303 0
M  V30 3552 H 323.844 3.21801 2.83094 0
M  V30 3553 H 328.028 4.18505 2.66772 0
M  V30 3554 H 323.284 5.58637 2.48465 0
M  V30 3555 H 327.458 6.56186 2.33222 0
M  V30 3556 H 325.085 7.26584 2.23562 0
M  V30 3557 N 326.66 -1.06551 1.16123 0
M  V30 3558 C 327.888 -1.83005 0.965237 0
M  V30 3559 C 328.303 -1.82423 -0.486542 0
M  V30 3560 O 327.66 -1.24152 -1.33763 0
M  V30 3561 C 327.711 -3.29733 1.48183 0
M  V30 3562 O 327.432 -3.30416 2.87674 0
M  V30 3563 C 328.933 -4.22926 1.32848 0
M  V30 3564 H 326.153 -0.577118 0.342309 0
M  V30 3565 H 328.697 -1.3445 1.54089 0
M  V30 3566 H 326.852 -3.75609 0.948517 0
M  V30 3567 H 327.266 -4.22149 3.11272 0
M  V30 3568 H 328.74 -5.23916 1.73827 0
M  V30 3569 H 329.217 -4.38346 0.273692 0
M  V30 3570 H 329.823 -3.82894 1.85127 0
M  V30 3571 N 328.138 -0.959301 -1.25041 0
M  V30 3572 C 329.378 -0.624343 -1.94631 0
M  V30 3573 C 329.742 0.82403 -1.73418 0
M  V30 3574 O 330.943 1.26881 -2.3697 0
M  V30 3575 C 329.214 -0.978805 -3.43736 0
M  V30 3576 S 330.773 -0.757127 -4.32219 0
M  V30 3577 H 327.591 -0.229327 -0.673001 0
M  V30 3578 H 330.193 -1.23447 -1.51595 0
M  V30 3579 H 328.897 -2.02997 -3.56679 0
M  V30 3580 H 328.428 -0.359117 -3.91757 0
M  V30 3581 H 330.443 0.369759 -4.9482 0
M  V30 3582 N 329.616 1.39756 -0.72842 0
M  V30 3583 C 330.546 2.33289 -0.0991354 0
M  V30 3584 C 331.527 1.53568 0.731489 0
M  V30 3585 O 332.712 1.81987 0.677807 0
M  V30 3586 C 329.842 3.3763 0.813834 0
M  V30 3587 C 328.796 4.2791 0.0878663 0
M  V30 3588 C 328.122 5.22894 1.11741 0
M  V30 3589 C 329.422 5.11314 -1.06563 0
M  V30 3590 H 331.116 2.86163 -0.880408 0
M  V30 3591 H 328.662 1.37591 -0.424819 0
M  V30 3592 H 330.615 4.0201 1.26355 0
M  V30 3593 H 329.339 2.83181 1.62715 0
M  V30 3594 H 327.998 3.65 -0.342159 0
M  V30 3595 H 327.646 4.64744 1.92412 0
M  V30 3596 H 327.346 5.84143 0.636477 0
M  V30 3597 H 328.87 5.90151 1.56697 0
M  V30 3598 H 330.284 5.69076 -0.694671 0
M  V30 3599 H 328.681 5.81671 -1.47577 0
M  V30 3600 H 329.751 4.46534 -1.89038 0
M  V30 3601 N 331.094 0.475555 1.50254 0
M  V30 3602 C 332.057 -0.305016 2.27161 0
M  V30 3603 C 333.057 -0.916519 1.32123 0
M  V30 3604 O 334.247 -0.785003 1.5551 0
M  V30 3605 C 331.379 -1.43496 3.09227 0
M  V30 3606 H 332.572 0.369511 2.97615 0
M  V30 3607 H 330.125 0.229747 1.54602 0
M  V30 3608 H 330.86 -2.14441 2.43281 0
M  V30 3609 H 330.645 -1.00223 3.79075 0
M  V30 3610 H 332.135 -1.98548 3.67381 0
M  V30 3611 N 332.573 -1.56217 0.208337 0
M  V30 3612 C 333.822 -1.97124 -0.427204 0
M  V30 3613 C 334.135 -1.09859 -1.61835 0
M  V30 3614 O 335.341 -1.40606 -2.32255 0
M  V30 3615 C 333.797 -3.50633 -0.811442 0
M  V30 3616 C 333.405 -4.46582 0.35615 0
M  V30 3617 C 335.149 -4.00282 -1.41332 0
M  V30 3618 C 333.056 -5.91379 -0.0497852 0
M  V30 3619 H 331.986 -0.736086 -0.163381 0
M  V30 3620 H 334.637 -1.8099 0.302456 0
M  V30 3621 H 333.019 -3.62319 -1.59815 0
M  V30 3622 H 334.193 -4.46636 1.1337 0
M  V30 3623 H 332.508 -4.07202 0.870396 0
M  V30 3624 H 335.105 -5.0595 -1.72972 0
M  V30 3625 H 335.448 -3.45359 -2.32449 0
M  V30 3626 H 335.981 -3.91764 -0.690323 0
M  V30 3627 H 332.72 -6.50255 0.827529 0
M  V30 3628 H 332.24 -5.94549 -0.791926 0
M  V30 3629 H 333.919 -6.45209 -0.481042 0
M  V30 3630 N 334.051 0.0651679 -1.57465 0
M  V30 3631 C 335.297 0.758912 -1.88712 0
M  V30 3632 C 335.652 1.7485 -0.802819 0
M  V30 3633 O 334.945 1.90632 0.192359 0
M  V30 3634 C 335.139 1.50081 -3.24362 0
M  V30 3635 C 334.968 0.584579 -4.45884 0
M  V30 3636 C 333.738 0.219039 -5.04825 0
M  V30 3637 C 335.936 -0.121559 -5.14156 0
M  V30 3638 N 333.918 -0.702222 -6.09871 0
M  V30 3639 C 335.289 -0.899767 -6.13436 0
M  V30 3640 C 337.344 -0.192331 -4.97528 0
M  V30 3641 C 336.047 -1.74218 -6.97883 0
M  V30 3642 C 338.073 -1.02174 -5.82507 0
M  V30 3643 C 337.435 -1.78798 -6.8133 0
M  V30 3644 H 333.534 0.25293 -0.739967 0
M  V30 3645 H 336.118 0.0201744 -1.9469 0
M  V30 3646 H 334.289 2.21023 -3.1938 0
M  V30 3647 H 336.021 2.14409 -3.43236 0
M  V30 3648 H 332.776 0.57336 -4.70117 0
M  V30 3649 H 333.2 -1.15629 -6.67052 0
M  V30 3650 H 337.842 0.385741 -4.21037 0
M  V30 3651 H 335.56 -2.3312 -7.73745 0
M  V30 3652 H 339.146 -1.07957 -5.71696 0
M  V30 3653 H 338.026 -2.41942 -7.45945 0
M  V30 3654 N 335.529 1.53961 0.336706 0
M  V30 3655 C 336.492 1.81724 1.39675 0
M  V30 3656 C 337.492 0.688532 1.45313 0
M  V30 3657 O 338.682 0.956829 1.45569 0
M  V30 3658 C 335.814 1.96543 2.78538 0
M  V30 3659 H 337.007 2.76424 1.16318 0
M  V30 3660 H 334.56 1.45478 0.571474 0
M  V30 3661 H 335.295 1.0401 3.07168 0
M  V30 3662 H 335.08 2.78665 2.75841 0
M  V30 3663 H 336.57 2.19516 3.5525 0
M  V30 3664 N 337.007 -0.598083 1.45811 0
M  V30 3665 C 337.937 -1.71873 1.58057 0
M  V30 3666 C 338.918 -1.64533 0.431615 0
M  V30 3667 O 340.103 -1.82787 0.65595 0
M  V30 3668 C 337.233 -3.10495 1.55597 0
M  V30 3669 C 336.187 -3.32654 2.69305 0
M  V30 3670 C 335.513 -4.71646 2.51902 0
M  V30 3671 C 336.813 -3.21981 4.11248 0
M  V30 3672 H 338.507 -1.61881 2.51863 0
M  V30 3673 H 336.053 -0.777372 1.21214 0
M  V30 3674 H 338.006 -3.88699 1.6276 0
M  V30 3675 H 336.73 -3.2135 0.583255 0
M  V30 3676 H 335.389 -2.56843 2.61586 0
M  V30 3677 H 335.037 -4.79246 1.52748 0
M  V30 3678 H 334.737 -4.87426 3.2816 0
M  V30 3679 H 336.261 -5.52038 2.60933 0
M  V30 3680 H 337.675 -3.90049 4.20161 0
M  V30 3681 H 336.072 -3.49289 4.87972 0
M  V30 3682 H 337.142 -2.1928 4.32486 0
M  V30 3683 N 338.485 -1.33259 -0.841409 0
M  V30 3684 C 339.448 -1.23221 -1.9326 0
M  V30 3685 C 340.448 -0.151895 -1.60081 0
M  V30 3686 O 341.638 -0.403246 -1.69468 0
M  V30 3687 C 338.77 -0.898123 -3.28856 0
M  V30 3688 H 339.963 -2.2021 -2.03587 0
M  V30 3689 H 337.516 -1.17281 -1.03319 0
M  V30 3690 H 338.251 0.0693841 -3.24226 0
M  V30 3691 H 338.036 -1.67934 -3.54317 0
M  V30 3692 H 339.526 -0.852563 -4.08805 0
M  V30 3693 N 339.963 1.05934 -1.16686 0
M  V30 3694 C 341.212 1.78188 -0.945085 0
M  V30 3695 C 341.525 1.88338 0.528021 0
M  V30 3696 O 342.731 2.57258 0.867799 0
M  V30 3697 C 341.187 3.20277 -1.64167 0
M  V30 3698 C 340.795 3.18281 -3.15279 0
M  V30 3699 C 342.539 3.97039 -1.502 0
M  V30 3700 C 340.446 4.55112 -3.7766 0
M  V30 3701 H 339.376 0.667866 -0.349959 0
M  V30 3702 H 342.027 1.18794 -1.39858 0
M  V30 3703 H 340.409 3.79952 -1.11589 0
M  V30 3704 H 341.583 2.68167 -3.74731 0
M  V30 3705 H 339.898 2.55018 -3.29173 0
M  V30 3706 H 342.495 4.98194 -1.94183 0
M  V30 3707 H 342.838 4.13845 -0.451461 0
M  V30 3708 H 343.371 3.43894 -1.99954 0
M  V30 3709 H 340.11 4.43512 -4.82677 0
M  V30 3710 H 339.63 5.05406 -3.22994 0
M  V30 3711 H 341.309 5.24064 -3.79428 0
M  V30 3712 N 341.441 0.965919 1.2453 0
M  V30 3713 C 342.404 0.499547 2.2369 0
M  V30 3714 C 343.404 -0.40294 1.5567 0
M  V30 3715 O 344.594 -0.19865 1.73064 0
M  V30 3716 C 341.726 -0.276792 3.39774 0
M  V30 3717 H 342.919 1.37613 2.66463 0
M  V30 3718 H 340.472 0.750324 1.37112 0
M  V30 3719 H 341.207 -1.17055 3.02438 0
M  V30 3720 H 340.992 0.370826 3.90343 0
M  V30 3721 H 342.482 -0.592175 4.1338 0
M  V30 3722 N 342.919 -1.39368 0.735821 0
M  V30 3723 C 344.167 -2.00101 0.283562 0
M  V30 3724 C 344.488 -1.5868 -1.13338 0
M  V30 3725 O 343.758 -0.835423 -1.77193 0
M  V30 3726 H 342.338 -0.740024 0.101851 0
M  V30 3727 H 345 -1.70404 0.945962 0
M  V30 3728 H 344.096 -3.10323 0.332604 0
M  V30 3729 N 344.397 -0.483516 -1.5 0
M  V30 3730 C 345.643 0.0672592 -2.02688 0
M  V30 3731 C 345.976 1.38247 -1.36387 0
M  V30 3732 O 345.251 1.88131 -0.493675 0
M  V30 3733 C 345.534 0.238109 -3.59312 0
M  V30 3734 C 345.387 -1.099 -4.36168 0
M  V30 3735 C 346.706 0.986916 -4.28892 0
M  V30 3736 H 343.825 0.0229696 -0.736642 0
M  V30 3737 H 346.467 -0.631527 -1.79197 0
M  V30 3738 H 344.617 0.8333 -3.79458 0
M  V30 3739 H 346.289 -1.73172 -4.27562 0
M  V30 3740 H 344.532 -1.69261 -3.99416 0
M  V30 3741 H 345.203 -0.932954 -5.44059 0
M  V30 3742 H 347.679 0.482302 -4.13295 0
M  V30 3743 H 346.555 1.07527 -5.38265 0
M  V30 3744 H 346.816 2.0265 -3.92919 0
M  V30 3745 N 345.875 1.56104 -0.216619 0
M  V30 3746 C 347.121 1.98466 0.417033 0
M  V30 3747 C 347.454 1.10403 1.59765 0
M  V30 3748 O 346.729 0.160632 1.93836 0
M  V30 3749 C 347.012 3.49769 0.85637 0
M  V30 3750 C 346.865 4.48606 -0.327546 0
M  V30 3751 C 348.184 4.05339 1.7143 0
M  V30 3752 H 345.303 0.721551 0.150112 0
M  V30 3753 H 347.945 1.87423 -0.311864 0
M  V30 3754 H 346.095 3.5931 1.47745 0
M  V30 3755 H 347.767 4.5108 -0.965618 0
M  V30 3756 H 346.01 4.22682 -0.975805 0
M  V30 3757 H 346.681 5.51995 0.0227149 0
M  V30 3758 H 349.157 3.98712 1.19031 0
M  V30 3759 H 348.033 5.11533 1.99061 0
M  V30 3760 H 348.294 3.51918 2.67593 0
M  V30 3761 N 347.353 -0.0568162 1.57498 0
M  V30 3762 C 348.764 -0.606858 1.76562 0
M  V30 3763 C 349.115 -1.77114 0.844094 0
M  V30 3764 O 348.24 -2.16376 0.0318911 0
M  V30 3765 C 348.835 -1.10766 3.20182 0
M  V30 3766 C 347.394 -1.60344 3.40539 0
M  V30 3767 C 346.541 -0.529311 2.72201 0
M  V30 3768 H 349.492 0.169393 1.57793 0
M  V30 3769 H 349.513 -1.97602 3.25167 0
M  V30 3770 H 349.025 -0.26006 3.87228 0
M  V30 3771 H 347.126 -2.47379 2.78629 0
M  V30 3772 H 347.239 -1.67006 4.4905 0
M  V30 3773 H 345.603 -0.977893 2.35179 0
M  V30 3774 H 346.386 0.308352 3.41912 0
M  V30 3775 N 348.832 -1.54138 -0.328536 0
M  V30 3776 C 349.762 -1.86167 -1.40939 0
M  V30 3777 C 350.743 -0.718044 -1.54202 0
M  V30 3778 O 351.928 -0.971328 -1.68163 0
M  V30 3779 C 349.058 -2.08461 -2.77779 0
M  V30 3780 C 348.012 -3.24299 -2.7931 0
M  V30 3781 C 347.338 -3.31955 -4.19178 0
M  V30 3782 C 348.638 -4.62065 -2.43502 0
M  V30 3783 H 350.332 -2.76689 -1.14383 0
M  V30 3784 H 347.878 -1.33132 -0.548806 0
M  V30 3785 H 349.831 -2.29453 -3.53454 0
M  V30 3786 H 348.555 -1.14684 -3.05802 0
M  V30 3787 H 347.214 -3.03187 -2.0609 0
M  V30 3788 H 346.862 -2.35745 -4.44335 0
M  V30 3789 H 346.562 -4.09805 -4.2111 0
M  V30 3790 H 348.086 -3.55175 -4.96672 0
M  V30 3791 H 349.5 -4.8297 -3.08889 0
M  V30 3792 H 347.897 -5.42429 -2.56693 0
M  V30 3793 H 348.967 -4.64652 -1.38659 0
M  V30 3794 N 350.31 0.590341 -1.46126 0
M  V30 3795 C 351.24 1.71032 -1.58966 0
M  V30 3796 C 352.221 1.64302 -0.440335 0
M  V30 3797 O 353.406 1.82436 -0.665634 0
M  V30 3798 C 350.536 3.09665 -1.57241 0
M  V30 3799 C 349.49 3.31221 -2.71066 0
M  V30 3800 C 348.816 4.70303 -2.54399 0
M  V30 3801 C 350.116 3.19796 -4.1295 0
M  V30 3802 H 351.81 1.60543 -2.52718 0
M  V30 3803 H 349.356 0.770933 -1.21625 0
M  V30 3804 H 351.309 3.87831 -1.64819 0
M  V30 3805 H 350.033 3.21036 -0.600289 0
M  V30 3806 H 348.692 2.55452 -2.62944 0
M  V30 3807 H 348.34 4.78429 -1.55288 0
M  V30 3808 H 348.04 4.85679 -3.30741 0
M  V30 3809 H 349.564 5.50647 -2.63857 0
M  V30 3810 H 350.978 3.87815 -4.22223 0
M  V30 3811 H 349.375 3.46696 -4.89818 0
M  V30 3812 H 350.445 2.16983 -4.33643 0
M  V30 3813 N 351.788 1.33704 0.83433 0
M  V30 3814 C 352.718 1.26967 1.95963 0
M  V30 3815 C 353.699 0.149337 1.69443 0
M  V30 3816 O 354.884 0.339852 1.91203 0
M  V30 3817 C 352.014 1.01275 3.32206 0
M  V30 3818 C 350.968 2.09652 3.73136 0
M  V30 3819 C 350.294 1.69166 5.07235 0
M  V30 3820 C 351.594 3.51372 3.86439 0
M  V30 3821 H 353.288 2.2112 2.01857 0
M  V30 3822 H 350.834 1.06447 0.969793 0
M  V30 3823 H 352.787 0.952106 4.10503 0
M  V30 3824 H 351.511 0.0356203 3.26581 0
M  V30 3825 H 350.17 2.14766 2.97104 0
M  V30 3826 H 349.818 0.701437 4.98085 0
M  V30 3827 H 349.518 2.41694 5.35591 0
M  V30 3828 H 351.042 1.64576 5.88003 0
M  V30 3829 H 352.456 3.48734 4.55036 0
M  V30 3830 H 350.853 4.22425 4.26236 0
M  V30 3831 H 351.923 3.89546 2.88759 0
M  V30 3832 N 353.266 -1.05314 1.17247 0
M  V30 3833 C 354.213 -2.13031 0.888058 0
M  V30 3834 C 355.183 -1.65253 -0.167537 0
M  V30 3835 O 356.368 -1.90775 -0.0305974 0
M  V30 3836 C 353.508 -3.42702 0.406147 0
M  V30 3837 C 352.621 -4.04161 1.52572 0
M  V30 3838 C 351.756 -5.21744 0.997808 0
M  V30 3839 C 350.795 -5.75207 2.09291 0
M  V30 3840 N 349.932 -6.84094 1.57986 0
M  V30 3841 H 354.772 -2.36698 1.81048 0
M  V30 3842 H 352.309 -1.16121 0.903013 0
M  V30 3843 H 354.267 -4.17059 0.108305 0
M  V30 3844 H 352.897 -3.19222 -0.479313 0
M  V30 3845 H 351.949 -3.27253 1.93931 0
M  V30 3846 H 353.261 -4.39881 2.35172 0
M  V30 3847 H 352.415 -6.03168 0.653739 0
M  V30 3848 H 351.154 -4.87495 0.141232 0
M  V30 3849 H 350.159 -4.92414 2.44557 0
M  V30 3850 H 351.384 -6.11505 2.95362 0
M  V30 3851 H 349.33 -6.51745 0.74598 0
M  V30 3852 H 349.247 -7.18811 2.34195 0
M  V30 3853 H 350.515 -7.69172 1.26468 0
M  V30 3854 N 354.744 -0.972509 -1.24016 0
M  V30 3855 C 355.654 -0.5143 -2.28893 0
M  V30 3856 C 356.67 0.427078 -1.68677 0
M  V30 3857 O 357.846 0.298939 -1.99169 0
M  V30 3858 C 354.911 0.183598 -3.46214 0
M  V30 3859 C 353.972 -0.798202 -4.21814 0
M  V30 3860 C 353.205 -0.133514 -5.33533 0
M  V30 3861 O 353.428 1.07714 -5.60137 0
M  V30 3862 O 352.362 -0.828103 -5.96176 0
M  V30 3863 H 356.188 -1.38629 -2.70214 0
M  V30 3864 H 353.773 -0.739769 -1.29799 0
M  V30 3865 H 355.655 0.575433 -4.17453 0
M  V30 3866 H 354.33 1.03048 -3.0686 0
M  V30 3867 H 353.237 -1.24059 -3.52931 0
M  V30 3868 H 354.57 -1.61364 -4.64997 0
M  V30 3869 N 356.222 1.38976 -0.743202 0
M  V30 3870 C 357.154 2.29096 -0.0689228 0
M  V30 3871 C 358.167 1.47229 0.694791 0
M  V30 3872 O 359.356 1.70212 0.537597 0
M  V30 3873 C 356.456 3.25988 0.926548 0
M  V30 3874 C 355.629 4.36833 0.222647 0
M  V30 3875 C 354.688 5.13981 1.12739 0
M  V30 3876 O 353.714 5.6601 0.601795 0
M  V30 3877 N 354.916 5.25966 2.45641 0
M  V30 3878 H 357.681 2.87604 -0.842846 0
M  V30 3879 H 355.242 1.50645 -0.593109 0
M  V30 3880 H 357.234 3.74476 1.5346 0
M  V30 3881 H 355.804 2.68453 1.60162 0
M  V30 3882 H 355.024 3.90116 -0.565983 0
M  V30 3883 H 356.312 5.0811 -0.264841 0
M  V30 3884 H 355.71 4.85228 2.9081 0
M  V30 3885 H 354.267 5.77865 3.01522 0
M  V30 3886 N 357.7 0.491464 1.49741 0
M  V30 3887 C 358.928 -0.0535151 2.06831 0
M  V30 3888 C 359.343 -1.31683 1.35296 0
M  V30 3889 O 358.7 -1.77402 0.42836 0
M  V30 3890 C 358.751 -0.320835 3.60073 0
M  V30 3891 O 358.472 0.892394 4.28915 0
M  V30 3892 C 359.973 -0.910519 4.33848 0
M  V30 3893 H 357.193 0.0161909 0.670805 0
M  V30 3894 H 359.737 0.68609 1.92647 0
M  V30 3895 H 357.892 -1.0104 3.73991 0
M  V30 3896 H 358.306 0.649401 5.20464 0
M  V30 3897 H 359.78 -1.04721 5.41976 0
M  V30 3898 H 360.257 -1.90589 3.95692 0
M  V30 3899 H 360.863 -0.258712 4.24512 0
M  V30 3900 N 359.178 -1.55987 0.224894 0
M  V30 3901 C 360.427 -1.97566 -0.406273 0
M  V30 3902 C 360.74 -1.11569 -1.6066 0
M  V30 3903 O 361.946 -1.43062 -2.3075 0
M  V30 3904 C 360.402 -3.51474 -0.774207 0
M  V30 3905 C 360.01 -4.46179 0.403496 0
M  V30 3906 C 361.754 -4.01758 -1.37079 0
M  V30 3907 C 359.661 -5.91399 0.0129412 0
M  V30 3908 H 358.591 -0.737777 -0.155565 0
M  V30 3909 H 361.242 -1.80659 0.321635 0
M  V30 3910 H 359.624 -3.63994 -1.55963 0
M  V30 3911 H 360.798 -4.45409 1.18101 0
M  V30 3912 H 359.113 -4.06255 0.913536 0
M  V30 3913 H 361.71 -5.07756 -1.67596 0
M  V30 3914 H 362.053 -3.47805 -2.28773 0
M  V30 3915 H 362.586 -3.92475 -0.648733 0
M  V30 3916 H 359.325 -6.49341 0.896451 0
M  V30 3917 H 358.845 -5.95356 -0.728821 0
M  V30 3918 H 360.524 -6.45683 -0.412582 0
M  V30 3919 N 360.656 0.0484629 -1.57525 0
M  V30 3920 C 361.588 1.08222 -2.02041 0
M  V30 3921 C 362.601 1.33621 -0.930012 0
M  V30 3922 O 363.79 1.3145 -1.20761 0
M  V30 3923 C 360.89 2.42818 -2.36416 0
M  V30 3924 C 360.063 2.37049 -3.67596 0
M  V30 3925 C 359.122 3.53937 -3.89378 0
M  V30 3926 O 358.148 3.34308 -4.60681 0
M  V30 3927 N 359.35 4.75126 -3.3352 0
M  V30 3928 H 362.115 0.702946 -2.9134 0
M  V30 3929 H 359.676 0.236745 -1.6016 0
M  V30 3930 H 361.668 3.197 -2.48141 0
M  V30 3931 H 360.238 2.72661 -1.52888 0
M  V30 3932 H 359.458 1.45395 -3.66407 0
M  V30 3933 H 360.746 2.30318 -4.53686 0
M  V30 3934 H 360.144 4.93976 -2.75688 0
M  V30 3935 H 358.701 5.49439 -3.50656 0
M  V30 3936 N 362.134 1.5431 0.320358 0
M  V30 3937 C 363.38 1.72924 1.05949 0
M  V30 3938 C 363.713 0.503185 1.87568 0
M  V30 3939 O 362.988 -0.499839 1.87968 0
M  V30 3940 C 363.271 3.00676 1.98156 0
M  V30 3941 C 363.124 4.3354 1.19845 0
M  V30 3942 C 364.443 3.24198 2.9763 0
M  V30 3943 H 361.562 0.629195 0.383774 0
M  V30 3944 H 364.204 1.87008 0.335854 0
M  V30 3945 H 362.354 2.888 2.59859 0
M  V30 3946 H 364.026 4.57305 0.605773 0
M  V30 3947 H 362.269 4.309 0.500784 0
M  V30 3948 H 362.94 5.19156 1.87567 0
M  V30 3949 H 365.416 3.35557 2.4605 0
M  V30 3950 H 364.292 4.14938 3.59329 0
M  V30 3951 H 364.553 2.41577 3.7026 0
M  V30 3952 N 363.613 -0.582584 1.46437 0
M  V30 3953 C 365.024 -1.1647 1.45916 0
M  V30 3954 C 365.375 -1.95177 0.200077 0
M  V30 3955 O 364.5 -2.04874 -0.696819 0
M  V30 3956 C 365.095 -2.11885 2.64367 0
M  V30 3957 C 363.654 -2.65421 2.66887 0
M  V30 3958 C 362.801 -1.41294 2.38603 0
M  V30 3959 H 365.752 -0.370514 1.54314 0
M  V30 3960 H 365.773 -2.9535 2.39892 0
M  V30 3961 H 365.285 -1.54573 3.5599 0
M  V30 3962 H 363.386 -3.26602 1.79338 0
M  V30 3963 H 363.499 -3.08147 3.66854 0
M  V30 3964 H 361.863 -1.71109 1.88663 0
M  V30 3965 H 362.646 -0.858125 3.32402 0
M  V30 3966 N 365.091 -1.34144 -0.827227 0
M  V30 3967 C 366.339 -1.26009 -1.58007 0
M  V30 3968 C 366.66 0.170971 -1.94249 0
M  V30 3969 O 365.93 1.10256 -1.61927 0
M  V30 3970 H 364.51 -0.463414 -0.585881 0
M  V30 3971 H 367.172 -1.68005 -0.987951 0
M  V30 3972 H 366.268 -1.86187 -2.50481 0
M  V30 3973 N 366.569 1.04691 -1.17803 0
M  V30 3974 C 367.499 2.14494 -0.92275 0
M  V30 3975 C 368.48 1.69546 0.137179 0
M  V30 3976 O 369.665 1.94195 -0.0141108 0
M  V30 3977 C 366.795 3.44491 -0.440803 0
M  V30 3978 C 365.749 4.03031 -1.4405 0
M  V30 3979 C 365.075 5.28432 -0.81631 0
M  V30 3980 C 366.375 4.39932 -2.81527 0
M  V30 3981 H 368.069 2.36107 -1.84103 0
M  V30 3982 H 365.615 1.1347 -0.886599 0
M  V30 3983 H 367.568 4.2066 -0.249602 0
M  V30 3984 H 366.292 3.22546 0.513025 0
M  V30 3985 H 364.951 3.28937 -1.61853 0
M  V30 3986 H 364.599 5.02792 0.144511 0
M  V30 3987 H 364.299 5.68559 -1.48371 0
M  V30 3988 H 365.823 6.07284 -0.635496 0
M  V30 3989 H 367.237 5.07113 -2.67412 0
M  V30 3990 H 365.634 4.9109 -3.44892 0
M  V30 3991 H 366.704 3.50045 -3.35554 0
M  V30 3992 N 368.047 0.979072 1.23499 0
M  V30 3993 C 368.995 0.510604 2.26926 0
M  V30 3994 C 369.989 -0.431691 1.63807 0
M  V30 3995 O 371.195 -0.30573 1.77385 0
M  V30 3996 H 367.57 0.146688 0.737554 0
M  V30 3997 H 369.541 1.39466 2.63803 0
M  V30 3998 C 368.29 -0.172658 3.47271 0
M  V30 3999 H 367.613 0.543331 3.96091 0
M  V30 4000 H 369.053 -0.464101 4.21452 0
M  V30 4001 C 367.512 -1.40345 3.06276 0
M  V30 4002 O 368.042 -2.49978 3.14442 0
M  V30 4003 N 366.248 -1.27362 2.61203 0
M  V30 4004 H 365.795 -0.381584 2.54758 0
M  V30 4005 H 365.753 -2.09822 2.34141 0
M  V30 4006 N 369.525 -1.3858 0.750561 0
M  V30 4007 C 370.774 -1.99424 0.302172 0
M  V30 4008 C 371.087 -1.60254 -1.12152 0
M  V30 4009 O 372.293 -2.14046 -1.67023 0
M  V30 4010 C 370.749 -3.56558 0.489307 0
M  V30 4011 C 370.357 -4.04682 1.92189 0
M  V30 4012 C 372.101 -4.24374 0.103478 0
M  V30 4013 C 370.008 -5.54446 2.05775 0
M  V30 4014 H 368.938 -0.746046 0.10923 0
M  V30 4015 H 371.589 -1.58383 0.92667 0
M  V30 4016 H 369.971 -3.95472 -0.204329 0
M  V30 4017 H 371.145 -3.77065 2.64875 0
M  V30 4018 H 369.46 -3.4958 2.26236 0
M  V30 4019 H 372.057 -5.34384 0.183787 0
M  V30 4020 H 372.4 -4.05468 -0.943481 0
M  V30 4021 H 372.933 -3.90688 0.748854 0
M  V30 4022 H 369.672 -5.78252 3.08714 0
M  V30 4023 H 369.192 -5.83816 1.37546 0
M  V30 4024 H 370.871 -6.20099 1.84626 0
M  V30 4025 N 371.003 -0.499398 -1.49478 0
M  V30 4026 C 372.231 0.0425456 -2.06856 0
M  V30 4027 C 372.646 1.30964 -1.35992 0
M  V30 4028 O 372.003 1.77172 -0.437762 0
M  V30 4029 C 372.054 0.301735 -3.60239 0
M  V30 4030 O 371.775 -0.915127 -4.28436 0
M  V30 4031 C 373.276 0.887499 -4.34325 0
M  V30 4032 H 370.496 -0.0197482 -0.670709 0
M  V30 4033 H 373.04 -0.696297 -1.92281 0
M  V30 4034 H 371.195 0.990556 -3.74522 0
M  V30 4035 H 371.609 -0.676993 -5.20113 0
M  V30 4036 H 373.083 1.01845 -5.42523 0
M  V30 4037 H 373.56 1.88488 -3.96698 0
M  V30 4038 H 374.166 0.236196 -4.24644 0
M  V30 4039 N 372.481 1.55866 -0.233164 0
M  V30 4040 C 373.709 2.02998 0.399905 0
M  V30 4041 C 374.124 1.11274 1.52524 0
M  V30 4042 O 373.481 0.124528 1.82075 0
M  V30 4043 C 373.532 3.4958 0.920639 0
M  V30 4044 O 373.253 4.37808 -0.159834 0
M  V30 4045 C 374.754 4.12411 1.62578 0
M  V30 4046 H 371.974 0.664006 0.0966281 0
M  V30 4047 H 374.518 2.0143 -0.353013 0
M  V30 4048 H 372.673 3.51727 1.62379 0
M  V30 4049 H 373.087 5.23981 0.23337 0
M  V30 4050 H 374.561 5.16711 1.94201 0
M  V30 4051 H 375.038 3.5809 2.54299 0
M  V30 4052 H 375.644 4.14148 0.967553 0
M  V30 4053 N 373.959 -0.0401083 1.57549 0
M  V30 4054 C 375.199 -0.738098 1.90608 0
M  V30 4055 C 375.563 -1.73107 0.830539 0
M  V30 4056 O 376.764 -2.4765 1.04513 0
M  V30 4057 C 375.035 -1.39985 3.28845 0
M  V30 4058 S 376.594 -2.12852 3.83718 0
M  V30 4059 H 373.412 -0.24477 0.667539 0
M  V30 4060 H 376.014 0.00693599 1.95499 0
M  V30 4061 H 374.718 -0.663775 4.04997 0
M  V30 4062 H 374.249 -2.18366 3.2723 0
M  V30 4063 H 376.264 -3.39842 3.61555 0
M  V30 4064 N 375.437 -1.54477 -0.31217 0
M  V30 4065 C 376.387 -1.81037 -1.38598 0
M  V30 4066 C 377.371 -0.666941 -1.46426 0
M  V30 4067 O 378.563 -0.927269 -1.50767 0
M  V30 4068 C 375.692 -2.05127 -2.75277 0
M  V30 4069 C 374.778 -3.25624 -2.71716 0
M  V30 4070 N 375.169 -4.46428 -2.37773 0
M  V30 4071 C 373.467 -3.27427 -3.02833 0
M  V30 4072 C 374.168 -5.28406 -2.43232 0
M  V30 4073 N 373.144 -4.6586 -2.80135 0
M  V30 4074 H 376.946 -2.7201 -1.11301 0
M  V30 4075 H 374.46 -1.53826 -0.520705 0
M  V30 4076 H 376.457 -2.22299 -3.52688 0
M  V30 4077 H 375.117 -1.15416 -3.03495 0
M  V30 4078 H 376.128 -4.73227 -2.1042 0
M  V30 4079 H 372.805 -2.47786 -3.36018 0
M  V30 4080 H 374.195 -6.34903 -2.19882 0
M  V30 4081 N 376.915 0.57481 -1.46744 0
M  V30 4082 C 378.192 1.3352 -1.4294 0
M  V30 4083 C 378.572 2.10775 -0.117009 0
M  V30 4084 O 377.92 2.09966 0.901474 0
M  V30 4085 C 378.13 2.25456 -2.66403 0
M  V30 4086 C 379.478 2.87035 -3.12883 0
M  V30 4087 O 380.502 2.35766 -2.67007 0
M  V30 4088 O 379.361 3.80179 -3.92589 0
M  V30 4089 H 376.455 0.600318 -0.568812 0
M  V30 4090 H 379.001 0.595171 -1.58921 0
M  V30 4091 H 377.773 1.67851 -3.53471 0
M  V30 4092 H 377.396 3.06785 -2.52921 0
M  V30 4093 N 378.394 1.34581 0.820102 0
M  V30 4094 C 379.64 1.27285 1.57881 0
M  V30 4095 C 379.973 -0.156137 1.93571 0
M  V30 4096 O 379.248 -1.10222 1.60254 0
M  V30 4097 C 379.531 2.16639 2.87645 0
M  V30 4098 C 379.384 3.68088 2.58517 0
M  V30 4099 C 380.703 2.05378 3.8924 0
M  V30 4100 H 377.822 0.463714 0.572833 0
M  V30 4101 H 380.464 1.64859 0.944539 0
M  V30 4102 H 378.614 1.84725 3.41773 0
M  V30 4103 H 380.286 4.10382 2.10676 0
M  V30 4104 H 378.529 3.89038 1.91917 0
M  V30 4105 H 379.2 4.2598 3.51063 0
M  V30 4106 H 381.676 2.33404 3.44473 0
M  V30 4107 H 380.552 2.7012 4.77835 0
M  V30 4108 H 380.813 1.0316 4.29896 0
M  V30 4109 N 379.872 -1.04064 1.18357 0
M  V30 4110 C 380.802 -2.14001 0.934113 0
M  V30 4111 C 381.783 -1.69616 -0.128186 0
M  V30 4112 O 382.968 -1.94185 0.0244093 0
M  V30 4113 C 380.098 -3.44253 0.459066 0
M  V30 4114 C 379.052 -4.02261 1.46185 0
M  V30 4115 C 378.378 -5.27992 0.844322 0
M  V30 4116 C 379.678 -4.38432 2.83856 0
M  V30 4117 H 381.372 -2.35127 1.85352 0
M  V30 4118 H 378.918 -1.12998 0.892604 0
M  V30 4119 H 380.871 -4.20522 0.271907 0
M  V30 4120 H 379.595 -3.22813 -0.495912 0
M  V30 4121 H 378.254 -3.28074 1.63595 0
M  V30 4122 H 377.902 -5.02862 -0.117845 0
M  V30 4123 H 377.602 -5.67765 1.51384 0
M  V30 4124 H 379.126 -6.06938 0.667693 0
M  V30 4125 H 380.54 -5.05688 2.70098 0
M  V30 4126 H 378.937 -4.89254 3.47491 0
M  V30 4127 H 380.007 -3.4826 3.37406 0
M  V30 4128 N 381.35 -0.985608 -1.22978 0
M  V30 4129 C 382.298 -0.522631 -2.26652 0
M  V30 4130 C 383.292 0.422998 -1.64034 0
M  V30 4131 O 384.498 0.296319 -1.77544 0
M  V30 4132 H 380.873 -0.150597 -0.736766 0
M  V30 4133 H 382.844 -1.40863 -2.63059 0
M  V30 4134 C 381.593 0.154238 -3.47358 0
M  V30 4135 H 380.916 -0.564329 -3.95797 0
M  V30 4136 H 382.356 0.441744 -4.21693 0
M  V30 4137 C 380.815 1.38719 -3.07016 0
M  V30 4138 O 381.345 2.48307 -3.15764 0
M  V30 4139 N 379.551 1.25975 -2.61875 0
M  V30 4140 H 379.098 0.368068 -2.54957 0
M  V30 4141 H 379.056 2.08578 -2.3525 0
M  V30 4142 N 382.828 1.3818 -0.7579 0
M  V30 4143 C 383.738 2.3421 -0.135247 0
M  V30 4144 C 384.754 1.59487 0.695683 0
M  V30 4145 O 385.93 1.91657 0.618832 0
M  V30 4146 C 382.995 3.3862 0.744139 0
M  V30 4147 C 382.056 4.2918 -0.101658 0
M  V30 4148 C 381.289 5.28603 0.735851 0
M  V30 4149 O 381.512 5.35166 1.97366 0
M  V30 4150 O 380.446 6.01707 0.152372 0
M  V30 4151 H 384.272 2.8916 -0.928436 0
M  V30 4152 H 381.857 1.40101 -0.518855 0
M  V30 4153 H 383.739 4.02539 1.2466 0
M  V30 4154 H 382.414 2.86019 1.51575 0
M  V30 4155 H 381.321 3.68407 -0.650167 0
M  V30 4156 H 382.654 4.85048 -0.836024 0
M  V30 4157 N 384.306 0.507319 1.49211 0
M  V30 4158 C 385.534 -0.0315749 2.06876 0
M  V30 4159 C 385.949 -1.30241 1.36685 0
M  V30 4160 O 385.306 -1.76937 0.447152 0
M  V30 4161 C 385.357 -0.282627 3.60393 0
M  V30 4162 O 385.078 0.937835 4.27944 0
M  V30 4163 C 386.579 -0.864453 4.3479 0
M  V30 4164 H 383.799 0.0233048 0.670595 0
M  V30 4165 H 386.343 0.706484 1.91909 0
M  V30 4166 H 384.498 -0.97068 3.75042 0
M  V30 4167 H 384.912 0.704567 5.19746 0
M  V30 4168 H 386.386 -0.989664 5.43056 0
M  V30 4169 H 386.863 -1.86382 3.97692 0
M  V30 4170 H 387.469 -0.213672 4.24763 0
M  V30 4171 N 385.784 -1.5574 0.241426 0
M  V30 4172 C 386.714 -2.24133 -0.654722 0
M  V30 4173 C 387.695 -1.21974 -1.1856 0
M  V30 4174 O 388.88 -1.50612 -1.22595 0
M  V30 4175 C 386.01 -2.93659 -1.85423 0
M  V30 4176 C 384.964 -4.0246 -1.45636 0
M  V30 4177 C 384.29 -4.59383 -2.73626 0
M  V30 4178 C 385.59 -5.18468 -0.631506 0
M  V30 4179 H 387.284 -2.99281 -0.0844353 0
M  V30 4180 H 384.83 -1.43947 -0.0391707 0
M  V30 4181 H 386.783 -3.40203 -2.48676 0
M  V30 4182 H 385.507 -2.15991 -2.44981 0
M  V30 4183 H 384.166 -3.56676 -0.847202 0
M  V30 4184 H 383.814 -3.78422 -3.3137 0
M  V30 4185 H 383.514 -5.32826 -2.4773 0
M  V30 4186 H 385.038 -5.08658 -3.37786 0
M  V30 4187 H 386.452 -5.61272 -1.1682 0
M  V30 4188 H 384.849 -5.98266 -0.468831 0
M  V30 4189 H 385.919 -4.8358 0.357506 0
M  V30 4190 N 387.262 0.0317525 -1.57568 0
M  V30 4191 C 388.192 1.03274 -2.0942 0
M  V30 4192 C 389.173 1.3788 -0.996143 0
M  V30 4193 O 390.358 1.46811 -1.27122 0
M  V30 4194 C 387.488 2.33448 -2.57137 0
M  V30 4195 C 386.442 2.13091 -3.71182 0
M  V30 4196 C 385.768 3.49001 -4.05095 0
M  V30 4197 C 387.068 1.51928 -4.99715 0
M  V30 4198 H 388.762 0.60112 -2.93303 0
M  V30 4199 H 386.308 0.287705 -1.41097 0
M  V30 4200 H 388.261 3.03802 -2.92032 0
M  V30 4201 H 386.985 2.78665 -1.70333 0
M  V30 4202 H 385.644 1.45171 -3.36632 0
M  V30 4203 H 385.292 3.91862 -3.15362 0
M  V30 4204 H 384.992 3.36207 -4.81911 0
M  V30 4205 H 386.516 4.20721 -4.42522 0
M  V30 4206 H 387.93 2.12196 -5.32584 0
M  V30 4207 H 386.327 1.49716 -5.81124 0
M  V30 4208 H 387.397 0.484811 -4.8247 0
M  V30 4209 N 388.74 1.54641 0.303973 0
M  V30 4210 C 389.65 1.88439 1.39743 0
M  V30 4211 C 390.666 0.778239 1.55626 0
M  V30 4212 O 391.842 1.07442 1.70347 0
M  V30 4213 C 388.907 2.12212 2.74166 0
M  V30 4214 C 387.968 3.35936 2.67293 0
M  V30 4215 C 387.201 3.58566 3.95305 0
M  V30 4216 O 387.424 2.84263 4.9452 0
M  V30 4217 O 386.358 4.52078 3.97378 0
M  V30 4218 H 390.184 2.81458 1.14083 0
M  V30 4219 H 387.769 1.40793 0.499768 0
M  V30 4220 H 389.651 2.29067 3.53704 0
M  V30 4221 H 388.326 1.22379 2.99675 0
M  V30 4222 H 387.233 3.24448 1.86237 0
M  V30 4223 H 388.566 4.2589 2.46736 0
M  V30 4224 N 390.218 -0.567019 1.47046 0
M  V30 4225 C 391.466 -1.322 1.52864 0
M  V30 4226 C 391.787 -1.94088 0.188388 0
M  V30 4227 O 391.057 -1.7941 -0.786693 0
M  V30 4228 H 389.637 -0.490894 0.563056 0
M  V30 4229 H 392.299 -0.662879 1.83281 0
M  V30 4230 H 391.395 -2.12062 2.2899 0
M  V30 4231 N 391.696 -1.35014 -0.812953 0
M  V30 4232 C 392.926 -1.30841 -1.59888 0
M  V30 4233 C 393.334 0.117576 -1.88834 0
M  V30 4234 O 392.677 1.07807 -1.48739 0
M  V30 4235 C 392.739 -2.0412 -2.95931 0
M  V30 4236 C 392.403 -3.53336 -2.89832 0
M  V30 4237 C 393.4 -4.48052 -2.63714 0
M  V30 4238 C 391.085 -3.95894 -3.0915 0
M  V30 4239 C 393.079 -5.833 -2.56982 0
M  V30 4240 C 390.766 -5.31239 -3.0204 0
M  V30 4241 C 391.764 -6.24754 -2.75991 0
M  V30 4242 O 391.452 -7.57617 -2.68833 0
M  V30 4243 H 391.184 -0.451215 -0.50337 0
M  V30 4244 H 393.738 -1.78354 -1.01877 0
M  V30 4245 H 391.968 -1.51235 -3.559 0
M  V30 4246 H 393.657 -1.93107 -3.57022 0
M  V30 4247 H 394.423 -4.16492 -2.48515 0
M  V30 4248 H 390.302 -3.23495 -3.28438 0
M  V30 4249 H 393.846 -6.56263 -2.36569 0
M  V30 4250 H 389.743 -5.62415 -3.16796 0
M  V30 4251 H 390.511 -7.67469 -2.84487 0
M  V30 4252 N 393.175 1.03435 -1.18907 0
M  V30 4253 C 394.405 1.8012 -1.01195 0
M  V30 4254 C 394.813 1.8395 0.442613 0
M  V30 4255 O 394.156 1.27836 1.31923 0
M  V30 4256 C 394.218 3.26792 -1.49823 0
M  V30 4257 C 393.882 3.46609 -2.97844 0
M  V30 4258 C 394.879 3.37278 -3.95651 0
M  V30 4259 C 392.564 3.73001 -3.36416 0
M  V30 4260 C 394.558 3.54054 -5.30023 0
M  V30 4261 C 392.245 3.89423 -4.70949 0
M  V30 4262 C 393.243 3.79951 -5.67562 0
M  V30 4263 O 392.931 3.95895 -6.99659 0
M  V30 4264 H 392.663 0.573865 -0.357289 0
M  V30 4265 H 395.217 1.31207 -1.58031 0
M  V30 4266 H 393.447 3.76703 -0.873578 0
M  V30 4267 H 395.136 3.85055 -1.28404 0
M  V30 4268 H 395.902 3.16846 -3.67197 0
M  V30 4269 H 391.781 3.79469 -2.61772 0
M  V30 4270 H 395.325 3.46577 -6.05417 0
M  V30 4271 H 391.222 4.09351 -4.99101 0
M  V30 4272 H 391.99 4.13019 -7.06653 0
M  V30 4273 N 394.653 0.992116 1.22453 0
M  V30 4274 C 395.616 0.546883 2.2258 0
M  V30 4275 C 396.616 -0.369829 1.56489 0
M  V30 4276 O 397.806 -0.161896 1.73446 0
M  V30 4277 C 394.938 -0.204659 3.40285 0
M  V30 4278 H 396.131 1.43234 2.63484 0
M  V30 4279 H 393.684 0.779239 1.3549 0
M  V30 4280 H 394.419 -1.10614 3.04853 0
M  V30 4281 H 394.204 0.45354 3.89468 0
M  V30 4282 H 395.694 -0.504358 4.14543 0
M  V30 4283 N 396.131 -1.37776 0.765217 0
M  V30 4284 C 397.361 -2.03828 0.337277 0
M  V30 4285 C 397.769 -1.57841 -1.04321 0
M  V30 4286 O 397.112 -0.752043 -1.67601 0
M  V30 4287 C 397.174 -3.58292 0.294407 0
M  V30 4288 C 396.838 -4.27384 1.61838 0
M  V30 4289 C 397.835 -4.51956 2.56967 0
M  V30 4290 C 395.52 -4.65345 1.89102 0
M  V30 4291 C 397.514 -5.13536 3.77571 0
M  V30 4292 C 395.201 -5.26647 3.09978 0
M  V30 4293 C 396.199 -5.50679 4.04032 0
M  V30 4294 O 395.887 -6.10702 5.2278 0
M  V30 4295 H 395.619 -0.661292 0.140248 0
M  V30 4296 H 398.173 -1.77222 1.03834 0
M  V30 4297 H 396.403 -3.83918 -0.462983 0
M  V30 4298 H 398.092 -4.05763 -0.105581 0
M  V30 4299 H 398.858 -4.23048 2.37183 0
M  V30 4300 H 394.737 -4.45978 1.16725 0
M  V30 4301 H 398.281 -5.3221 4.50997 0
M  V30 4302 H 394.178 -5.54979 3.29649 0
M  V30 4303 H 394.946 -6.29183 5.23517 0
M  V30 4304 N 397.609 -0.515225 -1.4894 0
M  V30 4305 C 398.839 0.0205735 -2.0659 0
M  V30 4306 C 399.247 1.30064 -1.37405 0
M  V30 4307 O 398.59 1.78087 -0.450632 0
M  V30 4308 C 398.652 0.330124 -3.57981 0
M  V30 4309 C 398.316 -0.854295 -4.48944 0
M  V30 4310 C 399.313 -1.7487 -4.89609 0
M  V30 4311 C 396.998 -1.05712 -4.9105 0
M  V30 4312 C 398.992 -2.82996 -5.71132 0
M  V30 4313 C 396.679 -2.14154 -5.72347 0
M  V30 4314 C 397.677 -3.0263 -6.12294 0
M  V30 4315 O 397.365 -4.09198 -6.91962 0
M  V30 4316 H 397.097 -0.0236833 -0.675585 0
M  V30 4317 H 399.651 -0.715956 -1.92518 0
M  V30 4318 H 397.881 1.12044 -3.70112 0
M  V30 4319 H 399.57 0.806233 -3.97812 0
M  V30 4320 H 400.336 -1.60388 -4.57712 0
M  V30 4321 H 396.215 -0.377788 -4.59449 0
M  V30 4322 H 399.759 -3.52083 -6.02232 0
M  V30 4323 H 395.656 -2.28626 -6.03656 0
M  V30 4324 H 396.424 -4.06726 -7.10293 0
M  V30 4325 N 399.087 1.5561 -0.249682 0
M  V30 4326 C 400.334 1.99011 0.374287 0
M  V30 4327 C 400.662 1.13785 1.57744 0
M  V30 4328 O 399.917 0.189326 1.94782 0
M  V30 4329 C 400.216 3.4775 0.824887 0
M  V30 4330 C 399.882 4.50086 -0.270819 0
M  V30 4331 C 398.544 4.77791 -0.571746 0
M  V30 4332 C 400.896 5.11312 -1.01041 0
M  V30 4333 C 398.224 5.63997 -1.61629 0
M  V30 4334 C 400.576 5.98651 -2.0445 0
M  V30 4335 C 399.24 6.24688 -2.35204 0
M  V30 4336 H 398.51 0.728233 0.136961 0
M  V30 4337 H 401.157 1.88122 -0.358087 0
M  V30 4338 H 399.462 3.55985 1.63651 0
M  V30 4339 H 401.159 3.78721 1.31799 0
M  V30 4340 H 397.749 4.28592 -0.026136 0
M  V30 4341 H 401.933 4.89953 -0.791177 0
M  V30 4342 H 397.189 5.82425 -1.85988 0
M  V30 4343 H 401.363 6.45135 -2.62248 0
M  V30 4344 H 398.99 6.91281 -3.16282 0
M  V30 4345 N 400.565 -0.0233959 1.57583 0
M  V30 4346 C 401.79 -0.728376 1.94189 0
M  V30 4347 C 402.215 -1.67793 0.850119 0
M  V30 4348 O 401.573 -1.80262 -0.19371 0
M  V30 4349 C 401.621 -1.45669 3.29868 0
M  V30 4350 O 400.725 -2.57013 3.22518 0
M  V30 4351 H 400.066 -0.195493 0.63457 0
M  V30 4352 H 402.596 0.0228214 2.04587 0
M  V30 4353 H 402.606 -1.82535 3.6489 0
M  V30 4354 H 401.281 -0.760314 4.08891 0
M  V30 4355 H 399.858 -2.22648 2.99136 0
M  V30 4356 N 402.043 -1.548 -0.295768 0
M  V30 4357 C 403.006 -1.85363 -1.34808 0
M  V30 4358 C 404.006 -0.726817 -1.43436 0
M  V30 4359 O 405.196 -0.995088 -1.42981 0
M  V30 4360 C 402.328 -2.03859 -2.73229 0
M  V30 4361 H 403.521 -2.7941 -1.08949 0
M  V30 4362 H 401.074 -1.46942 -0.532702 0
M  V30 4363 H 401.809 -1.12117 -3.04303 0
M  V30 4364 H 401.594 -2.8588 -2.68356 0
M  V30 4365 H 403.084 -2.28857 -3.49305 0
M  V30 4366 N 403.521 0.559213 -1.47345 0
M  V30 4367 C 404.768 1.31648 -1.53867 0
M  V30 4368 C 405.096 1.93468 -0.200104 0
M  V30 4369 O 404.351 1.78295 0.806799 0
M  V30 4370 C 404.65 2.44853 -2.6035 0
M  V30 4371 C 404.316 2.00876 -4.03683 0
M  V30 4372 C 402.978 1.88599 -4.42701 0
M  V30 4373 C 405.33 1.67279 -4.93626 0
M  V30 4374 C 402.658 1.41017 -5.69501 0
M  V30 4375 C 405.01 1.21169 -6.20887 0
M  V30 4376 C 403.674 1.07487 -6.58789 0
M  V30 4377 H 402.944 0.481734 -0.56304 0
M  V30 4378 H 405.591 0.627301 -1.80934 0
M  V30 4379 H 403.896 3.19318 -2.27032 0
M  V30 4380 H 405.593 3.03039 -2.62619 0
M  V30 4381 H 402.183 2.11374 -3.72853 0
M  V30 4382 H 406.367 1.75638 -4.64182 0
M  V30 4383 H 401.623 1.29086 -5.97618 0
M  V30 4384 H 405.797 0.942345 -6.89995 0
M  V30 4385 H 403.424 0.703946 -7.56934 0
M  V30 4386 N 404.999 1.35443 0.805782 0
M  V30 4387 C 406.224 1.32037 1.59941 0
M  V30 4388 C 406.649 -0.0994215 1.87837 0
M  V30 4389 O 406.007 -1.06648 1.46615 0
M  V30 4390 C 406.055 2.13354 2.90711 0
M  V30 4391 O 405.159 1.5148 3.83572 0
M  V30 4392 H 404.5 0.452666 0.485787 0
M  V30 4393 H 407.03 1.78496 1.00002 0
M  V30 4394 H 407.04 2.25338 3.40128 0
M  V30 4395 H 405.715 3.16572 2.69732 0
M  V30 4396 H 404.292 1.4834 3.42125 0
M  V30 4397 N 406.477 -1.02803 1.19454 0
M  V30 4398 C 407.44 -2.09264 0.934955 0
M  V30 4399 C 408.44 -1.60576 -0.0849015 0
M  V30 4400 O 409.63 -1.73554 0.149933 0
M  V30 4401 C 406.762 -3.38482 0.40531 0
M  V30 4402 H 407.955 -2.33726 1.87916 0
M  V30 4403 H 405.508 -1.19426 1.00832 0
M  V30 4404 H 406.243 -3.19689 -0.544899 0
M  V30 4405 H 406.028 -3.75142 1.14065 0
M  V30 4406 H 407.518 -4.16894 0.242806 0
M  V30 4407 N 407.956 -0.998596 -1.21925 0
M  V30 4408 C 409.202 -0.678667 -1.91107 0
M  V30 4409 C 409.535 0.78791 -1.77498 0
M  V30 4410 O 408.81 1.57043 -1.1475 0
M  V30 4411 C 409.093 -1.09245 -3.43129 0
M  V30 4412 C 408.946 -2.61801 -3.6576 0
M  V30 4413 C 410.265 -0.649984 -4.35274 0
M  V30 4414 H 407.384 -0.248025 -0.694012 0
M  V30 4415 H 410.026 -1.24314 -1.43688 0
M  V30 4416 H 408.176 -0.612171 -3.83647 0
M  V30 4417 H 409.848 -3.17543 -3.34611 0
M  V30 4418 H 408.091 -3.03609 -3.09845 0
M  V30 4419 H 408.762 -2.85804 -4.7225 0
M  V30 4420 H 411.238 -1.0626 -4.02303 0
M  V30 4421 H 410.114 -0.967743 -5.40302 0
M  V30 4422 H 410.375 0.449139 -4.39813 0
M  V30 4423 N 409.434 1.37368 -0.772513 0
M  V30 4424 C 410.681 1.99673 -0.337182 0
M  V30 4425 C 411.009 1.61324 1.0865 0
M  V30 4426 O 410.264 0.851377 1.7621 0
M  V30 4427 C 410.563 3.54817 -0.428876 0
M  V30 4428 C 410.229 4.12936 -1.81092 0
M  V30 4429 C 408.891 4.28523 -2.1891 0
M  V30 4430 C 411.243 4.44801 -2.71664 0
M  V30 4431 C 408.571 4.73277 -3.46735 0
M  V30 4432 C 410.923 4.90981 -3.98899 0
M  V30 4433 C 409.587 5.04773 -4.36761 0
M  V30 4434 H 408.857 0.730656 -0.123384 0
M  V30 4435 H 411.504 1.64124 -0.986686 0
M  V30 4436 H 409.809 3.90618 0.304167 0
M  V30 4437 H 411.506 4.00933 -0.0733334 0
M  V30 4438 H 408.096 4.01233 -1.50699 0
M  V30 4439 H 412.28 4.32344 -2.43706 0
M  V30 4440 H 407.536 4.82142 -3.75964 0
M  V30 4441 H 411.71 5.14603 -4.69208 0
M  V30 4442 H 409.337 5.39211 -5.35868 0
M  V30 4443 N 410.912 0.523116 1.48665 0
M  V30 4444 C 412.159 -0.0134763 2.02496 0
M  V30 4445 C 412.487 -1.3493 1.40086 0
M  V30 4446 O 411.742 -1.88286 0.533567 0
M  V30 4447 C 412.041 -0.191671 3.56886 0
M  V30 4448 C 411.707 1.06893 4.38046 0
M  V30 4449 C 410.369 1.41443 4.59943 0
M  V30 4450 C 412.721 1.90584 4.85106 0
M  V30 4451 C 410.049 2.59594 5.26144 0
M  V30 4452 C 412.401 3.07907 5.52609 0
M  V30 4453 C 411.065 3.42811 5.72745 0
M  V30 4454 H 410.335 -0.00493133 0.740984 0
M  V30 4455 H 412.982 0.687751 1.78724 0
M  V30 4456 H 411.287 -0.97561 3.79459 0
M  V30 4457 H 412.984 -0.621659 3.96152 0
M  V30 4458 H 409.574 0.789848 4.21259 0
M  V30 4459 H 413.758 1.65203 4.67997 0
M  V30 4460 H 409.014 2.86847 5.39934 0
M  V30 4461 H 413.188 3.73066 5.88043 0
M  V30 4462 H 410.815 4.34462 6.23816 0
M  V30 4463 N 412.39 -1.55475 0.257931 0
M  V30 4464 C 413.637 -1.99207 -0.363728 0
M  V30 4465 C 413.965 -1.1462 -1.57139 0
M  V30 4466 O 413.22 -0.199653 -1.94679 0
M  V30 4467 C 413.519 -3.48183 -0.806433 0
M  V30 4468 C 413.185 -4.49936 0.294684 0
M  V30 4469 C 411.847 -4.77481 0.597076 0
M  V30 4470 C 414.199 -5.10769 1.03751 0
M  V30 4471 C 411.527 -5.63132 1.64618 0
M  V30 4472 C 413.879 -5.97558 2.07622 0
M  V30 4473 C 412.543 -6.23432 2.38514 0
M  V30 4474 H 411.813 -0.728949 -0.133097 0
M  V30 4475 H 414.46 -1.8793 0.368059 0
M  V30 4476 H 412.765 -3.56848 -1.61761 0
M  V30 4477 H 414.462 -3.79415 -1.29789 0
M  V30 4478 H 411.052 -4.28572 0.0488649 0
M  V30 4479 H 415.236 -4.89527 0.817149 0
M  V30 4480 H 410.492 -5.8143 1.89074 0
M  V30 4481 H 414.666 -6.43735 2.65666 0
M  V30 4482 H 412.293 -6.89594 3.19943 0
M  V30 4483 N 413.868 0.0150385 -1.57593 0
M  V30 4484 C 415.114 0.704043 -1.90187 0
M  V30 4485 C 415.447 1.74249 -0.857366 0
M  V30 4486 O 414.722 1.94092 0.125843 0
M  V30 4487 C 415.005 1.36087 -3.33395 0
M  V30 4488 C 414.858 0.334981 -4.48551 0
M  V30 4489 C 416.177 2.29112 -3.7576 0
M  V30 4490 H 413.296 0.254475 -0.691673 0
M  V30 4491 H 415.938 -0.0331678 -1.89971 0
M  V30 4492 H 414.088 1.98922 -3.3371 0
M  V30 4493 H 415.76 -0.292534 -4.60372 0
M  V30 4494 H 414.003 -0.344325 -4.32431 0
M  V30 4495 H 414.674 0.833316 -5.45674 0
M  V30 4496 H 417.15 1.76308 -3.76902 0
M  V30 4497 H 416.026 2.72043 -4.76743 0
M  V30 4498 H 416.287 3.16385 -3.08793 0
M  V30 4499 N 415.346 1.54954 0.287554 0
M  V30 4500 C 416.757 1.65732 0.859634 0
M  V30 4501 C 417.108 0.574767 1.87592 0
M  V30 4502 O 416.233 -0.286299 2.14498 0
M  V30 4503 C 416.828 3.00438 1.56597 0
M  V30 4504 C 415.387 3.13292 2.08627 0
M  V30 4505 C 414.534 2.61473 0.923416 0
M  V30 4506 H 417.485 1.5857 0.0642338 0
M  V30 4507 H 417.506 2.92613 2.43224 0
M  V30 4508 H 417.018 3.79207 0.826053 0
M  V30 4509 H 415.119 2.39268 2.85625 0
M  V30 4510 H 415.232 4.19647 2.31157 0
M  V30 4511 H 413.596 2.18264 1.31275 0
M  V30 4512 H 414.379 3.42733 0.197241 0
M  V30 4513 N 416.824 -0.551391 1.4764 0
M  V30 4514 C 417.754 -1.66757 1.63445 0
M  V30 4515 C 418.735 -1.63077 0.483742 0
M  V30 4516 O 419.92 -1.80607 0.71377 0
M  V30 4517 C 417.05 -3.05387 1.65396 0
M  V30 4518 C 416.004 -3.23918 2.79752 0
M  V30 4519 C 415.33 -4.63393 2.66779 0
M  V30 4520 C 416.63 -3.08735 4.21284 0
M  V30 4521 H 418.324 -1.53786 2.56886 0
M  V30 4522 H 415.87 -0.738415 1.23626 0
M  V30 4523 H 417.823 -3.83325 1.75043 0
M  V30 4524 H 416.547 -3.19332 0.685195 0
M  V30 4525 H 415.206 -2.48391 2.69625 0
M  V30 4526 H 414.854 -4.74144 1.67918 0
M  V30 4527 H 414.554 -4.7674 3.43501 0
M  V30 4528 H 416.078 -5.43458 2.78364 0
M  V30 4529 H 417.492 -3.76484 4.32357 0
M  V30 4530 H 415.889 -3.33588 4.98838 0
M  V30 4531 H 416.959 -2.0541 4.39243 0
M  V30 4532 N 418.302 -1.35869 -0.798587 0
M  V30 4533 C 419.551 -1.28921 -1.5512 0
M  V30 4534 C 419.864 0.13208 -1.95154 0
M  V30 4535 O 421.07 0.323879 -2.69561 0
M  V30 4536 C 419.526 -2.26141 -2.79979 0
M  V30 4537 C 419.134 -3.73658 -2.47151 0
M  V30 4538 C 420.878 -2.28152 -3.57976 0
M  V30 4539 C 418.785 -4.62679 -3.6835 0
M  V30 4540 H 417.715 -0.479031 -0.582276 0
M  V30 4541 H 420.366 -1.61179 -0.877125 0
M  V30 4542 H 418.748 -1.86865 -3.49138 0
M  V30 4543 H 419.922 -4.21616 -1.85947 0
M  V30 4544 H 418.237 -3.74333 -1.82383 0
M  V30 4545 H 420.834 -2.91875 -4.4801 0
M  V30 4546 H 421.177 -1.28748 -3.95891 0
M  V30 4547 H 421.71 -2.65998 -2.95787 0
M  V30 4548 H 418.449 -5.63111 -3.35538 0
M  V30 4549 H 417.969 -4.19442 -4.28752 0
M  V30 4550 H 419.648 -4.78498 -4.35487 0
M  V30 4551 N 419.78 1.02168 -1.19998 0
M  V30 4552 C 421.029 1.75091 -1.0013 0
M  V30 4553 C 421.342 1.89923 0.467835 0
M  V30 4554 O 422.548 2.59888 0.785515 0
M  V30 4555 C 421.004 3.14892 -1.74273 0
M  V30 4556 C 420.612 3.0809 -3.25245 0
M  V30 4557 C 422.356 3.9206 -1.62755 0
M  V30 4558 C 420.263 4.42867 -3.91948 0
M  V30 4559 H 419.193 0.656394 -0.37103 0
M  V30 4560 H 421.844 1.14284 -1.43567 0
M  V30 4561 H 420.226 3.7621 -1.2362 0
M  V30 4562 H 421.4 2.5611 -3.83072 0
M  V30 4563 H 419.715 2.44416 -3.3712 0
M  V30 4564 H 422.312 4.91764 -2.09934 0
M  V30 4565 H 422.655 4.12199 -0.582894 0
M  V30 4566 H 423.188 3.37359 -2.10793 0
M  V30 4567 H 419.927 4.27931 -4.96543 0
M  V30 4568 H 419.447 4.94874 -3.3891 0
M  V30 4569 H 421.126 5.11728 -3.95909 0
M  V30 4570 N 421.258 1.00505 1.21394 0
M  V30 4571 C 422.483 0.706367 1.95001 0
M  V30 4572 C 422.908 -0.72463 1.73582 0
M  V30 4573 O 422.266 -1.49702 1.0227 0
M  V30 4574 C 422.314 1.03299 3.45487 0
M  V30 4575 O 421.418 0.138275 4.12168 0
M  V30 4576 H 420.759 0.263175 0.609619 0
M  V30 4577 H 423.289 1.34531 1.54151 0
M  V30 4578 H 423.299 0.979872 3.96059 0
M  V30 4579 H 421.974 2.07567 3.60401 0
M  V30 4580 H 420.551 0.247928 3.72075 0
M  V30 4581 N 422.737 -1.36956 0.779787 0
M  V30 4582 C 423.965 -2.03755 0.359398 0
M  V30 4583 C 424.38 -1.58807 -1.02106 0
M  V30 4584 O 423.737 -0.773024 -1.6532 0
M  V30 4585 C 423.788 -3.59251 0.402568 0
M  V30 4586 O 423.509 -4.02557 1.72858 0
M  V30 4587 C 425.01 -4.43291 -0.0284068 0
M  V30 4588 H 422.23 -0.654148 0.149437 0
M  V30 4589 H 424.774 -1.75128 1.05595 0
M  V30 4590 H 422.929 -3.86621 -0.245478 0
M  V30 4591 H 423.343 -4.97111 1.67275 0
M  V30 4592 H 424.817 -5.51975 0.0529466 0
M  V30 4593 H 425.294 -4.25719 -1.07982 0
M  V30 4594 H 425.9 -4.21163 0.591758 0
M  V30 4595 N 424.215 -0.530993 -1.48385 0
M  V30 4596 C 425.461 0.00274135 -2.028 0
M  V30 4597 C 425.794 1.33838 -1.40716 0
M  V30 4598 O 425.069 1.86465 -0.553277 0
M  V30 4599 C 425.352 0.123676 -3.59888 0
M  V30 4600 C 425.205 -1.2372 -4.3245 0
M  V30 4601 C 426.524 0.849967 -4.31814 0
M  V30 4602 H 423.643 -0.000477758 -0.737 0
M  V30 4603 H 426.285 -0.688217 -1.77098 0
M  V30 4604 H 424.435 0.712157 -3.81917 0
M  V30 4605 H 426.107 -1.86687 -4.21836 0
M  V30 4606 H 424.35 -1.81882 -3.93829 0
M  V30 4607 H 425.021 -1.10557 -5.40815 0
M  V30 4608 H 427.497 0.350572 -4.14621 0
M  V30 4609 H 426.373 0.903486 -5.41413 0
M  V30 4610 H 426.634 1.90047 -3.99167 0
M  V30 4611 N 425.693 1.55336 -0.266172 0
M  V30 4612 C 426.933 2.01303 0.354459 0
M  V30 4613 C 427.297 1.15046 1.53715 0
M  V30 4614 O 428.498 1.50554 2.22681 0
M  V30 4615 C 426.769 3.49748 0.735579 0
M  V30 4616 S 428.328 4.1771 1.34401 0
M  V30 4617 H 425.146 0.702333 0.110674 0
M  V30 4618 H 427.748 1.91653 -0.385916 0
M  V30 4619 H 426.452 4.10181 -0.134196 0
M  V30 4620 H 425.983 3.63364 1.50764 0
M  V30 4621 H 427.998 4.20594 2.63278 0
M  V30 4622 N 427.171 -0.0066808 1.57599 0
M  V30 4623 C 428.401 -0.703066 1.94269 0
M  V30 4624 C 428.809 -1.68206 0.866222 0
M  V30 4625 O 428.152 -1.82966 -0.164087 0
M  V30 4626 C 428.214 -1.49616 3.26887 0
M  V30 4627 C 427.878 -0.679494 4.5192 0
M  V30 4628 C 428.875 0.0299508 5.19891 0
M  V30 4629 C 426.56 -0.627433 4.98366 0
M  V30 4630 C 428.554 0.780514 6.32603 0
M  V30 4631 C 426.241 0.126861 6.10968 0
M  V30 4632 C 427.239 0.829574 6.77943 0
M  V30 4633 O 426.927 1.57157 7.88389 0
M  V30 4634 H 426.659 -0.201217 0.645359 0
M  V30 4635 H 429.213 0.0385326 2.05364 0
M  V30 4636 H 427.443 -2.28209 3.12182 0
M  V30 4637 H 429.132 -2.07726 3.48719 0
M  V30 4638 H 429.898 -0.00115963 4.85 0
M  V30 4639 H 425.777 -1.16392 4.46065 0
M  V30 4640 H 429.321 1.32954 6.84813 0
M  V30 4641 H 425.218 0.159815 6.45302 0
M  V30 4642 H 425.986 1.48758 8.04868 0
M  V30 4643 N 428.649 -1.55105 -0.279332 0
M  V30 4644 C 429.895 -1.75672 -1.01327 0
M  V30 4645 C 430.228 -0.552739 -1.86168 0
M  V30 4646 O 429.503 0.449827 -1.89227 0
M  V30 4647 C 429.786 -3.05825 -1.90114 0
M  V30 4648 C 429.639 -4.36565 -1.08309 0
M  V30 4649 C 430.958 -3.31975 -2.8893 0
M  V30 4650 H 428.077 -0.639149 -0.366957 0
M  V30 4651 H 430.719 -1.87833 -0.286154 0
M  V30 4652 H 428.869 -2.95588 -2.52111 0
M  V30 4653 H 430.541 -4.58751 -0.484314 0
M  V30 4654 H 428.784 -4.32076 -0.386362 0
M  V30 4655 H 429.455 -5.23946 -1.73737 0
M  V30 4656 H 431.931 -3.41963 -2.37067 0
M  V30 4657 H 430.807 -4.2432 -3.48201 0
M  V30 4658 H 431.068 -2.51309 -3.63725 0
M  V30 4659 N 430.127 0.543554 -1.4793 0
M  V30 4660 C 431.352 1.32995 -1.59145 0
M  V30 4661 C 431.777 1.86472 -0.246956 0
M  V30 4662 O 431.135 1.63696 0.779324 0
M  V30 4663 C 431.183 2.46623 -2.63077 0
M  V30 4664 O 430.287 3.49261 -2.19295 0
M  V30 4665 H 429.628 0.394472 -0.534124 0
M  V30 4666 H 432.158 0.655489 -1.93816 0
M  V30 4667 H 432.168 2.93001 -2.83926 0
M  V30 4668 H 430.843 2.07059 -3.60693 0
M  V30 4669 H 429.42 3.09094 -2.08603 0
M  V30 4670 N 431.605 1.3629 0.791371 0
M  V30 4671 C 432.854 1.29742 1.54434 0
M  V30 4672 C 433.167 -0.121729 1.95221 0
M  V30 4673 O 434.373 -0.309579 2.69729 0
M  V30 4674 C 432.829 2.27623 2.78776 0
M  V30 4675 C 432.437 3.74963 2.45166 0
M  V30 4676 C 434.181 2.30047 3.56761 0
M  V30 4677 C 432.088 4.64626 3.65891 0
M  V30 4678 H 431.018 0.482113 0.579727 0
M  V30 4679 H 433.669 1.61642 0.868565 0
M  V30 4680 H 432.051 1.88714 3.48142 0
M  V30 4681 H 433.225 4.22596 1.83709 0
M  V30 4682 H 431.54 3.75295 1.80396 0
M  V30 4683 H 434.137 2.94247 4.46456 0
M  V30 4684 H 434.48 1.30846 3.95203 0
M  V30 4685 H 435.013 2.67563 2.94372 0
M  V30 4686 H 431.752 5.64883 3.32547 0
M  V30 4687 H 431.272 4.2171 4.26521 0
M  V30 4688 H 432.951 4.80801 4.32943 0
M  V30 4689 N 433.083 -1.0153 1.20538 0
M  V30 4690 C 434.332 -1.74558 1.01057 0
M  V30 4691 C 434.645 -1.90168 -0.457756 0
M  V30 4692 O 435.851 -2.60301 -0.771722 0
M  V30 4693 C 434.307 -3.13963 1.75941 0
M  V30 4694 C 433.915 -3.06361 3.26875 0
M  V30 4695 C 435.659 -3.91191 1.64832 0
M  V30 4696 C 433.566 -4.40782 3.94291 0
M  V30 4697 H 432.496 -0.654417 0.374505 0
M  V30 4698 H 435.147 -1.13521 1.44171 0
M  V30 4699 H 433.529 -3.75549 1.25614 0
M  V30 4700 H 434.703 -2.54074 3.84425 0
M  V30 4701 H 433.018 -2.42625 3.38411 0
M  V30 4702 H 435.615 -4.90644 2.12539 0
M  V30 4703 H 435.958 -4.11884 0.604745 0
M  V30 4704 H 436.491 -3.36236 2.12579 0
M  V30 4705 H 433.23 -4.25292 4.98805 0
M  V30 4706 H 432.75 -4.9307 3.41529 0
M  V30 4707 H 434.429 -5.09621 3.98617 0
M  V30 4708 N 434.561 -1.01147 -1.20859 0
M  V30 4709 C 435.977 -0.725422 -1.42161 0
M  V30 4710 C 436.177 0.696919 -1.89064 0
M  V30 4711 O 435.233 1.46539 -2.05627 0
M  V30 4712 C 436.546 -1.74678 -2.44761 0
M  V30 4713 C 438.094 -1.76433 -2.58535 0
M  V30 4714 C 438.569 -2.77481 -3.64374 0
M  V30 4715 N 440.06 -2.76189 -3.71852 0
M  V30 4716 C 440.795 -3.51035 -4.53389 0
M  V30 4717 N 440.291 -4.35541 -5.38773 0
M  V30 4718 N 442.084 -3.39655 -4.47873 0
M  V30 4719 H 434.235 -1.92979 -0.887282 0
M  V30 4720 H 436.498 -0.833327 -0.451962 0
M  V30 4721 H 436.204 -2.76551 -2.17285 0
M  V30 4722 H 436.078 -1.55472 -3.43669 0
M  V30 4723 H 438.465 -0.75248 -2.85345 0
M  V30 4724 H 438.546 -1.99712 -1.5984 0
M  V30 4725 H 438.19 -3.78827 -3.38308 0
M  V30 4726 H 438.12 -2.51466 -4.6268 0
M  V30 4727 H 440.611 -2.14885 -3.10858 0
M  V30 4728 H 440.924 -4.89432 -5.98061 0
M  V30 4729 H 439.269 -4.39621 -5.38292 0
M  V30 4730 H 442.46 -2.73063 -3.80203 0
M  V30 4731 H 442.633 -3.9824 -5.11184 0
M  V30 4732 N 436.039 1.36541 -0.78704 0
M  V30 4733 C 437.279 2.01138 -0.363714 0
M  V30 4734 C 437.643 1.61114 1.04433 0
M  V30 4735 O 438.844 2.18285 1.56861 0
M  V30 4736 C 437.115 3.53603 -0.519582 0
M  V30 4737 S 438.674 4.38415 -0.183782 0
M  V30 4738 H 435.492 0.697263 -0.13909 0
M  V30 4739 H 438.094 1.66475 -1.02501 0
M  V30 4740 H 436.798 3.8022 -1.5447 0
M  V30 4741 H 436.329 3.93084 0.15773 0
M  V30 4742 H 438.344 4.85698 1.01547 0
M  V30 4743 N 437.518 0.538854 1.48102 0
M  V30 4744 C 438.448 -0.207654 2.32575 0
M  V30 4745 C 439.429 -0.926559 1.4265 0
M  V30 4746 O 440.614 -0.91061 1.71527 0
M  V30 4747 C 437.744 -1.24957 3.24042 0
M  V30 4748 C 436.698 -0.648263 4.23062 0
M  V30 4749 C 436.024 -1.79348 5.03725 0
M  V30 4750 C 437.324 0.385897 5.20872 0
M  V30 4751 H 439.018 0.497534 2.95237 0
M  V30 4752 H 436.564 0.240715 1.41974 0
M  V30 4753 H 438.517 -1.77983 3.81969 0
M  V30 4754 H 437.241 -1.98446 2.59397 0
M  V30 4755 H 435.9 -0.139452 3.66335 0
M  V30 4756 H 435.548 -2.51696 4.35498 0
M  V30 4757 H 435.248 -1.39702 5.70751 0
M  V30 4758 H 436.772 -2.32735 5.64506 0
M  V30 4759 H 438.186 -0.057607 5.73271 0
M  V30 4760 H 436.583 0.700227 5.96001 0
M  V30 4761 H 437.653 1.28848 4.67468 0
M  V30 4762 N 438.996 -1.55193 0.274407 0
M  V30 4763 C 440.221 -2.04446 -0.348824 0
M  V30 4764 C 440.646 -1.15149 -1.48735 0
M  V30 4765 O 440.004 -0.149952 -1.80679 0
M  V30 4766 C 440.052 -3.51431 -0.808009 0
M  V30 4767 O 439.156 -3.65225 -1.91531 0
M  V30 4768 H 438.497 -0.66006 -0.0722276 0
M  V30 4769 H 441.027 -2.00481 0.408498 0
M  V30 4770 H 441.037 -3.92781 -1.10395 0
M  V30 4771 H 439.712 -4.15892 0.0249865 0
M  V30 4772 H 438.289 -3.35778 -1.62196 0
M  V30 4773 N 440.474 -0.00167713 -1.576 0
M  V30 4774 C 441.699 0.69739 -1.95323 0
M  V30 4775 C 442.124 1.6642 -0.876706 0
M  V30 4776 O 441.482 1.80548 0.165007 0
M  V30 4777 C 441.53 1.40403 -3.32144 0
M  V30 4778 O 440.634 2.5185 -3.26566 0
M  V30 4779 H 439.975 0.185373 -0.637599 0
M  V30 4780 H 442.505 -0.0553665 -2.04525 0
M  V30 4781 H 442.515 1.76707 -3.67748 0
M  V30 4782 H 441.19 0.695167 -4.10049 0
M  V30 4783 H 439.767 2.17861 -3.0264 0
M  V30 4784 N 441.952 1.55251 0.271103 0
M  V30 4785 C 443.177 1.80306 1.02491 0
M  V30 4786 C 443.602 0.575457 1.79081 0
M  V30 4787 O 442.96 -0.474987 1.74967 0
M  V30 4788 C 443.008 3.02832 1.95768 0
M  V30 4789 O 442.112 2.78051 3.04568 0
M  V30 4790 H 441.453 0.595896 0.292923 0
M  V30 4791 H 443.983 2.02397 0.299436 0
M  V30 4792 H 443.993 3.31616 2.37686 0
M  V30 4793 H 442.668 3.9183 1.39434 0
M  V30 4794 H 441.245 2.60369 2.66951 0
M  V30 4795 N 443.43 -0.535701 1.48216 0
M  V30 4796 C 444.393 -1.623 1.61838 0
M  V30 4797 C 445.393 -1.53087 0.492024 0
M  V30 4798 O 446.583 -1.5686 0.757668 0
M  V30 4799 C 443.715 -3.01907 1.58319 0
M  V30 4800 H 444.908 -1.51564 2.58783 0
M  V30 4801 H 442.461 -0.757317 1.36727 0
M  V30 4802 H 443.196 -3.18155 0.628299 0
M  V30 4803 H 442.981 -3.10003 2.40085 0
M  V30 4804 H 444.471 -3.80969 1.71033 0
M  V30 4805 N 444.908 -1.36708 -0.784132 0
M  V30 4806 C 446.154 -1.31426 -1.54451 0
M  V30 4807 C 446.487 0.10476 -1.93917 0
M  V30 4808 O 445.762 1.05934 -1.6312 0
M  V30 4809 C 446.045 -2.24189 -2.818 0
M  V30 4810 C 445.898 -3.74813 -2.48667 0
M  V30 4811 C 447.217 -2.15626 -3.83658 0
M  V30 4812 H 444.336 -0.478739 -0.560337 0
M  V30 4813 H 446.978 -1.67305 -0.900498 0
M  V30 4814 H 445.128 -1.93722 -3.36755 0
M  V30 4815 H 446.8 -4.15823 -1.99722 0
M  V30 4816 H 445.043 -3.93989 -1.81535 0
M  V30 4817 H 445.714 -4.35138 -3.39646 0
M  V30 4818 H 448.19 -2.42456 -3.38163 0
M  V30 4819 H 447.066 -2.82694 -4.70506 0
M  V30 4820 H 447.327 -1.14522 -4.27009 0
M  V30 4821 N 446.386 1.0089 -1.21074 0
M  V30 4822 C 447.349 2.0775 -0.968129 0
M  V30 4823 C 448.349 1.6069 0.0593445 0
M  V30 4824 O 449.539 1.73293 -0.177525 0
M  V30 4825 C 446.671 3.37794 -0.459108 0
M  V30 4826 H 447.864 2.30707 -1.9161 0
M  V30 4827 H 445.417 1.17807 -1.02719 0
M  V30 4828 H 446.152 3.20516 0.49397 0
M  V30 4829 H 445.937 3.7328 -1.20019 0
M  V30 4830 H 447.427 4.16454 -0.309099 0
M  V30 4831 N 447.864 1.01787 1.20321 0
M  V30 4832 C 448.812 0.58254 2.25187 0
M  V30 4833 C 449.806 -0.379359 1.65098 0
M  V30 4834 O 451.012 -0.249142 1.78267 0
M  V30 4835 H 447.387 0.170078 0.732514 0
M  V30 4836 H 449.358 1.47788 2.59232 0
M  V30 4837 C 448.107 -0.0620885 3.47645 0
M  V30 4838 H 447.43 0.669069 3.94162 0
M  V30 4839 H 448.87 -0.329784 4.22716 0
M  V30 4840 C 447.329 -1.3053 3.10586 0
M  V30 4841 O 447.859 -2.39848 3.22236 0
M  V30 4842 N 446.065 -1.18988 2.65123 0
M  V30 4843 H 445.612 -0.300341 2.55843 0
M  V30 4844 H 445.57 -2.02267 2.40698 0
M  V30 4845 N 449.342 -1.36122 0.79427 0
M  V30 4846 C 450.758 -1.5232 0.476525 0
M  V30 4847 C 450.958 -1.74685 -1.00436 0
M  V30 4848 O 450.014 -1.78115 -1.78973 0
M  V30 4849 C 451.327 -2.70607 1.31119 0
M  V30 4850 C 452.875 -2.8448 1.30537 0
M  V30 4851 C 453.35 -4.05778 2.12387 0
M  V30 4852 N 454.841 -4.12933 2.09859 0
M  V30 4853 C 455.576 -5.05876 2.69957 0
M  V30 4854 N 455.072 -6.04232 3.38934 0
M  V30 4855 N 456.865 -4.98528 2.59665 0
M  V30 4856 H 449.016 -1.1986 1.75349 0
M  V30 4857 H 451.279 -0.585418 0.745647 0
M  V30 4858 H 450.985 -2.60619 2.36158 0
M  V30 4859 H 450.859 -3.64888 0.955843 0
M  V30 4860 H 453.246 -2.93927 0.262876 0
M  V30 4861 H 453.327 -1.91093 1.70051 0
M  V30 4862 H 452.971 -3.97092 3.1667 0
M  V30 4863 H 452.901 -4.98323 1.70242 0
M  V30 4864 H 455.392 -3.42515 1.59662 0
M  V30 4865 H 455.705 -6.71724 3.82109 0
M  V30 4866 H 454.05 -6.04443 3.43036 0
M  V30 4867 H 457.241 -4.20641 2.05375 0
M  V30 4868 H 457.414 -5.70773 3.06793 0
M  V30 4869 N 450.82 -0.546701 -1.47814 0
M  V30 4870 C 452.045 -0.021268 -2.07389 0
M  V30 4871 C 452.47 1.25822 -1.39822 0
M  V30 4872 O 451.828 1.75111 -0.46968 0
M  V30 4873 C 451.876 0.168502 -3.60206 0
M  V30 4874 O 450.98 1.23347 -3.93522 0
M  V30 4875 H 450.321 -0.0466108 -0.662362 0
M  V30 4876 H 452.851 -0.759387 -1.89985 0
M  V30 4877 H 452.861 0.385982 -4.0617 0
M  V30 4878 H 451.536 -0.766075 -4.08784 0
M  V30 4879 H 450.113 0.997319 -3.59316 0
M  V30 4880 N 452.299 1.55045 -0.282633 0
M  V30 4881 C 453.246 2.22822 0.601566 0
M  V30 4882 C 454.216 1.20431 1.14392 0
M  V30 4883 O 455.401 1.48996 1.19184 0
M  V30 4884 C 452.541 2.95873 1.77632 0
M  V30 4885 C 451.654 4.12999 1.26711 0
M  V30 4886 C 450.789 4.73676 2.40426 0
M  V30 4887 C 449.828 5.82981 1.86545 0
M  V30 4888 N 448.965 6.3769 2.93762 0
M  V30 4889 H 453.805 2.97995 0.0169528 0
M  V30 4890 H 451.342 1.471 -0.00339964 0
M  V30 4891 H 453.3 3.36447 2.46697 0
M  V30 4892 H 451.93 2.2311 2.33285 0
M  V30 4893 H 450.982 3.77494 0.469314 0
M  V30 4894 H 452.294 4.91803 0.832518 0
M  V30 4895 H 451.448 5.17008 3.17471 0
M  V30 4896 H 450.187 3.94164 2.87203 0
M  V30 4897 H 449.192 5.39092 1.07983 0
M  V30 4898 H 450.417 6.64366 1.40694 0
M  V30 4899 H 448.363 5.61069 3.39908 0
M  V30 4900 H 448.28 7.11788 2.54744 0
M  V30 4901 H 449.548 6.8568 3.7076 0
M  V30 4902 N 453.777 0.010035 1.57597 0
M  V30 4903 C 454.724 -0.978122 2.09049 0
M  V30 4904 C 455.694 -1.33509 0.988159 0
M  V30 4905 O 456.879 -1.43172 1.26121 0
M  V30 4906 C 454.019 -2.26158 2.60666 0
M  V30 4907 C 453.132 -1.96275 3.84838 0
M  V30 4908 C 452.267 -3.18776 4.24918 0
M  V30 4909 C 451.306 -2.84625 5.41899 0
M  V30 4910 N 450.443 -3.99693 5.77226 0
M  V30 4911 H 455.283 -0.532431 2.93205 0
M  V30 4912 H 452.82 -0.251234 1.44939 0
M  V30 4913 H 454.778 -3.01202 2.88675 0
M  V30 4914 H 453.408 -2.68378 1.79369 0
M  V30 4915 H 452.46 -1.11555 3.63675 0
M  V30 4916 H 453.772 -1.67111 4.69974 0
M  V30 4917 H 452.926 -4.02157 4.54262 0
M  V30 4918 H 451.665 -3.51087 3.38511 0
M  V30 4919 H 450.67 -1.99653 5.12268 0
M  V30 4920 H 451.895 -2.53551 6.29991 0
M  V30 4921 H 449.841 -4.31882 4.93776 0
M  V30 4922 H 449.758 -3.74087 6.56959 0
M  V30 4923 H 451.026 -4.83834 6.11167 0
M  V30 4924 N 455.255 -1.55392 -0.262866 0
M  V30 4925 C 456.48 -1.80847 -1.01533 0
M  V30 4926 C 456.905 -0.584946 -1.78774 0
M  V30 4927 O 456.263 0.465701 -1.75217 0
M  V30 4928 C 456.311 -3.03866 -1.94159 0
M  V30 4929 O 455.415 -2.79662 -3.03089 0
M  V30 4930 H 454.756 -0.597441 -0.289759 0
M  V30 4931 H 457.286 -2.02553 -0.288698 0
M  V30 4932 H 457.296 -3.32872 -2.35924 0
M  V30 4933 H 455.971 -3.92564 -1.37354 0
M  V30 4934 H 454.548 -2.61781 -2.65566 0
M  V30 4935 N 456.733 0.527833 -1.48498 0
M  V30 4936 C 458.149 0.856571 -1.34666 0
M  V30 4937 C 458.349 1.98271 -0.35931 0
M  V30 4938 O 457.405 2.51551 0.218703 0
M  V30 4939 C 458.718 1.22207 -2.74747 0
M  V30 4940 C 460.266 1.33183 -2.83251 0
M  V30 4941 C 460.741 1.73075 -4.24039 0
M  V30 4942 N 462.232 1.80174 -4.26722 0
M  V30 4943 C 462.967 2.1243 -5.32598 0
M  V30 4944 N 462.463 2.43096 -6.4875 0
M  V30 4945 N 464.256 2.13454 -5.19994 0
M  V30 4946 H 456.407 -0.215174 -2.11307 0
M  V30 4947 H 458.67 -0.0336281 -0.947403 0
M  V30 4948 H 458.376 0.468195 -3.4857 0
M  V30 4949 H 458.25 2.17173 -3.08409 0
M  V30 4950 H 460.637 2.07647 -2.09683 0
M  V30 4951 H 460.718 0.363333 -2.53206 0
M  V30 4952 H 460.362 0.991712 -4.98124 0
M  V30 4953 H 460.292 2.70979 -4.51529 0
M  V30 4954 H 462.783 1.58744 -3.42942 0
M  V30 4955 H 463.096 2.6682 -7.25277 0
M  V30 4956 H 461.441 2.40611 -6.52021 0
M  V30 4957 H 464.632 1.88956 -4.28268 0
M  V30 4958 H 464.805 2.38261 -6.02608 0
M  V30 4959 N 458.211 1.37122 0.776871 0
M  V30 4960 C 459.174 1.32301 1.8716 0
M  V30 4961 C 460.174 0.228099 1.59174 0
M  V30 4962 O 461.364 0.483642 1.67352 0
M  V30 4963 C 458.496 1.054 3.24197 0
M  V30 4964 H 459.689 2.29673 1.92848 0
M  V30 4965 H 457.242 1.22077 0.97606 0
M  V30 4966 H 457.977 0.0853872 3.24188 0
M  V30 4967 H 457.762 1.84648 3.45901 0
M  V30 4968 H 459.252 1.04664 4.04271 0
M  V30 4969 N 459.689 -1.00246 1.21608 0
M  V30 4970 C 460.619 -2.10921 1.00172 0
M  V30 4971 C 461.6 -1.69938 -0.0741587 0
M  V30 4972 O 462.785 -1.94009 0.0861753 0
M  V30 4973 C 459.915 -3.42618 0.568355 0
M  V30 4974 C 458.869 -3.97407 1.58909 0
M  V30 4975 C 458.195 -5.25038 1.01187 0
M  V30 4976 C 459.495 -4.2918 2.97661 0
M  V30 4977 H 461.189 -2.29112 1.92739 0
M  V30 4978 H 458.735 -1.10101 0.928102 0
M  V30 4979 H 460.688 -4.19444 0.405555 0
M  V30 4980 H 459.412 -3.24227 -0.392961 0
M  V30 4981 H 458.071 -3.22703 1.73949 0
M  V30 4982 H 457.719 -5.02982 0.0421965 0
M  V30 4983 H 457.419 -5.62661 1.6937 0
M  V30 4984 H 458.943 -6.04507 0.860448 0
M  V30 4985 H 460.357 -4.96839 2.86049 0
M  V30 4986 H 458.754 -4.77952 3.6288 0
M  V30 4987 H 459.824 -3.3735 3.48315 0
M  V30 4988 N 461.167 -1.02423 -1.1978 0
M  V30 4989 C 462.414 -0.717988 -1.89344 0
M  V30 4990 C 462.742 0.753036 -1.79331 0
M  V30 4991 O 461.997 1.56355 -1.17692 0
M  V30 4992 C 462.296 -1.1088 -3.39765 0
M  V30 4993 C 461.962 -2.57731 -3.6998 0
M  V30 4994 C 460.624 -2.97854 -3.77937 0
M  V30 4995 C 462.976 -3.52763 -3.83677 0
M  V30 4996 C 460.304 -4.31931 -3.97054 0
M  V30 4997 C 462.656 -4.86538 -4.04306 0
M  V30 4998 C 461.32 -5.26356 -4.10494 0
M  V30 4999 H 460.59 -0.26273 -0.692859 0
M  V30 5000 H 463.237 -1.28623 -1.41875 0
M  V30 5001 H 461.542 -0.459094 -3.89101 0
M  V30 5002 H 463.239 -0.849432 -3.919 0
M  V30 5003 H 459.829 -2.25646 -3.64393 0
M  V30 5004 H 464.013 -3.2292 -3.76877 0
M  V30 5005 H 459.269 -4.62324 -4.00083 0
M  V30 5006 H 463.443 -5.60093 -4.13846 0
M  V30 5007 H 461.07 -6.3026 -4.2506 0
M  V30 5008 N 462.645 1.35699 -0.801477 0
M  V30 5009 C 463.575 2.32436 -0.222658 0
M  V30 5010 C 464.556 1.5723 0.649057 0
M  V30 5011 O 465.741 1.85324 0.580387 0
M  V30 5012 C 462.871 3.41469 0.633719 0
M  V30 5013 C 461.825 4.27774 -0.139083 0
M  V30 5014 C 461.151 5.28082 0.838666 0
M  V30 5015 C 462.451 5.04946 -1.33517 0
M  V30 5016 H 464.145 2.81094 -1.03086 0
M  V30 5017 H 461.691 1.35146 -0.497155 0
M  V30 5018 H 463.644 4.08143 1.04868 0
M  V30 5019 H 462.368 2.91408 1.47475 0
M  V30 5020 H 461.027 3.62673 -0.535156 0
M  V30 5021 H 460.675 4.7429 1.67506 0
M  V30 5022 H 460.375 5.86695 0.32594 0
M  V30 5023 H 461.899 5.97628 1.25194 0
M  V30 5024 H 463.313 5.64593 -0.995349 0
M  V30 5025 H 461.71 5.7303 -1.78202 0
M  V30 5026 H 462.78 4.35886 -2.12442 0
M  V30 5027 N 464.123 0.554532 1.47522 0
M  V30 5028 C 465.348 0.0322661 2.07375 0
M  V30 5029 C 465.773 -1.25079 1.40488 0
M  V30 5030 O 465.131 -1.74859 0.47896 0
M  V30 5031 C 465.179 -0.149397 3.6029 0
M  V30 5032 O 464.283 -1.21259 3.9417 0
M  V30 5033 H 463.624 0.0501228 0.662106 0
M  V30 5034 H 466.154 0.769452 1.8958 0
M  V30 5035 H 466.164 -0.364437 4.06369 0
M  V30 5036 H 464.839 0.787743 4.08372 0
M  V30 5037 H 463.416 -0.97825 3.5984 0
M  V30 5038 N 465.601 -1.54893 0.290851 0
M  V30 5039 C 466.564 -2.21824 -0.576784 0
M  V30 5040 C 467.564 -1.20104 -1.06919 0
M  V30 5041 O 468.754 -1.44906 -0.966843 0
M  V30 5042 C 465.886 -2.89662 -1.79747 0
M  V30 5043 H 467.079 -2.99899 0.00784051 0
M  V30 5044 H 464.632 -1.56245 0.0415934 0
M  V30 5045 H 465.367 -2.15639 -2.42219 0
M  V30 5046 H 465.152 -3.64219 -1.45214 0
M  V30 5047 H 466.642 -3.4075 -2.4141 0
M  V30 5048 N 467.08 -0.0183926 -1.57589 0
M  V30 5049 C 468.043 0.951986 -2.08494 0
M  V30 5050 C 469.043 1.26092 -0.997874 0
M  V30 5051 O 470.233 1.20304 -1.25987 0
M  V30 5052 C 467.365 2.27165 -2.54182 0
M  V30 5053 H 468.558 0.511307 -2.95509 0
M  V30 5054 H 466.111 0.229444 -1.54607 0
M  V30 5055 H 466.846 2.75884 -1.70465 0
M  V30 5056 H 466.631 2.06057 -3.33591 0
M  V30 5057 H 468.121 2.9674 -2.93828 0
M  V30 5058 N 468.558 1.5553 0.254621 0
M  V30 5059 C 469.804 1.77262 0.985193 0
M  V30 5060 C 470.137 0.582286 1.85265 0
M  V30 5061 O 469.412 -0.419666 1.89919 0
M  V30 5062 C 469.695 3.0881 1.85225 0
M  V30 5063 C 469.548 4.38233 1.0135 0
M  V30 5064 C 470.867 3.3653 2.83612 0
M  V30 5065 H 467.986 0.644906 0.356742 0
M  V30 5066 H 470.628 1.88264 0.256236 0
M  V30 5067 H 468.778 2.99562 2.47376 0
M  V30 5068 H 470.45 4.59463 0.411269 0
M  V30 5069 H 468.693 4.32636 0.317574 0
M  V30 5070 H 469.364 5.26644 1.65379 0
M  V30 5071 H 471.84 3.45691 2.31596 0
M  V30 5072 H 470.716 4.29805 3.41407 0
M  V30 5073 H 470.977 2.57064 3.59681 0
M  V30 5074 N 470.036 -0.519951 1.48776 0
M  V30 5075 C 471.283 -1.27522 1.57303 0
M  V30 5076 C 471.611 -1.92869 0.251328 0
M  V30 5077 O 470.866 -1.80372 -0.759243 0
M  V30 5078 C 471.165 -2.37864 2.6675 0
M  V30 5079 C 470.831 -1.90103 4.08867 0
M  V30 5080 C 469.493 -1.76795 4.47546 0
M  V30 5081 C 471.845 -1.54133 4.97888 0
M  V30 5082 C 469.173 -1.25868 5.73039 0
M  V30 5083 C 471.525 -1.04665 6.23881 0
M  V30 5084 C 470.189 -0.899823 6.61407 0
M  V30 5085 H 469.459 -0.466636 0.575614 0
M  V30 5086 H 472.106 -0.579109 1.82534 0
M  V30 5087 H 470.411 -3.13186 2.35418 0
M  V30 5088 H 472.108 -2.95969 2.70561 0
M  V30 5089 H 468.698 -2.01414 3.78326 0
M  V30 5090 H 472.882 -1.6327 4.68675 0
M  V30 5091 H 468.138 -1.13196 6.0083 0
M  V30 5092 H 472.312 -0.759074 6.92251 0
M  V30 5093 H 469.939 -0.503011 7.58534 0
M  V30 5094 N 471.514 -1.37532 -0.769588 0
M  V30 5095 C 472.754 -1.34261 -1.54122 0
M  V30 5096 C 473.118 0.0717222 -1.91866 0
M  V30 5097 O 474.319 0.22918 -2.67821 0
M  V30 5098 C 472.59 -2.2574 -2.77086 0
M  V30 5099 S 474.149 -2.40339 -3.67127 0
M  V30 5100 H 470.967 -0.476595 -0.527615 0
M  V30 5101 H 473.569 -1.73303 -0.90479 0
M  V30 5102 H 472.273 -3.27417 -2.4744 0
M  V30 5103 H 471.804 -1.87789 -3.45686 0
M  V30 5104 H 473.819 -1.61558 -4.69163 0
M  V30 5105 N 472.992 0.995999 -1.22138 0
M  V30 5106 C 474.241 1.72928 -1.03821 0
M  V30 5107 C 474.554 1.90872 0.427444 0
M  V30 5108 O 475.76 2.61496 0.730212 0
M  V30 5109 C 474.216 3.11124 -1.80913 0
M  V30 5110 C 473.824 3.01122 -3.31707 0
M  V30 5111 C 475.568 3.8852 -1.71035 0
M  V30 5112 C 473.475 4.34453 -4.01253 0
M  V30 5113 H 472.405 0.648376 -0.384869 0
M  V30 5114 H 475.056 1.11213 -1.45959 0
M  V30 5115 H 473.438 3.73503 -1.31573 0
M  V30 5116 H 474.612 2.47926 -3.88419 0
M  V30 5117 H 472.927 2.3721 -3.42228 0
M  V30 5118 H 475.524 4.872 -2.20318 0
M  V30 5119 H 475.867 4.1087 -0.670196 0
M  V30 5120 H 476.4 3.32812 -2.17902 0
M  V30 5121 H 473.139 4.17303 -5.05508 0
M  V30 5122 H 472.659 4.87574 -3.49331 0
M  V30 5123 H 474.338 5.03215 -4.06674 0
M  V30 5124 N 474.47 1.03057 1.19235 0
M  V30 5125 C 475.717 0.728019 1.88961 0
M  V30 5126 C 476.045 -0.743515 1.79728 0
M  V30 5127 O 475.3 -1.55729 1.1852 0
M  V30 5128 C 475.599 1.1268 3.39172 0
M  V30 5129 C 475.265 2.5969 3.68608 0
M  V30 5130 C 473.927 2.99854 3.76352 0
M  V30 5131 C 476.279 3.54793 3.81801 0
M  V30 5132 C 473.607 4.34031 3.94758 0
M  V30 5133 C 475.959 4.88675 4.0172 0
M  V30 5134 C 474.623 5.28526 4.07697 0
M  V30 5135 H 473.893 0.266401 0.691456 0
M  V30 5136 H 476.54 1.29373 1.41191 0
M  V30 5137 H 474.845 0.479722 3.88852 0
M  V30 5138 H 476.542 0.870203 3.91444 0
M  V30 5139 H 473.132 2.27575 3.63191 0
M  V30 5140 H 477.316 3.24914 3.7516 0
M  V30 5141 H 472.572 4.6444 3.97625 0
M  V30 5142 H 476.746 5.6228 4.1087 0
M  V30 5143 H 474.373 6.32506 4.21712 0
M  V30 5144 N 475.948 -1.35272 0.808662 0
M  V30 5145 C 477.197 -1.97963 0.386483 0
M  V30 5146 C 477.51 -1.64866 -1.05255 0
M  V30 5147 O 478.716 -2.20937 -1.57794 0
M  V30 5148 C 477.172 -3.54162 0.640096 0
M  V30 5149 C 476.78 -3.96166 2.0918 0
M  V30 5150 C 478.524 -4.23553 0.283376 0
M  V30 5151 C 476.431 -5.4522 2.29106 0
M  V30 5152 H 475.361 -0.740742 0.140774 0
M  V30 5153 H 478.012 -1.5431 0.993012 0
M  V30 5154 H 476.394 -3.95983 -0.0364117 0
M  V30 5155 H 477.568 -3.65491 2.80629 0
M  V30 5156 H 475.883 -3.3967 2.40859 0
M  V30 5157 H 478.48 -5.33124 0.410273 0
M  V30 5158 H 478.823 -4.09105 -0.770659 0
M  V30 5159 H 479.356 -3.8716 0.913884 0
M  V30 5160 H 476.095 -5.64638 3.32962 0
M  V30 5161 H 475.615 -5.77457 1.62184 0
M  V30 5162 H 477.294 -6.1171 2.1076 0
M  V30 5163 N 477.426 -0.562348 -1.47226 0
M  V30 5164 C 478.675 -0.038041 -2.01664 0
M  V30 5165 C 478.988 1.32199 -1.44162 0
M  V30 5166 O 480.194 1.9365 -1.90294 0
M  V30 5167 C 478.65 -0.0174958 -3.59896 0
M  V30 5168 C 478.258 -1.3746 -4.2639 0
M  V30 5169 C 480.002 0.453934 -4.22066 0
M  V30 5170 C 477.909 -1.31289 -5.76643 0
M  V30 5171 H 476.839 -0.0104511 -0.753928 0
M  V30 5172 H 479.49 -0.710966 -1.69167 0
M  V30 5173 H 477.872 0.721182 -3.89378 0
M  V30 5174 H 479.046 -2.1314 -4.08544 0
M  V30 5175 H 477.361 -1.78438 -3.7623 0
M  V30 5176 H 479.958 0.518584 -5.32179 0
M  V30 5177 H 480.301 1.46706 -3.89594 0
M  V30 5178 H 480.834 -0.230044 -3.97134 0
M  V30 5179 H 477.573 -2.30217 -6.13743 0
M  V30 5180 H 477.093 -0.597973 -5.96812 0
M  V30 5181 H 478.772 -1.01713 -6.38955 0
M  V30 5182 N 478.904 1.54736 -0.299062 0
M  V30 5183 C 480.144 2.0201 0.31168 0
M  V30 5184 C 480.508 1.18281 1.5124 0
M  V30 5185 O 481.709 1.55243 2.19438 0
M  V30 5186 C 479.98 3.5123 0.661227 0
M  V30 5187 S 481.539 4.20467 1.2551 0
M  V30 5188 H 478.357 0.704523 0.0957517 0
M  V30 5189 H 480.959 1.90791 -0.426482 0
M  V30 5190 H 479.663 4.09804 -0.221171 0
M  V30 5191 H 479.194 3.66481 1.43023 0
M  V30 5192 H 481.209 4.26083 2.54298 0
M  V30 5193 N 480.382 0.0267497 1.57577 0
M  V30 5194 C 481.629 -0.652404 1.91703 0
M  V30 5195 C 481.957 -1.72271 0.902936 0
M  V30 5196 O 481.212 -1.955 -0.0884843 0
M  V30 5197 C 481.511 -1.30914 3.3256 0
M  V30 5198 C 481.177 -0.369441 4.49384 0
M  V30 5199 C 479.839 -0.110791 4.81072 0
M  V30 5200 C 482.191 0.275971 5.20469 0
M  V30 5201 C 479.519 0.801116 5.81205 0
M  V30 5202 C 481.871 1.17592 6.21575 0
M  V30 5203 C 480.535 1.44348 6.51705 0
M  V30 5204 H 479.805 -0.238732 0.70149 0
M  V30 5205 H 482.452 0.0880091 1.91298 0
M  V30 5206 H 480.757 -2.12425 3.29216 0
M  V30 5207 H 482.454 -1.84115 3.56234 0
M  V30 5208 H 479.044 -0.581211 4.24641 0
M  V30 5209 H 483.228 0.0892 4.9622 0
M  V30 5210 H 478.484 1.01614 6.02897 0
M  V30 5211 H 482.658 1.68223 6.75777 0
M  V30 5212 H 480.285 2.15176 7.29111 0
M  V30 5213 N 481.861 -1.55662 -0.24637 0
M  V30 5214 C 483.109 -1.77168 -0.972411 0
M  V30 5215 C 483.43 -0.590827 -1.85834 0
M  V30 5216 O 482.7 0.393365 -1.9191 0
M  V30 5217 H 481.28 -0.653405 -0.362038 0
M  V30 5218 H 483.942 -1.93101 -0.264189 0
M  V30 5219 H 483.038 -2.68335 -1.59382 0
M  V30 5220 N 483.339 0.512053 -1.4905 0
M  V30 5221 C 484.75 1.09376 -1.51307 0
M  V30 5222 C 485.101 1.94 -0.292971 0
M  V30 5223 O 484.226 2.07965 0.598277 0
M  V30 5224 C 484.821 1.99031 -2.74176 0
M  V30 5225 C 483.38 2.52385 -2.79247 0
M  V30 5226 C 482.527 1.29749 -2.45073 0
M  V30 5227 H 485.478 0.296467 -1.55906 0
M  V30 5228 H 485.499 2.83569 -2.53711 0
M  V30 5229 H 485.011 1.37412 -3.62959 0
M  V30 5230 H 483.112 3.17673 -1.94716 0
M  V30 5231 H 483.225 2.90293 -3.81139 0
M  V30 5232 H 481.589 1.61912 -1.96612 0
M  V30 5233 H 482.372 0.698555 -3.36118 0
M  V30 5234 N 484.817 1.37938 0.762283 0
M  V30 5235 C 486.045 1.36883 1.55147 0
M  V30 5236 C 486.46 -0.0435348 1.8875 0
M  V30 5237 O 485.817 -1.00786 1.52146 0
M  V30 5238 C 485.868 2.21624 2.85596 0
M  V30 5239 O 485.589 3.57358 2.5343 0
M  V30 5240 C 487.09 2.28653 3.7978 0
M  V30 5241 H 484.31 0.468521 0.480343 0
M  V30 5242 H 486.854 1.81404 0.944079 0
M  V30 5243 H 485.009 1.80588 3.42734 0
M  V30 5244 H 485.423 4.01883 3.37032 0
M  V30 5245 H 486.897 2.9225 4.68288 0
M  V30 5246 H 487.374 1.29767 4.19592 0
M  V30 5247 H 487.98 2.70043 3.28568 0
M  V30 5248 N 486.295 -0.989507 1.22664 0
M  V30 5249 C 487.243 -2.10148 0.997035 0
M  V30 5250 C 488.237 -1.6929 -0.0609783 0
M  V30 5251 O 489.443 -1.79766 0.0917523 0
M  V30 5252 H 485.818 -0.687256 0.305259 0
M  V30 5253 H 487.789 -2.26685 1.94053 0
M  V30 5254 C 486.538 -3.4257 0.595085 0
M  V30 5255 H 485.861 -3.74453 1.40089 0
M  V30 5256 H 487.301 -4.21344 0.473869 0
M  V30 5257 C 485.76 -3.29638 -0.695725 0
M  V30 5258 O 486.29 -3.61709 -1.74727 0
M  V30 5259 N 484.496 -2.82814 -0.668173 0
M  V30 5260 H 484.043 -2.56914 0.18787 0
M  V30 5261 H 484.001 -2.74544 -1.5321 0
M  V30 5262 N 487.773 -1.03688 -1.18687 0
M  V30 5263 C 489.019 -0.739123 -1.88851 0
M  V30 5264 C 489.352 0.731042 -1.79915 0
M  V30 5265 O 488.627 1.53313 -1.19688 0
M  V30 5266 C 488.91 -1.20106 -3.3948 0
M  V30 5267 C 488.763 -2.73304 -3.57246 0
M  V30 5268 C 490.082 -0.788134 -4.32986 0
M  V30 5269 H 487.201 -0.269978 -0.68577 0
M  V30 5270 H 489.843 -1.28822 -1.3966 0
M  V30 5271 H 487.993 -0.733915 -3.81505 0
M  V30 5272 H 489.665 -3.28027 -3.24339 0
M  V30 5273 H 487.908 -3.13313 -3.00029 0
M  V30 5274 H 488.579 -3.00684 -4.62918 0
M  V30 5275 H 491.055 -1.19005 -3.98719 0
M  V30 5276 H 489.931 -1.13915 -5.36949 0
M  V30 5277 H 490.192 0.308988 -4.41019 0
M  V30 5278 N 489.251 1.34841 -0.815825 0
M  V30 5279 C 490.181 2.32187 -0.247298 0
M  V30 5280 C 491.162 1.5791 0.632344 0
M  V30 5281 O 492.347 1.8593 0.560698 0
M  V30 5282 C 489.477 3.42122 0.597466 0
M  V30 5283 C 488.431 4.27602 -0.184446 0
M  V30 5284 C 487.757 5.28942 0.782609 0
M  V30 5285 C 489.057 5.03502 -1.38865 0
M  V30 5286 H 490.751 2.79985 -1.06061 0
M  V30 5287 H 488.297 1.34611 -0.511461 0
M  V30 5288 H 490.25 4.09232 1.00533 0
M  V30 5289 H 488.974 2.92956 1.44376 0
M  V30 5290 H 487.633 3.62085 -0.573592 0
M  V30 5291 H 487.281 4.7604 1.62466 0
M  V30 5292 H 486.981 5.87008 0.263695 0
M  V30 5293 H 488.505 5.98922 1.18848 0
M  V30 5294 H 489.919 5.63506 -1.05518 0
M  V30 5295 H 488.316 5.71108 -1.8427 0
M  V30 5296 H 489.386 4.33608 -2.17054 0
M  V30 5297 N 490.729 0.570148 1.46925 0
M  V30 5298 C 491.659 -0.158274 2.32963 0
M  V30 5299 C 492.64 -0.896093 1.44583 0
M  V30 5300 O 493.825 -0.874022 1.7342 0
M  V30 5301 C 490.955 -1.18055 3.26619 0
M  V30 5302 C 489.909 -0.558379 4.24342 0
M  V30 5303 C 489.235 -1.68623 5.07415 0
M  V30 5304 C 490.535 0.496295 5.19937 0
M  V30 5305 H 492.229 0.560046 2.94115 0
M  V30 5306 H 489.775 0.270775 1.41431 0
M  V30 5307 H 491.728 -1.69841 3.85658 0
M  V30 5308 H 490.452 -1.92899 2.63548 0
M  V30 5309 H 489.111 -0.0617157 3.66548 0
M  V30 5310 H 488.759 -2.42402 4.40738 0
M  V30 5311 H 488.459 -1.27564 5.73586 0
M  V30 5312 H 489.983 -2.20709 5.69315 0
M  V30 5313 H 491.397 0.0640052 5.73264 0
M  V30 5314 H 489.794 0.82649 5.94381 0
M  V30 5315 H 490.864 1.38735 4.6463 0
M  V30 5316 N 492.207 -1.54576 0.307264 0
M  V30 5317 C 493.456 -1.99442 -0.300976 0
M  V30 5318 C 493.769 -1.19928 -1.5452 0
M  V30 5319 O 494.975 -1.55092 -2.22842 0
M  V30 5320 C 493.431 -3.55084 -0.586809 0
M  V30 5321 C 493.039 -4.43413 0.639438 0
M  V30 5322 C 494.783 -4.0846 -1.1559 0
M  V30 5323 C 492.69 -5.90499 0.326411 0
M  V30 5324 H 491.62 -0.744986 -0.116238 0
M  V30 5325 H 494.271 -1.787 0.416947 0
M  V30 5326 H 492.653 -3.71749 -1.36449 0
M  V30 5327 H 493.827 -4.38522 1.41545 0
M  V30 5328 H 492.142 -4.00842 1.1276 0
M  V30 5329 H 494.739 -5.15926 -1.40445 0
M  V30 5330 H 495.082 -3.59443 -2.10015 0
M  V30 5331 H 495.615 -3.95362 -0.439778 0
M  V30 5332 H 492.354 -6.43676 1.23939 0
M  V30 5333 H 491.874 -5.98382 -0.412212 0
M  V30 5334 H 493.553 -6.46962 -0.0697393 0
M  V30 5335 N 493.685 -0.035106 -1.57561 0
M  V30 5336 C 494.648 0.929819 -2.09492 0
M  V30 5337 C 495.648 1.25026 -1.01119 0
M  V30 5338 O 496.838 1.18961 -1.27255 0
M  V30 5339 C 493.97 2.24457 -2.56577 0
M  V30 5340 H 495.163 0.479935 -2.96035 0
M  V30 5341 H 492.716 0.213033 -1.54841 0
M  V30 5342 H 493.451 2.74061 -1.73382 0
M  V30 5343 H 493.236 2.02508 -3.35757 0
M  V30 5344 H 494.726 2.93607 -2.96959 0
M  V30 5345 N 495.163 1.55791 0.238111 0
M  V30 5346 C 496.113 1.87444 1.29803 0
M  V30 5347 C 497.097 0.736043 1.43078 0
M  V30 5348 O 498.289 0.998146 1.46171 0
M  V30 5349 C 495.418 2.18028 2.65177 0
M  V30 5350 C 494.504 3.38217 2.55871 0
M  V30 5351 N 494.895 4.57264 2.16202 0
M  V30 5352 C 493.193 3.41502 2.86866 0
M  V30 5353 C 493.894 5.3941 2.17744 0
M  V30 5354 N 492.87 4.78695 2.57589 0
M  V30 5355 H 496.672 2.7701 0.981965 0
M  V30 5356 H 494.186 1.56135 0.44672 0
M  V30 5357 H 496.183 2.38873 3.4168 0
M  V30 5358 H 494.843 1.29765 2.97643 0
M  V30 5359 H 495.854 4.82727 1.87602 0
M  V30 5360 H 492.531 2.63536 3.23813 0
M  V30 5361 H 493.921 6.44671 1.89339 0
M  V30 5362 N 496.642 -0.504142 1.49319 0
M  V30 5363 C 497.872 -1.28071 1.62116 0
M  V30 5364 C 498.28 -1.86955 0.290566 0
M  V30 5365 O 497.623 -1.68415 -0.733616 0
M  V30 5366 C 497.685 -2.4521 2.62893 0
M  V30 5367 C 497.349 -2.07218 4.0732 0
M  V30 5368 C 498.346 -1.61375 4.94221 0
M  V30 5369 C 496.031 -2.16949 4.53033 0
M  V30 5370 C 498.025 -1.25763 6.2487 0
M  V30 5371 C 495.712 -1.80949 5.83696 0
M  V30 5372 C 496.71 -1.3543 6.69438 0
M  V30 5373 O 496.398 -0.99915 7.97667 0
M  V30 5374 H 496.13 -0.394763 0.54876 0
M  V30 5375 H 498.684 -0.612118 1.96067 0
M  V30 5376 H 496.914 -3.15134 2.24115 0
M  V30 5377 H 498.603 -3.0724 2.65252 0
M  V30 5378 H 499.369 -1.53306 4.60133 0
M  V30 5379 H 495.248 -2.5133 3.86463 0
M  V30 5380 H 498.792 -0.901631 6.91749 0
M  V30 5381 H 494.689 -1.88667 6.17313 0
M  V30 5382 H 495.457 -1.13089 8.1065 0
M  V30 5383 N 498.12 -1.38341 -0.754957 0
M  V30 5384 C 499.345 -1.37882 -1.5493 0
M  V30 5385 C 499.77 0.0296385 -1.88077 0
M  V30 5386 O 499.128 1.01133 -1.50472 0
M  V30 5387 C 499.176 -2.23996 -2.82592 0
M  V30 5388 O 498.28 -1.65612 -3.77686 0
M  V30 5389 H 497.621 -0.470384 -0.468652 0
M  V30 5390 H 500.151 -1.82084 -0.933082 0
M  V30 5391 H 500.161 -2.37806 -3.3153 0
M  V30 5392 H 498.836 -3.26365 -2.57796 0
M  V30 5393 H 497.413 -1.60936 -3.36384 0
M  V30 5394 N 499.598 0.982988 -1.23187 0
M  V30 5395 C 500.845 1.72392 -1.06241 0
M  V30 5396 C 501.173 1.9032 0.40108 0
M  V30 5397 O 500.428 1.45084 1.31336 0
M  V30 5398 C 500.727 3.12736 -1.73006 0
M  V30 5399 C 500.393 3.14695 -3.22921 0
M  V30 5400 C 499.055 3.14937 -3.63824 0
M  V30 5401 C 501.407 3.10211 -4.1883 0
M  V30 5402 C 498.735 3.08408 -4.99101 0
M  V30 5403 C 501.087 3.05224 -5.54095 0
M  V30 5404 C 499.751 3.03787 -5.94365 0
M  V30 5405 H 499.021 0.630829 -0.388762 0
M  V30 5406 H 501.668 1.15053 -1.53085 0
M  V30 5407 H 499.973 3.73446 -1.18514 0
M  V30 5408 H 501.67 3.68828 -1.57374 0
M  V30 5409 H 498.26 3.15262 -2.90358 0
M  V30 5410 H 502.444 3.09166 -3.8824 0
M  V30 5411 H 497.7 3.05646 -5.29519 0
M  V30 5412 H 501.874 3.00712 -6.28128 0
M  V30 5413 H 499.501 2.98483 -6.99151 0
M  V30 5414 N 501.076 1.04316 1.18135 0
M  V30 5415 C 502.006 0.657299 2.24058 0
M  V30 5416 C 502.987 -0.340678 1.66654 0
M  V30 5417 O 504.172 -0.220223 1.92947 0
M  V30 5418 C 501.302 0.0220715 3.47293 0
M  V30 5419 C 500.256 0.943857 4.17463 0
M  V30 5420 C 499.582 0.172973 5.3442 0
M  V30 5421 C 500.882 2.26409 4.70677 0
M  V30 5422 H 502.576 1.5428 2.56589 0
M  V30 5423 H 500.122 0.743263 1.23335 0
M  V30 5424 H 502.075 -0.259607 4.206 0
M  V30 5425 H 500.799 -0.898323 3.14003 0
M  V30 5426 H 499.458 1.20996 3.46057 0
M  V30 5427 H 499.106 -0.749907 4.97379 0
M  V30 5428 H 498.806 0.787098 5.82304 0
M  V30 5429 H 500.33 -0.101628 6.10515 0
M  V30 5430 H 501.744 2.04294 5.35665 0
M  V30 5431 H 500.141 2.8314 5.29105 0
M  V30 5432 H 501.211 2.90883 3.87962 0
M  V30 5433 N 502.554 -1.34406 0.822964 0
M  V30 5434 C 503.779 -2.0304 0.423034 0
M  V30 5435 C 504.204 -1.61568 -0.963196 0
M  V30 5436 O 503.562 -0.800339 -1.62678 0
M  V30 5437 C 503.61 -3.56636 0.53321 0
M  V30 5438 O 502.714 -4.09971 -0.446939 0
M  V30 5439 H 502.055 -0.64075 0.174171 0
M  V30 5440 H 504.585 -1.71653 1.11339 0
M  V30 5441 H 504.595 -4.05945 0.408991 0
M  V30 5442 H 503.27 -3.86168 1.54425 0
M  V30 5443 H 501.847 -3.71835 -0.281601 0
M  V30 5444 N 504.032 -0.577932 -1.46621 0
M  V30 5445 C 504.982 0.178869 -2.27297 0
M  V30 5446 C 505.966 0.866279 -1.35589 0
M  V30 5447 O 507.158 0.761163 -1.59798 0
M  V30 5448 C 504.287 1.19499 -3.2183 0
M  V30 5449 C 503.373 0.50994 -4.21023 0
M  V30 5450 N 503.764 -0.43177 -5.03954 0
M  V30 5451 C 502.062 0.761287 -4.39455 0
M  V30 5452 C 502.763 -0.831693 -5.75724 0
M  V30 5453 N 501.739 -0.181897 -5.43296 0
M  V30 5454 H 505.541 -0.544859 -2.88805 0
M  V30 5455 H 503.055 -0.399373 -1.57413 0
M  V30 5456 H 505.052 1.75131 -3.78332 0
M  V30 5457 H 503.712 1.91959 -2.61881 0
M  V30 5458 H 504.723 -0.807045 -5.11573 0
M  V30 5459 H 501.4 1.47282 -3.90659 0
M  V30 5460 H 502.79 -1.6067 -6.52407 0
M  V30 5461 N 505.51 1.54411 -0.315457 0
M  V30 5462 C 506.738 2.04833 0.291738 0
M  V30 5463 C 507.153 1.19203 1.46411 0
M  V30 5464 O 506.51 0.220867 1.81159 0
M  V30 5465 C 506.561 3.53969 0.73404 0
M  V30 5466 O 506.282 4.36346 -0.391682 0
M  V30 5467 C 507.783 4.2045 1.40489 0
M  V30 5468 H 505.003 0.668195 0.0612947 0
M  V30 5469 H 507.547 1.99276 -0.45929 0
M  V30 5470 H 505.702 3.5984 1.43506 0
M  V30 5471 H 506.116 5.24481 -0.0447088 0
M  V30 5472 H 507.59 5.26278 1.66539 0
M  V30 5473 H 508.067 3.71067 2.3496 0
M  V30 5474 H 508.673 4.18694 0.746662 0
M  V30 5475 N 506.988 0.0434614 1.5754 0
M  V30 5476 C 508.213 -0.645358 1.97104 0
M  V30 5477 C 508.638 -1.64037 0.920521 0
M  V30 5478 O 507.996 -1.80922 -0.11708 0
M  V30 5479 C 508.044 -1.31547 3.35749 0
M  V30 5480 O 507.148 -2.43103 3.33129 0
M  V30 5481 H 506.489 -0.168403 0.64229 0
M  V30 5482 H 509.019 0.109573 2.04306 0
M  V30 5483 H 509.029 -1.66895 3.72304 0
M  V30 5484 H 507.704 -0.586205 4.11748 0
M  V30 5485 H 506.281 -2.0976 3.0831 0
M  V30 5486 N 508.466 -1.55915 -0.229846 0
M  V30 5487 C 509.694 -1.82617 -0.972562 0
M  V30 5488 C 510.109 -0.621488 -1.78278 0
M  V30 5489 O 509.466 0.409956 -1.77836 0
M  V30 5490 C 509.517 -3.0774 -1.89679 0
M  V30 5491 O 509.238 -4.23559 -1.11934 0
M  V30 5492 C 510.739 -3.47368 -2.75409 0
M  V30 5493 H 507.959 -0.60727 -0.285419 0
M  V30 5494 H 510.503 -2.02996 -0.247579 0
M  V30 5495 H 508.658 -2.89361 -2.57583 0
M  V30 5496 H 509.072 -4.94586 -1.74599 0
M  V30 5497 H 510.546 -4.37977 -3.35977 0
M  V30 5498 H 511.023 -2.68737 -3.47386 0
M  V30 5499 H 511.629 -3.68158 -2.12931 0
M  V30 5500 N 509.944 0.496216 -1.49584 0
M  V30 5501 C 511.172 1.27394 -1.63029 0
M  V30 5502 C 511.587 1.86344 -0.303569 0
M  V30 5503 O 510.944 1.68057 0.711547 0
M  V30 5504 C 510.995 2.40077 -2.70269 0
M  V30 5505 O 510.716 1.83549 -3.97796 0
M  V30 5506 C 512.217 3.31372 -2.94462 0
M  V30 5507 H 509.437 0.386211 -0.54871 0
M  V30 5508 H 511.981 0.595163 -1.95648 0
M  V30 5509 H 510.136 3.03775 -2.40415 0
M  V30 5510 H 510.55 2.57561 -4.56905 0
M  V30 5511 H 512.024 4.06707 -3.73221 0
M  V30 5512 H 512.501 3.88654 -2.0456 0
M  V30 5513 H 513.107 2.73435 -3.25751 0
M  V30 5514 N 511.423 1.38739 0.74761 0
M  V30 5515 C 512.333 1.38696 1.89211 0
M  V30 5516 C 513.349 0.283303 1.71678 0
M  V30 5517 O 514.525 0.522713 1.94498 0
M  V30 5518 C 511.59 1.21662 3.24653 0
M  V30 5519 C 510.651 2.41886 3.54669 0
M  V30 5520 C 509.884 2.25655 4.83648 0
M  V30 5521 O 510.107 1.25339 5.56459 0
M  V30 5522 O 509.041 3.14372 5.13277 0
M  V30 5523 H 512.867 2.35143 1.92202 0
M  V30 5524 H 510.452 1.19721 0.893708 0
M  V30 5525 H 512.334 1.14246 4.05618 0
M  V30 5526 H 511.009 0.283024 3.2246 0
M  V30 5527 H 509.916 2.54877 2.73841 0
M  V30 5528 H 511.249 3.33895 3.61628 0
M  V30 5529 N 512.901 -0.976442 1.23707 0
M  V30 5530 C 513.864 -2.0511 1.02287 0
M  V30 5531 C 514.864 -1.60791 -0.0167195 0
M  V30 5532 O 516.054 -1.72761 0.223408 0
M  V30 5533 C 513.186 -3.36458 0.548507 0
M  V30 5534 H 514.379 -2.25545 1.9766 0
M  V30 5535 H 511.932 -1.15042 1.05806 0
M  V30 5536 H 512.667 -3.21713 -0.408818 0
M  V30 5537 H 512.452 -3.69967 1.29874 0
M  V30 5538 H 513.942 -4.15489 0.419406 0
M  V30 5539 N 514.379 -1.04941 -1.1758 0
M  V30 5540 C 515.342 -0.652456 -2.19717 0
M  V30 5541 C 516.342 0.294745 -1.58076 0
M  V30 5542 O 517.532 0.0789579 -1.74021 0
M  V30 5543 C 514.664 0.0420712 -3.40874 0
M  V30 5544 H 515.857 -1.55642 -2.5635 0
M  V30 5545 H 513.41 -0.842995 -1.31618 0
M  V30 5546 H 514.145 0.95943 -3.09783 0
M  V30 5547 H 513.93 -0.638844 -3.86861 0
M  V30 5548 H 515.42 0.306 -4.16477 0
M  V30 5549 N 515.857 1.33968 -0.830081 0
M  V30 5550 C 517.087 2.01987 -0.434142 0
M  V30 5551 C 517.495 1.62639 0.96671 0
M  V30 5552 O 516.838 0.831151 1.63822 0
M  V30 5553 C 516.9 3.5648 -0.465018 0
M  V30 5554 C 516.564 4.19176 -1.82045 0
M  V30 5555 C 517.561 4.39181 -2.78237 0
M  V30 5556 C 515.246 4.55792 -2.11089 0
M  V30 5557 C 517.24 4.94937 -4.01642 0
M  V30 5558 C 514.927 5.11258 -3.34752 0
M  V30 5559 C 515.925 5.30775 -4.29845 0
M  V30 5560 O 515.613 5.85064 -5.51322 0
M  V30 5561 H 515.345 0.653847 -0.171639 0
M  V30 5562 H 517.899 1.72066 -1.12171 0
M  V30 5563 H 516.129 3.8569 0.279284 0
M  V30 5564 H 517.818 4.05804 -0.0881334 0
M  V30 5565 H 518.584 4.11249 -2.57097 0
M  V30 5566 H 514.463 4.39901 -1.3787 0
M  V30 5567 H 518.007 5.10086 -4.75876 0
M  V30 5568 H 513.904 5.38619 -3.55753 0
M  V30 5569 H 514.672 6.03489 -5.5294 0
M  V30 5570 N 517.335 0.585699 1.46312 0
M  V30 5571 C 518.582 0.0724211 2.0237 0
M  V30 5572 C 518.91 -1.28868 1.45683 0
M  V30 5573 O 518.165 -1.85853 0.612945 0
M  V30 5574 C 518.464 -0.0401312 3.57377 0
M  V30 5575 C 518.13 1.25376 4.33119 0
M  V30 5576 C 516.792 1.60824 4.5353 0
M  V30 5577 C 519.144 2.10987 4.76586 0
M  V30 5578 C 516.472 2.81676 5.14661 0
M  V30 5579 C 518.824 3.31068 5.39052 0
M  V30 5580 C 517.488 3.66794 5.5769 0
M  V30 5581 H 516.758 0.0265007 0.740526 0
M  V30 5582 H 519.405 0.762935 1.75646 0
M  V30 5583 H 517.71 -0.813791 3.83255 0
M  V30 5584 H 519.407 -0.453078 3.98432 0
M  V30 5585 H 515.997 0.967808 4.1753 0
M  V30 5586 H 520.181 1.84904 4.60569 0
M  V30 5587 H 515.437 3.0949 5.27282 0
M  V30 5588 H 519.611 3.97672 5.71691 0
M  V30 5589 H 517.238 4.60529 6.04828 0
M  V30 5590 N 518.813 -1.54241 0.323641 0
M  V30 5591 C 519.776 -2.22997 -0.529602 0
M  V30 5592 C 520.776 -1.22345 -1.04347 0
M  V30 5593 O 521.966 -1.46924 -0.935889 0
M  V30 5594 C 519.098 -2.93409 -1.73562 0
M  V30 5595 H 520.291 -2.99815 0.0714518 0
M  V30 5596 H 517.844 -1.56121 0.0747258 0
M  V30 5597 H 518.579 -2.20729 -2.37591 0
M  V30 5598 H 518.364 -3.67217 -1.37456 0
M  V30 5599 H 519.854 -3.45794 -2.34128 0
M  V30 5600 N 520.291 -0.0518155 -1.57515 0
M  V30 5601 C 521.521 0.63048 -1.96745 0
M  V30 5602 C 521.929 1.64875 -0.928054 0
M  V30 5603 O 521.272 1.83449 0.0960678 0
M  V30 5604 C 521.334 1.37381 -3.32215 0
M  V30 5605 C 520.998 0.511298 -4.54131 0
M  V30 5606 C 521.995 -0.222884 -5.19422 0
M  V30 5607 C 519.68 0.442035 -5.00351 0
M  V30 5608 C 521.674 -1.01476 -6.2927 0
M  V30 5609 C 519.361 -0.35353 -6.10077 0
M  V30 5610 C 520.359 -1.08062 -6.74397 0
M  V30 5611 O 520.047 -1.8631 -7.82013 0
M  V30 5612 H 519.779 0.177126 -0.652382 0
M  V30 5613 H 522.333 -0.114726 -2.05079 0
M  V30 5614 H 520.563 2.16466 -3.20436 0
M  V30 5615 H 522.252 1.9464 -3.56188 0
M  V30 5616 H 523.018 -0.178846 -4.8467 0
M  V30 5617 H 518.897 0.997562 -4.50077 0
M  V30 5618 H 522.441 -1.58279 -6.79407 0
M  V30 5619 H 518.338 -0.399205 -6.44264 0
M  V30 5620 H 519.106 -1.78528 -7.98793 0
M  V30 5621 N 521.769 1.56035 0.221574 0
M  V30 5622 C 522.699 1.95434 1.2778 0
M  V30 5623 C 523.68 0.822564 1.48889 0
M  V30 5624 O 524.865 1.08486 1.61072 0
M  V30 5625 C 521.995 2.27102 2.62759 0
M  V30 5626 C 520.949 3.4277 2.56306 0
M  V30 5627 C 520.275 3.60043 3.95314 0
M  V30 5628 C 521.575 4.77742 2.11093 0
M  V30 5629 H 523.269 2.83912 0.950504 0
M  V30 5630 H 520.815 1.36596 0.455791 0
M  V30 5631 H 522.768 2.53256 3.36807 0
M  V30 5632 H 521.492 1.35478 2.97176 0
M  V30 5633 H 520.151 3.16664 1.84715 0
M  V30 5634 H 519.799 2.65794 4.27039 0
M  V30 5635 H 519.499 4.37841 3.91879 0
M  V30 5636 H 521.023 3.88545 4.71025 0
M  V30 5637 H 522.437 5.03102 2.74885 0
M  V30 5638 H 520.834 5.58823 2.18716 0
M  V30 5639 H 521.904 4.731 1.06321 0
M  V30 5640 N 523.247 -0.488276 1.49845 0
M  V30 5641 C 524.177 -1.59675 1.70371 0
M  V30 5642 C 525.158 -1.60878 0.552473 0
M  V30 5643 O 526.343 -1.77417 0.78973 0
M  V30 5644 C 523.473 -2.98098 1.782 0
M  V30 5645 C 522.427 -3.11761 2.93239 0
M  V30 5646 C 521.753 -4.51661 2.86193 0
M  V30 5647 C 523.053 -2.90589 4.33999 0
M  V30 5648 H 524.747 -1.42752 2.63177 0
M  V30 5649 H 522.293 -0.685317 1.26647 0
M  V30 5650 H 524.246 -3.75555 1.91144 0
M  V30 5651 H 522.97 -3.16138 0.820018 0
M  V30 5652 H 521.629 -2.36732 2.79917 0
M  V30 5653 H 521.277 -4.66595 1.87877 0
M  V30 5654 H 520.977 -4.61742 3.63412 0
M  V30 5655 H 522.501 -5.31162 3.01163 0
M  V30 5656 H 523.915 -3.57807 4.47936 0
M  V30 5657 H 522.312 -3.1213 5.12538 0
M  V30 5658 H 523.382 -1.86595 4.4756 0
M  V30 5659 N 524.725 -1.39134 -0.740242 0
M  V30 5660 C 525.965 -1.37499 -1.51239 0
M  V30 5661 C 526.329 0.0310084 -1.91975 0
M  V30 5662 O 527.53 0.172319 -2.68247 0
M  V30 5663 C 525.801 -2.31566 -2.72235 0
M  V30 5664 S 527.36 -2.48073 -3.61947 0
M  V30 5665 H 524.178 -0.48768 -0.517387 0
M  V30 5666 H 526.78 -1.75183 -0.867826 0
M  V30 5667 H 525.484 -3.32592 -2.40439 0
M  V30 5668 H 525.015 -1.9508 -3.41625 0
M  V30 5669 H 527.03 -1.71473 -4.6563 0
M  V30 5670 N 526.204 0.969867 -1.24223 0
M  V30 5671 C 527.45 1.7151 -1.08223 0
M  V30 5672 C 527.783 1.90478 0.37838 0
M  V30 5673 O 527.058 1.4647 1.27971 0
M  V30 5674 C 527.341 3.10714 -1.82013 0
M  V30 5675 C 527.194 2.9925 -3.35811 0
M  V30 5676 C 528.513 4.10332 -1.59108 0
M  V30 5677 H 525.632 0.622499 -0.394543 0
M  V30 5678 H 528.274 1.1284 -1.52863 0
M  V30 5679 H 526.424 3.608 -1.44068 0
M  V30 5680 H 528.096 2.56608 -3.83341 0
M  V30 5681 H 526.339 2.35512 -3.64303 0
M  V30 5682 H 527.01 3.97857 -3.82641 0
M  V30 5683 H 529.486 3.69097 -1.92111 0
M  V30 5684 H 528.362 5.05804 -2.13198 0
M  V30 5685 H 528.623 4.38926 -0.528832 0
M  V30 5686 N 527.682 1.05563 1.17022 0
M  V30 5687 C 528.922 0.777033 1.89054 0
M  V30 5688 C 529.286 -0.683617 1.79418 0
M  V30 5689 O 530.487 -1.07648 2.46303 0
M  V30 5690 C 528.758 1.24886 3.34871 0
M  V30 5691 S 530.317 1.0982 4.24835 0
M  V30 5692 H 527.135 0.282082 0.652649 0
M  V30 5693 H 529.737 1.35103 1.41306 0
M  V30 5694 H 528.441 2.30699 3.3942 0
M  V30 5695 H 527.972 0.669292 3.87665 0
M  V30 5696 H 529.987 0.02462 4.96194 0
M  V30 5697 N 529.16 -1.33526 0.837174 0
M  V30 5698 C 530.406 -1.9813 0.432704 0
M  V30 5699 C 530.739 -1.66168 -1.00508 0
M  V30 5700 O 530.014 -0.94069 -1.70239 0
M  V30 5701 C 530.297 -3.54151 0.651834 0
M  V30 5702 C 530.15 -3.95806 2.13676 0
M  V30 5703 C 531.469 -4.39993 0.0968937 0
M  V30 5704 H 528.588 -0.719713 0.15869 0
M  V30 5705 H 531.23 -1.58193 1.05237 0
M  V30 5706 H 529.38 -3.88301 0.124369 0
M  V30 5707 H 531.052 -3.71921 2.72896 0
M  V30 5708 H 529.295 -3.45599 2.62191 0
M  V30 5709 H 529.966 -5.0447 2.24084 0
M  V30 5710 H 532.442 -4.12479 0.547733 0
M  V30 5711 H 531.318 -5.48186 0.279917 0
M  V30 5712 H 531.579 -4.3066 -0.9992 0
M  V30 5713 N 530.638 -0.59345 -1.46 0
M  V30 5714 C 531.863 -0.0872365 -2.07216 0
M  V30 5715 C 532.288 1.2131 -1.43755 0
M  V30 5716 O 531.646 1.73528 -0.525152 0
M  V30 5717 C 531.694 0.0538197 -3.6056 0
M  V30 5718 O 530.798 1.10765 -3.97247 0
M  V30 5719 H 530.139 -0.0676598 -0.660544 0
M  V30 5720 H 532.669 -0.819445 -1.87473 0
M  V30 5721 H 532.679 0.256567 -4.07193 0
M  V30 5722 H 531.354 -0.895739 -4.0614 0
M  V30 5723 H 529.931 0.882501 -3.62307 0
M  V30 5724 N 532.116 1.54067 -0.331816 0
M  V30 5725 C 533.341 2.05599 0.272705 0
M  V30 5726 C 533.766 1.2059 1.44359 0
M  V30 5727 O 533.124 0.216907 1.79998 0
M  V30 5728 C 533.172 3.54188 0.677021 0
M  V30 5729 O 532.276 3.72082 1.77844 0
M  V30 5730 H 531.617 0.662286 0.0476801 0
M  V30 5731 H 534.147 1.98826 -0.482624 0
M  V30 5732 H 534.157 3.96608 0.957415 0
M  V30 5733 H 532.832 4.15513 -0.179325 0
M  V30 5734 H 531.409 3.41566 1.49622 0
M  V30 5735 N 533.594 0.0601682 1.57485 0
M  V30 5736 C 534.843 -0.611101 1.9222 0
M  V30 5737 C 535.156 -1.71469 0.941159 0
M  V30 5738 O 536.362 -2.44473 1.18089 0
M  V30 5739 C 534.818 -1.13832 3.41424 0
M  V30 5740 C 534.426 -0.0663596 4.47951 0
M  V30 5741 C 536.17 -1.78432 3.85178 0
M  V30 5742 C 534.077 -0.606965 5.88277 0
M  V30 5743 H 533.007 -0.232033 0.71741 0
M  V30 5744 H 535.658 0.130518 1.83035 0
M  V30 5745 H 534.04 -1.93254 3.45643 0
M  V30 5746 H 535.214 0.707682 4.55333 0
M  V30 5747 H 533.529 0.482715 4.13593 0
M  V30 5748 H 536.126 -2.1989 4.87394 0
M  V30 5749 H 536.469 -2.63966 3.21913 0
M  V30 5750 H 537.002 -1.05651 3.83514 0
M  V30 5751 H 533.741 0.21095 6.5516 0
M  V30 5752 H 533.261 -1.34879 5.84438 0
M  V30 5753 H 534.94 -1.08704 6.37803 0
M  V30 5754 N 535.072 -1.5615 -0.213296 0
M  V30 5755 C 536.297 -1.83986 -0.957282 0
M  V30 5756 C 536.722 -0.641526 -1.76822 0
M  V30 5757 O 536.08 0.409722 -1.7661 0
M  V30 5758 C 536.128 -3.09889 -1.84393 0
M  V30 5759 O 535.232 -2.89163 -2.94038 0
M  V30 5760 H 534.573 -0.606357 -0.270605 0
M  V30 5761 H 537.103 -2.03369 -0.224111 0
M  V30 5762 H 537.113 -3.40209 -2.25215 0
M  V30 5763 H 535.788 -3.96735 -1.24795 0
M  V30 5764 H 534.365 -2.70097 -2.57103 0
M  V30 5765 N 536.55 0.480323 -1.50102 0
M  V30 5766 C 537.79 1.24301 -1.62261 0
M  V30 5767 C 538.154 1.89452 -0.311758 0
M  V30 5768 O 539.355 2.67022 -0.308696 0
M  V30 5769 C 537.626 2.26588 -2.76392 0
M  V30 5770 S 539.185 3.11919 -3.08629 0
M  V30 5771 H 536.003 0.42215 -0.57211 0
M  V30 5772 H 538.605 0.541591 -1.87848 0
M  V30 5773 H 537.309 1.7729 -3.70131 0
M  V30 5774 H 536.84 3.01371 -2.52862 0
M  V30 5775 H 538.855 4.27598 -2.51742 0
M  V30 5776 N 538.028 1.39524 0.732853 0
M  V30 5777 C 539.268 1.383 1.50508 0
M  V30 5778 C 539.632 -0.0208271 1.91989 0
M  V30 5779 O 540.833 -0.158091 2.68335 0
M  V30 5780 C 539.104 2.33007 2.71003 0
M  V30 5781 S 540.663 2.49989 3.60626 0
M  V30 5782 H 537.481 0.490417 0.514794 0
M  V30 5783 H 540.083 1.75641 0.858524 0
M  V30 5784 H 538.787 3.33862 2.38672 0
M  V30 5785 H 538.318 1.96889 3.40585 0
M  V30 5786 H 540.333 1.7394 4.64714 0
M  V30 5787 N 539.506 -0.963266 1.24736 0
M  V30 5788 C 540.755 -1.70115 1.08369 0
M  V30 5789 C 541.068 -1.91939 -0.376688 0
M  V30 5790 O 542.274 -2.6334 -0.660624 0
M  V30 5791 C 540.73 -3.06218 1.89099 0
M  V30 5792 C 540.338 -2.92221 3.39574 0
M  V30 5793 C 542.082 -3.83848 1.81275 0
M  V30 5794 C 539.989 -4.23662 4.12631 0
M  V30 5795 H 538.919 -0.637944 0.401924 0
M  V30 5796 H 541.57 -1.07304 1.48856 0
M  V30 5797 H 539.952 -3.69884 1.41429 0
M  V30 5798 H 541.126 -2.37541 3.94856 0
M  V30 5799 H 539.441 -2.28054 3.48397 0
M  V30 5800 H 542.038 -4.81188 2.33158 0
M  V30 5801 H 542.381 -4.08949 0.778895 0
M  V30 5802 H 542.914 -3.26918 2.26649 0
M  V30 5803 H 539.653 -4.03753 5.16395 0
M  V30 5804 H 539.173 -4.78141 3.62135 0
M  V30 5805 H 540.852 -4.92256 4.19873 0
M  V30 5806 N 540.985 -1.06182 -1.16461 0
M  V30 5807 C 542.262 -0.691364 -1.82974 0
M  V30 5808 C 542.642 0.827377 -1.9421 0
M  V30 5809 O 541.99 1.73723 -1.48434 0
M  V30 5810 C 542.2 -1.39199 -3.20038 0
M  V30 5811 C 543.548 -1.53647 -3.95825 0
M  V30 5812 O 544.572 -1.35181 -3.29552 0
M  V30 5813 O 543.431 -1.83932 -5.14618 0
M  V30 5814 H 540.525 -0.244605 -0.789998 0
M  V30 5815 H 543.071 -1.16203 -1.23673 0
M  V30 5816 H 541.843 -2.42766 -3.06888 0
M  V30 5817 H 541.466 -0.911335 -3.87015 0
M  V30 5818 N 542.463 1.3308 -0.844243 0
M  V30 5819 C 543.874 1.7992 -0.498566 0
M  V30 5820 C 544.225 1.69808 0.982834 0
M  V30 5821 O 543.35 1.25051 1.7661 0
M  V30 5822 C 543.945 3.26677 -0.898204 0
M  V30 5823 C 542.504 3.71513 -0.604583 0
M  V30 5824 C 541.651 2.54393 -1.10362 0
M  V30 5825 H 544.602 1.20526 -1.03244 0
M  V30 5826 H 544.623 3.79918 -0.21039 0
M  V30 5827 H 544.135 3.34004 -1.97643 0
M  V30 5828 H 542.236 3.69708 0.46335 0
M  V30 5829 H 542.349 4.64755 -1.16358 0
M  V30 5830 H 540.713 2.49246 -0.524273 0
M  V30 5831 H 541.496 2.6448 -2.18873 0
M  V30 5832 N 543.941 0.601185 1.45683 0
M  V30 5833 C 544.871 -0.108824 2.33246 0
M  V30 5834 C 545.852 -0.865223 1.46451 0
M  V30 5835 O 547.037 -0.83704 1.75235 0
M  V30 5836 C 544.167 -1.11101 3.2905 0
M  V30 5837 C 543.121 -0.468244 4.25431 0
M  V30 5838 C 542.447 -1.57822 5.10878 0
M  V30 5839 C 543.747 0.606469 5.18767 0
M  V30 5840 H 545.441 0.622306 2.92861 0
M  V30 5841 H 542.987 0.300714 1.40825 0
M  V30 5842 H 544.94 -1.61622 3.89174 0
M  V30 5843 H 543.664 -1.87265 2.67581 0
M  V30 5844 H 542.323 0.0160484 3.66596 0
M  V30 5845 H 541.971 -2.32998 4.45781 0
M  V30 5846 H 541.671 -1.15369 5.76163 0
M  V30 5847 H 543.195 -2.08583 5.73869 0
M  V30 5848 H 544.609 0.185589 5.73 0
M  V30 5849 H 543.006 0.952381 5.92494 0
M  V30 5850 H 544.076 1.48559 4.61582 0
M  V30 5851 N 545.419 -1.53889 0.339982 0
M  V30 5852 C 546.668 -2.00035 -0.258604 0
M  V30 5853 C 546.981 -1.23179 -1.51942 0
M  V30 5854 O 548.187 -1.59784 -2.19503 0
M  V30 5855 C 546.643 -3.56249 -0.511359 0
M  V30 5856 C 546.251 -4.41957 0.733349 0
M  V30 5857 C 547.995 -4.1082 -1.069 0
M  V30 5858 C 545.902 -5.89673 0.451591 0
M  V30 5859 H 544.832 -0.747284 -0.10041 0
M  V30 5860 H 547.483 -1.77776 0.454758 0
M  V30 5861 H 545.865 -3.7456 -1.28533 0
M  V30 5862 H 547.039 -4.35421 1.50815 0
M  V30 5863 H 545.354 -3.9836 1.21237 0
M  V30 5864 H 547.951 -5.18789 -1.2947 0
M  V30 5865 H 548.294 -3.63817 -2.02343 0
M  V30 5866 H 548.827 -3.96205 -0.355817 0
M  V30 5867 H 545.566 -6.40903 1.37565 0
M  V30 5868 H 545.086 -5.99122 -0.285193 0
M  V30 5869 H 546.765 -6.46965 0.0675067 0
M  V30 5870 N 546.897 -0.0685191 -1.57451 0
M  V30 5871 C 548.127 0.609577 -1.97402 0
M  V30 5872 C 548.535 1.63882 -0.945489 0
M  V30 5873 O 547.878 1.8354 0.0766052 0
M  V30 5874 C 547.94 1.3385 -3.33653 0
M  V30 5875 C 547.604 0.463103 -4.54648 0
M  V30 5876 C 548.601 -0.277964 -5.19156 0
M  V30 5877 C 546.286 0.388941 -5.00792 0
M  V30 5878 C 548.28 -1.08145 -6.28159 0
M  V30 5879 C 545.967 -0.418217 -6.09667 0
M  V30 5880 C 546.965 -1.15208 -6.73213 0
M  V30 5881 O 546.653 -1.94594 -7.79993 0
M  V30 5882 H 546.385 0.170197 -0.654224 0
M  V30 5883 H 548.939 -0.13647 -2.04946 0
M  V30 5884 H 547.169 2.13055 -3.22714 0
M  V30 5885 H 548.858 1.90851 -3.58233 0
M  V30 5886 H 549.624 -0.230241 -4.84453 0
M  V30 5887 H 545.503 0.949769 -4.5111 0
M  V30 5888 H 549.047 -1.65476 -6.7769 0
M  V30 5889 H 544.944 -0.467515 -6.43805 0
M  V30 5890 H 545.712 -1.8699 -7.96854 0
M  V30 5891 N 548.375 1.56261 0.205012 0
M  V30 5892 C 549.605 1.83874 0.942018 0
M  V30 5893 C 550.013 0.647595 1.77772 0
M  V30 5894 O 549.356 -0.393098 1.79445 0
M  V30 5895 C 549.418 3.05453 1.89575 0
M  V30 5896 C 549.082 4.39772 1.24296 0
M  V30 5897 C 550.079 5.16133 0.624724 0
M  V30 5898 C 547.764 4.86504 1.24978 0
M  V30 5899 C 549.758 6.37396 0.0220117 0
M  V30 5900 C 547.445 6.07705 0.643232 0
M  V30 5901 C 548.443 6.82993 0.0304164 0
M  V30 5902 O 548.131 8.019 -0.566654 0
M  V30 5903 H 547.863 0.614896 0.280854 0
M  V30 5904 H 550.417 2.04215 0.220285 0
M  V30 5905 H 548.647 2.80972 2.65691 0
M  V30 5906 H 550.336 3.19797 2.4997 0
M  V30 5907 H 551.102 4.81127 0.611666 0
M  V30 5908 H 546.981 4.27865 1.71616 0
M  V30 5909 H 550.525 6.96102 -0.456926 0
M  V30 5910 H 546.422 6.42181 0.653759 0
M  V30 5911 H 547.19 8.17192 -0.462588 0
M  V30 5912 N 549.853 -0.472356 1.50355 0
M  V30 5913 C 551.083 -1.24603 1.64796 0
M  V30 5914 C 551.491 -1.86297 0.330156 0
M  V30 5915 O 550.834 -1.69934 -0.697728 0
M  V30 5916 C 550.896 -2.39578 2.68035 0
M  V30 5917 C 550.56 -1.98531 4.11624 0
M  V30 5918 C 551.557 -1.50856 4.97532 0
M  V30 5919 C 549.242 -2.0729 4.57532 0
M  V30 5920 C 551.236 -1.12481 6.27397 0
M  V30 5921 C 548.923 -1.68527 5.87403 0
M  V30 5922 C 549.921 -1.212 6.7216 0
M  V30 5923 O 549.609 -0.829728 7.99607 0
M  V30 5924 H 549.341 -0.383035 0.55701 0
M  V30 5925 H 551.895 -0.570392 1.97321 0
M  V30 5926 H 550.125 -3.10309 2.30749 0
M  V30 5927 H 551.814 -3.01544 2.71709 0
M  V30 5928 H 552.58 -1.43511 4.63281 0
M  V30 5929 H 548.459 -2.43076 3.91708 0
M  V30 5930 H 552.003 -0.754698 6.93506 0
M  V30 5931 H 547.9 -1.7553 6.21176 0
M  V30 5932 H 548.668 -0.958689 8.12866 0
M  V30 5933 N 551.331 -1.39911 -0.725443 0
M  V30 5934 C 552.294 -1.39156 -1.82121 0
M  V30 5935 C 553.294 -0.287018 -1.58218 0
M  V30 5936 O 554.484 -0.545421 -1.65441 0
M  V30 5937 C 551.616 -1.1736 -3.20062 0
M  V30 5938 H 552.809 -2.36672 -1.84191 0
M  V30 5939 H 550.362 -1.25615 -0.930079 0
M  V30 5940 H 551.097 -0.205648 -3.23647 0
M  V30 5941 H 550.882 -1.97358 -3.3881 0
M  V30 5942 H 552.372 -1.19596 -4.00108 0
M  V30 5943 N 552.809 0.956637 -1.25245 0
M  V30 5944 C 554.034 1.74104 -1.12706 0
M  V30 5945 C 554.459 1.85436 0.315429 0
M  V30 5946 O 553.817 1.33334 1.22848 0
M  V30 5947 C 553.865 3.1338 -1.78396 0
M  V30 5948 O 552.969 3.98485 -1.06224 0
M  V30 5949 H 552.31 0.53476 -0.393609 0
M  V30 5950 H 554.84 1.19924 -1.65769 0
M  V30 5951 H 554.85 3.6385 -1.846 0
M  V30 5952 H 553.525 3.04448 -2.83345 0
M  V30 5953 H 552.102 3.56952 -1.07886 0
M  V30 5954 N 554.287 1.06798 1.15896 0
M  V30 5955 C 555.512 0.808739 1.90982 0
M  V30 5956 C 555.937 -0.6316 1.77179 0
M  V30 5957 O 555.295 -1.4407 1.10061 0
M  V30 5958 C 555.343 1.21468 3.39526 0
M  V30 5959 O 554.447 0.356562 4.10856 0
M  V30 5960 H 553.788 0.29512 0.594811 0
M  V30 5961 H 556.318 1.42513 1.46804 0
M  V30 5962 H 556.328 1.18844 3.90308 0
M  V30 5963 H 555.003 2.26379 3.48891 0
M  V30 5964 H 553.58 0.444808 3.70238 0
M  V30 5965 N 555.766 -1.3263 0.851289 0
M  V30 5966 C 556.676 -2.32722 0.296268 0
M  V30 5967 C 557.692 -1.63901 -0.584162 0
M  V30 5968 O 558.868 -1.95465 -0.485334 0
M  V30 5969 C 555.933 -3.42942 -0.509103 0
M  V30 5970 C 554.994 -4.2746 0.397069 0
M  V30 5971 C 554.227 -5.32416 -0.36996 0
M  V30 5972 O 554.45 -5.47491 -1.6003 0
M  V30 5973 O 553.384 -6.01327 0.262493 0
M  V30 5974 H 557.21 -2.82078 1.12543 0
M  V30 5975 H 554.795 -1.36194 0.614135 0
M  V30 5976 H 556.677 -4.1017 -0.96634 0
M  V30 5977 H 555.352 -2.95781 -1.31512 0
M  V30 5978 H 554.259 -3.63053 0.902411 0
M  V30 5979 H 555.592 -4.78136 1.16818 0
M  V30 5980 N 557.244 -0.608902 -1.45362 0
M  V30 5981 C 558.484 -0.10763 -2.04116 0
M  V30 5982 C 558.848 1.23883 -1.46686 0
M  V30 5983 O 560.049 1.83091 -1.96803 0
M  V30 5984 C 558.32 -0.0703351 -3.57331 0
M  V30 5985 S 559.879 0.369554 -4.37241 0
M  V30 5986 H 556.697 -0.0502123 -0.709225 0
M  V30 5987 H 559.299 -0.8073 -1.78053 0
M  V30 5988 H 558.003 -1.05379 -3.9664 0
M  V30 5989 H 557.534 0.651287 -3.87971 0
M  V30 5990 H 559.549 1.61878 -4.69052 0
M  V30 5991 N 558.722 1.53707 -0.348139 0
M  V30 5992 C 559.654 2.22725 0.540946 0
M  V30 5993 C 560.667 1.2354 1.06027 0
M  V30 5994 O 561.856 1.49867 0.96964 0
M  V30 5995 C 558.956 2.89756 1.75768 0
M  V30 5996 C 558.129 4.15297 1.37285 0
M  V30 5997 C 557.188 4.65697 2.44976 0
M  V30 5998 O 556.214 5.29798 2.08092 0
M  V30 5999 N 557.416 4.42017 3.763 0
M  V30 6000 H 560.181 2.99658 -0.0501592 0
M  V30 6001 H 557.742 1.60979 -0.17248 0
M  V30 6002 H 559.734 3.20388 2.47252 0
M  V30 6003 H 558.304 2.16382 2.25605 0
M  V30 6004 H 557.524 3.9116 0.488584 0
M  V30 6005 H 558.812 4.96948 1.09179 0
M  V30 6006 H 558.21 3.9076 4.09051 0
M  V30 6007 H 556.767 4.77242 4.4394 0
M  V30 6008 N 560.2 0.0768682 1.57412 0
M  V30 6009 C 561.616 -0.279772 1.57129 0
M  V30 6010 C 561.816 -1.69688 1.08666 0
M  V30 6011 O 560.872 -2.40953 0.754843 0
M  V30 6012 C 562.185 -0.0848055 3.0058 0
M  V30 6013 C 563.733 -0.153954 3.12621 0
M  V30 6014 C 564.208 0.0127946 4.57998 0
M  V30 6015 N 565.699 -0.0426435 4.6318 0
M  V30 6016 C 566.434 0.0618892 5.73367 0
M  V30 6017 N 565.93 0.220229 6.9245 0
M  V30 6018 N 567.723 0.00446072 5.621 0
M  V30 6019 H 559.874 1.00297 1.87228 0
M  V30 6020 H 562.137 0.391565 0.863354 0
M  V30 6021 H 561.843 0.89325 3.40168 0
M  V30 6022 H 561.717 -0.834961 3.67843 0
M  V30 6023 H 564.104 -1.1225 2.72917 0
M  V30 6024 H 564.185 0.627389 2.47987 0
M  V30 6025 H 563.829 0.978128 4.98392 0
M  V30 6026 H 563.759 -0.788016 5.20671 0
M  V30 6027 H 566.25 -0.163226 3.77547 0
M  V30 6028 H 566.563 0.291999 7.72248 0
M  V30 6029 H 564.908 0.255658 6.9453 0
M  V30 6030 H 568.099 -0.117979 4.67951 0
M  V30 6031 H 568.272 0.0893796 6.47938 0
M  V30 6032 N 561.678 -1.56367 -0.196722 0
M  V30 6033 C 562.908 -1.84371 -0.932254 0
M  V30 6034 C 563.316 -0.657013 -1.77426 0
M  V30 6035 O 562.659 0.383576 -1.79651 0
M  V30 6036 C 562.721 -3.06454 -1.87952 0
M  V30 6037 C 562.385 -4.40425 -1.21962 0
M  V30 6038 C 563.382 -5.16457 -0.597343 0
M  V30 6039 C 561.067 -4.8716 -1.22396 0
M  V30 6040 C 563.061 -6.37399 0.0117913 0
M  V30 6041 C 560.748 -6.08038 -0.610995 0
M  V30 6042 C 561.746 -6.83 0.00580487 0
M  V30 6043 O 561.434 -8.01589 0.609173 0
M  V30 6044 H 561.166 -0.616377 -0.277589 0
M  V30 6045 H 563.72 -2.04329 -0.209452 0
M  V30 6046 H 561.95 -2.82377 -2.64197 0
M  V30 6047 H 563.639 -3.21118 -2.48271 0
M  V30 6048 H 564.405 -4.81445 -0.586142 0
M  V30 6049 H 560.284 -4.2877 -1.69345 0
M  V30 6050 H 563.828 -6.9585 0.493836 0
M  V30 6051 H 559.725 -6.42519 -0.619693 0
M  V30 6052 H 560.493 -8.16935 0.505919 0
M  V30 6053 N 563.156 0.464375 -1.50603 0
M  V30 6054 C 564.402 1.21776 -1.62168 0
M  V30 6055 C 564.735 1.91476 -0.324154 0
M  V30 6056 O 564.01 1.8242 0.674782 0
M  V30 6057 C 564.293 2.25614 -2.80661 0
M  V30 6058 C 564.146 1.60175 -4.20314 0
M  V30 6059 C 565.465 3.26862 -2.94702 0
M  V30 6060 H 562.584 0.44137 -0.590222 0
M  V30 6061 H 565.226 0.510623 -1.8301 0
M  V30 6062 H 563.376 2.85923 -2.63021 0
M  V30 6063 H 565.048 1.03411 -4.4956 0
M  V30 6064 H 563.291 0.904697 -4.24261 0
M  V30 6065 H 563.962 2.35665 -4.99165 0
M  V30 6066 H 566.438 2.76582 -3.10872 0
M  V30 6067 H 565.314 3.96839 -3.79223 0
M  V30 6068 H 565.575 3.91382 -2.05603 0
M  V30 6069 N 564.634 1.40294 0.718013 0
M  V30 6070 C 565.864 1.41544 1.50495 0
M  V30 6071 C 566.272 0.0127877 1.89196 0
M  V30 6072 O 565.615 -0.97305 1.55812 0
M  V30 6073 C 565.677 2.24021 2.81167 0
M  V30 6074 C 565.341 3.72463 2.64803 0
M  V30 6075 C 566.338 4.65154 2.32223 0
M  V30 6076 C 564.023 4.1625 2.81143 0
M  V30 6077 C 566.017 5.99618 2.16189 0
M  V30 6078 C 563.704 5.50784 2.64727 0
M  V30 6079 C 564.702 6.42283 2.32297 0
M  V30 6080 O 564.39 7.74337 2.16004 0
M  V30 6081 H 564.122 0.484819 0.471091 0
M  V30 6082 H 566.676 1.84948 0.893488 0
M  V30 6083 H 564.906 1.75393 3.44636 0
M  V30 6084 H 566.595 2.17243 3.42871 0
M  V30 6085 H 567.361 4.32622 2.19234 0
M  V30 6086 H 563.24 3.45352 3.05373 0
M  V30 6087 H 566.784 6.71 1.90799 0
M  V30 6088 H 562.681 5.82902 2.773 0
M  V30 6089 H 563.449 7.85244 2.30942 0
M  V30 6090 N 566.112 -0.949982 1.2575 0
M  V30 6091 C 567.337 -1.73503 1.13628 0
M  V30 6092 C 567.762 -1.85601 -0.30559 0
M  V30 6093 O 567.12 -1.33984 -1.22139 0
M  V30 6094 C 567.168 -3.1243 1.80055 0
M  V30 6095 O 566.272 -3.97916 1.08336 0
M  V30 6096 H 565.613 -0.532665 0.396439 0
M  V30 6097 H 568.143 -1.19043 1.66403 0
M  V30 6098 H 568.153 -3.62866 1.86527 0
M  V30 6099 H 566.828 -3.02941 2.84956 0
M  V30 6100 H 565.405 -3.56375 1.09777 0
M  V30 6101 N 567.59 -1.07411 -1.15328 0
M  V30 6102 C 568.839 -0.792643 -1.85473 0
M  V30 6103 C 569.152 0.683789 -1.83259 0
M  V30 6104 O 570.358 1.08005 -2.49093 0
M  V30 6105 C 568.814 -1.36787 -3.32892 0
M  V30 6106 C 568.422 -2.87536 -3.43551 0
M  V30 6107 C 570.166 -1.16444 -4.08217 0
M  V30 6108 C 568.073 -3.38247 -4.85122 0
M  V30 6109 H 567.003 -0.292838 -0.694811 0
M  V30 6110 H 569.654 -1.29426 -1.30082 0
M  V30 6111 H 568.036 -0.793993 -3.87958 0
M  V30 6112 H 569.21 -3.50973 -2.98588 0
M  V30 6113 H 567.525 -3.06676 -2.81672 0
M  V30 6114 H 570.122 -1.51808 -5.12697 0
M  V30 6115 H 570.465 -0.10353 -4.16171 0
M  V30 6116 H 570.998 -1.70472 -3.59422 0
M  V30 6117 H 567.737 -4.43866 -4.82351 0
M  V30 6118 H 567.257 -2.79564 -5.30664 0
M  V30 6119 H 568.936 -3.34238 -5.5398 0
M  V30 6120 N 569.068 1.32177 -0.85831 0
M  V30 6121 C 569.998 2.31282 -0.321041 0
M  V30 6122 C 570.979 1.59841 0.581786 0
M  V30 6123 O 572.164 1.87619 0.501262 0
M  V30 6124 C 569.294 3.4385 0.48832 0
M  V30 6125 C 568.248 4.26799 -0.320391 0
M  V30 6126 C 567.574 5.31164 0.613934 0
M  V30 6127 C 568.874 4.98829 -1.54813 0
M  V30 6128 H 570.568 2.76469 -1.14915 0
M  V30 6129 H 568.114 1.32916 -0.554028 0
M  V30 6130 H 570.067 4.12224 0.874626 0
M  V30 6131 H 568.791 2.97401 1.34983 0
M  V30 6132 H 567.45 3.60077 -0.688497 0
M  V30 6133 H 567.098 4.80967 1.47239 0
M  V30 6134 H 566.798 5.8755 0.0768097 0
M  V30 6135 H 568.322 6.024 0.997336 0
M  V30 6136 H 569.736 5.59864 -1.23392 0
M  V30 6137 H 568.133 5.64957 -2.02346 0
M  V30 6138 H 569.203 4.26483 -2.30739 0
M  V30 6139 N 570.547 0.616602 1.45037 0
M  V30 6140 C 571.787 0.118453 2.04056 0
M  V30 6141 C 572.151 -1.23104 1.47341 0
M  V30 6142 O 573.352 -1.82044 1.97771 0
M  V30 6143 C 571.623 0.0892842 3.57288 0
M  V30 6144 S 573.182 -0.346361 4.37431 0
M  V30 6145 H 570 0.0539728 0.708948 0
M  V30 6146 H 572.602 0.816731 1.77623 0
M  V30 6147 H 571.306 1.07481 3.96076 0
M  V30 6148 H 570.837 -0.630703 3.88311 0
M  V30 6149 H 572.852 -1.59389 4.69904 0
M  V30 6150 N 572.025 -1.5352 0.356285 0
M  V30 6151 C 573.265 -2.03027 -0.23649 0
M  V30 6152 C 573.629 -1.23813 -1.46746 0
M  V30 6153 O 574.83 -1.63281 -2.13525 0
M  V30 6154 C 573.101 -3.53442 -0.530415 0
M  V30 6155 S 574.66 -4.24836 -1.09819 0
M  V30 6156 H 571.478 -0.707591 -0.0695378 0
M  V30 6157 H 574.08 -1.89077 0.496999 0
M  V30 6158 H 572.784 -4.087 0.373114 0
M  V30 6159 H 572.315 -3.71536 -1.29323 0
M  V30 6160 H 574.33 -4.35228 -2.38309 0
M  V30 6161 N 573.503 -0.0852151 -1.57369 0
M  V30 6162 C 574.45 0.877268 -2.13478 0
M  V30 6163 C 575.42 1.28642 -1.05073 0
M  V30 6164 O 576.605 1.36992 -1.32808 0
M  V30 6165 C 573.745 2.13464 -2.71159 0
M  V30 6166 C 572.858 1.77691 -3.93764 0
M  V30 6167 C 571.993 2.98139 -4.39643 0
M  V30 6168 C 571.032 2.58447 -5.54862 0
M  V30 6169 N 570.169 3.71698 -5.95639 0
M  V30 6170 H 575.009 0.391933 -2.95411 0
M  V30 6171 H 572.546 0.181796 -1.45972 0
M  V30 6172 H 574.504 2.87086 -3.02717 0
M  V30 6173 H 573.134 2.59514 -1.91969 0
M  V30 6174 H 572.186 0.940768 -3.68583 0
M  V30 6175 H 573.498 1.44497 -4.77412 0
M  V30 6176 H 572.652 3.80026 -4.72933 0
M  V30 6177 H 571.391 3.34536 -3.54876 0
M  V30 6178 H 570.396 1.74984 -5.21211 0
M  V30 6179 H 571.621 2.23205 -6.41371 0
M  V30 6180 H 569.567 4.07831 -5.13819 0
M  V30 6181 H 569.484 3.42317 -6.74059 0
M  V30 6182 H 570.752 4.54123 -6.33555 0
M  V30 6183 N 574.981 1.5647 0.188427 0
M  V30 6184 C 575.891 1.98285 1.2538 0
M  V30 6185 C 576.907 0.891535 1.49424 0
M  V30 6186 O 578.083 1.19782 1.61908 0
M  V30 6187 C 575.148 2.31965 2.57669 0
M  V30 6188 C 574.209 3.54838 2.41638 0
M  V30 6189 C 573.442 3.86901 3.67618 0
M  V30 6190 O 573.665 3.20163 4.72072 0
M  V30 6191 O 572.599 4.80309 3.62749 0
M  V30 6192 H 576.425 2.89145 0.928912 0
M  V30 6193 H 574.01 1.44112 0.393955 0
M  V30 6194 H 575.892 2.54673 3.35737 0
M  V30 6195 H 574.567 1.44271 2.89771 0
M  V30 6196 H 573.474 3.37369 1.61658 0
M  V30 6197 H 574.807 4.43019 2.14465 0
M  V30 6198 N 576.459 -0.456382 1.50847 0
M  V30 6199 C 577.684 -1.2349 1.66628 0
M  V30 6200 C 578.109 -1.84715 0.355254 0
M  V30 6201 O 577.467 -1.67961 -0.682559 0
M  V30 6202 C 577.515 -2.30865 2.77009 0
M  V30 6203 O 576.619 -3.35882 2.39285 0
M  V30 6204 H 575.96 -0.36266 0.556214 0
M  V30 6205 H 578.49 -0.541374 1.97308 0
M  V30 6206 H 578.5 -2.75949 3.00526 0
M  V30 6207 H 577.175 -1.85677 3.72152 0
M  V30 6208 H 575.752 -2.96406 2.26269 0
M  V30 6209 N 577.937 -1.40673 -0.710563 0
M  V30 6210 C 579.162 -1.42741 -1.50465 0
M  V30 6211 C 579.587 -0.0302116 -1.88076 0
M  V30 6212 O 578.945 0.962945 -1.53613 0
M  V30 6213 C 578.993 -2.32873 -2.75322 0
M  V30 6214 O 578.097 -1.77544 -3.72226 0
M  V30 6215 H 577.438 -0.485056 -0.45345 0
M  V30 6216 H 579.968 -1.84961 -0.874681 0
M  V30 6217 H 579.978 -2.48233 -3.23797 0
M  V30 6218 H 578.653 -3.34401 -2.47283 0
M  V30 6219 H 577.23 -1.71556 -3.31093 0
M  V30 6220 N 579.415 0.9433 -1.26252 0
M  V30 6221 C 580.692 1.66639 -1.02424 0
M  V30 6222 C 581.072 2.06335 0.446006 0
M  V30 6223 O 580.42 1.78551 1.42589 0
M  V30 6224 C 580.63 2.88019 -1.97094 0
M  V30 6225 C 581.978 3.59718 -2.25584 0
M  V30 6226 O 583.002 2.9812 -1.94943 0
M  V30 6227 O 581.861 4.7066 -2.77743 0
M  V30 6228 H 578.955 0.729643 -0.389294 0
M  V30 6229 H 581.501 0.995218 -1.37454 0
M  V30 6230 H 580.273 2.5556 -2.96319 0
M  V30 6231 H 579.896 3.62863 -1.62532 0
M  V30 6232 N 580.893 1.08022 1.14757 0
M  V30 6233 C 582.304 0.829144 1.67279 0
M  V30 6234 C 582.655 -0.644721 1.85305 0
M  V30 6235 O 581.78 -1.49838 1.56133 0
M  V30 6236 C 582.375 1.49855 3.03857 0
M  V30 6237 C 580.934 1.29482 3.53428 0
M  V30 6238 C 580.081 1.56386 2.28995 0
M  V30 6239 H 583.032 1.24134 0.988762 0
M  V30 6240 H 583.053 0.923572 3.69121 0
M  V30 6241 H 582.565 2.57123 2.90705 0
M  V30 6242 H 580.666 0.242669 3.71809 0
M  V30 6243 H 580.779 2.01974 4.34446 0
M  V30 6244 H 579.143 0.985217 2.34874 0
M  V30 6245 H 579.926 2.64851 2.18423 0
M  V30 6246 N 582.371 -1.3172 0.865308 0
M  V30 6247 C 583.596 -2.01591 0.487415 0
M  V30 6248 C 584.021 -1.6455 -0.911307 0
M  V30 6249 O 583.379 -0.851689 -1.6005 0
M  V30 6250 C 583.427 -3.54759 0.646401 0
M  V30 6251 O 582.531 -4.11185 -0.316284 0
M  V30 6252 H 581.872 -0.634884 0.194468 0
M  V30 6253 H 584.402 -1.68024 1.16744 0
M  V30 6254 H 584.412 -4.04438 0.537932 0
M  V30 6255 H 583.087 -3.8106 1.66632 0
M  V30 6256 H 581.664 -3.72543 -0.163162 0
M  V30 6257 N 583.85 -0.624285 -1.44708 0
M  V30 6258 C 585.075 -0.131171 -2.06985 0
M  V30 6259 C 585.5 1.18234 -1.46295 0
M  V30 6260 O 584.858 1.72375 -0.561842 0
M  V30 6261 C 584.906 -0.0226724 -3.60593 0
M  V30 6262 O 584.01 1.02314 -3.99507 0
M  V30 6263 H 583.351 -0.0816556 -0.65896 0
M  V30 6264 H 585.88 -0.859027 -1.85693 0
M  V30 6265 H 585.891 0.170138 -4.07645 0
M  V30 6266 H 584.566 -0.981685 -4.04148 0
M  V30 6267 H 583.143 0.805452 -3.64097 0
M  V30 6268 N 585.328 1.53329 -0.364422 0
M  V30 6269 C 586.558 2.05359 0.226096 0
M  V30 6270 C 586.966 1.23777 1.43094 0
M  V30 6271 O 586.309 0.271139 1.81688 0
M  V30 6272 C 586.371 3.52918 0.684794 0
M  V30 6273 C 586.035 4.55218 -0.403206 0
M  V30 6274 C 587.032 5.04583 -1.2527 0
M  V30 6275 C 584.717 4.99134 -0.563117 0
M  V30 6276 C 586.711 5.96463 -2.24745 0
M  V30 6277 C 584.398 5.9082 -1.56124 0
M  V30 6278 C 585.396 6.39375 -2.40184 0
M  V30 6279 O 585.084 7.29255 -3.38293 0
M  V30 6280 H 584.816 0.674588 0.0436772 0
M  V30 6281 H 587.37 1.98688 -0.520782 0
M  V30 6282 H 585.6 3.57122 1.48326 0
M  V30 6283 H 587.289 3.87812 1.19818 0
M  V30 6284 H 588.055 4.71403 -1.14034 0
M  V30 6285 H 583.934 4.60928 0.0813909 0
M  V30 6286 H 587.478 6.34285 -2.90393 0
M  V30 6287 H 583.375 6.23414 -1.67407 0
M  V30 6288 H 584.143 7.47249 -3.34009 0
M  V30 6289 N 586.806 0.0935595 1.57322 0
M  V30 6290 C 587.754 -0.883457 2.15169 0
M  V30 6291 C 588.748 -1.29324 1.09415 0
M  V30 6292 O 589.954 -1.26795 1.27762 0
M  V30 6293 H 586.329 -0.302923 0.688289 0
M  V30 6294 H 588.3 -0.370845 2.96087 0
M  V30 6295 C 587.049 -2.13345 2.74552 0
M  V30 6296 H 586.372 -1.82702 3.55612 0
M  V30 6297 H 587.812 -2.7977 3.18598 0
M  V30 6298 C 586.271 -2.90646 1.70371 0
M  V30 6299 O 586.801 -3.85133 1.14173 0
M  V30 6300 N 585.007 -2.54157 1.40899 0
M  V30 6301 H 584.554 -1.77391 1.86789 0
M  V30 6302 H 584.512 -3.06178 0.714301 0
M  V30 6303 N 588.284 -1.56567 -0.180126 0
M  V30 6304 C 589.509 -1.85975 -0.918041 0
M  V30 6305 C 589.934 -0.678888 -1.75422 0
M  V30 6306 O 589.292 0.372168 -1.77439 0
M  V30 6307 C 589.34 -3.13731 -1.77779 0
M  V30 6308 O 588.444 -2.95335 -2.87838 0
M  V30 6309 H 587.785 -0.61196 -0.257683 0
M  V30 6310 H 590.315 -2.03798 -0.180923 0
M  V30 6311 H 590.325 -3.4491 -2.17948 0
M  V30 6312 H 589 -3.99293 -1.16352 0
M  V30 6313 H 587.577 -2.7549 -2.51316 0
M  V30 6314 N 589.762 0.448376 -1.51087 0
M  V30 6315 C 590.987 1.22605 -1.6728 0
M  V30 6316 C 591.412 1.84524 -0.365045 0
M  V30 6317 O 590.77 1.6832 0.673642 0
M  V30 6318 C 590.818 2.29393 -2.78229 0
M  V30 6319 O 589.922 3.34608 -2.41063 0
M  V30 6320 H 589.263 0.359705 -0.558129 0
M  V30 6321 H 591.793 0.530903 -1.97592 0
M  V30 6322 H 591.803 2.74352 -3.01986 0
M  V30 6323 H 590.478 1.83701 -3.73131 0
M  V30 6324 H 589.055 2.95202 -2.27838 0
M  V30 6325 N 591.24 1.41047 0.703093 0
M  V30 6326 C 592.488 1.39723 1.4602 0
M  V30 6327 C 592.809 0.00461257 1.94999 0
M  V30 6328 O 592.079 -0.952292 1.71196 0
M  V30 6329 H 590.659 0.514281 0.541779 0
M  V30 6330 H 593.321 1.76217 0.832678 0
M  V30 6331 H 592.417 2.07982 2.32701 0
M  V30 6332 N 592.718 -0.936591 1.26751 0
M  V30 6333 C 593.65 -2.03991 1.045 0
M  V30 6334 C 594.663 -1.628 0.00394261 0
M  V30 6335 O 595.852 -1.76817 0.244526 0
M  V30 6336 C 592.952 -3.34218 0.561403 0
M  V30 6337 C 592.125 -4.04151 1.67274 0
M  V30 6338 C 591.184 -5.12651 1.1864 0
M  V30 6339 O 590.21 -5.37104 1.88437 0
M  V30 6340 N 591.412 -5.80488 0.037278 0
M  V30 6341 H 594.177 -2.23644 1.99508 0
M  V30 6342 H 591.738 -1.10638 1.18198 0
M  V30 6343 H 593.73 -4.04101 0.220136 0
M  V30 6344 H 592.3 -3.11203 -0.295211 0
M  V30 6345 H 591.52 -3.28121 2.18472 0
M  V30 6346 H 592.808 -4.47626 2.41885 0
M  V30 6347 H 592.206 -5.63064 -0.545494 0
M  V30 6348 H 590.763 -6.5134 -0.244877 0
M  V30 6349 N 594.196 -1.08629 -1.14182 0
M  V30 6350 C 595.126 -0.740003 -2.21464 0
M  V30 6351 C 596.107 0.278591 -1.67803 0
M  V30 6352 O 597.292 0.148461 -1.93632 0
M  V30 6353 C 594.422 -0.150952 -3.46972 0
M  V30 6354 C 593.376 -1.09815 -4.13672 0
M  V30 6355 C 592.702 -0.3712 -5.3341 0
M  V30 6356 C 594.002 -2.43722 -4.61949 0
M  V30 6357 H 595.696 -1.63697 -2.50686 0
M  V30 6358 H 593.242 -0.788526 -1.20492 0
M  V30 6359 H 595.195 0.103325 -4.21273 0
M  V30 6360 H 593.919 0.781164 -3.1712 0
M  V30 6361 H 592.578 -1.33756 -3.41328 0
M  V30 6362 H 592.226 0.564792 -4.99819 0
M  V30 6363 H 591.926 -1.00267 -5.78982 0
M  V30 6364 H 593.45 -0.12503 -6.10472 0
M  V30 6365 H 594.864 -2.24034 -5.27714 0
M  V30 6366 H 593.261 -3.02582 -5.18232 0
M  V30 6367 H 594.331 -3.05082 -3.76899 0
M  V30 6368 N 595.674 1.31259 -0.872281 0
M  V30 6369 C 596.607 2.26544 -0.274394 0
M  V30 6370 C 597.585 1.51213 0.597776 0
M  V30 6371 O 598.769 1.80277 0.550687 0
M  V30 6372 C 595.896 3.33139 0.611256 0
M  V30 6373 C 594.942 4.26077 -0.189876 0
M  V30 6374 S 595.775 5.11971 -1.56989 0
M  V30 6375 C 596.931 6.2208 -0.690427 0
M  V30 6376 H 597.164 2.76908 -1.0821 0
M  V30 6377 H 594.697 1.3906 -0.670939 0
M  V30 6378 H 596.655 3.95024 1.11654 0
M  V30 6379 H 595.316 2.81525 1.39294 0
M  V30 6380 H 594.509 5.01657 0.485433 0
M  V30 6381 H 594.111 3.68701 -0.627339 0
M  V30 6382 H 596.403 6.77429 0.098001 0
M  V30 6383 H 597.346 6.93768 -1.41742 0
M  V30 6384 H 597.754 5.63915 -0.256953 0
M  V30 6385 N 597.152 0.631951 1.44375 0
M  V30 6386 C 598.115 -0.0628142 2.29114 0
M  V30 6387 C 599.115 -0.771494 1.41084 0
M  V30 6388 O 600.305 -0.615959 1.62947 0
M  V30 6389 C 597.437 -1.09953 3.22681 0
M  V30 6390 H 598.63 0.682509 2.92031 0
M  V30 6391 H 596.183 0.392128 1.51301 0
M  V30 6392 H 596.918 -1.87481 2.64616 0
M  V30 6393 H 596.703 -0.595286 3.87555 0
M  V30 6394 H 598.193 -1.58538 3.86336 0
M  V30 6395 N 598.631 -1.53133 0.372548 0
M  V30 6396 C 599.856 -2.0625 -0.218098 0
M  V30 6397 C 600.281 -1.24375 -1.41111 0
M  V30 6398 O 599.639 -0.264554 -1.79359 0
M  V30 6399 C 599.687 -3.55858 -0.582876 0
M  V30 6400 O 598.791 -3.76667 -1.67917 0
M  V30 6401 H 598.132 -0.663317 -0.030104 0
M  V30 6402 H 600.662 -1.97477 0.535169 0
M  V30 6403 H 600.672 -3.99007 -0.851925 0
M  V30 6404 H 599.347 -4.14892 0.289428 0
M  V30 6405 H 597.924 -3.45413 -1.40513 0
M  V30 6406 N 600.109 -0.101901 -1.5727 0
M  V30 6407 C 601.056 0.854577 -2.14396 0
M  V30 6408 C 602.026 1.27521 -1.06432 0
M  V30 6409 O 603.211 1.35575 -1.34253 0
M  V30 6410 C 600.351 2.10576 -2.73408 0
M  V30 6411 C 599.464 1.73504 -3.95626 0
M  V30 6412 C 598.599 2.9346 -4.42781 0
M  V30 6413 C 597.638 2.52547 -5.57572 0
M  V30 6414 N 596.775 3.65359 -5.99547 0
M  V30 6415 H 601.615 0.360578 -2.9581 0
M  V30 6416 H 599.152 0.166303 -1.46157 0
M  V30 6417 H 601.11 2.83859 -3.05745 0
M  V30 6418 H 599.74 2.57463 -1.94711 0
M  V30 6419 H 598.792 0.901622 -3.6956 0
M  V30 6420 H 600.104 1.39426 -4.78917 0
M  V30 6421 H 599.258 3.74988 -4.76937 0
M  V30 6422 H 597.997 3.30753 -3.58404 0
M  V30 6423 H 597.002 1.69446 -5.23037 0
M  V30 6424 H 598.227 2.1639 -6.43702 0
M  V30 6425 H 596.173 4.02358 -5.18116 0
M  V30 6426 H 596.09 3.35148 -6.77652 0
M  V30 6427 H 597.358 4.47378 -6.38336 0
M  V30 6428 N 601.587 1.56661 0.17182 0
M  V30 6429 C 602.52 1.91474 1.24149 0
M  V30 6430 C 603.498 0.777485 1.42807 0
M  V30 6431 O 604.682 1.03075 1.57822 0
M  V30 6432 C 601.809 2.16523 2.60453 0
M  V30 6433 C 600.855 3.39209 2.58533 0
M  V30 6434 S 601.688 4.93594 2.07665 0
M  V30 6435 C 602.844 5.21737 3.45747 0
M  V30 6436 H 603.077 2.81903 0.944346 0
M  V30 6437 H 600.61 1.49743 0.376364 0
M  V30 6438 H 602.568 2.31635 3.38903 0
M  V30 6439 H 601.229 1.26802 2.87368 0
M  V30 6440 H 600.422 3.53935 3.58812 0
M  V30 6441 H 600.024 3.2321 1.88178 0
M  V30 6442 H 602.316 5.13684 4.41741 0
M  V30 6443 H 603.259 6.23361 3.35896 0
M  V30 6444 H 603.667 4.49307 3.41736 0
M  V30 6445 N 603.065 -0.440357 1.51323 0
M  V30 6446 C 604.342 -1.20109 1.5438 0
M  V30 6447 C 604.722 -2.08866 0.306303 0
M  V30 6448 O 604.07 -2.1723 -0.708773 0
M  V30 6449 C 604.28 -2.00555 2.8562 0
M  V30 6450 C 605.628 -2.577 3.37455 0
M  V30 6451 O 606.652 -2.10769 2.8715 0
M  V30 6452 O 605.511 -3.43289 4.25224 0
M  V30 6453 H 602.605 -0.546668 0.620551 0
M  V30 6454 H 605.151 -0.449672 1.63634 0
M  V30 6455 H 603.923 -1.35346 3.67147 0
M  V30 6456 H 603.546 -2.82768 2.79514 0
M  V30 6457 N 604.543 -1.41418 -0.695603 0
M  V30 6458 C 605.771 -1.4413 -1.48439 0
M  V30 6459 C 606.186 -0.0465698 -1.88743 0
M  V30 6460 O 605.543 0.934117 -1.56782 0
M  V30 6461 C 605.594 -2.34998 -2.74696 0
M  V30 6462 O 605.315 -3.69043 -2.36091 0
M  V30 6463 C 606.816 -2.46513 -3.68438 0
M  V30 6464 H 604.036 -0.490905 -0.457442 0
M  V30 6465 H 606.58 -1.85702 -0.856454 0
M  V30 6466 H 604.735 -1.96735 -3.33728 0
M  V30 6467 H 605.149 -4.17505 -3.17474 0
M  V30 6468 H 606.623 -3.1426 -4.53811 0
M  V30 6469 H 607.1 -1.49638 -4.12922 0
M  V30 6470 H 607.706 -2.85412 -3.1531 0
M  V30 6471 N 606.021 0.929856 -1.27246 0
M  V30 6472 C 607.261 1.6919 -1.14691 0
M  V30 6473 C 607.625 1.896 0.302621 0
M  V30 6474 O 608.826 2.63102 0.550543 0
M  V30 6475 C 607.097 3.02291 -1.9067 0
M  V30 6476 S 608.656 3.93436 -1.94303 0
M  V30 6477 H 605.474 0.581248 -0.409477 0
M  V30 6478 H 608.076 1.10722 -1.61124 0
M  V30 6479 H 606.78 2.85125 -2.95181 0
M  V30 6480 H 606.311 3.65813 -1.44723 0
M  V30 6481 H 608.326 4.85224 -1.0379 0
M  V30 6482 N 607.499 1.09233 1.13605 0
M  V30 6483 C 608.724 0.849067 1.89224 0
M  V30 6484 C 609.149 -0.593875 1.78479 0
M  V30 6485 O 608.507 -1.41703 1.13092 0
M  V30 6486 C 608.555 1.28642 3.36873 0
M  V30 6487 O 607.659 0.44363 4.10007 0
M  V30 6488 H 607 0.30767 0.588417 0
M  V30 6489 H 609.53 1.45595 1.43748 0
M  V30 6490 H 609.54 1.27096 3.87699 0
M  V30 6491 H 608.215 2.33729 3.44011 0
M  V30 6492 H 606.792 0.523241 3.69211 0
M  V30 6493 N 608.977 -1.30795 0.87923 0
M  V30 6494 C 610.202 -2.01063 0.508769 0
M  V30 6495 C 610.627 -1.65508 -0.893803 0
M  V30 6496 O 609.985 -0.868616 -1.59138 0
M  V30 6497 C 610.033 -3.54054 0.683991 0
M  V30 6498 O 609.137 -4.11498 -0.272654 0
M  V30 6499 H 608.478 -0.632786 0.201191 0
M  V30 6500 H 611.008 -1.66776 1.18519 0
M  V30 6501 H 611.018 -4.03845 0.580798 0
M  V30 6502 H 609.693 -3.79271 1.70665 0
M  V30 6503 H 608.27 -3.72695 -0.12364 0
M  V30 6504 N 610.455 -0.639598 -1.44038 0
M  V30 6505 C 611.403 0.0723409 -2.32487 0
M  V30 6506 C 612.397 0.827129 -1.47834 0
M  V30 6507 O 613.603 0.73907 -1.64127 0
M  V30 6508 H 609.978 0.0421696 -0.750817 0
M  V30 6509 H 611.949 -0.691593 -2.90275 0
M  V30 6510 C 610.698 1.03452 -3.31953 0
M  V30 6511 H 610.021 0.46315 -3.97108 0
M  V30 6512 H 611.461 1.502 -3.96505 0
M  V30 6513 C 609.92 2.12392 -2.61518 0
M  V30 6514 O 610.45 3.2059 -2.42044 0
M  V30 6515 N 608.656 1.88563 -2.21116 0
M  V30 6516 H 608.203 1.00577 -2.37154 0
M  V30 6517 H 608.161 2.61651 -1.74316 0
M  V30 6518 N 611.933 1.52934 -0.380664 0
M  V30 6519 C 612.863 2.29118 0.450268 0
M  V30 6520 C 613.844 1.32153 1.07096 0
M  V30 6521 O 615.029 1.61038 1.08537 0
M  V30 6522 C 612.159 3.09161 1.58231 0
M  V30 6523 C 611.113 4.13938 1.0881 0
M  V30 6524 C 610.439 4.82153 2.31155 0
M  V30 6525 C 611.739 5.22048 0.162146 0
M  V30 6526 H 613.433 2.98826 -0.185361 0
M  V30 6527 H 610.979 1.43715 -0.0905886 0
M  V30 6528 H 612.932 3.61211 2.17036 0
M  V30 6529 H 611.656 2.3717 2.2454 0
M  V30 6530 H 610.315 3.62855 0.522633 0
M  V30 6531 H 609.963 4.06719 2.95953 0
M  V30 6532 H 609.663 5.52966 1.98752 0
M  V30 6533 H 611.187 5.37004 2.90618 0
M  V30 6534 H 612.601 5.6951 0.658126 0
M  V30 6535 H 610.998 6.00057 -0.0717122 0
M  V30 6536 H 612.068 4.78398 -0.791438 0
M  V30 6537 N 613.412 0.11024 1.57214 0
M  V30 6538 C 614.36 -0.860586 2.16094 0
M  V30 6539 C 615.354 -1.28156 1.1078 0
M  V30 6540 O 616.56 -1.25433 1.29099 0
M  V30 6541 H 612.935 -0.295606 0.691463 0
M  V30 6542 H 614.906 -0.33942 2.96463 0
M  V30 6543 C 613.655 -2.10421 2.768 0
M  V30 6544 H 612.978 -1.7892 3.5753 0
M  V30 6545 H 614.418 -2.76375 3.21547 0
M  V30 6546 C 612.877 -2.88823 1.73444 0
M  V30 6547 O 613.407 -3.839 1.18251 0
M  V30 6548 N 611.613 -2.52649 1.43586 0
M  V30 6549 H 611.16 -1.754 1.8866 0
M  V30 6550 H 611.118 -3.05403 0.746735 0
M  V30 6551 N 614.89 -1.56749 -0.16351 0
M  V30 6552 C 615.838 -1.97939 -1.22159 0
M  V30 6553 C 616.832 -0.869288 -1.45395 0
M  V30 6554 O 618.038 -1.05443 -1.45883 0
M  V30 6555 H 614.413 -0.629869 -0.410815 0
M  V30 6556 H 616.384 -2.86115 -0.847381 0
M  V30 6557 C 615.133 -2.36206 -2.55151 0
M  V30 6558 H 614.456 -3.2117 -2.38097 0
M  V30 6559 H 615.896 -2.68863 -3.27854 0
M  V30 6560 C 614.355 -1.20841 -3.14482 0
M  V30 6561 O 614.885 -0.500258 -3.98573 0
M  V30 6562 N 613.091 -0.976943 -2.73686 0
M  V30 6563 H 612.638 -1.55457 -2.05404 0
M  V30 6564 H 612.596 -0.206912 -3.13718 0
M  V30 6565 N 616.368 0.432326 -1.51554 0
M  V30 6566 C 617.593 1.20824 -1.68571 0
M  V30 6567 C 618.018 1.84126 -0.384596 0
M  V30 6568 O 617.376 1.69025 0.655751 0
M  V30 6569 C 617.424 2.26429 -2.80646 0
M  V30 6570 O 616.528 3.32032 -2.44598 0
M  V30 6571 H 615.869 0.353765 -0.561913 0
M  V30 6572 H 618.399 0.509916 -1.98144 0
M  V30 6573 H 618.409 2.71133 -3.04878 0
M  V30 6574 H 617.084 1.79733 -3.75058 0
M  V30 6575 H 615.661 2.92769 -2.30956 0
M  V30 6576 N 617.846 1.41785 0.688094 0
M  V30 6577 C 619.095 1.4084 1.44385 0
M  V30 6578 C 619.408 0.0234166 1.95586 0
M  V30 6579 O 620.614 -0.108647 2.71283 0
M  V30 6580 C 619.07 2.47675 2.61123 0
M  V30 6581 C 618.678 3.92116 2.16677 0
M  V30 6582 C 620.422 2.55877 3.38714 0
M  V30 6583 C 618.329 4.90487 3.30419 0
M  V30 6584 H 617.259 0.523787 0.542368 0
M  V30 6585 H 619.91 1.6764 0.74627 0
M  V30 6586 H 618.292 2.14018 3.33185 0
M  V30 6587 H 619.466 4.35059 1.51856 0
M  V30 6588 H 617.781 3.87642 1.5206 0
M  V30 6589 H 620.378 3.26553 4.234 0
M  V30 6590 H 620.721 1.59801 3.84408 0
M  V30 6591 H 621.254 2.88662 2.73714 0
M  V30 6592 H 617.993 5.87994 2.89729 0
M  V30 6593 H 617.513 4.52187 3.94065 0
M  V30 6594 H 619.192 5.11591 3.96085 0
M  V30 6595 N 619.324 -0.923095 1.27737 0
M  V30 6596 C 620.554 -1.70277 1.17001 0
M  V30 6597 C 620.962 -1.87188 -0.275199 0
M  V30 6598 O 620.305 -1.39195 -1.19877 0
M  V30 6599 C 620.367 -3.11976 1.78637 0
M  V30 6600 C 620.031 -3.18386 3.27841 0
M  V30 6601 C 621.028 -3.00287 4.2441 0
M  V30 6602 C 618.713 -3.41198 3.68632 0
M  V30 6603 C 620.707 -3.04896 5.59747 0
M  V30 6604 C 618.394 -3.4544 5.04097 0
M  V30 6605 C 619.392 -3.27309 5.99465 0
M  V30 6606 O 619.08 -3.31295 7.32461 0
M  V30 6607 H 618.812 -0.539366 0.407505 0
M  V30 6608 H 621.366 -1.16446 1.69202 0
M  V30 6609 H 619.596 -3.67308 1.20919 0
M  V30 6610 H 621.285 -3.7193 1.6255 0
M  V30 6611 H 622.051 -2.825 3.94232 0
M  V30 6612 H 617.93 -3.54359 2.94873 0
M  V30 6613 H 621.474 -2.90662 6.34162 0
M  V30 6614 H 617.371 -3.62753 5.33929 0
M  V30 6615 H 618.139 -3.47719 7.40968 0
M  V30 6616 N 620.802 -1.09834 -1.13024 0
M  V30 6617 C 621.749 -0.741522 -2.18564 0
M  V30 6618 C 622.719 0.279236 -1.63736 0
M  V30 6619 O 623.904 0.159923 -1.90129 0
M  V30 6620 C 621.044 -0.17277 -3.44667 0
M  V30 6621 C 620.157 -1.24808 -4.13578 0
M  V30 6622 C 619.292 -0.641631 -5.27311 0
M  V30 6623 C 618.331 -1.69795 -5.88078 0
M  V30 6624 N 617.468 -1.11223 -6.93234 0
M  V30 6625 H 622.308 -1.64576 -2.48432 0
M  V30 6626 H 619.845 -0.822174 -1.21978 0
M  V30 6627 H 621.803 0.17482 -4.16834 0
M  V30 6628 H 620.433 0.694725 -3.15235 0
M  V30 6629 H 619.485 -1.71288 -3.39653 0
M  V30 6630 H 620.797 -2.04795 -4.54819 0
M  V30 6631 H 619.951 -0.243128 -6.06213 0
M  V30 6632 H 618.69 0.189742 -4.87331 0
M  V30 6633 H 617.695 -2.10595 -5.07868 0
M  V30 6634 H 618.92 -2.53206 -6.3013 0
M  V30 6635 H 616.866 -0.302208 -6.55304 0
M  V30 6636 H 616.783 -1.84901 -7.3304 0
M  V30 6637 H 618.051 -0.740068 -7.75979 0
M  V30 6638 N 622.28 1.30327 -0.886154 0
M  V30 6639 C 623.227 2.28099 -0.352069 0
M  V30 6640 C 624.197 1.56433 0.558397 0
M  V30 6641 O 625.382 1.84492 0.486561 0
M  V30 6642 C 622.522 3.42456 0.426346 0
M  V30 6643 C 621.635 4.28938 -0.513472 0
M  V30 6644 C 620.77 5.30458 0.280657 0
M  V30 6645 C 619.809 6.0859 -0.654556 0
M  V30 6646 N 618.946 7.02022 0.104322 0
M  V30 6647 H 623.786 2.73166 -1.19097 0
M  V30 6648 H 621.323 1.34367 -0.598662 0
M  V30 6649 H 623.281 4.07518 0.893587 0
M  V30 6650 H 621.911 2.98455 1.22981 0
M  V30 6651 H 620.963 3.64173 -1.09921 0
M  V30 6652 H 622.275 4.83399 -1.2299 0
M  V30 6653 H 621.429 6.01273 0.8097 0
M  V30 6654 H 620.168 4.76693 1.03029 0
M  V30 6655 H 619.173 5.36651 -1.19522 0
M  V30 6656 H 620.398 6.64443 -1.4033 0
M  V30 6657 H 618.344 6.50645 0.836472 0
M  V30 6658 H 618.261 7.53979 -0.552453 0
M  V30 6659 H 619.529 7.77077 0.614069 0
M  V30 6660 N 623.758 0.647228 1.43697 0
M  V30 6661 C 624.688 -0.0345631 2.33474 0
M  V30 6662 C 625.669 -0.818193 1.4913 0
M  V30 6663 O 626.854 -0.780867 1.77809 0
M  V30 6664 C 623.984 -1.00576 3.32418 0
M  V30 6665 C 622.938 -0.33266 4.26705 0
M  V30 6666 C 622.264 -1.41489 5.1564 0
M  V30 6667 C 623.564 0.771204 5.16575 0
M  V30 6668 H 625.258 0.715163 2.90733 0
M  V30 6669 H 622.804 0.345364 1.39797 0
M  V30 6670 H 624.757 -1.49159 3.94119 0
M  V30 6671 H 623.481 -1.78657 2.73403 0
M  V30 6672 H 622.14 0.13267 3.6636 0
M  V30 6673 H 621.788 -2.18698 4.52968 0
M  V30 6674 H 621.488 -0.969799 5.79542 0
M  V30 6675 H 623.012 -1.9022 5.80214 0
M  V30 6676 H 624.426 0.36779 5.72119 0
M  V30 6677 H 622.823 1.1404 5.89165 0
M  V30 6678 H 623.893 1.63169 4.56622 0
M  V30 6679 N 625.236 -1.5273 0.388769 0
M  V30 6680 C 626.166 -2.29353 -0.438111 0
M  V30 6681 C 627.147 -1.32719 -1.06394 0
M  V30 6682 O 628.332 -1.61612 -1.07681 0
M  V30 6683 C 625.462 -3.09995 -1.56589 0
M  V30 6684 C 624.416 -4.14509 -1.06613 0
M  V30 6685 C 623.742 -4.83372 -2.28594 0
M  V30 6686 C 625.042 -5.22127 -0.134459 0
M  V30 6687 H 626.736 -2.98723 0.201206 0
M  V30 6688 H 624.282 -1.43665 0.0982089 0
M  V30 6689 H 626.235 -3.62357 -2.15118 0
M  V30 6690 H 624.959 -2.38357 -2.23279 0
M  V30 6691 H 623.618 -3.63128 -0.503383 0
M  V30 6692 H 623.266 -4.08283 -2.93792 0
M  V30 6693 H 622.966 -5.54012 -1.95817 0
M  V30 6694 H 624.49 -5.38538 -2.87766 0
M  V30 6695 H 625.904 -5.69851 -0.627914 0
M  V30 6696 H 624.301 -6.00011 0.103534 0
M  V30 6697 H 625.371 -4.77971 0.816798 0
M  V30 6698 N 626.714 -0.118576 -1.57153 0
M  V30 6699 C 627.942 0.54726 -1.99531 0
M  V30 6700 C 628.357 1.60251 -0.998246 0
M  V30 6701 O 627.714 1.82498 0.00893106 0
M  V30 6702 C 627.765 1.17378 -3.41913 0
M  V30 6703 O 627.486 0.160703 -4.37805 0
M  V30 6704 C 628.987 1.92297 -3.9942 0
M  V30 6705 H 626.207 0.144919 -0.655164 0
M  V30 6706 H 628.751 -0.20479 -2.03472 0
M  V30 6707 H 626.906 1.87661 -3.38913 0
M  V30 6708 H 627.32 0.61586 -5.20872 0
M  V30 6709 H 628.794 2.31462 -5.01128 0
M  V30 6710 H 629.271 2.79801 -3.38538 0
M  V30 6711 H 629.877 1.26777 -4.05965 0
M  V30 6712 O 628.231 1.61487 0.0208228 0
M  V30 6713 H 628.922 1.82811 0.640289 0
M  V30 END ATOM
M  V30 BEGIN BOND
M  V30 END BOND
M  V30 END CTAB
M  END
$$$$
