drugbank_target|P25103 Substance-P receptor (DB00193; DB00673; DB01221; DB04894; DB05072; DB05418; DB05421; DB05466; DB05790; DB06634; DB09048; DB09291; DB11949; DB12436; DB14019)
 OpenBabel12092119303D

  0  0  0     0  0            999 V3000
M  V30 BEGIN CTAB
M  V30 COUNTS 6499 6595 0 0 0
M  V30 BEGIN ATOM
M  V30 1 H -0.908 1.98254 -0.117106 0
M  V30 2 N 0 1.576 0 0
M  V30 3 C 0.933 2.03868 1.02534 0
M  V30 4 C 1.911 0.928543 1.3348 0
M  V30 5 O 3.095 1.19667 1.45644 0
M  V30 6 C 0.222 2.43627 2.35294 0
M  V30 7 C -0.732 3.65373 2.2001 0
M  V30 8 S 0.101 5.13292 1.52614 0
M  V30 9 C 1.257 5.56322 2.86805 0
M  V30 10 H 1.49 2.90518 0.631377 0
M  V30 11 H -0.977 1.52953 0.210867 0
M  V30 12 H 0.981 2.67203 3.11629 0
M  V30 13 H -0.358 1.57376 2.7183 0
M  V30 14 H -1.165 3.90944 3.18086 0
M  V30 15 H -1.563 3.418 1.51819 0
M  V30 16 H 0.729 5.58782 3.83104 0
M  V30 17 H 1.672 6.56266 2.65933 0
M  V30 18 H 2.08 4.83886 2.90714 0
M  V30 19 N 1.4781 -0.272755 1.55222 0
M  V30 20 C 2.7551 -1.02562 1.66555 0
M  V30 21 C 3.1351 -2.04282 0.532189 0
M  V30 22 O 2.4831 -2.23662 -0.467717 0
M  V30 23 C 2.6931 -1.6822 3.05782 0
M  V30 24 C 4.0411 -2.19373 3.63539 0
M  V30 25 O 5.0651 -1.78206 3.08417 0
M  V30 26 O 3.9241 -2.94883 4.60115 0
M  V30 27 H 1.0181 -0.475755 0.676451 0
M  V30 28 H 3.5641 -0.268593 1.67561 0
M  V30 29 H 2.3361 -0.945112 3.79715 0
M  V30 30 H 1.9591 -2.50609 3.08676 0
M  V30 31 N 2.9562 -1.48159 -0.537278 0
M  V30 32 C 3.9042 -1.62573 -1.66352 0
M  V30 33 C 4.8982 -0.492366 -1.62087 0
M  V30 34 O 6.1042 -0.670847 -1.67032 0
M  V30 35 H 2.4792 -0.511992 -0.550789 0
M  V30 36 H 4.4502 -2.57176 -1.51337 0
M  V30 37 C 3.1992 -1.67583 -3.04649 0
M  V30 38 H 2.5222 -2.54151 -3.08622 0
M  V30 39 H 3.9622 -1.81713 -3.83088 0
M  V30 40 C 2.4212 -0.413039 -3.34358 0
M  V30 41 O 2.9512 0.477259 -3.98855 0
M  V30 42 N 1.1572 -0.286961 -2.8918 0
M  V30 43 H 0.7042 -1.01241 -2.36871 0
M  V30 44 H 0.6622 0.556963 -3.09427 0
M  V30 45 N 4.4343 0.785586 -1.36625 0
M  V30 46 C 5.6803 1.54591 -1.31261 0
M  V30 47 C 6.0133 1.93906 0.106823 0
M  V30 48 O 5.2883 1.63007 1.06108 0
M  V30 49 C 5.5713 2.82038 -2.23889 0
M  V30 50 C 5.4243 2.49066 -3.74548 0
M  V30 51 C 6.7433 3.83887 -2.15217 0
M  V30 52 H 3.8623 0.560846 -0.478143 0
M  V30 53 H 6.5043 0.902278 -1.67209 0
M  V30 54 H 4.6543 3.36961 -1.93363 0
M  V30 55 H 6.3263 2.00164 -4.15611 0
M  V30 56 H 4.5693 1.81954 -3.93796 0
M  V30 57 H 5.2403 3.40109 -4.34776 0
M  V30 58 H 7.7163 3.38421 -2.42096 0
M  V30 59 H 6.5923 4.70806 -2.82193 0
M  V30 60 H 6.8533 4.27131 -1.14068 0
M  V30 61 N 5.9124 1.20967 1.01018 0
M  V30 62 C 6.8424 0.988272 2.11555 0
M  V30 63 C 7.8234 -0.0849778 1.69888 0
M  V30 64 O 9.0084 0.0738202 1.9406 0
M  V30 65 C 6.1384 0.546528 3.42973 0
M  V30 66 C 5.0924 1.56375 3.9841 0
M  V30 67 C 4.4184 0.97842 5.25672 0
M  V30 68 C 5.7184 2.94922 4.31066 0
M  V30 69 H 7.4124 1.91276 2.30334 0
M  V30 70 H 4.9584 0.921073 1.1069 0
M  V30 71 H 6.9114 0.378839 4.19694 0
M  V30 72 H 5.6354 -0.413598 3.23971 0
M  V30 73 H 4.2944 1.71891 3.23804 0
M  V30 74 H 3.9424 0.0101688 5.02999 0
M  V30 75 H 3.6424 1.65784 5.63728 0
M  V30 76 H 5.1664 0.821939 6.05043 0
M  V30 77 H 6.5804 2.8288 4.9865 0
M  V30 78 H 4.9774 3.5983 4.80253 0
M  V30 79 H 6.0474 3.4616 3.39561 0
M  V30 80 N 7.3905 -1.2043 1.01659 0
M  V30 81 C 8.8015 -1.71517 0.737482 0
M  V30 82 C 9.1525 -1.81547 -0.743973 0
M  V30 83 O 8.2775 -1.47803 -1.58061 0
M  V30 84 C 8.8725 -3.11515 1.33206 0
M  V30 85 C 7.4315 -3.59912 1.10183 0
M  V30 86 C 6.5785 -2.37116 1.43776 0
M  V30 87 H 9.5295 -1.05444 1.18606 0
M  V30 88 H 9.5505 -3.73575 0.722636 0
M  V30 89 H 9.0625 -3.04182 2.41028 0
M  V30 90 H 7.1635 -3.72577 0.0412756 0
M  V30 91 H 7.2765 -4.44731 1.78188 0
M  V30 92 H 5.6405 -2.39857 0.856778 0
M  V30 93 H 6.4235 -2.32424 2.52654 0
M  V30 94 N 8.8686 -0.792821 -1.36206 0
M  V30 95 C 10.1146 -0.36733 -1.99446 0
M  V30 96 C 10.4476 1.05917 -1.62774 0
M  V30 97 O 9.7226 1.7324 -0.88421 0
M  V30 98 C 10.0056 -0.535044 -3.56103 0
M  V30 99 C 9.8586 -2.00548 -4.02617 0
M  V30 100 C 11.1776 0.0478191 -4.40074 0
M  V30 101 H 8.2966 -0.134941 -0.724541 0
M  V30 102 H 10.9386 -0.999794 -1.61568 0
M  V30 103 H 9.0886 0.00336329 -3.885 0
M  V30 104 H 10.7606 -2.60521 -3.80692 0
M  V30 105 H 9.0036 -2.50686 -3.54032 0
M  V30 106 H 9.6746 -2.07377 -5.11565 0
M  V30 107 H 12.1506 -0.411822 -4.14057 0
M  V30 108 H 11.0266 -0.0995336 -5.4881 0
M  V30 109 H 11.2876 1.14025 -4.27142 0
M  V30 110 N 10.3467 1.47872 -0.545128 0
M  V30 111 C 11.6237 1.9554 0.0485222 0
M  V30 112 C 12.0037 1.4876 1.49779 0
M  V30 113 O 11.3517 0.720925 2.16829 0
M  V30 114 C 11.5617 3.48898 -0.084417 0
M  V30 115 C 12.9097 4.24547 0.0671239 0
M  V30 116 O 13.9337 3.56198 -0.0113649 0
M  V30 117 O 12.7927 5.45999 0.233882 0
M  V30 118 H 9.8867 0.823957 0.0708773 0
M  V30 119 H 12.4327 1.58327 -0.610798 0
M  V30 120 H 11.2047 3.75714 -1.09337 0
M  V30 121 H 10.8277 3.92845 0.613066 0
M  V30 122 N 11.8248 0.280983 1.55075 0
M  V30 123 C 13.0498 -0.340154 2.04592 0
M  V30 124 C 13.4748 -1.48246 1.15779 0
M  V30 125 O 12.8328 -1.80614 0.15761 0
M  V30 126 C 12.8808 -0.793104 3.5177 0
M  V30 127 O 11.9848 -1.89981 3.66034 0
M  V30 128 H 11.3258 -0.0694289 0.66036 0
M  V30 129 H 13.8558 0.416993 2.00306 0
M  V30 130 H 13.8658 -1.08729 3.93245 0
M  V30 131 H 12.5408 0.0426163 4.15878 0
M  V30 132 H 11.1178 -1.60771 3.36463 0
M  V30 133 N 13.3029 -1.57598 0.00835791 0
M  V30 134 C 14.5799 -1.82172 -0.712235 0
M  V30 135 C 14.9599 -0.887873 -1.9152 0
M  V30 136 O 14.3079 0.06146 -2.28417 0
M  V30 137 C 14.5179 -3.30875 -1.11008 0
M  V30 138 C 15.8659 -3.96826 -1.51044 0
M  V30 139 O 16.8899 -3.35248 -1.20364 0
M  V30 140 O 15.7489 -5.05318 -2.08125 0
M  V30 141 H 12.8429 -0.750435 -0.347529 0
M  V30 142 H 15.3889 -1.69665 0.0344523 0
M  V30 143 H 14.1609 -3.90481 -0.252982 0
M  V30 144 H 13.7839 -3.48412 -1.9156 0
M  V30 145 N 14.781 0.264519 -1.55364 0
M  V30 146 C 15.711 1.33121 -1.91836 0
M  V30 147 C 16.692 1.51101 -0.781192 0
M  V30 148 O 17.877 1.64003 -1.04003 0
M  V30 149 C 15.007 2.68921 -2.19769 0
M  V30 150 C 13.961 2.65661 -3.35571 0
M  V30 151 C 13.287 4.05093 -3.49004 0
M  V30 152 C 14.587 2.24187 -4.71739 0
M  V30 153 H 16.281 1.02844 -2.81182 0
M  V30 154 H 13.827 0.493286 -1.35287 0
M  V30 155 H 15.78 3.43663 -2.43872 0
M  V30 156 H 14.504 3.00799 -1.27231 0
M  V30 157 H 13.163 1.93377 -3.1145 0
M  V30 158 H 12.811 4.34206 -2.53917 0
M  V30 159 H 12.511 4.03804 -4.26868 0
M  V30 160 H 14.035 4.81561 -3.75408 0
M  V30 161 H 15.449 2.88654 -4.9533 0
M  V30 162 H 13.846 2.34044 -5.52579 0
M  V30 163 H 14.916 1.19327 -4.69988 0
M  V30 164 N 16.2591 1.48442 0.529413 0
M  V30 165 C 17.4841 1.60406 1.31471 0
M  V30 166 C 17.9091 0.264738 1.86228 0
M  V30 167 O 17.2671 -0.763668 1.64432 0
M  V30 168 C 17.3151 2.65419 2.44101 0
M  V30 169 O 16.4191 2.22618 3.47153 0
M  V30 170 H 15.7601 0.537863 0.389357 0
M  V30 171 H 18.2901 1.94432 0.636965 0
M  V30 172 H 18.3001 2.86709 2.90279 0
M  V30 173 H 16.9751 3.62652 2.03608 0
M  V30 174 H 15.5521 2.11543 3.0709 0
M  V30 175 N 17.7372 -0.778329 1.37039 0
M  V30 176 C 19.1482 -1.35421 1.28523 0
M  V30 177 C 19.4992 -1.96075 -0.0700901 0
M  V30 178 O 18.6242 -1.93352 -0.971801 0
M  V30 179 C 19.2192 -2.46211 2.32735 0
M  V30 180 C 17.7782 -2.99585 2.27873 0
M  V30 181 C 16.9252 -1.72748 2.16918 0
M  V30 182 H 19.8762 -0.5791 1.47757 0
M  V30 183 H 19.8972 -3.2552 1.9702 0
M  V30 184 H 19.4092 -2.02036 3.31365 0
M  V30 185 H 17.5102 -3.48152 1.32745 0
M  V30 186 H 17.6232 -3.55646 3.21018 0
M  V30 187 H 15.9872 -1.95416 1.63354 0
M  V30 188 H 16.7702 -1.30686 3.17452 0
M  V30 189 N 19.2153 -1.21501 -1.00376 0
M  V30 190 C 20.1633 -0.972442 -2.11297 0
M  V30 191 C 21.1573 0.080731 -1.69208 0
M  V30 192 O 22.3633 -0.0707666 -1.79861 0
M  V30 193 H 18.7383 -0.297218 -0.690772 0
M  V30 194 H 20.7093 -1.91394 -2.28934 0
M  V30 195 C 19.4583 -0.555065 -3.43241 0
M  V30 196 H 18.7813 -1.35709 -3.76062 0
M  V30 197 H 20.2213 -0.424664 -4.21868 0
M  V30 198 C 18.6803 0.734147 -3.28804 0
M  V30 199 O 19.2103 1.78937 -3.59645 0
M  V30 200 N 17.4163 0.701133 -2.82015 0
M  V30 201 H 16.9633 -0.157874 -2.57116 0
M  V30 202 H 16.9213 1.56403 -2.72737 0
M  V30 203 N 20.6934 1.19889 -1.02296 0
M  V30 204 C 21.9424 1.88743 -0.711257 0
M  V30 205 C 22.2554 1.80112 0.762817 0
M  V30 206 O 23.4614 2.44161 1.18733 0
M  V30 207 C 21.9174 3.38525 -1.22185 0
M  V30 208 C 21.5254 3.55727 -2.72328 0
M  V30 209 C 23.2694 4.12893 -0.985864 0
M  V30 210 C 21.1764 4.99369 -3.16835 0
M  V30 211 H 20.1064 0.706885 -0.262353 0
M  V30 212 H 22.7574 1.35586 -1.23648 0
M  V30 213 H 21.1394 3.91044 -0.624571 0
M  V30 214 H 22.3134 3.13564 -3.3766 0
M  V30 215 H 20.6284 2.94739 -2.9414 0
M  V30 216 H 23.2254 5.18813 -1.29374 0
M  V30 217 H 23.5684 4.16228 0.0775055 0
M  V30 218 H 24.1014 3.66494 -1.54684 0
M  V30 219 H 20.8404 5.01193 -4.22476 0
M  V30 220 H 20.3604 5.42317 -2.56228 0
M  V30 221 H 22.0394 5.67988 -3.09837 0
M  V30 222 N 22.1715 0.800033 1.35784 0
M  V30 223 C 23.3965 0.388511 2.03729 0
M  V30 224 C 23.8215 -0.990481 1.5991 0
M  V30 225 O 23.1795 -1.64013 0.772612 0
M  V30 226 C 23.2275 0.4726 3.5749 0
M  V30 227 O 22.3315 -0.51646 4.09153 0
M  V30 228 H 21.6725 0.163271 0.643614 0
M  V30 229 H 24.2025 1.0841 1.73518 0
M  V30 230 H 24.2125 0.34003 4.06581 0
M  V30 231 H 22.8875 1.47848 3.88734 0
M  V30 232 H 21.4645 -0.344673 3.71304 0
M  V30 233 N 23.6496 -1.47581 0.552962 0
M  V30 234 C 24.8776 -2.06875 0.0320556 0
M  V30 235 C 25.2926 -1.40625 -1.25976 0
M  V30 236 O 24.6496 -0.501349 -1.75479 0
M  V30 237 C 24.7006 -3.61092 -0.17167 0
M  V30 238 O 24.4216 -4.24858 1.06899 0
M  V30 239 C 25.9226 -4.37242 -0.730344 0
M  V30 240 H 23.1426 -0.669561 0.043915 0
M  V30 241 H 25.6866 -1.89646 0.765163 0
M  V30 242 H 23.8416 -3.7785 -0.854894 0
M  V30 243 H 24.2556 -5.17334 0.864059 0
M  V30 244 H 25.7296 -5.45842 -0.822203 0
M  V30 245 H 26.2066 -4.03235 -1.74064 0
M  V30 246 H 26.8126 -4.25219 -0.0829543 0
M  V30 247 N 25.1277 -0.289203 -1.54924 0
M  V30 248 C 26.0757 0.607966 -2.24514 0
M  V30 249 C 27.0697 1.14655 -1.24702 0
M  V30 250 O 28.2757 1.09856 -1.4259 0
M  V30 251 H 24.6507 0.21464 -0.720718 0
M  V30 252 H 26.6217 -0.00164182 -2.984 0
M  V30 253 C 25.3707 1.77406 -2.99036 0
M  V30 254 H 24.6937 1.36884 -3.75637 0
M  V30 255 H 26.1337 2.37814 -3.51028 0
M  V30 256 C 24.5927 2.67107 -2.05318 0
M  V30 257 O 25.1227 3.6787 -1.61353 0
M  V30 258 N 23.3287 2.34582 -1.71521 0
M  V30 259 H 22.8757 1.52688 -2.07471 0
M  V30 260 H 22.8337 2.94867 -1.0909 0
M  V30 261 N 26.6058 1.57591 -0.0167156 0
M  V30 262 C 27.8338 1.95575 0.675128 0
M  V30 263 C 28.2488 0.892542 1.6637 0
M  V30 264 O 27.6058 -0.126912 1.82058 0
M  V30 265 C 27.6568 3.33608 1.39239 0
M  V30 266 O 27.3778 4.3585 0.443444 0
M  V30 267 C 28.8788 3.86151 2.17721 0
M  V30 268 H 26.0988 0.644423 0.186978 0
M  V30 269 H 28.6428 2.0437 -0.0728 0
M  V30 270 H 26.7978 3.2607 2.09182 0
M  V30 271 H 27.2118 5.158 0.951358 0
M  V30 272 H 28.6858 4.85114 2.63379 0
M  V30 273 H 29.1628 3.19738 3.01105 0
M  V30 274 H 29.7688 3.96918 1.52761 0
M  V30 275 N 28.0839 -0.256276 1.55502 0
M  V30 276 C 29.3089 -1.00766 1.81276 0
M  V30 277 C 29.7339 -1.78524 0.59252 0
M  V30 278 O 29.0919 -1.75413 -0.45827 0
M  V30 279 C 29.1399 -1.92869 3.04687 0
M  V30 280 O 28.2439 -3.019 2.80945 0
M  V30 281 H 27.5849 -0.287224 0.598664 0
M  V30 282 H 30.1149 -0.280109 2.02674 0
M  V30 283 H 30.1249 -2.34511 3.33869 0
M  V30 284 H 28.7999 -1.35689 3.93143 0
M  V30 285 H 27.3769 -2.64454 2.62904 0
M  V30 286 N 29.562 -1.4872 -0.521534 0
M  V30 287 C 30.472 -1.66569 -1.65203 0
M  V30 288 C 31.488 -0.548197 -1.65139 0
M  V30 289 O 32.664 -0.820339 -1.83936 0
M  V30 290 C 29.729 -1.70917 -3.01642 0
M  V30 291 C 28.79 -2.94356 -3.12495 0
M  V30 292 C 28.023 -2.98487 -4.42426 0
M  V30 293 O 28.246 -2.10786 -5.30024 0
M  V30 294 O 27.18 -3.90746 -4.57822 0
M  V30 295 H 31.006 -2.62298 -1.5308 0
M  V30 296 H 28.591 -1.3222 -0.695565 0
M  V30 297 H 30.473 -1.7625 -3.82771 0
M  V30 298 H 29.148 -0.783633 -3.14071 0
M  V30 299 H 28.055 -2.94552 -2.3063 0
M  V30 300 H 29.388 -3.86322 -3.04986 0
M  V30 301 N 31.0401 0.771051 -1.3745 0
M  V30 302 C 32.4511 1.34737 -1.29239 0
M  V30 303 C 32.8021 1.96109 0.0596908 0
M  V30 304 O 31.9271 1.93865 0.961534 0
M  V30 305 C 32.5221 2.44973 -2.34037 0
M  V30 306 C 31.0811 2.98372 -2.29458 0
M  V30 307 C 30.2281 1.71595 -2.17831 0
M  V30 308 H 33.1791 0.571256 -1.48062 0
M  V30 309 H 33.2001 3.24471 -1.98744 0
M  V30 310 H 32.7121 2.00276 -3.32432 0
M  V30 311 H 30.8131 3.47443 -1.34589 0
M  V30 312 H 30.9261 3.53939 -3.229 0
M  V30 313 H 29.2901 1.94547 -1.64388 0
M  V30 314 H 30.0731 1.29001 -3.18141 0
M  V30 315 N 32.5182 1.22032 0.997298 0
M  V30 316 C 33.4662 0.983634 2.10778 0
M  V30 317 C 34.4602 -0.0717564 1.69248 0
M  V30 318 O 35.6662 0.080304 1.79821 0
M  V30 319 H 32.0412 0.300877 0.689186 0
M  V30 320 H 34.0122 1.92606 2.27916 0
M  V30 321 C 32.7612 0.57326 3.42942 0
M  V30 322 H 32.0842 1.37702 3.75338 0
M  V30 323 H 33.5242 0.447031 4.21637 0
M  V30 324 C 31.9832 -0.7167 3.29188 0
M  V30 325 O 32.5132 -1.77027 3.60589 0
M  V30 326 N 30.7192 -0.686167 2.82383 0
M  V30 327 H 30.2662 0.171507 2.57028 0
M  V30 328 H 30.2242 -1.54955 2.73562 0
M  V30 329 N 33.9963 -1.19345 1.0293 0
M  V30 330 C 34.9283 -2.22036 0.56857 0
M  V30 331 C 35.9413 -1.58865 -0.355779 0
M  V30 332 O 37.1303 -1.77851 -0.152103 0
M  V30 333 C 34.2303 -3.38363 -0.190752 0
M  V30 334 C 33.4033 -4.31118 0.738643 0
M  V30 335 C 32.4623 -5.26194 0.0246497 0
M  V30 336 O 31.4883 -5.65461 0.651354 0
M  V30 337 N 32.6903 -5.66971 -1.24594 0
M  V30 338 H 35.4553 -2.6219 1.45177 0
M  V30 339 H 33.0163 -1.34015 0.908381 0
M  V30 340 H 35.0083 -3.98981 -0.677961 0
M  V30 341 H 33.5783 -2.96994 -0.975366 0
M  V30 342 H 32.7983 -3.68276 1.40593 0
M  V30 343 H 34.0863 -4.90001 1.37029 0
M  V30 344 H 33.4843 -5.37104 -1.77583 0
M  V30 345 H 32.0413 -6.2984 -1.67764 0
M  V30 346 N 35.4744 -0.807222 -1.35358 0
M  V30 347 C 36.7214 -0.387888 -1.9875 0
M  V30 348 C 37.0494 1.04509 -1.64037 0
M  V30 349 O 36.3044 1.73986 -0.895946 0
M  V30 350 C 36.6034 -0.519036 -3.53611 0
M  V30 351 C 36.2694 -1.91542 -4.08194 0
M  V30 352 C 34.9314 -2.29745 -4.22813 0
M  V30 353 C 37.2834 -2.82896 -4.37744 0
M  V30 354 C 34.6114 -3.58668 -4.643 0
M  V30 355 C 36.9634 -4.11265 -4.8067 0
M  V30 356 C 35.6274 -4.49466 -4.93494 0
M  V30 357 H 34.8974 -0.141938 -0.727279 0
M  V30 358 H 37.5444 -1.02814 -1.6156 0
M  V30 359 H 35.8494 0.204658 -3.91265 0
M  V30 360 H 37.5464 -0.175345 -4.00616 0
M  V30 361 H 34.1364 -1.60862 -3.97268 0
M  V30 362 H 38.3204 -2.54629 -4.26002 0
M  V30 363 H 33.5764 -3.88113 -4.72418 0
M  V30 364 H 37.7504 -4.82153 -5.02496 0
M  V30 365 H 35.3774 -5.49418 -5.25399 0
M  V30 366 N 36.9525 1.47285 -0.560781 0
M  V30 367 C 38.1985 2.02764 -0.0381184 0
M  V30 368 C 38.5315 1.43384 1.30976 0
M  V30 369 O 37.8065 0.590733 1.85312 0
M  V30 370 C 38.0895 3.60064 0.0511427 0
M  V30 371 C 37.9425 4.2987 -1.32408 0
M  V30 372 C 39.2615 4.33439 0.762795 0
M  V30 373 H 36.3805 0.736841 -0.0153264 0
M  V30 374 H 39.0225 1.75675 -0.723759 0
M  V30 375 H 37.1725 3.83274 0.635065 0
M  V30 376 H 38.8445 4.17989 -1.95148 0
M  V30 377 H 37.0875 3.90085 -1.8978 0
M  V30 378 H 37.7585 5.38478 -1.21431 0
M  V30 379 H 40.2345 4.15243 0.266965 0
M  V30 380 H 39.1105 5.43124 0.794221 0
M  V30 381 H 39.3715 4.02915 1.81966 0
M  V30 382 N 38.4306 0.297415 1.54768 0
M  V30 383 C 39.3626 -0.613881 2.20826 0
M  V30 384 C 40.3756 -1.10032 1.19987 0
M  V30 385 O 41.5646 -1.01839 1.46598 0
M  V30 386 C 38.6646 -1.852 2.83821 0
M  V30 387 C 37.8376 -1.50865 4.10559 0
M  V30 388 C 36.8966 -2.60154 4.57391 0
M  V30 389 O 35.9226 -2.25398 5.2267 0
M  V30 390 N 37.1246 -3.90629 4.29406 0
M  V30 391 H 39.8896 -0.048389 2.99661 0
M  V30 392 H 37.4506 0.11946 1.61459 0
M  V30 393 H 39.4426 -2.57652 3.12086 0
M  V30 394 H 38.0126 -2.32597 2.08847 0
M  V30 395 H 37.2326 -0.616925 3.89343 0
M  V30 396 H 38.5206 -1.25458 4.9309 0
M  V30 397 H 37.9186 -4.21677 3.77101 0
M  V30 398 H 36.4756 -4.59391 4.62388 0
M  V30 399 N 39.9087 -1.5758 0.0250728 0
M  V30 400 C 41.3197 -1.79476 -0.514323 0
M  V30 401 C 41.6707 -0.934956 -1.72491 0
M  V30 402 O 40.7957 -0.144245 -2.15919 0
M  V30 403 C 41.3907 -3.25503 -0.939842 0
M  V30 404 C 39.9497 -3.48408 -1.42438 0
M  V30 405 C 39.0967 -2.74583 -0.387201 0
M  V30 406 H 42.0477 -1.567 0.25113 0
M  V30 407 H 42.0687 -3.34992 -1.80445 0
M  V30 408 H 41.5807 -3.88056 -0.0585628 0
M  V30 409 H 39.6817 -2.91103 -2.32572 0
M  V30 410 H 39.7947 -4.57119 -1.43455 0
M  V30 411 H 38.1587 -2.39942 -0.854409 0
M  V30 412 H 38.9417 -3.39849 0.485543 0
M  V30 413 N 41.3868 0.248026 -1.55636 0
M  V30 414 C 42.3498 1.29044 -1.89421 0
M  V30 415 C 43.3498 1.41134 -0.770581 0
M  V30 416 O 44.5398 1.39854 -1.03858 0
M  V30 417 C 41.6718 2.66831 -2.12165 0
M  V30 418 H 42.8648 1.00305 -2.82629 0
M  V30 419 H 40.4178 0.487265 -1.48511 0
M  V30 420 H 41.1528 3.00711 -1.21422 0
M  V30 421 H 40.9378 2.59438 -2.93997 0
M  V30 422 H 42.4278 3.42103 -2.3949 0
M  V30 423 N 42.8649 1.48995 0.513639 0
M  V30 424 C 44.1109 1.59053 1.26783 0
M  V30 425 C 44.4659 0.268136 1.90522 0
M  V30 426 O 43.7589 -0.730534 1.77126 0
M  V30 427 C 43.9529 2.67756 2.36731 0
M  V30 428 C 43.7819 4.10437 1.83771 0
M  V30 429 C 42.5519 4.7738 1.65639 0
M  V30 430 C 44.7499 4.9608 1.35681 0
M  V30 431 N 42.7319 6.04419 1.07476 0
M  V30 432 C 44.1029 6.13496 0.895715 0
M  V30 433 C 46.1579 4.82177 1.24136 0
M  V30 434 C 44.8609 7.1854 0.3306 0
M  V30 435 C 46.8869 5.87358 0.690229 0
M  V30 436 C 46.2489 7.03993 0.239292 0
M  V30 437 H 42.3479 0.636463 0.454355 0
M  V30 438 H 44.9319 1.85948 0.577196 0
M  V30 439 H 43.1029 2.42655 3.03271 0
M  V30 440 H 44.8349 2.67406 3.0377 0
M  V30 441 H 41.5899 4.33974 1.8964 0
M  V30 442 H 42.0139 6.72214 0.803579 0
M  V30 443 H 46.6559 3.92329 1.57601 0
M  V30 444 H 44.3739 8.08098 -0.0163435 0
M  V30 445 H 47.9599 5.78658 0.603852 0
M  V30 446 H 46.8399 7.83992 -0.180526 0
M  V30 447 N 44.343 -0.763751 1.37857 0
M  V30 448 C 45.275 -1.88664 1.30148 0
M  V30 449 C 46.288 -1.61365 0.215685 0
M  V30 450 O 47.477 -1.72134 0.472459 0
M  V30 451 C 44.577 -3.24075 0.991396 0
M  V30 452 C 43.75 -3.78958 2.18426 0
M  V30 453 C 42.809 -4.92862 1.8432 0
M  V30 454 O 41.835 -5.08027 2.56704 0
M  V30 455 N 43.037 -5.75071 0.792081 0
M  V30 456 H 45.802 -1.95791 2.26905 0
M  V30 457 H 43.363 -0.943226 1.31586 0
M  V30 458 H 45.355 -3.97804 0.743935 0
M  V30 459 H 43.925 -3.12399 0.112122 0
M  V30 460 H 43.145 -2.96913 2.59299 0
M  V30 461 H 44.433 -4.12357 2.98058 0
M  V30 462 H 43.831 -5.65375 0.191595 0
M  V30 463 H 42.388 -6.48991 0.60449 0
M  V30 464 N 45.8211 -1.22559 -0.990812 0
M  V30 465 C 47.0701 -1.04553 -1.72486 0
M  V30 466 C 47.3831 0.419349 -1.91052 0
M  V30 467 O 48.5891 0.719121 -2.61803 0
M  V30 468 C 47.0451 -1.82231 -3.10355 0
M  V30 469 C 46.6531 -3.32981 -2.99713 0
M  V30 470 C 48.3971 -1.7268 -3.87791 0
M  V30 471 C 46.3041 -4.03091 -4.32748 0
M  V30 472 H 45.2341 -0.387614 -0.646739 0
M  V30 473 H 47.8851 -1.46429 -1.10593 0
M  V30 474 H 46.2671 -1.33155 -3.72942 0
M  V30 475 H 47.4411 -3.89466 -2.46278 0
M  V30 476 H 45.7561 -3.43231 -2.35758 0
M  V30 477 H 48.3531 -2.22381 -4.86262 0
M  V30 478 H 48.6961 -0.687607 -4.10582 0
M  V30 479 H 49.2291 -2.1931 -3.31885 0
M  V30 480 H 45.9681 -5.07273 -4.15156 0
M  V30 481 H 45.4881 -3.51394 -4.86089 0
M  V30 482 H 47.1671 -4.08804 -5.01486 0
M  V30 483 N 47.2992 1.18797 -1.03562 0
M  V30 484 C 48.5452 1.8893 -0.737113 0
M  V30 485 C 48.8782 1.79837 0.732956 0
M  V30 486 O 48.1532 1.19525 1.5344 0
M  V30 487 C 48.4362 3.39607 -1.19745 0
M  V30 488 C 48.2892 3.57537 -2.72924 0
M  V30 489 C 49.6082 4.33069 -0.783526 0
M  V30 490 H 46.7272 0.686057 -0.269249 0
M  V30 491 H 49.3692 1.39797 -1.28673 0
M  V30 492 H 47.5192 3.81583 -0.729855 0
M  V30 493 H 49.1912 3.24688 -3.27682 0
M  V30 494 H 47.4342 3.00363 -3.12993 0
M  V30 495 H 48.1052 4.63238 -3.00191 0
M  V30 496 H 50.5812 3.98846 -1.18581 0
M  V30 497 H 49.4572 5.3707 -1.13343 0
M  V30 498 H 49.7182 4.40986 0.313681 0
M  V30 499 N 48.7773 0.814389 1.34928 0
M  V30 500 C 49.7073 0.244827 2.32213 0
M  V30 501 C 50.6883 -0.634024 1.57842 0
M  V30 502 O 51.8733 -0.562676 1.8587 0
M  V30 503 C 49.0033 -0.601106 3.42058 0
M  V30 504 C 47.9573 0.179896 4.27622 0
M  V30 505 C 47.2833 -0.788237 5.28858 0
M  V30 506 C 48.5833 1.38329 5.03649 0
M  V30 507 H 50.2773 1.05763 2.80097 0
M  V30 508 H 47.8233 0.510029 1.34665 0
M  V30 509 H 49.7763 -1.00968 4.09125 0
M  V30 510 H 48.5003 -1.44688 2.92802 0
M  V30 511 H 47.1593 0.569739 3.62146 0
M  V30 512 H 46.8073 -1.62973 4.75866 0
M  V30 513 H 46.5073 -0.269942 5.8698 0
M  V30 514 H 48.0313 -1.19485 5.98795 0
M  V30 515 H 49.4453 1.04918 5.63618 0
M  V30 516 H 47.8423 1.83662 5.71304 0
M  V30 517 H 48.9123 2.16592 4.33839 0
M  V30 518 N 50.2554 -1.46986 0.568584 0
M  V30 519 C 51.5014 -2.0332 0.0571487 0
M  V30 520 C 51.8564 -1.43384 -1.28291 0
M  V30 521 O 51.1494 -0.584304 -1.82473 0
M  V30 522 C 51.3434 -3.57306 -0.081836 0
M  V30 523 C 51.1724 -4.32174 1.24321 0
M  V30 524 C 49.9424 -4.71633 1.81358 0
M  V30 525 C 52.1404 -4.66598 2.16312 0
M  V30 526 N 50.1224 -5.31191 3.07748 0
M  V30 527 C 51.4934 -5.26578 3.27285 0
M  V30 528 C 53.5484 -4.48527 2.16166 0
M  V30 529 C 52.2514 -5.70395 4.38226 0
M  V30 530 C 54.2774 -4.93351 3.26127 0
M  V30 531 C 53.6394 -5.5339 4.3582 0
M  V30 532 H 49.7384 -0.77943 0.063351 0
M  V30 533 H 52.3224 -1.79323 0.758378 0
M  V30 534 H 50.4934 -3.81046 -0.752207 0
M  V30 535 H 52.2254 -4.00282 -0.59637 0
M  V30 536 H 48.9804 -4.53946 1.35019 0
M  V30 537 H 49.4044 -5.65505 3.72201 0
M  V30 538 H 54.0464 -4.01456 1.32638 0
M  V30 539 H 51.7644 -6.16452 5.22506 0
M  V30 540 H 55.3504 -4.81131 3.27115 0
M  V30 541 H 54.2304 -5.87441 5.19503 0
M  V30 542 N 51.7335 -0.305618 -1.54608 0
M  V30 543 C 52.6965 0.555591 -2.22364 0
M  V30 544 C 53.6965 1.05768 -1.21119 0
M  V30 545 O 54.8865 0.952972 -1.45822 0
M  V30 546 C 52.0185 1.76974 -2.91364 0
M  V30 547 H 53.2115 -0.0364572 -2.99878 0
M  V30 548 H 50.7645 -0.0565007 -1.56198 0
M  V30 549 H 51.4995 2.40151 -2.17941 0
M  V30 550 H 51.2845 1.41732 -3.65588 0
M  V30 551 H 52.7745 2.38148 -3.43038 0
M  V30 552 N 53.2116 1.57565 -0.0334293 0
M  V30 553 C 54.1746 2.09393 0.932048 0
M  V30 554 C 55.1746 1.00986 1.25134 0
M  V30 555 O 56.3646 1.27129 1.19096 0
M  V30 556 C 53.4966 2.56338 2.2473 0
M  V30 557 H 54.6896 2.95984 0.483085 0
M  V30 558 H 52.2426 1.54819 0.21468 0
M  V30 559 H 52.9776 1.7309 2.74245 0
M  V30 560 H 52.7626 3.35542 2.02865 0
M  V30 561 H 54.2526 2.96646 2.93923 0
M  V30 562 N 54.6897 -0.239769 1.55765 0
M  V30 563 C 55.6527 -1.28038 1.90103 0
M  V30 564 C 56.6527 -1.40723 0.778055 0
M  V30 565 O 57.8427 -1.39301 1.04599 0
M  V30 566 C 54.9747 -2.65702 2.13577 0
M  V30 567 H 56.1677 -0.988048 2.83157 0
M  V30 568 H 53.7207 -0.479382 1.48767 0
M  V30 569 H 54.4557 -3.00063 1.23015 0
M  V30 570 H 54.2407 -2.57875 2.95369 0
M  V30 571 H 55.7307 -3.40828 2.41301 0
M  V30 572 N 56.1678 -1.49265 -0.50573 0
M  V30 573 C 57.3978 -1.61979 -1.28243 0
M  V30 574 C 57.8058 -0.288576 -1.86986 0
M  V30 575 O 57.1488 0.735408 -1.68337 0
M  V30 576 C 57.2108 -2.62632 -2.45489 0
M  V30 577 C 56.8748 -4.071 -2.07651 0
M  V30 578 C 57.8718 -4.94049 -1.61901 0
M  V30 579 C 55.5568 -4.52801 -2.17431 0
M  V30 580 C 57.5508 -6.24736 -1.26428 0
M  V30 581 C 55.2378 -5.83503 -1.8157 0
M  V30 582 C 56.2358 -6.69294 -1.36142 0
M  V30 583 O 55.9238 -7.9756 -1.00764 0
M  V30 584 H 55.6558 -0.54834 -0.395347 0
M  V30 585 H 58.2098 -1.96002 -0.614204 0
M  V30 586 H 56.4398 -2.2378 -3.15372 0
M  V30 587 H 58.1288 -2.64925 -3.07522 0
M  V30 588 H 58.8948 -4.5997 -1.53795 0
M  V30 589 H 54.7738 -3.86196 -2.51742 0
M  V30 590 H 58.3178 -6.91652 -0.908992 0
M  V30 591 H 54.2148 -6.17112 -1.89324 0
M  V30 592 H 54.9828 -8.10529 -1.13952 0
M  V30 593 N 57.6459 0.756429 -1.3826 0
M  V30 594 C 58.8739 1.54565 -1.3754 0
M  V30 595 C 59.2889 1.88767 0.0355331 0
M  V30 596 O 58.6459 1.52572 1.0014 0
M  V30 597 C 58.6969 2.84654 -2.22833 0
M  V30 598 O 58.4179 2.51912 -3.5843 0
M  V30 599 C 59.9189 3.78807 -2.30261 0
M  V30 600 H 57.1389 0.478353 -0.470553 0
M  V30 601 H 59.6829 0.936381 -1.81803 0
M  V30 602 H 57.8379 3.41965 -1.8204 0
M  V30 603 H 58.2519 3.35325 -4.03308 0
M  V30 604 H 59.7259 4.67045 -2.94233 0
M  V30 605 H 60.2029 4.19038 -1.31545 0
M  V30 606 H 60.8089 3.2742 -2.71433 0
M  V30 607 N 59.124 1.23083 0.984299 0
M  V30 608 C 60.37 1.06214 1.72761 0
M  V30 609 C 60.703 -0.400584 1.90024 0
M  V30 610 O 59.978 -1.29672 1.44967 0
M  V30 611 C 60.261 1.78375 3.12817 0
M  V30 612 C 60.114 3.32296 3.03149 0
M  V30 613 C 61.433 1.54309 4.12161 0
M  V30 614 H 58.552 0.387251 0.627061 0
M  V30 615 H 61.194 1.51536 1.14616 0
M  V30 616 H 59.344 1.39848 3.62457 0
M  V30 617 H 61.016 3.8032 2.61064 0
M  V30 618 H 59.259 3.6153 2.39747 0
M  V30 619 H 59.93 3.77972 4.02295 0
M  V30 620 H 62.406 1.87791 3.71314 0
M  V30 621 H 61.282 2.07281 5.08258 0
M  V30 622 H 61.543 0.477572 4.39513 0
M  V30 623 N 60.6021 -1.18246 1.0419 0
M  V30 624 C 61.8511 -1.87588 0.741194 0
M  V30 625 C 62.1641 -1.81303 -0.734066 0
M  V30 626 O 63.3701 -2.46019 -1.14834 0
M  V30 627 C 61.8261 -3.36538 1.27555 0
M  V30 628 C 61.4341 -3.51349 2.77953 0
M  V30 629 C 63.1781 -4.11273 1.05143 0
M  V30 630 C 61.0851 -4.94265 3.2474 0
M  V30 631 H 60.0151 -0.702622 0.273565 0
M  V30 632 H 62.6661 -1.33601 1.25789 0
M  V30 633 H 61.0481 -3.9 0.686703 0
M  V30 634 H 62.2221 -3.08153 3.42605 0
M  V30 635 H 60.5371 -2.90022 2.98791 0
M  V30 636 H 63.1341 -5.16689 1.37611 0
M  V30 637 H 63.4771 -4.16298 -0.0112774 0
M  V30 638 H 64.0101 -3.63987 1.60495 0
M  V30 639 H 60.7491 -4.94408 4.30396 0
M  V30 640 H 60.2691 -5.38172 2.64823 0
M  V30 641 H 61.9481 -5.62987 3.18834 0
M  V30 642 N 62.0802 -0.821533 -1.34494 0
M  V30 643 C 63.3262 -0.409552 -1.98622 0
M  V30 644 C 63.6592 1.0244 -1.64984 0
M  V30 645 O 62.9342 1.71325 -0.920758 0
M  V30 646 C 63.2172 -0.610458 -3.54888 0
M  V30 647 C 63.0702 -2.09043 -3.98273 0
M  V30 648 C 64.3892 -0.0455379 -4.40076 0
M  V30 649 H 61.5082 -0.15028 -0.721516 0
M  V30 650 H 64.1502 -1.03384 -1.59411 0
M  V30 651 H 62.3002 -0.079044 -3.8842 0
M  V30 652 H 63.9722 -2.68537 -3.75081 0
M  V30 653 H 62.2152 -2.58139 -3.48635 0
M  V30 654 H 62.8862 -2.18182 -5.07051 0
M  V30 655 H 65.3622 -0.499557 -4.1309 0
M  V30 656 H 64.2382 -0.215922 -5.48475 0
M  V30 657 H 64.4992 1.04939 -4.29465 0
M  V30 658 N 63.5583 1.46682 -0.576371 0
M  V30 659 C 64.8043 2.02712 -0.0596221 0
M  V30 660 C 65.1373 1.44765 1.29448 0
M  V30 661 O 64.4123 0.610355 1.84675 0
M  V30 662 C 64.6953 3.60098 0.0129503 0
M  V30 663 C 64.5483 4.28441 -1.3696 0
M  V30 664 C 65.8673 4.34224 0.71678 0
M  V30 665 H 62.9863 0.736637 -0.0231407 0
M  V30 666 H 65.6283 1.74898 -0.742351 0
M  V30 667 H 63.7783 3.83926 0.594378 0
M  V30 668 H 65.4503 4.15896 -1.9957 0
M  V30 669 H 63.6933 3.8805 -1.93907 0
M  V30 670 H 64.3643 5.3716 -1.27135 0
M  V30 671 H 66.8403 4.15503 0.222908 0
M  V30 672 H 65.7163 5.43936 0.73657 0
M  V30 673 H 65.9773 4.04823 1.77682 0
M  V30 674 N 65.0364 0.313813 1.54444 0
M  V30 675 C 66.2644 -0.293918 2.04802 0
M  V30 676 C 66.6794 -1.46537 1.19047 0
M  V30 677 O 66.0364 -1.81182 0.218939 0
M  V30 678 C 66.0874 -0.737806 3.53891 0
M  V30 679 O 65.8084 0.387038 4.36387 0
M  V30 680 C 67.3094 -1.40936 4.203 0
M  V30 681 H 64.5294 -0.0620057 0.668129 0
M  V30 682 H 67.0734 0.457169 1.99324 0
M  V30 683 H 65.2284 -1.43889 3.59687 0
M  V30 684 H 65.6424 0.0391274 5.24485 0
M  V30 685 H 67.1164 -1.67099 5.26101 0
M  V30 686 H 67.5934 -2.35355 3.70816 0
M  V30 687 H 68.1994 -0.751117 4.18615 0
M  V30 688 N 66.5145 -1.57545 0.0417849 0
M  V30 689 C 67.7395 -1.97035 -0.647455 0
M  V30 690 C 68.1645 -0.918775 -1.64135 0
M  V30 691 O 67.5225 0.119006 -1.80909 0
M  V30 692 C 67.5705 -3.35609 -1.31905 0
M  V30 693 O 66.6745 -3.3287 -2.43457 0
M  V30 694 H 66.0155 -0.64211 -0.169086 0
M  V30 695 H 68.5455 -2.04318 0.107399 0
M  V30 696 H 68.5555 -3.72126 -1.67291 0
M  V30 697 H 67.2305 -4.11685 -0.590586 0
M  V30 698 H 65.8075 -3.08087 -2.10088 0
M  V30 699 N 67.9926 0.231505 -1.5589 0
M  V30 700 C 69.2386 0.95877 -1.78705 0
M  V30 701 C 69.5716 1.8438 -0.609725 0
M  V30 702 O 68.8466 1.90521 0.391426 0
M  V30 703 C 69.1296 1.8062 -3.11526 0
M  V30 704 C 68.9826 0.948328 -4.39689 0
M  V30 705 C 70.3016 2.78585 -3.40703 0
M  V30 706 H 67.4206 0.347129 -0.650131 0
M  V30 707 H 70.0626 0.228259 -1.88624 0
M  V30 708 H 68.2126 2.42902 -3.03201 0
M  V30 709 H 69.8846 0.343016 -4.60023 0
M  V30 710 H 68.1276 0.253314 -4.3306 0
M  V30 711 H 68.7986 1.57543 -5.29041 0
M  V30 712 H 71.2746 2.26439 -3.49091 0
M  V30 713 H 70.1506 3.34988 -4.34826 0
M  V30 714 H 70.4116 3.55825 -2.62375 0
M  V30 715 N 69.4707 1.49531 0.497807 0
M  V30 716 C 70.7167 1.59415 1.25358 0
M  V30 717 C 71.0497 0.281422 1.9215 0
M  V30 718 O 70.3247 -0.715249 1.80871 0
M  V30 719 C 70.6077 2.75566 2.3181 0
M  V30 720 C 70.4607 4.16642 1.69498 0
M  V30 721 C 71.7797 2.87347 3.33346 0
M  V30 722 H 68.8987 0.580244 0.454408 0
M  V30 723 H 71.5407 1.81827 0.551262 0
M  V30 724 H 69.6907 2.56587 2.91711 0
M  V30 725 H 71.3627 4.47145 1.13399 0
M  V30 726 H 69.6057 4.22141 0.998978 0
M  V30 727 H 70.2767 4.93792 2.46725 0
M  V30 728 H 72.7527 3.04634 2.83438 0
M  V30 729 H 71.6287 3.70289 4.05188 0
M  V30 730 H 71.8897 1.96834 3.95865 0
M  V30 731 N 70.9488 -0.749086 1.3866 0
M  V30 732 C 72.1968 -1.50535 1.34847 0
M  V30 733 C 72.5178 -1.94909 -0.0595016 0
M  V30 734 O 71.7878 -1.67973 -1.00806 0
M  V30 735 H 70.3678 -0.558395 0.49619 0
M  V30 736 H 73.0298 -0.890165 1.73384 0
M  V30 737 H 72.1258 -2.39413 2.00219 0
M  V30 738 N 72.4269 -1.23603 -0.977757 0
M  V30 739 C 73.3749 -1.01704 -2.09187 0
M  V30 740 C 74.3689 0.0448214 -1.69341 0
M  V30 741 O 75.5749 -0.108902 -1.7967 0
M  V30 742 H 71.9499 -0.311803 -0.684312 0
M  V30 743 H 73.9209 -1.96207 -2.24823 0
M  V30 744 C 72.6699 -0.627746 -3.41986 0
M  V30 745 H 71.9929 -1.43656 -3.73099 0
M  V30 746 H 73.4329 -0.514053 -4.20872 0
M  V30 747 C 71.8919 0.664238 -3.30287 0
M  V30 748 O 72.4219 1.71268 -3.6336 0
M  V30 749 N 70.6279 0.641156 -2.83439 0
M  V30 750 H 70.1749 -0.212376 -2.56723 0
M  V30 751 H 70.1329 1.50583 -2.75993 0
M  V30 752 N 73.905 1.17692 -1.04816 0
M  V30 753 C 75.151 1.88137 -0.75711 0
M  V30 754 C 75.484 1.80604 0.713841 0
M  V30 755 O 74.759 1.21146 1.52164 0
M  V30 756 C 75.042 3.38318 -1.2334 0
M  V30 757 C 74.895 3.54622 -2.76701 0
M  V30 758 C 76.214 4.32214 -0.829415 0
M  V30 759 H 73.333 0.683163 -0.27651 0
M  V30 760 H 75.975 1.38424 -1.30149 0
M  V30 761 H 74.125 3.80787 -0.770286 0
M  V30 762 H 75.797 3.21194 -3.31107 0
M  V30 763 H 74.04 2.97026 -3.16161 0
M  V30 764 H 74.711 4.60028 -3.05088 0
M  V30 765 H 77.187 3.97565 -1.22805 0
M  V30 766 H 76.063 5.35838 -1.19033 0
M  V30 767 H 76.324 4.41294 0.266891 0
M  V30 768 N 75.3831 0.828654 1.34056 0
M  V30 769 C 76.6291 0.42008 1.98402 0
M  V30 770 C 76.9621 -1.01564 1.65525 0
M  V30 771 O 76.2371 -1.70834 0.929831 0
M  V30 772 C 76.5201 0.62927 3.54559 0
M  V30 773 C 76.3731 2.11152 3.97159 0
M  V30 774 C 77.6921 0.0688756 4.40046 0
M  V30 775 H 74.8111 0.154104 0.720709 0
M  V30 776 H 77.4531 1.04228 1.5886 0
M  V30 777 H 75.6031 0.0996418 3.88372 0
M  V30 778 H 77.2751 2.70522 3.73651 0
M  V30 779 H 75.5181 2.59985 3.47261 0
M  V30 780 H 76.1891 2.20868 5.05887 0
M  V30 781 H 78.6651 0.521458 4.1282 0
M  V30 782 H 77.5411 0.245006 5.48353 0
M  V30 783 H 77.8021 -1.0266 4.30015 0
M  V30 784 N 76.8612 -1.46375 0.584142 0
M  V30 785 C 78.1072 -2.02678 0.0703716 0
M  V30 786 C 78.4402 -1.4545 -1.28678 0
M  V30 787 O 77.7152 -0.62014 -1.84349 0
M  V30 788 C 77.9982 -3.60099 0.00614674 0
M  V30 789 C 77.8512 -4.27709 1.3923 0
M  V30 790 C 79.1702 -4.34598 -0.693742 0
M  V30 791 H 76.2892 -0.736504 0.027047 0
M  V30 792 H 78.9312 -1.74501 0.751615 0
M  V30 793 H 77.0812 -3.84236 -0.574009 0
M  V30 794 H 78.7532 -4.14832 2.01773 0
M  V30 795 H 76.9962 -3.87016 1.95962 0
M  V30 796 H 77.6672 -5.36478 1.29982 0
M  V30 797 H 80.1432 -4.15615 -0.200869 0
M  V30 798 H 79.0192 -5.44318 -0.707714 0
M  V30 799 H 79.2802 -4.05759 -1.75533 0
M  V30 800 N 78.3393 -0.321999 -1.54275 0
M  V30 801 C 79.2723 0.58718 -2.20516 0
M  V30 802 C 80.2503 1.11693 -1.18167 0
M  V30 803 O 81.4343 1.18122 -1.46899 0
M  V30 804 C 78.5613 1.80554 -2.86562 0
M  V30 805 C 77.6073 1.40718 -4.02617 0
M  V30 806 S 78.4403 0.445218 -5.33646 0
M  V30 807 C 79.5963 1.6709 -6.03185 0
M  V30 808 H 79.8293 0.0244875 -2.9729 0
M  V30 809 H 77.3623 -0.106087 -1.54035 0
M  V30 810 H 79.3203 2.50462 -3.25237 0
M  V30 811 H 77.9813 2.33942 -2.09595 0
M  V30 812 H 77.1743 2.31501 -4.47687 0
M  V30 813 H 76.7763 0.78782 -3.65608 0
M  V30 814 H 79.0683 2.60856 -6.25268 0
M  V30 815 H 80.0113 1.26239 -6.96756 0
M  V30 816 H 80.4193 1.85716 -5.33076 0
M  V30 817 N 79.8174 1.5752 -0.0501392 0
M  V30 818 C 81.0634 1.93755 0.618901 0
M  V30 819 C 81.4184 0.928514 1.68512 0
M  V30 820 O 80.7114 -0.0524613 1.91528 0
M  V30 821 C 80.9054 3.34467 1.25963 0
M  V30 822 C 80.7344 4.48965 0.257 0
M  V30 823 C 79.5044 5.05075 -0.150656 0
M  V30 824 C 81.7024 5.11891 -0.497166 0
M  V30 825 N 79.6844 6.03104 -1.14626 0
M  V30 826 C 81.0554 6.05216 -1.34588 0
M  V30 827 C 83.1104 4.9479 -0.55559 0
M  V30 828 C 81.8134 6.83277 -2.24778 0
M  V30 829 C 83.8394 5.73477 -1.44492 0
M  V30 830 C 83.2014 6.66433 -2.28136 0
M  V30 831 H 79.3004 0.756479 0.198149 0
M  V30 832 H 81.8844 1.94316 -0.122229 0
M  V30 833 H 80.0554 3.34685 1.97079 0
M  V30 834 H 81.7874 3.57994 1.88739 0
M  V30 835 H 78.5424 4.7305 0.228094 0
M  V30 836 H 78.9664 6.56813 -1.64092 0
M  V30 837 H 83.6084 4.2273 0.0768625 0
M  V30 838 H 81.3264 7.54629 -2.89069 0
M  V30 839 H 84.9124 5.62273 -1.49468 0
M  V30 840 H 83.7924 7.26258 -2.95835 0
M  V30 841 N 81.2955 -0.223234 1.56011 0
M  V30 842 C 82.5445 -0.945912 1.78144 0
M  V30 843 C 82.8575 -1.85567 0.618396 0
M  V30 844 O 84.0635 -2.61688 0.723318 0
M  V30 845 C 82.5195 -1.73216 3.15475 0
M  V30 846 C 82.1275 -0.868619 4.39499 0
M  V30 847 C 83.8715 -2.44615 3.46935 0
M  V30 848 C 81.7785 -1.65212 5.67855 0
M  V30 849 H 80.7085 -0.356929 0.664167 0
M  V30 850 H 83.3595 -0.199845 1.82409 0
M  V30 851 H 81.7415 -2.52107 3.05382 0
M  V30 852 H 82.9155 -0.120366 4.60643 0
M  V30 853 H 81.2305 -0.26683 4.15544 0
M  V30 854 H 83.8275 -3.03732 4.40058 0
M  V30 855 H 84.1705 -3.17417 2.69355 0
M  V30 856 H 84.7035 -1.72715 3.58349 0
M  V30 857 H 81.4425 -0.967407 6.48322 0
M  V30 858 H 80.9625 -2.37503 5.50774 0
M  V30 859 H 82.6415 -2.21322 6.07968 0
M  V30 860 N 82.7736 -1.49793 -0.48987 0
M  V30 861 C 84.0226 -1.59085 -1.23995 0
M  V30 862 C 84.3356 -0.287907 -1.9347 0
M  V30 863 O 85.5416 -0.259506 -2.70257 0
M  V30 864 C 83.9976 -2.80736 -2.252 0
M  V30 865 C 83.6056 -4.17833 -1.61614 0
M  V30 866 C 85.3496 -2.99364 -3.00967 0
M  V30 867 C 83.2566 -5.30693 -2.60996 0
M  V30 868 H 82.1866 -0.592372 -0.466488 0
M  V30 869 H 84.8376 -1.76197 -0.51252 0
M  V30 870 H 83.2196 -2.57142 -3.01154 0
M  V30 871 H 84.3936 -4.51608 -0.915774 0
M  V30 872 H 82.7086 -4.04656 -0.981977 0
M  V30 873 H 85.3056 -3.80851 -3.75308 0
M  V30 874 H 85.6486 -2.10356 -3.59244 0
M  V30 875 H 86.1816 -3.2305 -2.32128 0
M  V30 876 H 82.9206 -6.21796 -2.07485 0
M  V30 877 H 82.4406 -5.01359 -3.2924 0
M  V30 878 H 84.1196 -5.6049 -3.23202 0
M  V30 879 N 84.2517 0.741722 -1.39055 0
M  V30 880 C 85.1817 1.869 -1.39966 0
M  V30 881 C 86.1627 1.6804 -0.26392 0
M  V30 882 O 87.3477 1.88458 -0.468755 0
M  V30 883 C 84.4777 3.24572 -1.23574 0
M  V30 884 C 83.4317 3.58056 -2.34477 0
M  V30 885 C 82.7577 4.94593 -2.0318 0
M  V30 886 C 84.0577 3.61716 -3.76774 0
M  V30 887 H 85.7517 1.86395 -2.34302 0
M  V30 888 H 83.2977 0.895361 -1.1278 0
M  V30 889 H 85.2507 4.031 -1.22834 0
M  V30 890 H 83.9747 3.25587 -0.257045 0
M  V30 891 H 82.6337 2.81854 -2.34423 0
M  V30 892 H 82.2817 4.92181 -1.03765 0
M  V30 893 H 81.9817 5.17964 -2.77465 0
M  V30 894 H 83.5057 5.75486 -2.04079 0
M  V30 895 H 84.9197 4.30335 -3.78794 0
M  V30 896 H 83.3167 3.96603 -4.50362 0
M  V30 897 H 84.3867 2.61672 -4.08235 0
M  V30 898 N 85.7298 1.2412 0.971189 0
M  V30 899 C 86.6928 1.03156 2.04674 0
M  V30 900 C 87.6928 -0.00990322 1.60797 0
M  V30 901 O 88.8828 0.230729 1.72665 0
M  V30 902 C 86.0148 0.562765 3.36223 0
M  V30 903 H 87.2078 1.98614 2.24705 0
M  V30 904 H 84.7608 1.06293 1.14593 0
M  V30 905 H 85.4958 -0.395176 3.21883 0
M  V30 906 H 85.2808 1.31441 3.69413 0
M  V30 907 H 86.7708 0.437015 4.15307 0
M  V30 908 N 87.2079 -1.17134 1.05439 0
M  V30 909 C 88.1579 -2.1919 0.627675 0
M  V30 910 C 89.1419 -1.57328 -0.337147 0
M  V30 911 O 90.3339 -1.76329 -0.153976 0
M  V30 912 C 87.4629 -3.43299 0.00651435 0
M  V30 913 C 86.5489 -4.12255 0.995312 0
M  V30 914 N 86.9399 -4.56997 2.16765 0
M  V30 915 C 85.2379 -4.38316 0.824336 0
M  V30 916 C 85.9389 -5.10239 2.7934 0
M  V30 917 N 84.9149 -5.02595 2.07122 0
M  V30 918 H 88.7169 -2.5149 1.52086 0
M  V30 919 H 86.2309 -1.33491 0.924868 0
M  V30 920 H 88.2279 -4.15693 -0.316965 0
M  V30 921 H 86.8879 -3.1249 -0.882033 0
M  V30 922 H 87.8989 -4.51006 2.54587 0
M  V30 923 H 84.5759 -4.17498 -0.0129526 0
M  V30 924 H 85.9659 -5.54961 3.78772 0
M  V30 925 N 88.686 -0.835752 -1.33615 0
M  V30 926 C 89.633 -0.26473 -2.29277 0
M  V30 927 C 90.603 0.617712 -1.54187 0
M  V30 928 O 91.788 0.556641 -1.825 0
M  V30 929 C 88.928 0.556777 -3.40579 0
M  V30 930 C 88.041 -0.349339 -4.30585 0
M  V30 931 C 87.176 0.482969 -5.29 0
M  V30 932 C 86.215 -0.421732 -6.10645 0
M  V30 933 N 85.352 0.372262 -7.01112 0
M  V30 934 H 90.192 -1.08582 -2.77514 0
M  V30 935 H 87.729 -0.546927 -1.36554 0
M  V30 936 H 89.687 1.04852 -4.03809 0
M  V30 937 H 88.317 1.34286 -2.93542 0
M  V30 938 H 87.369 -0.959372 -3.68104 0
M  V30 939 H 88.681 -1.04445 -4.87742 0
M  V30 940 H 87.835 1.03866 -5.97743 0
M  V30 941 H 86.574 1.21153 -4.72412 0
M  V30 942 H 85.579 -0.989464 -5.40823 0
M  V30 943 H 86.804 -1.14861 -6.69316 0
M  V30 944 H 84.75 1.08426 -6.46977 0
M  V30 945 H 84.667 -0.264198 -7.55538 0
M  V30 946 H 85.935 0.910293 -7.74167 0
M  V30 947 N 90.1641 1.46063 -0.591896 0
M  V30 948 C 91.5801 1.57561 -0.254288 0
M  V30 949 C 91.7801 1.58565 1.24336 0
M  V30 950 O 90.8361 1.50753 2.02558 0
M  V30 951 C 92.1491 2.86549 -0.911611 0
M  V30 952 C 93.6971 3.00197 -0.886059 0
M  V30 953 C 94.1721 4.31933 -1.5231 0
M  V30 954 N 95.6631 4.38654 -1.48786 0
M  V30 955 C 96.3981 5.39222 -1.95006 0
M  V30 956 N 95.8941 6.46414 -2.49241 0
M  V30 957 N 97.6871 5.3048 -1.85868 0
M  V30 958 H 89.8381 1.43655 -1.56451 0
M  V30 959 H 92.1011 0.68583 -0.654478 0
M  V30 960 H 91.8071 2.91651 -1.96551 0
M  V30 961 H 91.6811 3.74794 -0.425368 0
M  V30 962 H 94.0681 2.9467 0.159246 0
M  V30 963 H 94.1491 2.13403 -1.41041 0
M  V30 964 H 93.7931 4.38217 -2.56765 0
M  V30 965 H 93.7231 5.17516 -0.973891 0
M  V30 966 H 96.2141 3.61793 -1.09151 0
M  V30 967 H 96.5271 7.19376 -2.82344 0
M  V30 968 H 94.8721 6.47208 -2.53272 0
M  V30 969 H 98.0631 4.45643 -1.43248 0
M  V30 970 H 98.2361 6.08711 -2.22204 0
M  V30 971 N 91.6422 0.330177 1.54103 0
M  V30 972 C 92.5752 -0.575477 2.20825 0
M  V30 973 C 93.5532 -1.11064 1.18758 0
M  V30 974 O 94.7372 -1.17341 1.47524 0
M  V30 975 C 91.8642 -1.79032 2.87516 0
M  V30 976 C 90.9102 -1.38581 4.03358 0
M  V30 977 S 91.7432 -0.416911 5.33875 0
M  V30 978 C 92.8992 -1.63889 6.04062 0
M  V30 979 H 93.1322 -0.00872114 2.97299 0
M  V30 980 H 90.6652 0.114254 1.53977 0
M  V30 981 H 92.6232 -2.48734 3.2656 0
M  V30 982 H 91.2842 -2.32827 2.10832 0
M  V30 983 H 90.4772 -2.29123 4.48908 0
M  V30 984 H 90.0792 -0.768419 3.66021 0
M  V30 985 H 92.3712 -2.57536 6.26643 0
M  V30 986 H 93.3142 -1.22542 6.97416 0
M  V30 987 H 93.7222 -1.82887 5.34053 0
M  V30 988 N 93.1203 -1.57491 0.0584922 0
M  V30 989 C 94.5363 -1.56792 -0.298091 0
M  V30 990 C 94.7363 -1.06679 -1.70944 0
M  V30 991 O 93.7923 -0.726672 -2.41818 0
M  V30 992 C 95.1053 -3.00461 -0.119879 0
M  V30 993 C 96.6533 -3.1242 -0.190428 0
M  V30 994 C 97.1283 -4.57982 -0.0406567 0
M  V30 995 N 98.6193 -4.63099 -0.0966958 0
M  V30 996 C 99.3543 -5.734 -0.00502943 0
M  V30 997 N 98.8503 -6.9266 0.139402 0
M  V30 998 N 100.643 -5.62067 -0.0611391 0
M  V30 999 H 92.7943 -1.88386 0.98105 0
M  V30 1000 H 95.0573 -0.867865 0.381463 0
M  V30 1001 H 94.7633 -3.41187 0.85349 0
M  V30 1002 H 94.6373 -3.66843 -0.877833 0
M  V30 1003 H 97.0243 -2.71589 -1.15427 0
M  V30 1004 H 97.1053 -2.48702 0.598405 0
M  V30 1005 H 96.7493 -4.995 0.919897 0
M  V30 1006 H 96.6793 -5.19715 -0.848727 0
M  V30 1007 H 99.1703 -3.77331 -0.207277 0
M  V30 1008 H 99.4833 -7.72536 0.201855 0
M  V30 1009 H 97.8283 -6.94781 0.174586 0
M  V30 1010 H 101.019 -4.67782 -0.172583 0
M  V30 1011 H 101.192 -6.47999 0.0137562 0
M  V30 1012 N 94.5984 0.214957 -1.56127 0
M  V30 1013 C 95.8264 0.955092 -1.83536 0
M  V30 1014 C 96.2414 1.77677 -0.638472 0
M  V30 1015 O 95.5984 1.78219 0.392968 0
M  V30 1016 C 95.6494 1.86734 -3.09536 0
M  V30 1017 O 95.3704 1.07887 -4.24608 0
M  V30 1018 C 96.8714 2.72082 -3.4998 0
M  V30 1019 H 94.0914 0.279611 -0.609966 0
M  V30 1020 H 96.6354 0.228197 -2.03223 0
M  V30 1021 H 94.7904 2.5481 -2.91806 0
M  V30 1022 H 95.2044 1.69872 -4.9623 0
M  V30 1023 H 96.6784 3.31782 -4.41163 0
M  V30 1024 H 97.1554 3.44806 -2.7204 0
M  V30 1025 H 97.7614 2.09409 -3.70173 0
M  V30 1026 N 96.0765 1.50051 0.48192 0
M  V30 1027 C 97.3225 1.60736 1.2366 0
M  V30 1028 C 97.6555 0.301786 1.91841 0
M  V30 1029 O 96.9305 -0.696025 1.8162 0
M  V30 1030 C 97.2135 2.78009 2.28874 0
M  V30 1031 C 97.0665 4.18416 1.65069 0
M  V30 1032 C 98.3855 2.90867 3.30279 0
M  V30 1033 H 95.5045 0.585031 0.448228 0
M  V30 1034 H 98.1465 1.82402 0.531946 0
M  V30 1035 H 96.2965 2.59667 2.88973 0
M  V30 1036 H 97.9685 4.48322 1.0865 0
M  V30 1037 H 96.2115 4.23177 0.954148 0
M  V30 1038 H 96.8825 4.96381 2.41474 0
M  V30 1039 H 99.3585 3.07623 2.80191 0
M  V30 1040 H 98.2345 3.74566 4.01238 0
M  V30 1041 H 98.4955 2.01021 3.93755 0
M  V30 1042 N 97.5546 -0.734337 1.39446 0
M  V30 1043 C 98.7826 -1.52358 1.39981 0
M  V30 1044 C 99.1976 -1.88799 -0.0054975 0
M  V30 1045 O 98.5546 -1.54146 -0.976998 0
M  V30 1046 C 98.6056 -2.81072 2.27333 0
M  V30 1047 O 98.3266 -2.46178 3.62392 0
M  V30 1048 C 99.8276 -3.75096 2.36259 0
M  V30 1049 H 97.0476 -0.470806 0.478103 0
M  V30 1050 H 99.5916 -0.907339 1.83269 0
M  V30 1051 H 97.7466 -3.39026 1.87457 0
M  V30 1052 H 98.1606 -3.28866 4.08592 0
M  V30 1053 H 99.6346 -4.62305 3.01626 0
M  V30 1054 H 100.112 -4.16892 1.38194 0
M  V30 1055 H 100.718 -3.23061 2.76608 0
M  V30 1056 N 99.0327 -1.24633 -0.964593 0
M  V30 1057 C 99.9807 -1.03917 -2.08096 0
M  V30 1058 C 100.975 0.0268581 -1.69379 0
M  V30 1059 O 102.181 -0.127952 -1.79545 0
M  V30 1060 H 98.5557 -0.319044 -0.680966 0
M  V30 1061 H 100.527 -1.98581 -2.22729 0
M  V30 1062 C 99.2757 -0.663983 -3.41301 0
M  V30 1063 H 98.5987 -1.47605 -3.71555 0
M  V30 1064 H 100.039 -0.558663 -4.20303 0
M  V30 1065 C 98.4977 0.629169 -3.30973 0
M  V30 1066 O 99.0277 1.67404 -3.65156 0
M  V30 1067 N 97.2337 0.611057 -2.84103 0
M  V30 1068 H 96.7807 -0.239593 -2.56483 0
M  V30 1069 H 96.7387 1.47647 -2.77575 0
M  V30 1070 N 100.511 1.16574 -1.06058 0
M  V30 1071 C 101.741 1.90675 -0.795397 0
M  V30 1072 C 102.149 1.77547 0.653735 0
M  V30 1073 O 101.492 1.11611 1.45907 0
M  V30 1074 C 101.554 3.42011 -1.10764 0
M  V30 1075 C 101.218 3.78924 -2.55471 0
M  V30 1076 C 102.215 3.81042 -3.53699 0
M  V30 1077 C 99.8998 4.09626 -2.90708 0
M  V30 1078 C 101.894 4.13346 -4.85205 0
M  V30 1079 C 99.5808 4.41597 -4.22416 0
M  V30 1080 C 100.579 4.43436 -5.19474 0
M  V30 1081 O 100.267 4.74649 -6.48817 0
M  V30 1082 H 99.9988 0.611554 -0.288058 0
M  V30 1083 H 102.553 1.48711 -1.41683 0
M  V30 1084 H 100.783 3.84312 -0.429128 0
M  V30 1085 H 102.472 3.97384 -0.827077 0
M  V30 1086 H 103.238 3.57437 -3.27817 0
M  V30 1087 H 99.1168 4.07361 -2.15819 0
M  V30 1088 H 102.661 4.14696 -5.60957 0
M  V30 1089 H 98.5578 4.64667 -4.48056 0
M  V30 1090 H 99.3258 4.9247 -6.5377 0
M  V30 1091 N 101.989 0.842826 1.3317 0
M  V30 1092 C 103.236 0.440447 1.97652 0
M  V30 1093 C 103.564 -1.00123 1.6675 0
M  V30 1094 O 102.819 -1.7155 0.941761 0
M  V30 1095 C 103.118 0.612607 3.52111 0
M  V30 1096 C 102.784 2.02297 4.02972 0
M  V30 1097 C 101.446 2.40874 4.16573 0
M  V30 1098 C 103.798 2.94402 4.30089 0
M  V30 1099 C 101.126 3.70852 4.54627 0
M  V30 1100 C 103.478 4.23865 4.69597 0
M  V30 1101 C 102.142 4.62392 4.81404 0
M  V30 1102 H 101.412 0.161171 0.72326 0
M  V30 1103 H 104.059 1.07061 1.58777 0
M  V30 1104 H 102.364 -0.100849 3.9167 0
M  V30 1105 H 104.061 0.2815 4.00011 0
M  V30 1106 H 100.651 1.71338 3.92863 0
M  V30 1107 H 104.835 2.65835 4.19101 0
M  V30 1108 H 100.091 4.00501 4.61962 0
M  V30 1109 H 104.265 4.95306 4.89536 0
M  V30 1110 H 101.892 5.63154 5.10648 0
M  V30 1111 N 103.467 -1.45747 0.599634 0
M  V30 1112 C 104.397 -2.33235 -0.111306 0
M  V30 1113 C 105.378 -1.46359 -0.866781 0
M  V30 1114 O 106.563 -1.75146 -0.838904 0
M  V30 1115 C 103.693 -3.28932 -1.11451 0
M  V30 1116 C 102.647 -4.25381 -0.472772 0
M  V30 1117 C 101.973 -5.1071 -1.58365 0
M  V30 1118 C 103.273 -5.18831 0.600948 0
M  V30 1119 H 104.967 -2.92927 0.61919 0
M  V30 1120 H 102.513 -1.40857 0.299215 0
M  V30 1121 H 104.466 -3.89002 -1.62036 0
M  V30 1122 H 103.19 -2.67381 -1.8755 0
M  V30 1123 H 101.849 -3.66598 0.0121472 0
M  V30 1124 H 101.497 -4.45533 -2.33473 0
M  V30 1125 H 101.197 -5.7604 -1.15982 0
M  V30 1126 H 102.721 -5.73647 -2.09194 0
M  V30 1127 H 104.135 -5.73019 0.179491 0
M  V30 1128 H 102.532 -5.92595 0.946076 0
M  V30 1129 H 103.602 -4.6174 1.48068 0
M  V30 1130 N 104.945 -0.338344 -1.53925 0
M  V30 1131 C 106.191 0.260143 -2.01125 0
M  V30 1132 C 106.524 1.50617 -1.22589 0
M  V30 1133 O 105.799 1.91979 -0.312113 0
M  V30 1134 C 106.082 0.579499 -3.55407 0
M  V30 1135 C 105.935 -0.678264 -4.44657 0
M  V30 1136 C 107.254 1.39122 -4.17532 0
M  V30 1137 H 104.373 0.0930772 -0.731099 0
M  V30 1138 H 107.015 -0.457852 -1.84401 0
M  V30 1139 H 105.165 1.19118 -3.69788 0
M  V30 1140 H 106.837 -1.31631 -4.42121 0
M  V30 1141 H 105.08 -1.3042 -4.13731 0
M  V30 1142 H 105.751 -0.410143 -5.50474 0
M  V30 1143 H 108.227 0.874035 -4.06817 0
M  V30 1144 H 107.103 1.58342 -5.25565 0
M  V30 1145 H 107.364 2.39178 -3.71815 0
M  V30 1146 N 106.423 1.57458 -0.0668435 0
M  V30 1147 C 107.371 2.13639 0.919851 0
M  V30 1148 C 108.365 1.07204 1.31163 0
M  V30 1149 O 109.571 1.25591 1.28945 0
M  V30 1150 H 105.946 0.683048 0.314562 0
M  V30 1151 H 107.917 2.95415 0.421047 0
M  V30 1152 C 106.666 2.70892 2.17975 0
M  V30 1153 H 105.989 3.5246 1.88711 0
M  V30 1154 H 107.429 3.13803 2.85138 0
M  V30 1155 C 105.888 1.65414 2.93496 0
M  V30 1156 O 106.418 1.07619 3.87015 0
M  V30 1157 N 104.624 1.36564 2.56512 0
M  V30 1158 H 104.171 1.83751 1.80536 0
M  V30 1159 H 104.129 0.66223 3.07347 0
M  V30 1160 N 107.901 -0.206675 1.56239 0
M  V30 1161 C 108.831 -1.25909 1.96645 0
M  V30 1162 C 109.812 -1.48097 0.836734 0
M  V30 1163 O 110.997 -1.6003 1.10019 0
M  V30 1164 C 108.127 -2.6058 2.29599 0
M  V30 1165 C 107.081 -2.53024 3.452 0
M  V30 1166 C 106.407 -3.91861 3.63798 0
M  V30 1167 C 107.707 -2.06524 4.79734 0
M  V30 1168 H 109.401 -0.923369 2.84806 0
M  V30 1169 H 106.947 -0.442735 1.37025 0
M  V30 1170 H 108.9 -3.34375 2.56459 0
M  V30 1171 H 107.624 -2.95869 1.38307 0
M  V30 1172 H 106.283 -1.81684 3.18412 0
M  V30 1173 H 105.931 -4.24483 2.69857 0
M  V30 1174 H 105.631 -3.87683 4.4156 0
M  V30 1175 H 107.155 -4.67296 3.93022 0
M  V30 1176 H 108.569 -2.70072 5.05702 0
M  V30 1177 H 106.966 -2.13374 5.60885 0
M  V30 1178 H 108.036 -1.01802 4.74093 0
M  V30 1179 N 109.379 -1.50304 -0.473955 0
M  V30 1180 C 110.342 -1.6841 -1.55469 0
M  V30 1181 C 111.342 -0.554905 -1.50922 0
M  V30 1182 O 112.532 -0.821882 -1.53593 0
M  V30 1183 C 109.664 -1.70667 -2.95102 0
M  V30 1184 H 110.857 -2.64828 -1.40733 0
M  V30 1185 H 108.41 -1.39742 -0.700132 0
M  V30 1186 H 109.145 -0.75932 -3.15285 0
M  V30 1187 H 108.93 -2.52698 -2.9981 0
M  V30 1188 H 110.42 -1.8664 -3.73571 0
M  V30 1189 N 110.857 0.726932 -1.39834 0
M  V30 1190 C 112.104 1.48664 -1.37496 0
M  V30 1191 C 112.432 1.94482 0.0264678 0
M  V30 1192 O 111.687 1.67692 1.00886 0
M  V30 1193 C 111.986 2.73495 -2.30077 0
M  V30 1194 C 111.652 2.46502 -3.77555 0
M  V30 1195 C 110.314 2.3885 -4.17737 0
M  V30 1196 C 112.666 2.23604 -4.70798 0
M  V30 1197 C 109.994 2.06352 -5.49214 0
M  V30 1198 C 112.346 1.92622 -6.02561 0
M  V30 1199 C 111.01 1.83444 -6.41798 0
M  V30 1200 H 110.28 0.544001 -0.503135 0
M  V30 1201 H 112.927 0.833657 -1.72402 0
M  V30 1202 H 111.232 3.43575 -1.88317 0
M  V30 1203 H 112.929 3.31549 -2.25558 0
M  V30 1204 H 109.519 2.5334 -3.45712 0
M  V30 1205 H 113.703 2.28479 -4.40581 0
M  V30 1206 H 108.959 1.97776 -5.78528 0
M  V30 1207 H 113.133 1.73914 -6.74334 0
M  V30 1208 H 110.76 1.58029 -7.43593 0
M  V30 1209 N 112.336 1.25143 0.95797 0
M  V30 1210 C 113.299 1.05321 2.03569 0
M  V30 1211 C 114.299 0.007152 1.60798 0
M  V30 1212 O 115.489 0.24903 1.72411 0
M  V30 1213 C 112.621 0.598394 3.35607 0
M  V30 1214 H 113.814 2.00986 2.22586 0
M  V30 1215 H 111.367 1.07502 1.13459 0
M  V30 1216 H 112.102 -0.361014 3.22284 0
M  V30 1217 H 111.887 1.35351 3.67998 0
M  V30 1218 H 113.377 0.48104 4.1482 0
M  V30 1219 N 113.814 -1.1601 1.06675 0
M  V30 1220 C 114.724 -2.24156 0.692179 0
M  V30 1221 C 115.74 -1.71507 -0.293513 0
M  V30 1222 O 116.916 -2.009 -0.141861 0
M  V30 1223 C 113.981 -3.46587 0.0884131 0
M  V30 1224 C 113.042 -4.14257 1.12646 0
M  V30 1225 C 112.275 -5.30844 0.551416 0
M  V30 1226 O 112.498 -5.66858 -0.634656 0
M  V30 1227 O 111.432 -5.87848 1.29298 0
M  V30 1228 H 115.258 -2.58513 1.59388 0
M  V30 1229 H 112.843 -1.23599 0.83926 0
M  V30 1230 H 114.725 -4.20679 -0.246361 0
M  V30 1231 H 113.4 -3.13994 -0.786712 0
M  V30 1232 H 112.307 -3.42118 1.51348 0
M  V30 1233 H 113.64 -4.50914 1.97325 0
M  V30 1234 N 115.292 -0.849877 -1.32721 0
M  V30 1235 C 116.255 -0.296122 -2.27279 0
M  V30 1236 C 117.255 0.541458 -1.5141 0
M  V30 1237 O 118.445 0.353658 -1.70572 0
M  V30 1238 C 115.577 0.581579 -3.35902 0
M  V30 1239 H 116.77 -1.13064 -2.77771 0
M  V30 1240 H 114.323 -0.62383 -1.43311 0
M  V30 1241 H 115.058 1.43809 -2.9067 0
M  V30 1242 H 114.843 -0.0178814 -3.92096 0
M  V30 1243 H 116.333 0.961951 -4.0637 0
M  V30 1244 N 116.77 1.45427 -0.607355 0
M  V30 1245 C 117.995 2.07124 -0.107006 0
M  V30 1246 C 118.42 1.44906 1.19933 0
M  V30 1247 O 117.778 0.541687 1.73019 0
M  V30 1248 C 117.826 3.60595 0.0194119 0
M  V30 1249 O 116.93 3.98285 1.0697 0
M  V30 1250 H 116.271 0.659868 -0.0739597 0
M  V30 1251 H 118.801 1.86683 -0.837297 0
M  V30 1252 H 118.811 4.07419 0.2177 0
M  V30 1253 H 117.486 4.05266 -0.934453 0
M  V30 1254 H 116.063 3.63133 0.847889 0
M  V30 1255 N 118.248 0.346503 1.53744 0
M  V30 1256 C 119.181 -0.552023 2.21423 0
M  V30 1257 C 120.159 -1.09798 1.19929 0
M  V30 1258 O 121.343 -1.1577 1.4876 0
M  V30 1259 C 118.47 -1.75972 2.89398 0
M  V30 1260 C 117.516 -1.34295 4.04805 0
M  V30 1261 S 118.349 -0.360263 5.34287 0
M  V30 1262 C 119.505 -1.57473 6.05767 0
M  V30 1263 H 119.738 0.0228119 2.97291 0
M  V30 1264 H 117.271 0.130579 1.53847 0
M  V30 1265 H 119.229 -2.45256 3.2918 0
M  V30 1266 H 117.89 -2.30578 2.1329 0
M  V30 1267 H 117.083 -2.24349 4.51313 0
M  V30 1268 H 116.685 -0.729555 3.66815 0
M  V30 1269 H 118.977 -2.50875 6.29339 0
M  V30 1270 H 119.92 -1.15138 6.98676 0
M  V30 1271 H 120.328 -1.77212 5.35963 0
M  V30 1272 N 119.726 -1.57421 0.075193 0
M  V30 1273 C 120.689 -2.11791 -0.876203 0
M  V30 1274 C 121.689 -1.04268 -1.22412 0
M  V30 1275 O 122.879 -1.30242 -1.15684 0
M  V30 1276 C 120.011 -2.62207 -2.17854 0
M  V30 1277 H 121.204 -2.9716 -0.40444 0
M  V30 1278 H 118.757 -1.55333 -0.173557 0
M  V30 1279 H 119.492 -1.803 -2.6956 0
M  V30 1280 H 119.277 -3.40802 -1.93897 0
M  V30 1281 H 120.767 -3.04335 -2.85955 0
M  V30 1282 N 121.204 0.198386 -1.56346 0
M  V30 1283 C 122.167 1.22952 -1.93431 0
M  V30 1284 C 123.167 1.38611 -0.815092 0
M  V30 1285 O 124.357 1.36479 -1.08255 0
M  V30 1286 C 121.489 2.59946 -2.20546 0
M  V30 1287 H 122.682 0.912626 -2.85677 0
M  V30 1288 H 120.235 0.43977 -1.49986 0
M  V30 1289 H 120.97 2.96696 -1.30927 0
M  V30 1290 H 120.755 2.49953 -3.02102 0
M  V30 1291 H 122.245 3.3431 -2.50253 0
M  V30 1292 N 122.682 1.50554 0.465978 0
M  V30 1293 C 123.929 1.61798 1.21768 0
M  V30 1294 C 124.257 0.320696 1.91838 0
M  V30 1295 O 123.512 -0.693724 1.82992 0
M  V30 1296 C 123.811 2.75152 2.28093 0
M  V30 1297 C 123.477 4.15454 1.75239 0
M  V30 1298 C 122.139 4.53628 1.60546 0
M  V30 1299 C 124.491 5.03121 1.36083 0
M  V30 1300 C 121.819 5.77204 1.05128 0
M  V30 1301 C 124.171 6.27249 0.821056 0
M  V30 1302 C 122.835 6.64221 0.660795 0
M  V30 1303 H 122.105 0.592063 0.445582 0
M  V30 1304 H 124.752 1.84503 0.512927 0
M  V30 1305 H 123.057 2.46556 3.04496 0
M  V30 1306 H 124.754 2.81055 2.86023 0
M  V30 1307 H 121.344 3.85341 1.87644 0
M  V30 1308 H 125.528 4.74257 1.46267 0
M  V30 1309 H 120.784 6.0452 0.91462 0
M  V30 1310 H 124.958 6.94537 0.509018 0
M  V30 1311 H 122.585 7.59854 0.229226 0
M  V30 1312 N 124.16 -0.719506 1.40217 0
M  V30 1313 C 125.108 -1.85493 1.40339 0
M  V30 1314 C 126.102 -1.66995 0.284415 0
M  V30 1315 O 127.308 -1.74148 0.455252 0
M  V30 1316 H 123.683 -0.610857 0.438586 0
M  V30 1317 H 125.654 -1.82506 2.36081 0
M  V30 1318 C 124.403 -3.23321 1.27901 0
M  V30 1319 H 123.726 -3.38159 2.1328 0
M  V30 1320 H 125.166 -4.02914 1.32045 0
M  V30 1321 C 123.625 -3.36898 -0.0111355 0
M  V30 1322 O 124.155 -3.89674 -0.975538 0
M  V30 1323 N 122.361 -2.90492 -0.0793393 0
M  V30 1324 H 121.908 -2.47731 0.706183 0
M  V30 1325 H 121.866 -2.99955 -0.942038 0
M  V30 1326 N 125.638 -1.25649 -0.95132 0
M  V30 1327 C 126.866 -1.13343 -1.73092 0
M  V30 1328 C 127.281 0.312434 -1.86197 0
M  V30 1329 O 126.638 1.21465 -1.36207 0
M  V30 1330 C 126.689 -1.78602 -3.14299 0
M  V30 1331 O 126.41 -3.17537 -3.01831 0
M  V30 1332 C 127.911 -1.72119 -4.08522 0
M  V30 1333 H 125.131 -0.395181 -0.542285 0
M  V30 1334 H 127.675 -1.66076 -1.19328 0
M  V30 1335 H 125.83 -1.29832 -3.64996 0
M  V30 1336 H 126.244 -3.49676 -3.90931 0
M  V30 1337 H 127.718 -2.22435 -5.052 0
M  V30 1338 H 128.195 -0.685635 -4.33815 0
M  V30 1339 H 128.801 -2.20393 -3.63741 0
M  V30 1340 N 127.117 1.15442 -1.07289 0
M  V30 1341 C 128.363 1.86489 -0.796846 0
M  V30 1342 C 128.696 1.82078 0.675371 0
M  V30 1343 O 127.971 1.24346 1.4956 0
M  V30 1344 C 128.254 3.35626 -1.30489 0
M  V30 1345 C 128.107 3.48673 -2.84161 0
M  V30 1346 C 129.426 4.30357 -0.920907 0
M  V30 1347 H 126.545 0.677144 -0.290939 0
M  V30 1348 H 129.187 1.35633 -1.33056 0
M  V30 1349 H 127.337 3.79068 -0.850883 0
M  V30 1350 H 129.009 3.14099 -3.37846 0
M  V30 1351 H 127.252 2.90253 -3.22391 0
M  V30 1352 H 127.923 4.53453 -3.14777 0
M  V30 1353 H 130.399 3.94871 -1.3121 0
M  V30 1354 H 129.275 5.33193 -1.30372 0
M  V30 1355 H 129.536 4.4176 0.173226 0
M  V30 1356 N 128.595 0.856903 1.32268 0
M  V30 1357 C 129.841 0.462069 1.97466 0
M  V30 1358 C 130.174 -0.980298 1.67642 0
M  V30 1359 O 129.449 -1.68824 0.965858 0
M  V30 1360 C 129.732 0.704336 3.53145 0
M  V30 1361 C 129.585 2.19529 3.9259 0
M  V30 1362 C 130.904 0.1622 4.39801 0
M  V30 1363 H 128.023 0.169357 0.717278 0
M  V30 1364 H 130.665 1.07574 1.56614 0
M  V30 1365 H 128.815 0.181999 3.88073 0
M  V30 1366 H 130.487 2.78387 3.67829 0
M  V30 1367 H 128.73 2.67292 3.41668 0
M  V30 1368 H 129.401 2.31549 5.01088 0
M  V30 1369 H 131.877 0.608905 4.11621 0
M  V30 1370 H 130.753 0.361265 5.4771 0
M  V30 1371 H 131.014 -0.935158 4.32096 0
M  V30 1372 N 130.073 -1.45103 0.615059 0
M  V30 1373 C 131.021 -2.32331 -0.111791 0
M  V30 1374 C 132.015 -1.46409 -0.852102 0
M  V30 1375 O 133.221 -1.62849 -0.766821 0
M  V30 1376 H 129.596 -0.749993 -0.0549072 0
M  V30 1377 H 131.567 -2.91407 0.642225 0
M  V30 1378 C 130.316 -3.3015 -1.09071 0
M  V30 1379 H 129.639 -3.96265 -0.530485 0
M  V30 1380 H 131.079 -3.93898 -1.56908 0
M  V30 1381 C 129.538 -2.57875 -2.168 0
M  V30 1382 O 130.068 -2.36567 -3.24652 0
M  V30 1383 N 128.274 -2.17884 -1.92289 0
M  V30 1384 H 127.821 -2.35413 -1.04587 0
M  V30 1385 H 127.779 -1.6985 -2.64572 0
M  V30 1386 N 131.551 -0.354651 -1.53558 0
M  V30 1387 C 132.798 0.238443 -2.01091 0
M  V30 1388 C 133.126 1.49663 -1.24222 0
M  V30 1389 O 132.381 1.93049 -0.321003 0
M  V30 1390 C 132.68 0.587121 -3.52545 0
M  V30 1391 C 132.346 -0.575472 -4.47213 0
M  V30 1392 C 131.008 -0.894497 -4.72813 0
M  V30 1393 C 133.36 -1.35489 -5.03281 0
M  V30 1394 C 130.688 -1.99511 -5.51736 0
M  V30 1395 C 133.04 -2.44583 -5.83405 0
M  V30 1396 C 131.704 -2.77033 -6.07296 0
M  V30 1397 H 130.974 0.0872526 -0.735845 0
M  V30 1398 H 133.621 -0.484859 -1.8526 0
M  V30 1399 H 131.926 1.39129 -3.66265 0
M  V30 1400 H 133.623 1.05809 -3.86789 0
M  V30 1401 H 130.213 -0.316774 -4.27428 0
M  V30 1402 H 134.397 -1.12167 -4.83459 0
M  V30 1403 H 129.653 -2.25063 -5.68469 0
M  V30 1404 H 133.827 -3.05401 -6.25862 0
M  V30 1405 H 131.454 -3.6244 -6.68237 0
M  V30 1406 N 133.029 1.57378 -0.0835403 0
M  V30 1407 C 134.257 1.98263 0.59157 0
M  V30 1408 C 134.672 0.962302 1.62435 0
M  V30 1409 O 134.029 -0.049581 1.82433 0
M  V30 1410 C 134.08 3.39214 1.24965 0
M  V30 1411 O 133.801 4.37339 0.258186 0
M  V30 1412 C 135.302 3.95038 2.01147 0
M  V30 1413 H 132.522 0.651773 0.159477 0
M  V30 1414 H 135.066 2.03878 -0.159415 0
M  V30 1415 H 133.221 3.34649 1.95164 0
M  V30 1416 H 133.635 5.19371 0.731734 0
M  V30 1417 H 135.109 4.95848 2.42567 0
M  V30 1418 H 135.586 3.32222 2.87272 0
M  V30 1419 H 136.192 4.0304 1.35789 0
M  V30 1420 N 134.507 -0.190092 1.56449 0
M  V30 1421 C 135.737 -0.92443 1.84764 0
M  V30 1422 C 136.145 -1.77146 0.664529 0
M  V30 1423 O 135.488 -1.79812 -0.375957 0
M  V30 1424 C 135.55 -1.86651 3.07248 0
M  V30 1425 C 135.214 -1.20094 4.40938 0
M  V30 1426 C 136.211 -0.575445 5.16706 0
M  V30 1427 C 133.896 -1.2033 4.87674 0
M  V30 1428 C 135.89 0.0388111 6.37388 0
M  V30 1429 C 133.577 -0.585214 6.08291 0
M  V30 1430 C 134.575 0.0347578 6.82991 0
M  V30 1431 O 134.263 0.643147 8.01323 0
M  V30 1432 H 133.995 -0.274974 0.617548 0
M  V30 1433 H 136.549 -0.200788 2.04416 0
M  V30 1434 H 134.779 -2.62998 2.83494 0
M  V30 1435 H 136.468 -2.46907 3.22167 0
M  V30 1436 H 137.234 -0.565728 4.81689 0
M  V30 1437 H 133.113 -1.67526 4.29484 0
M  V30 1438 H 136.657 0.523329 6.95634 0
M  V30 1439 H 132.554 -0.592451 6.42775 0
M  V30 1440 H 133.322 0.540545 8.16713 0
M  V30 1441 N 135.985 -1.50799 -0.457987 0
M  V30 1442 C 136.948 -1.7005 -1.53674 0
M  V30 1443 C 137.948 -0.570881 -1.50325 0
M  V30 1444 O 139.138 -0.838126 -1.52712 0
M  V30 1445 C 136.27 -1.73788 -2.93276 0
M  V30 1446 H 137.463 -2.66306 -1.37917 0
M  V30 1447 H 135.016 -1.40477 -0.685271 0
M  V30 1448 H 135.751 -0.792717 -3.14462 0
M  V30 1449 H 135.536 -2.55864 -2.97113 0
M  V30 1450 H 137.026 -1.90591 -3.71571 0
M  V30 1451 N 137.463 0.71206 -1.40597 0
M  V30 1452 C 138.709 1.47416 -1.39271 0
M  V30 1453 C 139.042 1.942 0.00388791 0
M  V30 1454 O 138.317 1.68403 0.973179 0
M  V30 1455 C 138.6 2.69774 -2.38525 0
M  V30 1456 C 138.453 2.28861 -3.87224 0
M  V30 1457 C 139.772 3.71939 -2.35264 0
M  V30 1458 H 136.891 0.534713 -0.5072 0
M  V30 1459 H 139.533 0.812375 -1.71757 0
M  V30 1460 H 137.683 3.26238 -2.10953 0
M  V30 1461 H 139.355 1.77852 -4.25636 0
M  V30 1462 H 137.598 1.60824 -4.02887 0
M  V30 1463 H 138.269 3.16584 -4.52193 0
M  V30 1464 H 140.745 3.25113 -2.59694 0
M  V30 1465 H 139.621 4.55186 -3.06753 0
M  V30 1466 H 139.882 4.20484 -1.36549 0
M  V30 1467 N 138.941 1.26152 0.944643 0
M  V30 1468 C 139.891 1.04081 2.02857 0
M  V30 1469 C 140.875 -0.0256555 1.6088 0
M  V30 1470 O 142.067 0.190884 1.75968 0
M  V30 1471 C 139.196 0.672118 3.36656 0
M  V30 1472 C 138.282 1.77586 3.85128 0
M  V30 1473 N 138.673 3.01272 4.06287 0
M  V30 1474 C 136.971 1.65867 4.1401 0
M  V30 1475 C 137.672 3.72983 4.46384 0
M  V30 1476 N 136.648 3.00653 4.52889 0
M  V30 1477 H 140.45 1.97968 2.17223 0
M  V30 1478 H 137.964 1.16618 1.13022 0
M  V30 1479 H 139.961 0.495166 4.13949 0
M  V30 1480 H 138.621 -0.259307 3.23663 0
M  V30 1481 H 139.632 3.37213 3.93075 0
M  V30 1482 H 136.309 0.796907 4.09824 0
M  V30 1483 H 137.699 4.792 4.70975 0
M  V30 1484 N 140.419 -1.14872 1.07899 0
M  V30 1485 C 141.367 -2.21857 0.698727 0
M  V30 1486 C 142.361 -1.66845 -0.293086 0
M  V30 1487 O 143.567 -1.79321 -0.156204 0
M  V30 1488 H 139.942 -0.722691 0.207899 0
M  V30 1489 H 141.913 -2.51205 1.61054 0
M  V30 1490 C 140.662 -3.47498 0.11858 0
M  V30 1491 H 139.985 -3.90154 0.872914 0
M  V30 1492 H 141.425 -4.23858 -0.109759 0
M  V30 1493 C 139.884 -3.16947 -1.1422 0
M  V30 1494 O 140.414 -3.3426 -2.22785 0
M  V30 1495 N 138.62 -2.70946 -1.05055 0
M  V30 1496 H 138.167 -2.57058 -0.167038 0
M  V30 1497 H 138.125 -2.50879 -1.89491 0
M  V30 1498 N 141.898 -0.863906 -1.31812 0
M  V30 1499 C 142.808 -0.318461 -2.32428 0
M  V30 1500 C 143.824 0.568496 -1.64451 0
M  V30 1501 O 145 0.46666 -1.95919 0
M  V30 1502 C 142.065 0.476355 -3.43412 0
M  V30 1503 C 141.126 -0.43784 -4.27061 0
M  V30 1504 C 140.359 0.319138 -5.32745 0
M  V30 1505 O 140.582 1.54799 -5.48993 0
M  V30 1506 O 139.516 -0.319861 -6.01049 0
M  V30 1507 H 143.342 -1.15229 -2.80991 0
M  V30 1508 H 140.927 -0.627103 -1.35602 0
M  V30 1509 H 142.809 0.927156 -4.11074 0
M  V30 1510 H 141.484 1.28683 -2.97022 0
M  V30 1511 H 140.391 -0.937013 -3.62175 0
M  V30 1512 H 141.724 -1.21375 -4.77 0
M  V30 1513 N 143.376 1.44774 -0.622745 0
M  V30 1514 C 144.622 2.02968 -0.13257 0
M  V30 1515 C 144.977 1.48047 1.22881 0
M  V30 1516 O 144.27 0.651625 1.80179 0
M  V30 1517 C 144.464 3.57364 -0.0508323 0
M  V30 1518 C 144.293 4.27262 -1.40275 0
M  V30 1519 C 143.063 4.64577 -1.98737 0
M  V30 1520 C 145.261 4.58248 -2.3348 0
M  V30 1521 N 143.243 5.19404 -3.27251 0
M  V30 1522 C 144.614 5.14069 -3.46603 0
M  V30 1523 C 146.669 4.40195 -2.32664 0
M  V30 1524 C 145.372 5.53738 -4.59093 0
M  V30 1525 C 147.398 4.80907 -3.44213 0
M  V30 1526 C 146.76 5.36834 -4.56058 0
M  V30 1527 H 142.859 0.776541 -0.0922354 0
M  V30 1528 H 145.443 1.76385 -0.82441 0
M  V30 1529 H 143.614 3.83576 0.610265 0
M  V30 1530 H 145.346 4.02219 0.447397 0
M  V30 1531 H 142.101 4.48622 -1.51774 0
M  V30 1532 H 142.525 5.51301 -3.92933 0
M  V30 1533 H 147.167 3.96257 -1.47446 0
M  V30 1534 H 144.885 5.96635 -5.45025 0
M  V30 1535 H 148.471 4.68659 -3.44747 0
M  V30 1536 H 147.351 5.67755 -5.40947 0
M  V30 1537 N 144.854 0.36279 1.53368 0
M  V30 1538 C 146.084 -0.228281 2.05335 0
M  V30 1539 C 146.492 -1.43226 1.23625 0
M  V30 1540 O 145.835 -1.81717 0.269206 0
M  V30 1541 C 145.897 -0.688549 3.52845 0
M  V30 1542 C 145.561 0.398362 4.5526 0
M  V30 1543 C 146.558 1.24732 5.04716 0
M  V30 1544 C 144.243 0.557805 4.99193 0
M  V30 1545 C 146.237 2.2411 5.96702 0
M  V30 1546 C 143.924 1.55495 5.90986 0
M  V30 1547 C 144.922 2.39503 6.39631 0
M  V30 1548 O 144.61 3.37517 7.29615 0
M  V30 1549 H 144.342 -0.044395 0.674541 0
M  V30 1550 H 146.896 0.518668 1.98744 0
M  V30 1551 H 145.126 -1.48706 3.56964 0
M  V30 1552 H 146.815 -1.20231 3.87685 0
M  V30 1553 H 147.581 1.13532 4.71525 0
M  V30 1554 H 143.46 -0.0862959 4.60919 0
M  V30 1555 H 147.004 2.89718 6.34594 0
M  V30 1556 H 142.901 1.66744 6.23592 0
M  V30 1557 H 143.669 3.33213 7.47604 0
M  V30 1558 N 146.332 -1.57332 0.0918853 0
M  V30 1559 C 147.562 -1.98286 -0.580205 0
M  V30 1560 C 147.97 -0.969713 -1.6246 0
M  V30 1561 O 147.313 0.0493501 -1.83634 0
M  V30 1562 C 147.375 -3.35603 -1.28882 0
M  V30 1563 C 147.039 -4.55285 -0.395559 0
M  V30 1564 C 148.036 -5.18687 0.355002 0
M  V30 1565 C 145.721 -5.01314 -0.314556 0
M  V30 1566 C 147.715 -6.26484 1.17458 0
M  V30 1567 C 145.402 -6.08979 0.508677 0
M  V30 1568 C 146.4 -6.71429 1.2519 0
M  V30 1569 O 146.088 -7.77018 2.06151 0
M  V30 1570 H 145.82 -0.656678 -0.160466 0
M  V30 1571 H 148.374 -2.04721 0.16688 0
M  V30 1572 H 146.604 -3.25842 -2.08241 0
M  V30 1573 H 148.293 -3.61026 -1.85512 0
M  V30 1574 H 149.059 -4.84058 0.302134 0
M  V30 1575 H 144.938 -4.5247 -0.882697 0
M  V30 1576 H 148.482 -6.75159 1.75518 0
M  V30 1577 H 144.379 -6.4304 0.563037 0
M  V30 1578 H 145.147 -7.93991 1.98799 0
M  V30 1579 N 147.81 0.181792 -1.56548 0
M  V30 1580 C 149.058 0.89832 -1.81038 0
M  V30 1581 C 149.379 1.83232 -0.667164 0
M  V30 1582 O 148.649 1.93372 0.313673 0
M  V30 1583 H 147.229 0.33471 -0.667816 0
M  V30 1584 H 149.891 0.184116 -1.94028 0
M  V30 1585 H 148.987 1.4815 -2.74696 0
M  V30 1586 N 149.288 1.51039 0.449983 0
M  V30 1587 C 150.218 1.74379 1.55288 0
M  V30 1588 C 151.199 0.593236 1.5942 0
M  V30 1589 O 152.384 0.834625 1.7535 0
M  V30 1590 C 149.514 1.85728 2.93466 0
M  V30 1591 C 148.468 3.01078 3.04197 0
M  V30 1592 C 147.794 2.97595 4.44231 0
M  V30 1593 C 149.094 4.41254 2.7945 0
M  V30 1594 H 150.788 2.66725 1.36008 0
M  V30 1595 H 148.334 1.2835 0.652864 0
M  V30 1596 H 150.287 2.0064 3.70569 0
M  V30 1597 H 149.011 0.900207 3.13949 0
M  V30 1598 H 147.67 2.85851 2.29531 0
M  V30 1599 H 147.318 1.99691 4.61663 0
M  V30 1600 H 147.018 3.75046 4.52343 0
M  V30 1601 H 148.542 3.14583 5.23326 0
M  V30 1602 H 149.956 4.56897 3.46292 0
M  V30 1603 H 148.353 5.20315 2.98985 0
M  V30 1604 H 149.423 4.52164 1.75144 0
M  V30 1605 N 150.766 -0.704594 1.40972 0
M  V30 1606 C 152.013 -1.46458 1.39844 0
M  V30 1607 C 152.341 -1.94499 0.00447594 0
M  V30 1608 O 151.596 -1.69275 -0.982057 0
M  V30 1609 C 151.895 -2.698 2.34399 0
M  V30 1610 C 151.561 -2.40464 3.81429 0
M  V30 1611 C 150.223 -2.32174 4.21484 0
M  V30 1612 C 152.575 -2.16086 4.74296 0
M  V30 1613 C 149.903 -1.97589 5.52427 0
M  V30 1614 C 152.255 -1.83011 6.05549 0
M  V30 1615 C 150.919 -1.7321 6.44635 0
M  V30 1616 H 150.189 -0.535927 0.511725 0
M  V30 1617 H 152.836 -0.806124 1.73706 0
M  V30 1618 H 151.141 -3.40536 1.93759 0
M  V30 1619 H 152.838 -3.27919 2.30804 0
M  V30 1620 H 149.428 -2.47808 3.49699 0
M  V30 1621 H 153.612 -2.2144 4.4416 0
M  V30 1622 H 148.868 -1.88547 5.81601 0
M  V30 1623 H 153.042 -1.63164 6.77016 0
M  V30 1624 H 150.669 -1.46179 7.46013 0
M  V30 1625 N 152.244 -1.26651 -0.937939 0
M  V30 1626 C 153.474 -1.15006 -1.71631 0
M  V30 1627 C 153.882 0.297026 -1.86854 0
M  V30 1628 O 153.225 1.21493 -1.37786 0
M  V30 1629 C 153.287 -1.74984 -3.14039 0
M  V30 1630 C 152.951 -3.24103 -3.2219 0
M  V30 1631 C 153.948 -4.20877 -3.05219 0
M  V30 1632 C 151.633 -3.64625 -3.45476 0
M  V30 1633 C 153.627 -5.56151 -3.11408 0
M  V30 1634 C 151.314 -5.00032 -3.513 0
M  V30 1635 C 152.312 -5.95604 -3.34282 0
M  V30 1636 O 152 -7.28545 -3.3982 0
M  V30 1637 H 151.732 -0.401183 -0.544085 0
M  V30 1638 H 154.286 -1.67832 -1.18413 0
M  V30 1639 H 152.516 -1.16624 -3.68695 0
M  V30 1640 H 154.205 -1.58199 -3.73802 0
M  V30 1641 H 154.971 -3.90908 -2.87081 0
M  V30 1642 H 150.85 -2.90718 -3.57777 0
M  V30 1643 H 154.394 -6.30727 -2.98043 0
M  V30 1644 H 150.291 -5.29659 -3.68959 0
M  V30 1645 H 151.059 -7.3686 -3.56343 0
M  V30 1646 N 153.722 1.14298 -1.08507 0
M  V30 1647 C 154.962 1.87016 -0.824894 0
M  V30 1648 C 155.326 1.81099 0.637735 0
M  V30 1649 O 156.527 2.48963 1.01345 0
M  V30 1650 C 154.798 3.31584 -1.33368 0
M  V30 1651 S 156.357 4.21903 -1.20596 0
M  V30 1652 H 153.175 0.645259 -0.2986 0
M  V30 1653 H 155.777 1.37822 -1.38656 0
M  V30 1654 H 154.481 3.33439 -2.39262 0
M  V30 1655 H 154.012 3.85836 -0.767734 0
M  V30 1656 H 156.027 4.95971 -0.150891 0
M  V30 1657 N 155.201 0.870884 1.31352 0
M  V30 1658 C 156.148 0.325425 2.28494 0
M  V30 1659 C 157.118 -0.576615 1.5577 0
M  V30 1660 O 158.303 -0.508059 1.83911 0
M  V30 1661 C 155.443 -0.466283 3.41935 0
M  V30 1662 C 154.556 0.463378 4.29508 0
M  V30 1663 C 153.691 -0.342544 5.30094 0
M  V30 1664 C 152.73 0.583486 6.09313 0
M  V30 1665 N 151.867 -0.186244 7.01853 0
M  V30 1666 H 156.707 1.15901 2.74538 0
M  V30 1667 H 154.244 0.58294 1.35056 0
M  V30 1668 H 156.202 -0.941085 4.06447 0
M  V30 1669 H 154.832 -1.26456 2.97 0
M  V30 1670 H 153.884 1.05663 3.65431 0
M  V30 1671 H 155.196 1.1734 4.84802 0
M  V30 1672 H 154.35 -0.879816 6.00287 0
M  V30 1673 H 153.089 -1.08585 4.75458 0
M  V30 1674 H 152.094 1.13251 5.3801 0
M  V30 1675 H 153.319 1.32566 6.66035 0
M  V30 1676 H 151.265 -0.912348 6.49625 0
M  V30 1677 H 151.182 0.464422 7.54572 0
M  V30 1678 H 152.45 -0.704716 7.76308 0
M  V30 1679 N 156.679 -1.44442 0.630414 0
M  V30 1680 C 157.926 -2.02052 0.134617 0
M  V30 1681 C 158.254 -1.49576 -1.24327 0
M  V30 1682 O 157.509 -0.669806 -1.83881 0
M  V30 1683 C 157.808 -3.57332 0.0697835 0
M  V30 1684 C 157.474 -4.29058 1.38635 0
M  V30 1685 C 156.136 -4.4837 1.74694 0
M  V30 1686 C 158.488 -4.69872 2.25543 0
M  V30 1687 C 155.816 -5.05756 2.97369 0
M  V30 1688 C 158.168 -5.28616 3.47487 0
M  V30 1689 C 156.832 -5.46147 3.8377 0
M  V30 1690 H 156.102 -0.739361 0.0492598 0
M  V30 1691 H 158.749 -1.73217 0.816586 0
M  V30 1692 H 157.054 -3.85577 -0.695553 0
M  V30 1693 H 158.751 -3.99637 -0.330344 0
M  V30 1694 H 155.341 -4.14357 1.09574 0
M  V30 1695 H 159.525 -4.54666 1.98979 0
M  V30 1696 H 154.781 -5.17515 3.25558 0
M  V30 1697 H 158.955 -5.59192 4.15063 0
M  V30 1698 H 156.582 -5.9038 4.7891 0
M  V30 1699 N 158.157 -0.370918 -1.53173 0
M  V30 1700 C 159.107 0.489588 -2.22681 0
M  V30 1701 C 160.091 1.04442 -1.22395 0
M  V30 1702 O 161.283 0.973578 -1.47819 0
M  V30 1703 C 158.412 1.626 -3.02351 0
M  V30 1704 C 157.498 1.08379 -4.10018 0
M  V30 1705 N 157.889 0.265004 -5.05105 0
M  V30 1706 C 156.187 1.35809 -4.2482 0
M  V30 1707 C 156.888 -0.0324755 -5.81691 0
M  V30 1708 N 155.864 0.566581 -5.40639 0
M  V30 1709 H 159.666 -0.142729 -2.93553 0
M  V30 1710 H 157.18 -0.179221 -1.61408 0
M  V30 1711 H 159.177 2.2547 -3.50669 0
M  V30 1712 H 157.837 2.26132 -2.33011 0
M  V30 1713 H 158.848 -0.0962352 -5.17811 0
M  V30 1714 H 155.525 1.9958 -3.66707 0
M  V30 1715 H 156.915 -0.69473 -6.68299 0
M  V30 1716 N 159.635 1.57281 -0.100228 0
M  V30 1717 C 160.583 2.15542 0.874328 0
M  V30 1718 C 161.577 1.09962 1.28859 0
M  V30 1719 O 162.783 1.28298 1.26252 0
M  V30 1720 H 159.158 0.689567 0.300003 0
M  V30 1721 H 161.129 2.96241 0.35829 0
M  V30 1722 C 159.878 2.75454 2.1218 0
M  V30 1723 H 159.201 3.56384 1.81193 0
M  V30 1724 H 160.641 3.19781 2.78417 0
M  V30 1725 C 159.1 1.71602 2.89921 0
M  V30 1726 O 159.63 1.15804 3.84646 0
M  V30 1727 N 157.836 1.41975 2.53558 0
M  V30 1728 H 157.383 1.87539 1.76598 0
M  V30 1729 H 157.341 0.727274 3.05873 0
M  V30 1730 N 161.113 -0.173488 1.56642 0
M  V30 1731 C 162.36 -0.890465 1.81871 0
M  V30 1732 C 162.688 -1.82339 0.67696 0
M  V30 1733 O 161.943 -1.92795 -0.335926 0
M  V30 1734 C 162.242 -1.72069 3.13252 0
M  V30 1735 C 161.908 -0.936878 4.41059 0
M  V30 1736 C 160.57 -0.720545 4.75775 0
M  V30 1737 C 162.922 -0.386919 5.19762 0
M  V30 1738 C 160.25 0.0568829 5.86672 0
M  V30 1739 C 162.602 0.37741 6.31473 0
M  V30 1740 C 161.266 0.604563 6.64757 0
M  V30 1741 H 160.536 -0.325844 0.665512 0
M  V30 1742 H 163.183 -0.155527 1.90867 0
M  V30 1743 H 161.488 -2.52496 2.99588 0
M  V30 1744 H 163.185 -2.27844 3.29982 0
M  V30 1745 H 159.775 -1.11553 4.13828 0
M  V30 1746 H 163.959 -0.541398 4.93338 0
M  V30 1747 H 159.215 0.242635 6.10918 0
M  V30 1748 H 163.389 0.810825 6.91664 0
M  V30 1749 H 161.016 1.20885 7.50527 0
M  V30 1750 N 162.591 -1.51276 -0.441967 0
M  V30 1751 C 163.838 -1.63715 -1.19179 0
M  V30 1752 C 164.166 -0.351175 -1.91303 0
M  V30 1753 O 163.421 0.664524 -1.84072 0
M  V30 1754 C 163.72 -2.78746 -2.23686 0
M  V30 1755 C 163.386 -4.18189 -1.68607 0
M  V30 1756 C 162.048 -4.56125 -1.53308 0
M  V30 1757 C 164.4 -5.05222 -1.28062 0
M  V30 1758 C 161.728 -5.78804 -0.959317 0
M  V30 1759 C 164.08 -6.28476 -0.721162 0
M  V30 1760 C 162.744 -6.65188 -0.55504 0
M  V30 1761 H 162.014 -0.599076 -0.436106 0
M  V30 1762 H 164.661 -1.85296 -0.48351 0
M  V30 1763 H 162.966 -2.51369 -3.00535 0
M  V30 1764 H 164.663 -2.8557 -2.81515 0
M  V30 1765 H 161.253 -3.88277 -1.8149 0
M  V30 1766 H 165.437 -4.76524 -1.38704 0
M  V30 1767 H 160.693 -6.05899 -0.81833 0
M  V30 1768 H 164.867 -6.95259 -0.398458 0
M  V30 1769 H 162.494 -7.60123 -0.108311 0
M  V30 1770 N 164.069 0.697108 -1.41344 0
M  V30 1771 C 165.48 1.27697 -1.36199 0
M  V30 1772 C 165.831 1.9615 -0.0443463 0
M  V30 1773 O 164.956 1.98689 0.857419 0
M  V30 1774 C 165.551 2.32223 -2.46694 0
M  V30 1775 C 164.11 2.8579 -2.44952 0
M  V30 1776 C 163.257 1.59807 -2.26621 0
M  V30 1777 H 166.208 0.491968 -1.50882 0
M  V30 1778 H 166.229 3.1348 -2.15664 0
M  V30 1779 H 165.741 1.82373 -3.42581 0
M  V30 1780 H 163.842 3.3982 -1.52817 0
M  V30 1781 H 163.955 3.36325 -3.41207 0
M  V30 1782 H 162.319 1.8556 -1.7447 0
M  V30 1783 H 163.102 1.11956 -3.24532 0
M  V30 1784 N 165.547 1.27147 0.931209 0
M  V30 1785 C 166.796 1.12664 1.67302 0
M  V30 1786 C 167.109 -0.327718 1.92835 0
M  V30 1787 O 168.315 -0.593392 2.64936 0
M  V30 1788 C 166.771 1.9683 3.01307 0
M  V30 1789 C 166.379 3.46901 2.83485 0
M  V30 1790 C 168.123 1.90985 3.79111 0
M  V30 1791 C 166.03 4.23279 4.13024 0
M  V30 1792 H 164.96 0.41803 0.627509 0
M  V30 1793 H 167.611 1.51539 1.03481 0
M  V30 1794 H 165.993 1.50797 3.66164 0
M  V30 1795 H 167.167 4.00773 2.27415 0
M  V30 1796 H 165.482 3.54088 2.19113 0
M  V30 1797 H 168.079 2.45328 4.75098 0
M  V30 1798 H 168.422 0.882718 4.06834 0
M  V30 1799 H 168.955 2.34895 3.21044 0
M  V30 1800 H 165.694 5.26503 3.90481 0
M  V30 1801 H 165.214 3.74186 4.6877 0
M  V30 1802 H 166.893 4.32265 4.81411 0
M  V30 1803 N 167.025 -1.13721 1.09112 0
M  V30 1804 C 167.988 -2.17222 0.731241 0
M  V30 1805 C 168.988 -1.59035 -0.237566 0
M  V30 1806 O 170.178 -1.74192 -0.0161704 0
M  V30 1807 C 167.31 -3.40804 0.0808443 0
M  V30 1808 H 168.503 -2.50573 1.64783 0
M  V30 1809 H 166.056 -1.28493 0.889897 0
M  V30 1810 H 166.791 -3.1304 -0.847127 0
M  V30 1811 H 166.576 -3.84306 0.777896 0
M  V30 1812 H 168.066 -4.1731 -0.155657 0
M  V30 1813 N 168.503 -0.877838 -1.30888 0
M  V30 1814 C 169.466 -0.344265 -2.266 0
M  V30 1815 C 170.466 0.50922 -1.52524 0
M  V30 1816 O 171.656 0.317398 -1.71284 0
M  V30 1817 C 168.788 0.510198 -3.37061 0
M  V30 1818 H 169.981 -1.1893 -2.7531 0
M  V30 1819 H 167.534 -0.654088 -1.41956 0
M  V30 1820 H 168.269 1.37612 -2.93655 0
M  V30 1821 H 168.054 -0.101047 -3.9197 0
M  V30 1822 H 169.544 0.875537 -4.08319 0
M  V30 1823 N 169.982 1.44106 -0.638065 0
M  V30 1824 C 171.228 2.02277 -0.145546 0
M  V30 1825 C 171.561 1.50125 1.23191 0
M  V30 1826 O 170.836 0.688133 1.8192 0
M  V30 1827 C 171.119 3.59829 -0.139791 0
M  V30 1828 C 170.972 4.22247 -1.55008 0
M  V30 1829 C 172.291 4.36873 0.531966 0
M  V30 1830 H 169.41 0.734992 -0.0543632 0
M  V30 1831 H 172.052 1.71592 -0.815863 0
M  V30 1832 H 170.202 3.86102 0.431007 0
M  V30 1833 H 171.874 4.07057 -2.1703 0
M  V30 1834 H 170.117 3.79476 -2.10191 0
M  V30 1835 H 170.788 5.31284 -1.49804 0
M  V30 1836 H 173.264 4.16074 0.0464781 0
M  V30 1837 H 172.14 5.4657 0.505206 0
M  V30 1838 H 172.401 4.11995 1.60352 0
M  V30 1839 N 171.46 0.379036 1.52974 0
M  V30 1840 C 172.707 -0.206421 2.01445 0
M  V30 1841 C 173.035 -1.47668 1.26587 0
M  V30 1842 O 172.29 -1.92514 0.351675 0
M  V30 1843 C 172.589 -0.53096 3.53434 0
M  V30 1844 C 172.255 0.646546 4.46241 0
M  V30 1845 C 170.917 0.969604 4.7133 0
M  V30 1846 C 173.269 1.43479 5.01062 0
M  V30 1847 C 170.597 2.08263 5.48492 0
M  V30 1848 C 172.949 2.53834 5.7944 0
M  V30 1849 C 171.613 2.86659 6.02812 0
M  V30 1850 H 170.883 -0.0755349 0.73714 0
M  V30 1851 H 173.53 0.514271 1.84465 0
M  V30 1852 H 171.835 -1.33285 3.68432 0
M  V30 1853 H 173.532 -0.996417 3.88423 0
M  V30 1854 H 170.122 0.384734 4.2687 0
M  V30 1855 H 174.306 1.19844 4.81613 0
M  V30 1856 H 169.562 2.34078 5.64816 0
M  V30 1857 H 173.736 3.15319 6.20924 0
M  V30 1858 H 171.363 3.73026 6.62387 0
M  V30 1859 N 172.938 -1.57226 0.108567 0
M  V30 1860 C 173.901 -2.13602 -0.831082 0
M  V30 1861 C 174.901 -1.06841 -1.20173 0
M  V30 1862 O 176.091 -1.32666 -1.12895 0
M  V30 1863 C 173.223 -2.66769 -2.12243 0
M  V30 1864 H 174.416 -2.97951 -0.341317 0
M  V30 1865 H 171.969 -1.55667 -0.14057 0
M  V30 1866 H 172.704 -1.85977 -2.65675 0
M  V30 1867 H 172.489 -3.44839 -1.86625 0
M  V30 1868 H 173.979 -3.10332 -2.79435 0
M  V30 1869 N 174.416 0.165178 -1.56732 0
M  V30 1870 C 175.641 0.900253 -1.86843 0
M  V30 1871 C 176.066 1.74766 -0.695596 0
M  V30 1872 O 175.424 1.77786 0.35522 0
M  V30 1873 C 175.472 1.74777 -3.15413 0
M  V30 1874 O 174.576 2.85007 -2.98068 0
M  V30 1875 H 173.917 0.251832 -0.614391 0
M  V30 1876 H 176.447 0.161468 -2.03962 0
M  V30 1877 H 176.457 2.14646 -3.46974 0
M  V30 1878 H 175.132 1.12537 -4.00385 0
M  V30 1879 H 173.709 2.48676 -2.77875 0
M  V30 1880 N 175.894 1.51508 0.433938 0
M  V30 1881 C 177.143 1.63578 1.18005 0
M  V30 1882 C 177.456 0.359514 1.92268 0
M  V30 1883 O 178.662 0.359632 2.69108 0
M  V30 1884 C 177.118 2.88901 2.14626 0
M  V30 1885 C 176.726 4.23544 1.45995 0
M  V30 1886 C 178.47 3.10328 2.89649 0
M  V30 1887 C 176.377 5.40014 2.4112 0
M  V30 1888 H 175.307 0.609277 0.444182 0
M  V30 1889 H 177.958 1.77978 0.446773 0
M  V30 1890 H 176.34 2.68142 2.91403 0
M  V30 1891 H 177.514 4.54696 0.747532 0
M  V30 1892 H 175.829 4.08021 0.831115 0
M  V30 1893 H 178.426 3.94518 3.60915 0
M  V30 1894 H 178.769 2.23544 3.51189 0
M  V30 1895 H 179.302 3.31443 2.19978 0
M  V30 1896 H 176.041 6.29068 1.84264 0
M  V30 1897 H 175.561 5.13233 3.10406 0
M  V30 1898 H 177.24 5.72099 3.02177 0
M  V30 1899 N 177.372 -0.689602 1.41712 0
M  V30 1900 C 178.602 -1.47613 1.44548 0
M  V30 1901 C 179.01 -1.89132 0.0509034 0
M  V30 1902 O 178.353 -1.57741 -0.94146 0
M  V30 1903 C 178.415 -2.76596 2.2964 0
M  V30 1904 C 178.079 -2.57245 3.77722 0
M  V30 1905 C 179.076 -2.22804 4.69739 0
M  V30 1906 C 176.761 -2.727 4.2183 0
M  V30 1907 C 178.755 -2.04064 6.03851 0
M  V30 1908 C 176.442 -2.53576 5.56006 0
M  V30 1909 C 177.44 -2.1931 6.46832 0
M  V30 1910 O 177.128 -2.00359 7.78532 0
M  V30 1911 H 176.86 -0.461227 0.494212 0
M  V30 1912 H 179.414 -0.856045 1.86711 0
M  V30 1913 H 177.644 -3.41033 1.82301 0
M  V30 1914 H 179.333 -3.38424 2.24107 0
M  V30 1915 H 180.099 -2.10473 4.36951 0
M  V30 1916 H 175.978 -2.98353 3.51435 0
M  V30 1917 H 179.522 -1.77241 6.74708 0
M  V30 1918 H 175.419 -2.65499 5.88371 0
M  V30 1919 H 176.187 -2.15075 7.89737 0
M  V30 1920 N 178.85 -1.27639 -0.924453 0
M  V30 1921 C 180.075 -1.17101 -1.71179 0
M  V30 1922 C 180.5 0.268134 -1.86179 0
M  V30 1923 O 179.858 1.19415 -1.36418 0
M  V30 1924 C 179.906 -1.86313 -3.08739 0
M  V30 1925 O 179.01 -1.16331 -3.95652 0
M  V30 1926 H 178.351 -0.407091 -0.524569 0
M  V30 1927 H 180.881 -1.68767 -1.15666 0
M  V30 1928 H 180.891 -1.938 -3.59034 0
M  V30 1929 H 179.566 -2.91001 -2.97138 0
M  V30 1930 H 178.143 -1.16935 -3.54091 0
M  V30 1931 N 180.328 1.1314 -1.09713 0
M  V30 1932 C 181.261 2.17735 -0.683137 0
M  V30 1933 C 182.239 1.59582 0.311841 0
M  V30 1934 O 183.423 1.87298 0.212514 0
M  V30 1935 C 180.55 3.38699 -0.00684324 0
M  V30 1936 C 179.596 4.1546 -0.964102 0
M  V30 1937 S 180.429 4.74733 -2.47767 0
M  V30 1938 C 181.585 5.9904 -1.81387 0
M  V30 1939 H 181.818 2.52515 -1.56918 0
M  V30 1940 H 179.351 1.24484 -0.913404 0
M  V30 1941 H 181.309 4.08765 0.377044 0
M  V30 1942 H 179.97 3.02214 0.85589 0
M  V30 1943 H 179.163 5.02093 -0.43803 0
M  V30 1944 H 178.765 3.51066 -1.28953 0
M  V30 1945 H 181.057 6.67846 -1.13967 0
M  V30 1946 H 182 6.56261 -2.65947 0
M  V30 1947 H 182.408 5.4976 -1.28155 0
M  V30 1948 N 181.806 0.884767 1.30421 0
M  V30 1949 C 183.034 0.518044 2.0031 0
M  V30 1950 C 183.449 -0.893408 1.66324 0
M  V30 1951 O 182.806 -1.5875 0.900262 0
M  V30 1952 C 182.857 0.682997 3.54989 0
M  V30 1953 O 182.578 2.03888 3.87764 0
M  V30 1954 C 184.079 0.31924 4.42149 0
M  V30 1955 H 181.299 0.200265 0.640418 0
M  V30 1956 H 183.843 1.19001 1.6631 0
M  V30 1957 H 181.998 0.0584052 3.87356 0
M  V30 1958 H 182.412 2.05735 4.82466 0
M  V30 1959 H 183.886 0.485555 5.4986 0
M  V30 1960 H 184.363 -0.742717 4.32875 0
M  V30 1961 H 184.969 0.920147 4.15227 0
M  V30 1962 N 183.284 -1.43765 0.645699 0
M  V30 1963 C 184.247 -2.29163 -0.0409488 0
M  V30 1964 C 185.247 -1.41813 -0.757996 0
M  V30 1965 O 186.437 -1.63527 -0.600382 0
M  V30 1966 C 183.569 -3.23716 -1.06869 0
M  V30 1967 H 184.762 -2.91366 0.710345 0
M  V30 1968 H 182.315 -1.5092 0.406547 0
M  V30 1969 H 183.05 -2.66393 -1.84947 0
M  V30 1970 H 182.835 -3.88105 -0.558277 0
M  V30 1971 H 184.325 -3.87831 -1.54845 0
M  V30 1972 N 184.763 -0.387143 -1.52771 0
M  V30 1973 C 186.009 0.196025 -2.0185 0
M  V30 1974 C 186.342 1.46641 -1.27319 0
M  V30 1975 O 185.617 1.90889 -0.373032 0
M  V30 1976 C 185.9 0.466136 -3.5707 0
M  V30 1977 C 185.753 -0.819385 -4.42274 0
M  V30 1978 C 187.072 1.25768 -4.21747 0
M  V30 1979 H 184.191 0.0697708 -0.73369 0
M  V30 1980 H 186.833 -0.516286 -1.82851 0
M  V30 1981 H 184.983 1.07293 -3.7339 0
M  V30 1982 H 186.655 -1.4563 -4.37709 0
M  V30 1983 H 184.898 -1.43517 -4.09372 0
M  V30 1984 H 185.569 -0.585065 -5.48891 0
M  V30 1985 H 188.045 0.744167 -4.09391 0
M  V30 1986 H 186.921 1.41541 -5.30337 0
M  V30 1987 H 187.182 2.27228 -3.79236 0
M  V30 1988 N 186.241 1.57166 -0.116904 0
M  V30 1989 C 187.204 2.14039 0.819742 0
M  V30 1990 C 188.204 1.07477 1.19605 0
M  V30 1991 O 189.394 1.33263 1.1219 0
M  V30 1992 C 186.526 2.67891 2.10826 0
M  V30 1993 H 187.719 2.98128 0.325511 0
M  V30 1994 H 185.272 1.55739 0.132312 0
M  V30 1995 H 186.007 1.87384 2.64685 0
M  V30 1996 H 185.792 3.45823 1.84793 0
M  V30 1997 H 187.282 3.11809 2.77785 0
M  V30 1998 N 187.719 -0.156864 1.56817 0
M  V30 1999 C 188.966 -0.871125 1.82805 0
M  V30 2000 C 189.294 -1.81611 0.696262 0
M  V30 2001 O 188.549 -1.93141 -0.315459 0
M  V30 2002 C 188.848 -1.68737 3.1506 0
M  V30 2003 C 188.514 -0.890045 4.42028 0
M  V30 2004 C 187.176 -0.670042 4.76512 0
M  V30 2005 C 189.528 -0.331769 5.20143 0
M  V30 2006 C 186.856 0.119104 5.86579 0
M  V30 2007 C 189.208 0.444365 6.31037 0
M  V30 2008 C 187.872 0.675035 6.64078 0
M  V30 2009 H 187.142 -0.318767 0.668931 0
M  V30 2010 H 189.789 -0.135274 1.91022 0
M  V30 2011 H 188.094 -2.49304 3.0225 0
M  V30 2012 H 189.791 -2.24331 3.3238 0
M  V30 2013 H 186.381 -1.07157 4.14988 0
M  V30 2014 H 190.565 -0.489043 4.93885 0
M  V30 2015 H 185.821 0.307417 6.10627 0
M  V30 2016 H 189.995 0.884139 6.90765 0
M  V30 2017 H 187.622 1.28839 7.49203 0
M  V30 2018 N 189.197 -1.51736 -0.425897 0
M  V30 2019 C 190.474 -1.55519 -1.1863 0
M  V30 2020 C 190.854 -0.326219 -2.08564 0
M  V30 2021 O 190.202 0.688012 -2.17896 0
M  V30 2022 C 190.412 -2.87521 -1.9782 0
M  V30 2023 C 191.76 -3.39899 -2.54468 0
M  V30 2024 O 192.784 -2.89148 -2.08019 0
M  V30 2025 O 191.643 -4.2848 -3.39215 0
M  V30 2026 H 188.737 -0.625739 -0.540721 0
M  V30 2027 H 191.283 -1.64055 -0.434038 0
M  V30 2028 H 190.055 -3.68422 -1.31836 0
M  V30 2029 H 189.678 -2.822 -2.80088 0
M  V30 2030 N 190.675 0.682077 -1.42076 0
M  V30 2031 C 192.091 0.994324 -1.24841 0
M  V30 2032 C 192.291 2.0096 -0.147389 0
M  V30 2033 O 191.347 2.47822 0.483782 0
M  V30 2034 C 192.66 1.50607 -2.60265 0
M  V30 2035 C 194.208 1.62421 -2.6756 0
M  V30 2036 C 194.683 2.16994 -4.03333 0
M  V30 2037 N 196.174 2.24337 -4.0525 0
M  V30 2038 C 196.909 2.67621 -5.07116 0
M  V30 2039 N 196.405 3.1041 -6.19368 0
M  V30 2040 N 198.198 2.67305 -4.94474 0
M  V30 2041 H 190.349 0.00973908 -2.12398 0
M  V30 2042 H 192.612 0.0668593 -0.945639 0
M  V30 2043 H 192.318 0.834583 -3.41654 0
M  V30 2044 H 192.192 2.48602 -2.83684 0
M  V30 2045 H 194.579 2.28678 -1.86521 0
M  V30 2046 H 194.66 0.629352 -2.47937 0
M  V30 2047 H 194.304 1.51349 -4.84826 0
M  V30 2048 H 194.234 3.17258 -4.20304 0
M  V30 2049 H 196.725 1.94158 -3.24209 0
M  V30 2050 H 197.038 3.42103 -6.92954 0
M  V30 2051 H 195.383 3.08286 -6.22884 0
M  V30 2052 H 198.574 2.33233 -4.05857 0
M  V30 2053 H 198.747 3.00718 -5.73997 0
M  V30 2054 N 192.153 1.28127 0.917671 0
M  V30 2055 C 193.383 1.17722 1.6978 0
M  V30 2056 C 193.791 -0.267261 1.87303 0
M  V30 2057 O 193.134 -1.19286 1.39702 0
M  V30 2058 C 193.196 1.79958 3.11216 0
M  V30 2059 C 192.86 3.29187 3.16993 0
M  V30 2060 C 193.857 4.25679 2.98485 0
M  V30 2061 C 191.542 3.70075 3.39632 0
M  V30 2062 C 193.536 5.61035 3.02521 0
M  V30 2063 C 191.223 5.05557 3.433 0
M  V30 2064 C 192.221 6.00847 3.24764 0
M  V30 2065 O 191.909 7.33859 3.28187 0
M  V30 2066 H 191.641 0.409788 0.537634 0
M  V30 2067 H 194.195 1.69694 1.15728 0
M  V30 2068 H 192.425 1.22475 3.66793 0
M  V30 2069 H 194.114 1.64125 3.71238 0
M  V30 2070 H 194.88 3.95426 2.80826 0
M  V30 2071 H 190.759 2.96373 3.53106 0
M  V30 2072 H 194.303 6.35388 2.87971 0
M  V30 2073 H 190.2 5.35462 3.60486 0
M  V30 2074 H 190.968 7.42436 3.44575 0
M  V30 2075 N 193.631 -1.12557 1.10312 0
M  V30 2076 C 194.564 -2.1737 0.694674 0
M  V30 2077 C 195.542 -1.59745 -0.303373 0
M  V30 2078 O 196.726 -1.87408 -0.202578 0
M  V30 2079 C 193.853 -3.38691 0.0248052 0
M  V30 2080 C 192.899 -4.14943 0.986121 0
M  V30 2081 S 193.732 -4.73413 2.50281 0
M  V30 2082 C 194.888 -5.9807 1.84562 0
M  V30 2083 H 195.121 -2.5168 1.58255 0
M  V30 2084 H 192.654 -1.23998 0.919992 0
M  V30 2085 H 194.612 -4.08959 -0.355361 0
M  V30 2086 H 193.273 -3.02664 -0.839851 0
M  V30 2087 H 192.466 -5.01854 0.464651 0
M  V30 2088 H 192.068 -3.50377 1.30813 0
M  V30 2089 H 194.36 -6.67232 1.17507 0
M  V30 2090 H 195.303 -6.54841 2.69423 0
M  V30 2091 H 195.711 -5.49073 1.31069 0
M  V30 2092 N 195.109 -0.891671 -1.2995 0
M  V30 2093 C 196.072 -0.36828 -2.26222 0
M  V30 2094 C 197.072 0.493014 -1.53056 0
M  V30 2095 O 198.262 0.299213 -1.71611 0
M  V30 2096 C 195.394 0.47442 -3.37583 0
M  V30 2097 H 196.587 -1.21844 -2.74033 0
M  V30 2098 H 194.14 -0.669107 -1.41254 0
M  V30 2099 H 194.875 1.34489 -2.95099 0
M  V30 2100 H 194.66 -0.142615 -3.91841 0
M  V30 2101 H 196.15 0.83218 -4.09224 0
M  V30 2102 N 196.587 1.43421 -0.653314 0
M  V30 2103 C 197.836 2.01032 -0.164076 0
M  V30 2104 C 198.149 1.52147 1.22926 0
M  V30 2105 O 199.355 2.02031 1.81371 0
M  V30 2106 C 197.811 3.59082 -0.24252 0
M  V30 2107 C 197.419 4.1696 -1.63855 0
M  V30 2108 C 199.163 4.24079 0.18911 0
M  V30 2109 C 197.07 5.67304 -1.67092 0
M  V30 2110 H 196 0.751798 -0.0575769 0
M  V30 2111 H 198.651 1.6439 -0.815362 0
M  V30 2112 H 197.033 3.93125 0.476276 0
M  V30 2113 H 198.207 3.94416 -2.38271 0
M  V30 2114 H 196.522 3.64335 -2.01616 0
M  V30 2115 H 199.119 5.34381 0.184775 0
M  V30 2116 H 199.462 3.98005 1.22056 0
M  V30 2117 H 199.995 3.94918 -0.477938 0
M  V30 2118 H 196.734 5.98145 -2.68146 0
M  V30 2119 H 196.254 5.91904 -0.970014 0
M  V30 2120 H 197.933 6.31344 -1.4147 0
M  V30 2121 N 198.065 0.39524 1.52563 0
M  V30 2122 C 199.314 -0.186321 2.00838 0
M  V30 2123 C 199.627 -1.47402 1.28577 0
M  V30 2124 O 200.833 -2.13599 1.67593 0
M  V30 2125 C 199.289 -0.382595 3.57861 0
M  V30 2126 C 198.897 0.892202 4.39026 0
M  V30 2127 C 200.641 -0.9202 4.14406 0
M  V30 2128 C 198.548 0.66388 5.87662 0
M  V30 2129 H 197.478 -0.0734041 0.750418 0
M  V30 2130 H 200.129 0.518552 1.76021 0
M  V30 2131 H 198.511 -1.14946 3.7895 0
M  V30 2132 H 199.685 1.66414 4.29701 0
M  V30 2133 H 198 1.35519 3.9373 0
M  V30 2134 H 200.597 -1.10683 5.23119 0
M  V30 2135 H 200.94 -1.89096 3.70875 0
M  V30 2136 H 201.473 -0.212751 3.97231 0
M  V30 2137 H 198.212 1.6058 6.35527 0
M  V30 2138 H 197.732 -0.0690193 5.9976 0
M  V30 2139 H 199.411 0.300699 6.46301 0
M  V30 2140 N 199.544 -1.57102 0.125237 0
M  V30 2141 C 200.494 -2.12202 -0.833936 0
M  V30 2142 C 201.478 -1.04433 -1.22403 0
M  V30 2143 O 202.67 -1.30655 -1.19408 0
M  V30 2144 C 199.799 -2.72994 -2.08157 0
M  V30 2145 C 198.885 -3.87852 -1.71556 0
M  V30 2146 N 199.276 -4.9464 -1.05662 0
M  V30 2147 C 197.574 -3.98153 -2.00973 0
M  V30 2148 C 198.275 -5.74953 -0.883376 0
M  V30 2149 N 197.251 -5.24985 -1.41036 0
M  V30 2150 H 201.053 -2.92141 -0.321035 0
M  V30 2151 H 198.567 -1.62217 -0.0770315 0
M  V30 2152 H 200.564 -3.10816 -2.77847 0
M  V30 2153 H 199.224 -1.9452 -2.59985 0
M  V30 2154 H 200.235 -5.12872 -0.719878 0
M  V30 2155 H 196.912 -3.30728 -2.54804 0
M  V30 2156 H 198.302 -6.70904 -0.365675 0
M  V30 2157 N 201.022 0.148545 -1.56898 0
M  V30 2158 C 202.433 0.708766 -1.72723 0
M  V30 2159 C 202.784 1.81734 -0.739395 0
M  V30 2160 O 201.909 2.16194 0.0943169 0
M  V30 2161 C 202.504 1.29245 -3.13179 0
M  V30 2162 C 201.063 1.79925 -3.30611 0
M  V30 2163 C 200.21 0.687111 -2.68652 0
M  V30 2164 H 203.161 -0.0771063 -1.58513 0
M  V30 2165 H 203.182 2.16224 -3.13093 0
M  V30 2166 H 202.694 0.485382 -3.85053 0
M  V30 2167 H 200.795 2.63203 -2.63732 0
M  V30 2168 H 200.908 1.92903 -4.38549 0
M  V30 2169 H 199.272 1.11335 -2.29078 0
M  V30 2170 H 200.055 -0.108483 -3.43129 0
M  V30 2171 N 202.5 1.5196 0.417844 0
M  V30 2172 C 203.43 1.77634 1.51554 0
M  V30 2173 C 204.411 0.626918 1.58126 0
M  V30 2174 O 205.596 0.871632 1.7354 0
M  V30 2175 C 202.726 1.91911 2.8946 0
M  V30 2176 C 201.68 3.07463 2.97743 0
M  V30 2177 C 201.006 3.06951 4.37819 0
M  V30 2178 C 202.306 4.47082 2.70027 0
M  V30 2179 H 204 2.6955 1.3032 0
M  V30 2180 H 201.546 1.29706 0.625492 0
M  V30 2181 H 203.499 2.08455 3.6623 0
M  V30 2182 H 202.223 0.966598 3.11969 0
M  V30 2183 H 200.882 2.90656 2.23416 0
M  V30 2184 H 200.53 2.09438 4.57323 0
M  V30 2185 H 200.23 3.84556 4.44286 0
M  V30 2186 H 201.754 3.25613 5.16535 0
M  V30 2187 H 203.168 4.6414 3.36522 0
M  V30 2188 H 201.565 5.2654 2.87881 0
M  V30 2189 H 202.635 4.55777 1.65514 0
M  V30 2190 N 203.978 -0.674533 1.42435 0
M  V30 2191 C 204.91 -1.80005 1.41883 0
M  V30 2192 C 205.923 -1.59667 0.31787 0
M  V30 2193 O 207.112 -1.68781 0.580973 0
M  V30 2194 C 204.212 -3.17114 1.19549 0
M  V30 2195 C 203.385 -3.64299 2.42084 0
M  V30 2196 C 202.444 -4.80142 2.15291 0
M  V30 2197 O 201.47 -4.90673 2.88493 0
M  V30 2198 N 202.672 -5.68869 1.1562 0
M  V30 2199 H 205.437 -1.80964 2.38898 0
M  V30 2200 H 202.998 -0.857633 1.37318 0
M  V30 2201 H 204.99 -3.92267 0.995417 0
M  V30 2202 H 203.56 -3.11053 0.310569 0
M  V30 2203 H 202.78 -2.79822 2.77657 0
M  V30 2204 H 204.068 -3.92567 3.23679 0
M  V30 2205 H 203.466 -5.63012 0.550765 0
M  V30 2206 H 202.023 -6.43833 1.016 0
M  V30 2207 N 205.456 -1.28612 -0.910864 0
M  V30 2208 C 206.867 -1.14406 -1.47541 0
M  V30 2209 C 207.218 0.264901 -1.94403 0
M  V30 2210 O 206.343 1.15942 -1.82719 0
M  V30 2211 C 206.938 -2.07073 -2.68153 0
M  V30 2212 C 205.497 -1.96923 -3.20778 0
M  V30 2213 C 204.644 -1.98646 -1.93481 0
M  V30 2214 H 207.595 -1.41259 -0.723291 0
M  V30 2215 H 207.616 -1.63642 -3.43514 0
M  V30 2216 H 207.128 -3.09611 -2.34015 0
M  V30 2217 H 205.229 -0.97433 -3.59635 0
M  V30 2218 H 205.342 -2.84026 -3.85832 0
M  V30 2219 H 203.706 -1.43093 -2.10705 0
M  V30 2220 H 204.489 -3.02868 -1.61634 0
M  V30 2221 N 206.934 1.1197 -1.10907 0
M  V30 2222 C 208.35 1.35591 -0.841852 0
M  V30 2223 C 208.55 1.94233 0.536246 0
M  V30 2224 O 207.606 2.1717 1.28816 0
M  V30 2225 C 208.919 2.29284 -1.94549 0
M  V30 2226 C 210.467 2.42862 -1.97451 0
M  V30 2227 C 210.942 3.39873 -3.07002 0
M  V30 2228 N 212.433 3.47433 -3.06341 0
M  V30 2229 C 213.168 4.22421 -3.87748 0
M  V30 2230 N 212.664 5.00432 -4.79103 0
M  V30 2231 N 214.457 4.17876 -3.75946 0
M  V30 2232 H 206.608 0.722664 -1.99728 0
M  V30 2233 H 208.871 0.380635 -0.868229 0
M  V30 2234 H 208.577 1.93378 -2.93765 0
M  V30 2235 H 208.451 3.29452 -1.83688 0
M  V30 2236 H 210.838 2.78046 -0.988645 0
M  V30 2237 H 210.919 1.42566 -2.12388 0
M  V30 2238 H 210.563 3.05417 -4.05811 0
M  V30 2239 H 210.493 4.40011 -2.89306 0
M  V30 2240 H 212.984 2.91784 -2.40147 0
M  V30 2241 H 213.297 5.55002 -5.37766 0
M  V30 2242 H 211.642 4.99612 -4.83128 0
M  V30 2243 H 214.833 3.56016 -3.03924 0
M  V30 2244 H 215.006 4.76061 -4.39624 0
M  V30 2245 N 208.412 0.89855 1.29475 0
M  V30 2246 C 209.342 0.39201 2.30186 0
M  V30 2247 C 210.323 -0.532359 1.61555 0
M  V30 2248 O 211.508 -0.443331 1.89072 0
M  V30 2249 C 208.638 -0.382353 3.45189 0
M  V30 2250 C 207.592 0.451483 4.25612 0
M  V30 2251 C 206.918 -0.450307 5.328 0
M  V30 2252 C 208.218 1.70079 4.93832 0
M  V30 2253 H 209.912 1.23362 2.72804 0
M  V30 2254 H 207.458 0.594638 1.31149 0
M  V30 2255 H 209.411 -0.747451 4.14718 0
M  V30 2256 H 208.135 -1.25774 3.01411 0
M  V30 2257 H 206.794 0.798897 3.57789 0
M  V30 2258 H 206.442 -1.32379 4.85268 0
M  V30 2259 H 206.142 0.103902 5.87508 0
M  V30 2260 H 207.666 -0.811623 6.05182 0
M  V30 2261 H 209.08 1.40549 5.55805 0
M  V30 2262 H 207.477 2.19623 5.58467 0
M  V30 2263 H 208.547 2.43744 4.19186 0
M  V30 2264 N 209.89 -1.43072 0.660911 0
M  V30 2265 C 211.115 -2.06584 0.183805 0
M  V30 2266 C 211.54 -1.49257 -1.14472 0
M  V30 2267 O 210.898 -0.605528 -1.70889 0
M  V30 2268 C 210.946 -3.60418 0.114434 0
M  V30 2269 O 210.05 -4.01981 -0.921137 0
M  V30 2270 H 209.391 -0.656669 0.0983994 0
M  V30 2271 H 211.921 -1.83447 0.906006 0
M  V30 2272 H 211.931 -4.07946 -0.0663394 0
M  V30 2273 H 210.606 -4.01519 1.08422 0
M  V30 2274 H 209.183 -3.66029 -0.71253 0
M  V30 2275 N 211.368 -0.403325 -1.52352 0
M  V30 2276 C 212.331 0.413051 -2.25447 0
M  V30 2277 C 213.331 0.978513 -1.276 0
M  V30 2278 O 214.521 0.858305 -1.51587 0
M  V30 2279 C 211.653 1.58087 -3.02029 0
M  V30 2280 H 212.846 -0.227094 -2.99039 0
M  V30 2281 H 210.399 -0.155722 -1.55522 0
M  V30 2282 H 211.134 2.25804 -2.32772 0
M  V30 2283 H 210.919 1.18195 -3.73861 0
M  V30 2284 H 212.409 2.1585 -3.57489 0
M  V30 2285 N 212.846 1.57033 -0.133567 0
M  V30 2286 C 214.074 2.00044 0.528195 0
M  V30 2287 C 214.489 1.01349 1.59291 0
M  V30 2288 O 213.846 0.00848369 1.82498 0
M  V30 2289 C 213.897 3.43018 1.1411 0
M  V30 2290 O 213.618 4.37939 0.11892 0
M  V30 2291 C 215.119 4.01237 1.88477 0
M  V30 2292 H 212.339 0.656517 0.138661 0
M  V30 2293 H 214.883 2.03267 -0.224196 0
M  V30 2294 H 213.038 3.40688 1.84418 0
M  V30 2295 H 213.452 5.21436 0.56613 0
M  V30 2296 H 214.926 5.03314 2.26669 0
M  V30 2297 H 215.403 3.41193 2.76558 0
M  V30 2298 H 216.009 4.07156 1.22898 0
M  V30 2299 N 214.325 -0.140222 1.56975 0
M  V30 2300 C 215.288 -1.15689 1.97861 0
M  V30 2301 C 216.288 -1.3549 0.865974 0
M  V30 2302 O 217.478 -1.32367 1.13246 0
M  V30 2303 C 214.61 -2.51582 2.30042 0
M  V30 2304 H 215.803 -0.805971 2.88867 0
M  V30 2305 H 213.356 -0.383801 1.51515 0
M  V30 2306 H 214.091 -2.91632 1.41849 0
M  V30 2307 H 213.876 -2.38569 3.11171 0
M  V30 2308 H 215.366 -3.24792 2.62488 0
M  V30 2309 N 215.803 -1.52179 -0.40978 0
M  V30 2310 C 217.031 -1.70054 -1.17853 0
M  V30 2311 C 217.446 -0.409735 -1.843 0
M  V30 2312 O 216.803 0.614183 -1.71855 0
M  V30 2313 C 216.854 -2.83568 -2.24213 0
M  V30 2314 O 216.575 -4.0765 -1.60478 0
M  V30 2315 C 218.076 -3.12947 -3.13973 0
M  V30 2316 H 215.296 -0.569917 -0.354169 0
M  V30 2317 H 217.84 -1.98734 -0.482198 0
M  V30 2318 H 215.995 -2.57409 -2.89516 0
M  V30 2319 H 216.409 -4.70899 -2.30986 0
M  V30 2320 H 217.883 -3.95889 -3.84677 0
M  V30 2321 H 218.36 -2.26472 -3.76307 0
M  V30 2322 H 218.966 -3.40868 -2.5434 0
M  V30 2323 N 217.281 0.66697 -1.42791 0
M  V30 2324 C 218.228 1.7803 -1.4688 0
M  V30 2325 C 219.198 1.6299 -0.319919 0
M  V30 2326 O 220.383 1.83432 -0.525118 0
M  V30 2327 C 217.523 3.1611 -1.38451 0
M  V30 2328 C 216.636 3.42381 -2.63437 0
M  V30 2329 C 215.771 4.70232 -2.47094 0
M  V30 2330 C 214.81 4.89564 -3.67415 0
M  V30 2331 N 213.947 6.08661 -3.49966 0
M  V30 2332 H 218.787 1.7387 -2.42019 0
M  V30 2333 H 216.324 0.84868 -1.20149 0
M  V30 2334 H 218.282 3.95914 -1.31561 0
M  V30 2335 H 216.912 3.19374 -0.469033 0
M  V30 2336 H 215.964 2.56774 -2.80662 0
M  V30 2337 H 217.276 3.52557 -3.52853 0
M  V30 2338 H 216.43 5.5814 -2.37834 0
M  V30 2339 H 215.169 4.62353 -1.5518 0
M  V30 2340 H 214.174 4.00096 -3.77099 0
M  V30 2341 H 215.399 4.99282 -4.6032 0
M  V30 2342 H 213.345 6.0194 -2.60776 0
M  V30 2343 H 213.262 6.19733 -4.32975 0
M  V30 2344 H 214.53 6.99226 -3.44532 0
M  V30 2345 N 218.759 1.29093 0.90403 0
M  V30 2346 C 220.005 1.16986 1.65656 0
M  V30 2347 C 220.338 -0.278925 1.92186 0
M  V30 2348 O 219.613 -1.2019 1.5292 0
M  V30 2349 C 219.896 1.97908 3.0084 0
M  V30 2350 C 219.749 3.50903 2.81403 0
M  V30 2351 C 221.068 1.80208 4.01513 0
M  V30 2352 H 218.187 0.426346 0.601164 0
M  V30 2353 H 220.829 1.58518 1.04747 0
M  V30 2354 H 218.979 1.62616 3.52829 0
M  V30 2355 H 220.651 3.96153 2.36348 0
M  V30 2356 H 218.894 3.76045 2.1627 0
M  V30 2357 H 219.565 4.02791 3.77443 0
M  V30 2358 H 222.041 2.11025 3.58619 0
M  V30 2359 H 220.917 2.39184 4.94047 0
M  V30 2360 H 221.178 0.756119 4.35586 0
M  V30 2361 N 220.237 -1.11381 1.11499 0
M  V30 2362 C 221.483 -1.83403 0.865512 0
M  V30 2363 C 221.816 -1.84459 -0.607329 0
M  V30 2364 O 221.091 -1.29811 -1.44842 0
M  V30 2365 C 221.374 -3.30552 1.42855 0
M  V30 2366 C 221.227 -3.37886 2.96906 0
M  V30 2367 C 222.546 -4.26643 1.08 0
M  V30 2368 H 219.665 -0.665879 0.31587 0
M  V30 2369 H 222.307 -1.30601 1.37998 0
M  V30 2370 H 220.457 -3.75648 0.990985 0
M  V30 2371 H 222.129 -3.01343 3.49271 0
M  V30 2372 H 220.372 -2.78088 3.32941 0
M  V30 2373 H 221.043 -4.41458 3.31389 0
M  V30 2374 H 223.519 -3.89729 1.45775 0
M  V30 2375 H 222.395 -5.27986 1.50072 0
M  V30 2376 H 222.656 -4.42099 -0.00915037 0
M  V30 2377 N 221.715 -0.905404 -1.28997 0
M  V30 2378 C 222.964 -0.530191 -1.94607 0
M  V30 2379 C 223.277 0.929185 -1.72121 0
M  V30 2380 O 224.483 1.41218 -2.31883 0
M  V30 2381 C 222.939 -0.897333 -3.48534 0
M  V30 2382 C 222.547 -2.37587 -3.79811 0
M  V30 2383 C 224.291 -0.592304 -4.20347 0
M  V30 2384 C 222.198 -2.68357 -5.27009 0
M  V30 2385 H 221.128 -0.194558 -0.728466 0
M  V30 2386 H 223.779 -1.10318 -1.46636 0
M  V30 2387 H 222.161 -0.253214 -3.9519 0
M  V30 2388 H 223.335 -3.06602 -3.43994 0
M  V30 2389 H 221.65 -2.6505 -3.2115 0
M  V30 2390 H 224.247 -0.798975 -5.28697 0
M  V30 2391 H 224.59 0.469474 -4.13644 0
M  V30 2392 H 225.123 -1.19452 -3.79442 0
M  V30 2393 H 221.862 -3.73355 -5.38782 0
M  V30 2394 H 221.382 -2.03971 -5.64053 0
M  V30 2395 H 223.061 -2.54922 -5.94663 0
M  V30 2396 N 223.193 1.4272 -0.668489 0
M  V30 2397 C 224.433 2.03497 -0.19194 0
M  V30 2398 C 224.797 1.51684 1.17712 0
M  V30 2399 O 225.998 2.04205 1.74796 0
M  V30 2400 C 224.269 3.56734 -0.218032 0
M  V30 2401 S 225.828 4.38395 0.188438 0
M  V30 2402 H 222.646 0.706542 -0.0794959 0
M  V30 2403 H 225.248 1.74563 -0.880235 0
M  V30 2404 H 223.952 3.91943 -1.2169 0
M  V30 2405 H 223.483 3.90333 0.490303 0
M  V30 2406 H 225.498 4.75345 1.42345 0
M  V30 2407 N 224.671 0.411399 1.52136 0
M  V30 2408 C 225.917 -0.163888 2.02137 0
M  V30 2409 C 226.25 -1.44597 1.29636 0
M  V30 2410 O 225.525 -1.90272 0.403353 0
M  V30 2411 C 225.808 -0.40927 3.57767 0
M  V30 2412 C 225.661 0.889643 4.40914 0
M  V30 2413 C 226.98 -1.19042 4.23694 0
M  V30 2414 H 224.099 -0.0580896 0.734707 0
M  V30 2415 H 226.741 0.54531 1.82007 0
M  V30 2416 H 224.891 -1.0134 3.7505 0
M  V30 2417 H 226.563 1.52575 4.35337 0
M  V30 2418 H 224.806 1.50011 4.07037 0
M  V30 2419 H 225.477 0.672314 5.4789 0
M  V30 2420 H 227.953 -0.678942 4.10524 0
M  V30 2421 H 226.829 -1.33086 5.32522 0
M  V30 2422 H 227.09 -2.21166 3.82803 0
M  V30 2423 N 226.149 -1.5696 0.141893 0
M  V30 2424 C 227.398 -1.95135 -0.510427 0
M  V30 2425 C 227.711 -1.02896 -1.66348 0
M  V30 2426 O 228.917 -1.30629 -2.38009 0
M  V30 2427 C 227.373 -3.46876 -0.959427 0
M  V30 2428 C 226.981 -4.47691 0.166419 0
M  V30 2429 C 228.725 -3.93927 -1.58183 0
M  V30 2430 C 226.632 -5.90636 -0.300565 0
M  V30 2431 H 225.562 -0.728494 -0.194454 0
M  V30 2432 H 228.213 -1.8211 0.22542 0
M  V30 2433 H 226.595 -3.55215 -1.75038 0
M  V30 2434 H 227.769 -4.51043 0.94325 0
M  V30 2435 H 226.084 -4.10527 0.696905 0
M  V30 2436 H 228.681 -4.98158 -1.94275 0
M  V30 2437 H 229.024 -3.3519 -2.46888 0
M  V30 2438 H 229.557 -3.88484 -0.855863 0
M  V30 2439 H 226.296 -6.5318 0.550989 0
M  V30 2440 H 225.816 -5.90655 -1.04338 0
M  V30 2441 H 227.495 -6.42588 -0.754265 0
M  V30 2442 N 227.627 0.131896 -1.57047 0
M  V30 2443 C 228.873 0.838268 -1.85323 0
M  V30 2444 C 229.228 1.78098 -0.727937 0
M  V30 2445 O 228.521 1.89645 0.27304 0
M  V30 2446 C 228.715 1.63703 -3.17704 0
M  V30 2447 C 228.544 0.773167 -4.43004 0
M  V30 2448 C 227.314 0.432956 -5.03442 0
M  V30 2449 C 229.512 0.0966216 -5.14209 0
M  V30 2450 N 227.494 -0.442924 -6.123 0
M  V30 2451 C 228.865 -0.638778 -6.16701 0
M  V30 2452 C 230.92 0.018861 -4.97896 0
M  V30 2453 C 229.623 -1.44462 -7.04644 0
M  V30 2454 C 231.649 -0.773762 -5.86316 0
M  V30 2455 C 231.011 -1.4974 -6.883 0
M  V30 2456 H 227.11 0.284086 -0.728573 0
M  V30 2457 H 229.694 0.102731 -1.94429 0
M  V30 2458 H 227.865 2.3437 -3.09718 0
M  V30 2459 H 229.597 2.28774 -3.33833 0
M  V30 2460 H 226.352 0.772237 -4.67262 0
M  V30 2461 H 226.776 -0.872332 -6.71356 0
M  V30 2462 H 231.418 0.56397 -4.19022 0
M  V30 2463 H 229.136 -2.00093 -7.82936 0
M  V30 2464 H 232.722 -0.83612 -5.75761 0
M  V30 2465 H 231.602 -2.10087 -7.55535 0
M  V30 2466 N 229.106 1.52395 0.401703 0
M  V30 2467 C 230.352 1.67065 1.14966 0
M  V30 2468 C 230.685 0.403052 1.89971 0
M  V30 2469 O 229.96 -0.598774 1.85054 0
M  V30 2470 C 230.243 2.8975 2.13815 0
M  V30 2471 C 230.096 4.26578 1.42658 0
M  V30 2472 C 231.415 3.07965 3.14397 0
M  V30 2473 H 228.534 0.607968 0.416587 0
M  V30 2474 H 231.176 1.84965 0.434511 0
M  V30 2475 H 229.326 2.74619 2.74803 0
M  V30 2476 H 230.998 4.53451 0.847329 0
M  V30 2477 H 229.241 4.27639 0.72849 0
M  V30 2478 H 229.912 5.08483 2.14823 0
M  V30 2479 H 232.388 3.22043 2.63491 0
M  V30 2480 H 231.264 3.95308 3.80819 0
M  V30 2481 H 231.525 2.21611 3.82545 0
M  V30 2482 N 230.584 -0.659388 1.43143 0
M  V30 2483 C 231.514 -1.78422 1.50625 0
M  V30 2484 C 232.495 -1.66216 0.361443 0
M  V30 2485 O 233.68 -1.85404 0.577834 0
M  V30 2486 C 230.81 -3.16815 1.42287 0
M  V30 2487 C 229.764 -3.43777 2.54954 0
M  V30 2488 C 229.09 -4.81905 2.31671 0
M  V30 2489 C 230.39 -3.39134 3.97222 0
M  V30 2490 H 232.084 -1.72417 2.44771 0
M  V30 2491 H 229.63 -0.828084 1.17808 0
M  V30 2492 H 231.583 -3.95253 1.46127 0
M  V30 2493 H 230.307 -3.23534 0.446435 0
M  V30 2494 H 228.966 -2.67707 2.50457 0
M  V30 2495 H 228.614 -4.85294 1.32284 0
M  V30 2496 H 228.314 -5.00906 3.07192 0
M  V30 2497 H 229.838 -5.62609 2.37284 0
M  V30 2498 H 231.252 -4.07518 4.03239 0
M  V30 2499 H 229.649 -3.69671 4.72719 0
M  V30 2500 H 230.719 -2.37426 4.22797 0
M  V30 2501 N 232.062 -1.29571 -0.897171 0
M  V30 2502 C 233.025 -1.14913 -1.98312 0
M  V30 2503 C 234.025 -0.0838629 -1.60581 0
M  V30 2504 O 235.215 -0.331006 -1.71026 0
M  V30 2505 C 232.347 -0.757835 -3.3237 0
M  V30 2506 H 233.54 -2.11377 -2.12743 0
M  V30 2507 H 231.093 -1.12793 -1.08201 0
M  V30 2508 H 231.828 0.206837 -3.2364 0
M  V30 2509 H 231.613 -1.52755 -3.61121 0
M  V30 2510 H 233.103 -0.678408 -4.12053 0
M  V30 2511 N 233.54 1.10788 -1.12088 0
M  V30 2512 C 234.47 2.19083 -0.807755 0
M  V30 2513 C 235.451 1.6858 0.226859 0
M  V30 2514 O 236.636 1.93997 0.0888475 0
M  V30 2515 C 233.766 3.46344 -0.257576 0
M  V30 2516 C 232.72 4.101 -1.22483 0
M  V30 2517 C 232.046 5.32016 -0.535052 0
M  V30 2518 C 233.346 4.54236 -2.57811 0
M  V30 2519 H 235.04 2.45534 -1.71328 0
M  V30 2520 H 232.586 1.1801 -0.825205 0
M  V30 2521 H 234.539 4.21392 -0.0262679 0
M  V30 2522 H 233.263 3.19373 0.683278 0
M  V30 2523 H 231.922 3.37054 -1.44189 0
M  V30 2524 H 231.57 5.01319 0.410827 0
M  V30 2525 H 231.27 5.75625 -1.18024 0
M  V30 2526 H 232.794 6.09799 -0.312695 0
M  V30 2527 H 234.208 5.20575 -2.40155 0
M  V30 2528 H 232.605 5.08682 -3.18375 0
M  V30 2529 H 233.675 3.6734 -3.16528 0
M  V30 2530 N 235.018 0.912232 1.28515 0
M  V30 2531 C 235.948 0.416403 2.29757 0
M  V30 2532 C 236.929 -0.515194 1.6211 0
M  V30 2533 O 238.114 -0.423253 1.89532 0
M  V30 2534 C 235.244 -0.34572 3.45575 0
M  V30 2535 C 234.198 0.496599 4.25109 0
M  V30 2536 C 233.524 -0.393771 5.33248 0
M  V30 2537 C 234.824 1.75307 4.92001 0
M  V30 2538 H 236.518 1.26249 2.7148 0
M  V30 2539 H 234.064 0.608515 1.30511 0
M  V30 2540 H 236.017 -0.703422 4.15488 0
M  V30 2541 H 234.741 -1.2257 3.02728 0
M  V30 2542 H 233.4 0.8368 3.56922 0
M  V30 2543 H 233.048 -1.27225 4.86644 0
M  V30 2544 H 232.748 0.166209 5.87365 0
M  V30 2545 H 234.272 -0.747389 6.06009 0
M  V30 2546 H 235.686 1.46437 5.54283 0
M  V30 2547 H 234.083 2.25534 5.56106 0
M  V30 2548 H 235.153 2.48176 4.16577 0
M  V30 2549 N 236.496 -1.42363 0.676048 0
M  V30 2550 C 237.426 -2.33497 0.0124832 0
M  V30 2551 C 238.407 -1.50748 -0.787981 0
M  V30 2552 O 239.592 -1.79346 -0.744884 0
M  V30 2553 C 236.722 -3.34377 -0.938582 0
M  V30 2554 C 235.676 -4.27289 -0.246622 0
M  V30 2555 C 235.002 -5.18386 -1.31071 0
M  V30 2556 C 236.302 -5.14916 0.875125 0
M  V30 2557 H 237.996 -2.89233 0.773593 0
M  V30 2558 H 235.542 -1.39073 0.37346 0
M  V30 2559 H 237.495 -3.97044 -1.41188 0
M  V30 2560 H 236.219 -2.76947 -1.73113 0
M  V30 2561 H 234.878 -3.66018 0.206456 0
M  V30 2562 H 234.526 -4.57282 -2.09528 0
M  V30 2563 H 234.226 -5.81378 -0.852839 0
M  V30 2564 H 235.75 -5.83929 -1.78492 0
M  V30 2565 H 237.164 -5.71262 0.482983 0
M  V30 2566 H 235.561 -5.86747 1.25887 0
M  V30 2567 H 236.631 -4.53242 1.72335 0
M  V30 2568 N 237.974 -0.419461 -1.51915 0
M  V30 2569 C 238.937 0.389116 -2.25873 0
M  V30 2570 C 239.937 0.964924 -1.28631 0
M  V30 2571 O 241.127 0.842179 -1.52489 0
M  V30 2572 C 238.259 1.54874 -3.03689 0
M  V30 2573 H 239.452 -0.258799 -2.98781 0
M  V30 2574 H 237.005 -0.172209 -1.55348 0
M  V30 2575 H 237.74 2.23323 -2.35154 0
M  V30 2576 H 237.525 1.14223 -3.75094 0
M  V30 2577 H 239.015 2.12046 -3.59759 0
M  V30 2578 N 239.452 1.56882 -0.150215 0
M  V30 2579 C 240.699 1.96228 0.500093 0
M  V30 2580 C 241.027 1.03522 1.64661 0
M  V30 2581 O 240.282 0.0650683 1.95592 0
M  V30 2582 C 240.581 3.41801 1.04437 0
M  V30 2583 C 240.247 4.50897 0.0159671 0
M  V30 2584 C 238.909 4.8046 -0.266731 0
M  V30 2585 C 241.261 5.16703 -0.683192 0
M  V30 2586 C 238.589 5.73135 -1.25434 0
M  V30 2587 C 240.941 6.10441 -1.65964 0
M  V30 2588 C 239.605 6.38382 -1.95 0
M  V30 2589 H 238.875 0.718048 0.182997 0
M  V30 2590 H 241.522 1.90019 -0.237724 0
M  V30 2591 H 239.827 3.44857 1.85959 0
M  V30 2592 H 241.524 3.69573 1.55618 0
M  V30 2593 H 238.114 4.27891 0.246485 0
M  V30 2594 H 242.298 4.93993 -0.477983 0
M  V30 2595 H 237.554 5.93074 -1.48571 0
M  V30 2596 H 241.728 6.60507 -2.20689 0
M  V30 2597 H 239.355 7.09996 -2.71679 0
M  V30 2598 N 240.93 -0.123565 1.57115 0
M  V30 2599 C 242.341 -0.681198 1.73829 0
M  V30 2600 C 242.692 -1.80535 0.768214 0
M  V30 2601 O 241.817 -2.16317 -0.0599103 0
M  V30 2602 C 242.412 -1.24246 3.15196 0
M  V30 2603 C 240.971 -1.74643 3.33432 0
M  V30 2604 C 240.118 -0.644284 2.69711 0
M  V30 2605 H 243.069 0.102315 1.5837 0
M  V30 2606 H 243.09 -2.11216 3.16493 0
M  V30 2607 H 242.602 -0.424062 3.85776 0
M  V30 2608 H 240.703 -2.58974 2.67886 0
M  V30 2609 H 240.816 -1.85902 4.41562 0
M  V30 2610 H 239.18 -1.07676 2.3082 0
M  V30 2611 H 239.963 0.163058 3.42913 0
M  V30 2612 N 242.408 -1.52605 -0.393616 0
M  V30 2613 C 243.34 -1.73303 -1.49995 0
M  V30 2614 C 244.353 -0.613473 -1.50799 0
M  V30 2615 O 245.542 -0.889049 -1.54784 0
M  V30 2616 C 242.642 -1.77245 -2.88855 0
M  V30 2617 C 241.815 -3.06483 -3.12069 0
M  V30 2618 C 240.874 -3.02033 -4.30886 0
M  V30 2619 O 239.9 -3.75907 -4.27414 0
M  V30 2620 N 241.102 -2.20897 -5.36828 0
M  V30 2621 H 243.867 -2.68756 -1.32629 0
M  V30 2622 H 241.428 -1.51036 -0.583083 0
M  V30 2623 H 243.42 -1.7178 -3.66434 0
M  V30 2624 H 241.99 -0.891993 -2.99603 0
M  V30 2625 H 241.21 -3.25474 -2.22396 0
M  V30 2626 H 242.498 -3.91947 -3.2443 0
M  V30 2627 H 241.896 -1.60336 -5.42502 0
M  V30 2628 H 240.453 -2.21275 -6.13091 0
M  V30 2629 N 243.887 0.651787 -1.4349 0
M  V30 2630 C 245.135 1.40888 -1.44897 0
M  V30 2631 C 245.456 1.94856 -0.0749086 0
M  V30 2632 O 244.726 1.74518 0.889956 0
M  V30 2633 H 243.306 0.522887 -0.533478 0
M  V30 2634 H 245.968 0.768609 -1.79104 0
M  V30 2635 H 245.064 2.25052 -2.16236 0
M  V30 2636 N 245.365 1.30045 0.890287 0
M  V30 2637 C 246.595 1.21296 1.67245 0
M  V30 2638 C 247.003 -0.227471 1.87828 0
M  V30 2639 O 246.346 -1.16296 1.422 0
M  V30 2640 C 246.408 1.86519 3.07329 0
M  V30 2641 C 246.072 3.35837 3.09939 0
M  V30 2642 C 247.069 4.31915 2.89389 0
M  V30 2643 C 244.754 3.77196 3.31706 0
M  V30 2644 C 246.748 5.67325 2.90552 0
M  V30 2645 C 244.435 5.12725 3.32499 0
M  V30 2646 C 245.433 6.076 3.11947 0
M  V30 2647 O 245.121 7.40655 3.12547 0
M  V30 2648 H 244.853 0.4211 0.528821 0
M  V30 2649 H 247.407 1.72111 1.12103 0
M  V30 2650 H 245.637 1.30228 3.64112 0
M  V30 2651 H 247.326 1.71963 3.67673 0
M  V30 2652 H 248.092 4.01294 2.72375 0
M  V30 2653 H 243.971 3.03796 3.4674 0
M  V30 2654 H 247.515 6.41354 2.74429 0
M  V30 2655 H 243.412 5.42988 3.49047 0
M  V30 2656 H 244.18 7.49577 3.28749 0
M  V30 2657 N 246.843 -1.10192 1.12674 0
M  V30 2658 C 248.073 -1.85713 0.905213 0
M  V30 2659 C 248.481 -1.81056 -0.549108 0
M  V30 2660 O 247.824 -1.19927 -1.39151 0
M  V30 2661 C 247.886 -3.34972 1.30516 0
M  V30 2662 C 247.55 -3.63385 2.77129 0
M  V30 2663 C 248.547 -3.59772 3.75313 0
M  V30 2664 C 246.232 -3.91981 3.14096 0
M  V30 2665 C 248.226 -3.84354 5.08479 0
M  V30 2666 C 245.913 -4.16218 4.47443 0
M  V30 2667 C 246.911 -4.12395 5.44444 0
M  V30 2668 O 246.599 -4.36014 6.75387 0
M  V30 2669 H 246.331 -0.593719 0.323223 0
M  V30 2670 H 248.885 -1.40198 1.50112 0
M  V30 2671 H 247.115 -3.81156 0.652463 0
M  V30 2672 H 248.804 -3.91886 1.05736 0
M  V30 2673 H 249.57 -3.37716 3.48099 0
M  V30 2674 H 245.449 -3.94085 2.39202 0
M  V30 2675 H 248.993 -3.81285 5.84181 0
M  V30 2676 H 244.89 -4.37754 4.74386 0
M  V30 2677 H 245.658 -4.53516 6.8137 0
M  V30 2678 N 248.321 -0.919034 -1.28029 0
M  V30 2679 C 249.546 -0.570357 -1.99403 0
M  V30 2680 C 249.971 0.842486 -1.68178 0
M  V30 2681 O 249.329 1.56391 -0.917141 0
M  V30 2682 C 249.377 -0.792541 -3.51783 0
M  V30 2683 O 248.481 0.145988 -4.12142 0
M  V30 2684 H 247.822 -0.220555 -0.6263 0
M  V30 2685 H 250.352 -1.23592 -1.63053 0
M  V30 2686 H 250.362 -0.704708 -4.01868 0
M  V30 2687 H 249.037 -1.82247 -3.73844 0
M  V30 2688 H 247.614 0.00897528 -3.72899 0
M  V30 2689 N 249.799 1.42003 -0.683588 0
M  V30 2690 C 251.027 2.05746 -0.218182 0
M  V30 2691 C 251.442 1.51396 1.12804 0
M  V30 2692 O 250.799 0.657303 1.70252 0
M  V30 2693 C 250.85 3.61171 -0.154131 0
M  V30 2694 O 250.571 4.13508 -1.44716 0
M  V30 2695 C 252.072 4.42042 0.333713 0
M  V30 2696 H 249.292 0.662888 -0.10402 0
M  V30 2697 H 251.836 1.81987 -0.9328 0
M  V30 2698 H 249.991 3.84012 0.511231 0
M  V30 2699 H 250.405 5.07453 -1.32632 0
M  V30 2700 H 251.879 5.51028 0.327423 0
M  V30 2701 H 252.356 4.17269 1.37053 0
M  V30 2702 H 252.962 4.24239 -0.300222 0
M  V30 2703 N 251.277 0.427512 1.51691 0
M  V30 2704 C 252.505 -0.141191 2.06418 0
M  V30 2705 C 252.92 -1.37303 1.29589 0
M  V30 2706 O 252.277 -1.79059 0.352732 0
M  V30 2707 C 252.328 -0.473266 3.58389 0
M  V30 2708 O 252.049 0.709673 4.32314 0
M  V30 2709 C 253.55 -1.09371 4.29596 0
M  V30 2710 H 250.77 -0.0122747 0.670888 0
M  V30 2711 H 253.314 0.603764 1.95384 0
M  V30 2712 H 251.469 -1.16812 3.69369 0
M  V30 2713 H 251.883 0.42807 5.2275 0
M  V30 2714 H 253.357 -1.27613 5.37046 0
M  V30 2715 H 253.834 -2.072 3.87253 0
M  V30 2716 H 254.44 -0.43853 4.23033 0
M  V30 2717 N 252.755 -1.56801 0.158532 0
M  V30 2718 C 253.665 -2.20916 -0.789518 0
M  V30 2719 C 254.681 -1.1969 -1.26294 0
M  V30 2720 O 255.857 -1.52308 -1.31773 0
M  V30 2721 C 252.922 -2.82727 -2.00665 0
M  V30 2722 C 251.983 -3.99114 -1.58134 0
M  V30 2723 C 251.216 -4.57968 -2.74045 0
M  V30 2724 O 251.439 -4.15704 -3.90572 0
M  V30 2725 O 250.373 -5.48047 -2.48855 0
M  V30 2726 H 254.199 -3.02464 -0.273681 0
M  V30 2727 H 251.784 -1.4924 -0.0690548 0
M  V30 2728 H 253.666 -3.21968 -2.71872 0
M  V30 2729 H 252.341 -2.04184 -2.51179 0
M  V30 2730 H 251.248 -3.64567 -0.839155 0
M  V30 2731 H 252.581 -4.79212 -1.12325 0
M  V30 2732 N 254.233 0.115231 -1.57178 0
M  V30 2733 C 255.461 0.836437 -1.89239 0
M  V30 2734 C 255.876 1.73256 -0.750175 0
M  V30 2735 O 255.233 1.80357 0.278832 0
M  V30 2736 C 255.284 1.66671 -3.20785 0
M  V30 2737 O 255.005 0.806652 -4.3061 0
M  V30 2738 C 256.506 2.49274 -3.66575 0
M  V30 2739 H 253.726 0.240253 -0.626514 0
M  V30 2740 H 256.27 0.0984932 -2.04263 0
M  V30 2741 H 254.425 2.35737 -3.0742 0
M  V30 2742 H 254.839 1.37969 -5.06028 0
M  V30 2743 H 256.313 3.03055 -4.6137 0
M  V30 2744 H 256.79 3.26807 -2.93417 0
M  V30 2745 H 257.396 1.85443 -3.82741 0
M  V30 2746 N 255.711 1.52812 0.385517 0
M  V30 2747 C 256.644 1.72592 1.49289 0
M  V30 2748 C 257.622 0.573819 1.52138 0
M  V30 2749 O 258.806 0.80404 1.70492 0
M  V30 2750 C 255.933 1.78669 2.87741 0
M  V30 2751 C 254.979 3.00455 3.02703 0
M  V30 2752 S 255.812 4.60366 2.73538 0
M  V30 2753 C 256.968 4.69263 4.14177 0
M  V30 2754 H 257.201 2.66248 1.32285 0
M  V30 2755 H 254.734 1.43148 0.578611 0
M  V30 2756 H 256.692 1.82855 3.67524 0
M  V30 2757 H 255.353 0.861 3.02069 0
M  V30 2758 H 254.546 3.01258 4.04054 0
M  V30 2759 H 254.148 2.94278 2.30817 0
M  V30 2760 H 256.44 4.48092 5.08153 0
M  V30 2761 H 257.383 5.71276 4.18388 0
M  V30 2762 H 257.791 3.98072 4.00249 0
M  V30 2763 N 257.189 -0.644168 1.43834 0
M  V30 2764 C 258.6 -1.22554 1.40845 0
M  V30 2765 C 258.951 -1.9585 0.117115 0
M  V30 2766 O 258.076 -2.01734 -0.783086 0
M  V30 2767 C 258.671 -2.22907 2.55143 0
M  V30 2768 C 257.23 -2.76501 2.5539 0
M  V30 2769 C 256.377 -1.51287 2.32396 0
M  V30 2770 H 259.328 -0.43563 1.52604 0
M  V30 2771 H 259.349 -3.05259 2.2715 0
M  V30 2772 H 258.861 -1.69533 3.49114 0
M  V30 2773 H 256.962 -3.33914 1.65324 0
M  V30 2774 H 257.075 -3.23429 3.53455 0
M  V30 2775 H 255.439 -1.78957 1.81236 0
M  V30 2776 H 256.222 -0.998336 3.28463 0
M  V30 2777 N 258.668 -1.30515 -0.883378 0
M  V30 2778 C 259.893 -1.22487 -1.67367 0
M  V30 2779 C 260.318 0.208767 -1.86938 0
M  V30 2780 O 259.676 1.15015 -1.40148 0
M  V30 2781 C 259.724 -1.96041 -3.02655 0
M  V30 2782 O 258.828 -1.28859 -3.91751 0
M  V30 2783 H 258.169 -0.423573 -0.511353 0
M  V30 2784 H 260.699 -1.72362 -1.10239 0
M  V30 2785 H 260.709 -2.05124 -3.52687 0
M  V30 2786 H 259.384 -3.00307 -2.8773 0
M  V30 2787 H 257.961 -1.28141 -3.50192 0
M  V30 2788 N 260.146 1.09593 -1.13257 0
M  V30 2789 C 261.562 1.33775 -0.870423 0
M  V30 2790 C 261.762 1.95327 0.494926 0
M  V30 2791 O 260.818 2.19853 1.2418 0
M  V30 2792 C 262.131 2.25106 -1.99369 0
M  V30 2793 C 263.679 2.3862 -2.02558 0
M  V30 2794 C 264.154 3.33285 -3.14142 0
M  V30 2795 N 265.645 3.40857 -3.13641 0
M  V30 2796 C 266.38 4.14101 -3.96621 0
M  V30 2797 N 265.876 4.90157 -4.8961 0
M  V30 2798 N 267.669 4.09808 -3.84726 0
M  V30 2799 H 259.82 0.680136 -2.01216 0
M  V30 2800 H 262.083 0.362133 -0.876107 0
M  V30 2801 H 261.789 1.87103 -2.97801 0
M  V30 2802 H 261.663 3.25481 -1.90635 0
M  V30 2803 H 264.05 2.75887 -1.0474 0
M  V30 2804 H 264.131 1.38028 -2.15364 0
M  V30 2805 H 263.775 2.96741 -4.12198 0
M  V30 2806 H 263.705 4.33776 -2.98574 0
M  V30 2807 H 266.196 2.86624 -2.46282 0
M  V30 2808 H 266.509 5.4347 -5.49418 0
M  V30 2809 H 264.854 4.89251 -4.93617 0
M  V30 2810 H 268.045 3.4949 -3.11408 0
M  V30 2811 H 268.218 4.66629 -4.49623 0
M  V30 2812 N 261.624 0.925811 1.2754 0
M  V30 2813 C 262.87 0.566092 1.94739 0
M  V30 2814 C 263.203 -0.890057 1.72603 0
M  V30 2815 O 262.478 -1.63467 1.05399 0
M  V30 2816 C 262.761 0.89054 3.48915 0
M  V30 2817 C 262.614 2.4003 3.80402 0
M  V30 2818 C 263.933 0.395101 4.38323 0
M  V30 2819 H 261.052 0.20714 0.707292 0
M  V30 2820 H 263.694 1.15725 1.50691 0
M  V30 2821 H 261.844 0.387452 3.86563 0
M  V30 2822 H 263.516 2.97494 3.52555 0
M  V30 2823 H 261.759 2.85028 3.2702 0
M  V30 2824 H 262.43 2.57785 4.8811 0
M  V30 2825 H 264.906 0.826241 4.07814 0
M  V30 2826 H 263.782 0.651086 5.45025 0
M  V30 2827 H 264.043 -0.704798 4.36446 0
M  V30 2828 N 263.102 -1.41638 0.69111 0
M  V30 2829 C 264.348 -2.01598 0.220519 0
M  V30 2830 C 264.681 -1.54594 -1.17535 0
M  V30 2831 O 263.956 -0.755177 -1.79241 0
M  V30 2832 C 264.239 -3.59062 0.273243 0
M  V30 2833 C 264.092 -4.16203 1.70573 0
M  V30 2834 C 265.411 -4.38546 -0.369457 0
M  V30 2835 H 262.53 -0.732468 0.0816045 0
M  V30 2836 H 265.172 -1.68445 0.878986 0
M  V30 2837 H 263.322 -3.87435 -0.287411 0
M  V30 2838 H 264.994 -3.98722 2.31989 0
M  V30 2839 H 263.237 -3.71414 2.2413 0
M  V30 2840 H 263.908 -5.25358 1.69419 0
M  V30 2841 H 266.384 -4.1596 0.107977 0
M  V30 2842 H 265.26 -5.48069 -0.302002 0
M  V30 2843 H 265.521 -4.17662 -1.44951 0
M  V30 2844 N 264.58 -0.43555 -1.51462 0
M  V30 2845 C 265.82 0.130708 -2.03982 0
M  V30 2846 C 266.184 1.40117 -1.31268 0
M  V30 2847 O 267.385 2.04755 -1.74152 0
M  V30 2848 C 265.656 0.346102 -3.5572 0
M  V30 2849 S 267.215 0.876022 -4.29967 0
M  V30 2850 H 264.033 0.0326881 -0.710248 0
M  V30 2851 H 266.635 -0.594544 -1.8624 0
M  V30 2852 H 265.339 -0.584911 -4.0621 0
M  V30 2853 H 264.87 1.09849 -3.77752 0
M  V30 2854 H 266.885 2.15379 -4.47019 0
M  V30 2855 N 266.058 1.56714 -0.166846 0
M  V30 2856 C 266.991 2.13577 0.80375 0
M  V30 2857 C 267.969 1.06464 1.22899 0
M  V30 2858 O 269.153 1.34413 1.32157 0
M  V30 2859 C 266.28 2.67168 2.0818 0
M  V30 2860 C 265.326 3.86612 1.80093 0
M  V30 2861 S 266.159 5.26565 0.97416 0
M  V30 2862 C 267.315 5.83558 2.26297 0
M  V30 2863 H 267.548 2.9557 0.320267 0
M  V30 2864 H 265.081 1.54326 0.0477555 0
M  V30 2865 H 267.039 2.98692 2.8159 0
M  V30 2866 H 265.7 1.85269 2.53642 0
M  V30 2867 H 264.893 4.22422 2.7491 0
M  V30 2868 H 264.495 3.55951 1.14781 0
M  V30 2869 H 266.787 5.962 3.21795 0
M  V30 2870 H 267.73 6.80731 1.94962 0
M  V30 2871 H 268.138 5.11944 2.37853 0
M  V30 2872 N 267.536 -0.106894 1.57237 0
M  V30 2873 C 268.785 -0.811163 1.8467 0
M  V30 2874 C 269.098 -1.80469 0.754342 0
M  V30 2875 O 270.304 -2.55601 0.915439 0
M  V30 2876 C 268.76 -1.49337 3.27454 0
M  V30 2877 C 268.368 -0.540217 4.44731 0
M  V30 2878 C 270.112 -2.18206 3.64124 0
M  V30 2879 C 268.019 -1.22634 5.78545 0
M  V30 2880 H 266.949 -0.306679 0.688813 0
M  V30 2881 H 269.6 -0.0639887 1.83388 0
M  V30 2882 H 267.982 -2.2876 3.23241 0
M  V30 2883 H 269.156 0.221659 4.60267 0
M  V30 2884 H 267.471 0.042146 4.16379 0
M  V30 2885 H 270.068 -2.70253 4.61376 0
M  V30 2886 H 270.411 -2.96562 2.92158 0
M  V30 2887 H 270.944 -1.45658 3.70174 0
M  V30 2888 H 267.683 -0.483832 6.53712 0
M  V30 2889 H 267.203 -1.95993 5.66874 0
M  V30 2890 H 268.882 -1.75615 6.2271 0
M  V30 2891 N 269.014 -1.53014 -0.377408 0
M  V30 2892 C 269.924 -1.81557 -1.48574 0
M  V30 2893 C 270.94 -0.703102 -1.59162 0
M  V30 2894 O 272.116 -0.99192 -1.75279 0
M  V30 2895 C 269.181 -1.9889 -2.83978 0
M  V30 2896 C 268.242 -3.22801 -2.83016 0
M  V30 2897 C 267.475 -3.39298 -4.11962 0
M  V30 2898 O 267.698 -2.60345 -5.0752 0
M  V30 2899 O 266.632 -4.32604 -4.18494 0
M  V30 2900 H 270.458 -2.75695 -1.27382 0
M  V30 2901 H 268.043 -1.38248 -0.566373 0
M  V30 2902 H 269.925 -2.11931 -3.6423 0
M  V30 2903 H 268.6 -1.07942 -3.05172 0
M  V30 2904 H 267.507 -3.15193 -2.01505 0
M  V30 2905 H 268.84 -4.13632 -2.66775 0
M  V30 2906 N 270.492 0.636531 -1.44174 0
M  V30 2907 C 271.738 1.39649 -1.47884 0
M  V30 2908 C 272.093 1.92098 -0.107747 0
M  V30 2909 O 271.386 1.70391 0.876208 0
M  V30 2910 C 271.58 2.58309 -2.47005 0
M  V30 2911 C 271.409 2.17476 -3.93617 0
M  V30 2912 C 270.179 2.0501 -4.61843 0
M  V30 2913 C 272.377 1.76722 -4.82984 0
M  V30 2914 N 270.359 1.57683 -5.93304 0
M  V30 2915 C 271.73 1.40601 -6.03847 0
M  V30 2916 C 273.785 1.64054 -4.70096 0
M  V30 2917 C 272.488 0.930787 -7.13252 0
M  V30 2918 C 274.514 1.17937 -5.79521 0
M  V30 2919 C 273.876 0.827625 -6.99521 0
M  V30 2920 H 269.975 0.506027 -0.596205 0
M  V30 2921 H 272.559 0.730791 -1.80465 0
M  V30 2922 H 270.73 3.22514 -2.16423 0
M  V30 2923 H 272.462 3.25083 -2.41045 0
M  V30 2924 H 269.217 2.25294 -4.16581 0
M  V30 2925 H 269.641 1.36334 -6.63131 0
M  V30 2926 H 274.283 1.89882 -3.77762 0
M  V30 2927 H 272.001 0.660012 -8.054 0
M  V30 2928 H 275.587 1.08601 -5.71574 0
M  V30 2929 H 274.467 0.476231 -7.82753 0
M  V30 2930 N 271.97 1.30982 0.876444 0
M  V30 2931 C 273.381 1.18277 1.44456 0
M  V30 2932 C 273.732 -0.213265 1.95037 0
M  V30 2933 O 272.857 -1.11057 1.85729 0
M  V30 2934 C 273.452 2.1411 2.62569 0
M  V30 2935 C 272.011 2.05358 3.15444 0
M  V30 2936 C 271.158 2.03706 1.88146 0
M  V30 2937 H 274.109 1.43127 0.685584 0
M  V30 2938 H 274.13 1.72692 3.39054 0
M  V30 2939 H 273.642 3.15706 2.25724 0
M  V30 2940 H 271.743 1.06934 3.56926 0
M  V30 2941 H 271.856 2.94156 3.78166 0
M  V30 2942 H 270.22 1.48629 2.06837 0
M  V30 2943 H 271.003 3.07047 1.53547 0
M  V30 2944 N 273.449 -1.08991 1.13837 0
M  V30 2945 C 274.359 -2.19301 0.833333 0
M  V30 2946 C 275.375 -1.73026 -0.183847 0
M  V30 2947 O 276.551 -2.01395 -0.0138092 0
M  V30 2948 C 273.616 -3.45323 0.308651 0
M  V30 2949 C 272.677 -4.06255 1.38764 0
M  V30 2950 C 271.91 -5.26262 0.887896 0
M  V30 2951 O 272.133 -5.69747 -0.27287 0
M  V30 2952 O 271.067 -5.78435 1.66421 0
M  V30 2953 H 274.893 -2.47854 1.75506 0
M  V30 2954 H 272.478 -1.18012 0.916166 0
M  V30 2955 H 274.36 -4.21394 0.0216739 0
M  V30 2956 H 273.035 -3.18362 -0.585431 0
M  V30 2957 H 271.942 -3.318 1.72799 0
M  V30 2958 H 273.275 -4.37452 2.25602 0
M  V30 2959 N 274.927 -0.932562 -1.27047 0
M  V30 2960 C 275.877 -0.406392 -2.24349 0
M  V30 2961 C 276.861 0.492066 -1.53191 0
M  V30 2962 O 278.053 0.328717 -1.73921 0
M  V30 2963 C 275.182 0.335214 -3.41659 0
M  V30 2964 C 274.268 -0.58004 -4.20115 0
M  V30 2965 N 274.659 -1.70203 -4.76303 0
M  V30 2966 C 272.957 -0.383974 -4.44344 0
M  V30 2967 C 273.658 -2.27167 -5.35509 0
M  V30 2968 N 272.634 -1.56068 -5.20715 0
M  V30 2969 H 276.436 -1.26299 -2.65378 0
M  V30 2970 H 273.95 -0.787408 -1.42034 0
M  V30 2971 H 275.947 0.729142 -4.10474 0
M  V30 2972 H 274.607 1.18868 -3.0216 0
M  V30 2973 H 275.618 -2.08433 -4.74106 0
M  V30 2974 H 272.295 0.428436 -4.15296 0
M  V30 2975 H 273.685 -3.21654 -5.89905 0
M  V30 2976 N 276.405 1.4127 -0.698611 0
M  V30 2977 C 277.816 1.84187 -0.305289 0
M  V30 2978 C 278.167 1.58449 1.15708 0
M  V30 2979 O 277.292 1.05651 1.88856 0
M  V30 2980 C 277.887 3.3435 -0.547314 0
M  V30 2981 C 276.446 3.75826 -0.207878 0
M  V30 2982 C 275.593 2.64647 -0.828099 0
M  V30 2983 H 278.544 1.30778 -0.89904 0
M  V30 2984 H 278.565 3.8001 0.192998 0
M  V30 2985 H 278.077 3.53051 -1.61172 0
M  V30 2986 H 276.178 3.62725 0.852143 0
M  V30 2987 H 276.291 4.74462 -0.665021 0
M  V30 2988 H 274.655 2.53395 -0.257458 0
M  V30 2989 H 275.438 2.86165 -1.89643 0
M  V30 2990 N 277.883 0.443576 1.51229 0
M  V30 2991 C 278.831 -0.37904 2.29491 0
M  V30 2992 C 279.825 -1.0153 1.35603 0
M  V30 2993 O 281.031 -0.94955 1.52917 0
M  V30 2994 H 277.406 -0.141053 0.738653 0
M  V30 2995 H 279.377 0.301799 2.9687 0
M  V30 2996 C 278.126 -1.46426 3.15364 0
M  V30 2997 H 277.449 -0.984037 3.87501 0
M  V30 2998 H 278.889 -2.01297 3.7317 0
M  V30 2999 C 277.348 -2.45099 2.31146 0
M  V30 3000 O 277.878 -3.49773 1.9754 0
M  V30 3001 N 276.084 -2.16139 1.94249 0
M  V30 3002 H 275.631 -1.31044 2.21777 0
M  V30 3003 H 275.589 -2.82398 1.38198 0
M  V30 3004 N 279.361 -1.56624 0.175154 0
M  V30 3005 C 280.308 -2.18149 -0.753634 0
M  V30 3006 C 281.278 -1.12265 -1.22417 0
M  V30 3007 O 282.463 -1.40432 -1.29165 0
M  V30 3008 C 279.603 -2.82933 -1.97592 0
M  V30 3009 C 278.716 -4.03289 -1.5486 0
M  V30 3010 C 277.851 -4.55988 -2.72485 0
M  V30 3011 C 276.89 -5.68746 -2.26262 0
M  V30 3012 N 276.027 -6.15938 -3.36994 0
M  V30 3013 H 280.867 -2.9717 -0.222195 0
M  V30 3014 H 278.404 -1.46774 -0.0979422 0
M  V30 3015 H 280.362 -3.18653 -2.69288 0
M  V30 3016 H 278.992 -2.06509 -2.481 0
M  V30 3017 H 278.044 -3.73364 -0.728246 0
M  V30 3018 H 279.356 -4.849 -1.16933 0
M  V30 3019 H 278.51 -4.9391 -3.52332 0
M  V30 3020 H 277.249 -3.73443 -3.13674 0
M  V30 3021 H 276.254 -5.30372 -1.44863 0
M  V30 3022 H 277.479 -6.53095 -1.86127 0
M  V30 3023 H 275.425 -5.36321 -3.77751 0
M  V30 3024 H 275.342 -6.92548 -3.03172 0
M  V30 3025 H 276.61 -6.58511 -4.17114 0
M  V30 3026 N 280.839 0.0985539 -1.57292 0
M  V30 3027 C 282.088 0.801358 -1.85098 0
M  V30 3028 C 282.401 1.80066 -0.763902 0
M  V30 3029 O 283.607 2.55112 -0.928981 0
M  V30 3030 C 282.063 1.47599 -3.28242 0
M  V30 3031 C 281.671 0.516624 -4.45011 0
M  V30 3032 C 283.415 2.16272 -3.65276 0
M  V30 3033 C 281.322 1.19564 -5.79188 0
M  V30 3034 H 280.252 0.303022 -0.69043 0
M  V30 3035 H 282.903 0.0542623 -1.8342 0
M  V30 3036 H 281.285 2.27042 -3.2445 0
M  V30 3037 H 282.459 -0.246065 -4.60143 0
M  V30 3038 H 280.774 -0.064227 -4.1635 0
M  V30 3039 H 283.371 2.67802 -4.62803 0
M  V30 3040 H 283.714 2.95009 -2.93727 0
M  V30 3041 H 284.247 1.43693 -3.70941 0
M  V30 3042 H 280.986 0.449157 -6.53959 0
M  V30 3043 H 280.506 1.92984 -5.67906 0
M  V30 3044 H 282.185 1.7231 -6.23633 0
M  V30 3045 N 282.317 1.53212 0.369288 0
M  V30 3046 C 283.547 1.72868 1.13139 0
M  V30 3047 C 283.955 0.455754 1.83629 0
M  V30 3048 O 283.298 -0.580861 1.74275 0
M  V30 3049 C 283.36 2.83667 2.20847 0
M  V30 3050 C 283.024 4.24142 1.70155 0
M  V30 3051 C 284.021 5.06619 1.16763 0
M  V30 3052 C 281.706 4.70539 1.7578 0
M  V30 3053 C 283.7 6.33581 0.696678 0
M  V30 3054 C 281.387 5.97481 1.28297 0
M  V30 3055 C 282.385 6.78833 0.753307 0
M  V30 3056 O 282.073 8.03393 0.285475 0
M  V30 3057 H 281.805 0.581707 0.344373 0
M  V30 3058 H 284.359 2.00736 0.435243 0
M  V30 3059 H 282.589 2.51265 2.93944 0
M  V30 3060 H 284.278 2.91536 2.82421 0
M  V30 3061 H 285.044 4.71948 1.11758 0
M  V30 3062 H 280.923 4.07293 2.15949 0
M  V30 3063 H 284.467 6.97027 0.282581 0
M  V30 3064 H 280.364 6.31651 1.32994 0
M  V30 3065 H 281.132 8.17497 0.405145 0
M  V30 3066 N 283.795 -0.628877 1.44509 0
M  V30 3067 C 284.705 -1.7694 1.54044 0
M  V30 3068 C 285.721 -1.68705 0.425987 0
M  V30 3069 O 286.897 -1.89442 0.683656 0
M  V30 3070 C 283.962 -3.13332 1.48405 0
M  V30 3071 C 283.023 -3.33181 2.70719 0
M  V30 3072 C 282.256 -4.63067 2.6534 0
M  V30 3073 O 282.479 -5.44017 1.71469 0
M  V30 3074 O 281.413 -4.85167 3.56226 0
M  V30 3075 H 285.239 -1.71848 2.50403 0
M  V30 3076 H 282.824 -0.790378 1.26781 0
M  V30 3077 H 284.706 -3.94634 1.47791 0
M  V30 3078 H 283.381 -3.1896 0.551898 0
M  V30 3079 H 282.288 -2.51549 2.769 0
M  V30 3080 H 283.621 -3.32416 3.62988 0
M  V30 3081 N 285.273 -1.31445 -0.869486 0
M  V30 3082 C 286.22 -1.19135 -1.97675 0
M  V30 3083 C 287.19 -0.0770266 -1.65921 0
M  V30 3084 O 288.375 -0.249972 -1.89155 0
M  V30 3085 C 285.515 -0.905149 -3.33018 0
M  V30 3086 C 284.628 -2.10285 -3.77365 0
M  V30 3087 C 283.763 -1.75339 -5.01427 0
M  V30 3088 C 282.802 -2.91515 -5.38224 0
M  V30 3089 N 281.939 -2.56762 -6.53466 0
M  V30 3090 H 286.779 -2.13853 -2.07535 0
M  V30 3091 H 284.316 -1.06379 -1.01597 0
M  V30 3092 H 286.274 -0.719765 -4.10944 0
M  V30 3093 H 284.904 0.00519624 -3.228 0
M  V30 3094 H 283.956 -2.39899 -2.95216 0
M  V30 3095 H 285.268 -2.97237 -4.00564 0
M  V30 3096 H 284.422 -1.53266 -5.87022 0
M  V30 3097 H 283.161 -0.855801 -4.80133 0
M  V30 3098 H 282.166 -3.14237 -4.51149 0
M  V30 3099 H 283.391 -3.81985 -5.61484 0
M  V30 3100 H 281.337 -1.69526 -6.33717 0
M  V30 3101 H 281.254 -3.37243 -6.76612 0
M  V30 3102 H 282.522 -2.38083 -7.42251 0
M  V30 3103 N 286.751 1.08385 -1.14413 0
M  V30 3104 C 287.997 1.81044 -0.913834 0
M  V30 3105 C 288.33 1.86004 0.558209 0
M  V30 3106 O 287.605 1.33606 1.4135 0
M  V30 3107 C 287.888 3.26648 -1.51569 0
M  V30 3108 C 287.741 3.29895 -3.0576 0
M  V30 3109 C 289.06 4.23629 -1.19273 0
M  V30 3110 H 286.179 0.65727 -0.333414 0
M  V30 3111 H 288.821 1.26896 -1.41412 0
M  V30 3112 H 286.971 3.72889 -1.09023 0
M  V30 3113 H 288.643 2.91977 -3.57137 0
M  V30 3114 H 286.886 2.69163 -3.40197 0
M  V30 3115 H 287.557 4.32516 -3.42977 0
M  V30 3116 H 290.033 3.85727 -1.56057 0
M  V30 3117 H 288.909 5.23822 -1.64017 0
M  V30 3118 H 289.17 4.41968 -0.108068 0
M  V30 3119 N 288.23 0.939286 1.26551 0
M  V30 3120 C 289.46 0.601663 1.97645 0
M  V30 3121 C 289.868 -0.827206 1.70159 0
M  V30 3122 O 289.211 -1.56291 0.965338 0
M  V30 3123 C 289.273 0.761725 3.51337 0
M  V30 3124 C 288.937 2.16487 4.0247 0
M  V30 3125 C 289.934 3.14016 4.14355 0
M  V30 3126 C 287.619 2.48494 4.36527 0
M  V30 3127 C 289.613 4.41654 4.59587 0
M  V30 3128 C 287.3 3.76364 4.81449 0
M  V30 3129 C 288.298 4.72758 4.92939 0
M  V30 3130 O 287.986 5.98352 5.36871 0
M  V30 3131 H 287.718 0.225758 0.637189 0
M  V30 3132 H 290.272 1.26178 1.62075 0
M  V30 3133 H 288.502 0.0444808 3.86674 0
M  V30 3134 H 290.191 0.427442 4.03643 0
M  V30 3135 H 290.957 2.90613 3.8829 0
M  V30 3136 H 286.836 1.74202 4.26819 0
M  V30 3137 H 290.38 5.16896 4.68471 0
M  V30 3138 H 286.277 3.99582 5.06956 0
M  V30 3139 H 287.045 6.01507 5.55096 0
M  V30 3140 N 289.708 -1.40897 0.706093 0
M  V30 3141 C 290.658 -2.27987 0.0240746 0
M  V30 3142 C 291.642 -1.42759 -0.742204 0
M  V30 3143 O 292.834 -1.65936 -0.615966 0
M  V30 3144 C 289.963 -3.31186 -0.903907 0
M  V30 3145 C 289.049 -4.2389 -0.133318 0
M  V30 3146 N 289.44 -4.98113 0.878444 0
M  V30 3147 C 287.738 -4.44485 -0.367269 0
M  V30 3148 C 288.439 -5.6604 1.34064 0
M  V30 3149 N 287.415 -5.39522 0.664565 0
M  V30 3150 H 291.217 -2.82812 0.799658 0
M  V30 3151 H 288.731 -1.53235 0.537845 0
M  V30 3152 H 290.728 -3.92413 -1.40775 0
M  V30 3153 H 289.388 -2.77922 -1.67897 0
M  V30 3154 H 290.399 -5.02364 1.25901 0
M  V30 3155 H 287.076 -4.02213 -1.1194 0
M  V30 3156 H 288.466 -6.35524 2.1808 0
M  V30 3157 N 291.186 -0.45159 -1.50991 0
M  V30 3158 C 292.435 0.111653 -2.01391 0
M  V30 3159 C 292.748 1.42529 -1.33959 0
M  V30 3160 O 293.954 2.07232 -1.75405 0
M  V30 3161 C 292.41 0.249514 -3.59034 0
M  V30 3162 C 292.018 -1.05453 -4.35412 0
M  V30 3163 C 293.762 0.765762 -4.17536 0
M  V30 3164 C 291.669 -0.881529 -5.84793 0
M  V30 3165 H 290.599 0.0455022 -0.752626 0
M  V30 3166 H 293.25 -0.583524 -1.73975 0
M  V30 3167 H 291.632 1.00803 -3.82955 0
M  V30 3168 H 292.806 -1.82248 -4.23229 0
M  V30 3169 H 291.121 -1.50039 -3.88429 0
M  V30 3170 H 293.718 0.911913 -5.26866 0
M  V30 3171 H 294.061 1.75201 -3.77638 0
M  V30 3172 H 294.594 0.0651744 -3.97747 0
M  V30 3173 H 291.333 -1.84057 -6.29129 0
M  V30 3174 H 290.853 -0.153625 -5.99603 0
M  V30 3175 H 292.532 -0.540363 -6.4474 0
M  V30 3176 N 292.664 1.56529 -0.183458 0
M  V30 3177 C 293.904 1.99141 0.460667 0
M  V30 3178 C 294.268 1.06736 1.59597 0
M  V30 3179 O 295.469 1.38538 2.30349 0
M  V30 3180 C 293.74 3.45358 0.919939 0
M  V30 3181 S 295.299 4.09999 1.56354 0
M  V30 3182 H 292.117 0.695479 0.147748 0
M  V30 3183 H 294.719 1.93429 -0.283782 0
M  V30 3184 H 293.423 4.10315 0.0834208 0
M  V30 3185 H 292.954 3.54862 1.69814 0
M  V30 3186 H 294.969 4.06046 2.85203 0
M  V30 3187 N 294.142 -0.090211 1.57342 0
M  V30 3188 C 295.388 -0.793982 1.86611 0
M  V30 3189 C 295.721 -1.78142 0.773252 0
M  V30 3190 O 294.996 -1.93271 -0.218304 0
M  V30 3191 C 295.279 -1.51839 3.26523 0
M  V30 3192 C 295.132 -0.548609 4.46442 0
M  V30 3193 C 296.451 -2.46779 3.64401 0
M  V30 3194 H 293.57 -0.287186 0.678744 0
M  V30 3195 H 296.212 -0.0575076 1.89913 0
M  V30 3196 H 294.362 -2.14617 3.23839 0
M  V30 3197 H 296.034 0.0725513 4.61243 0
M  V30 3198 H 294.277 0.137614 4.33582 0
M  V30 3199 H 294.948 -1.09271 5.41076 0
M  V30 3200 H 297.424 -1.94089 3.68061 0
M  V30 3201 H 296.3 -2.94479 4.63221 0
M  V30 3202 H 296.561 -3.30758 2.93346 0
M  V30 3203 N 295.62 -1.53406 -0.361157 0
M  V30 3204 C 296.848 -1.73717 -1.12383 0
M  V30 3205 C 297.263 -0.468161 -1.82904 0
M  V30 3206 O 296.62 0.559198 -1.73722 0
M  V30 3207 C 296.671 -2.90558 -2.15078 0
M  V30 3208 O 296.392 -4.12549 -1.47428 0
M  V30 3209 C 297.893 -3.22777 -3.03858 0
M  V30 3210 H 295.113 -0.580896 -0.335858 0
M  V30 3211 H 297.657 -2.00167 -0.418728 0
M  V30 3212 H 295.812 -2.66489 -2.8118 0
M  V30 3213 H 296.226 -4.78009 -2.15887 0
M  V30 3214 H 297.7 -4.07927 -3.71887 0
M  V30 3215 H 298.177 -2.38329 -3.68912 0
M  V30 3216 H 298.783 -3.48787 -2.43367 0
M  V30 3217 N 297.098 0.621204 -1.44841 0
M  V30 3218 C 298.344 1.3826 -1.48365 0
M  V30 3219 C 298.677 1.93831 -0.119624 0
M  V30 3220 O 297.952 1.74251 0.864111 0
M  V30 3221 C 298.235 2.54058 -2.55199 0
M  V30 3222 C 298.088 2.03772 -4.00995 0
M  V30 3223 C 299.407 3.56225 -2.58442 0
M  V30 3224 H 296.526 0.501374 -0.540179 0
M  V30 3225 H 299.168 0.7015 -1.76576 0
M  V30 3226 H 297.318 3.12162 -2.31274 0
M  V30 3227 H 298.99 1.50423 -4.36086 0
M  V30 3228 H 297.233 1.34876 -4.12299 0
M  V30 3229 H 297.904 2.87185 -4.71411 0
M  V30 3230 H 300.38 3.07939 -2.79844 0
M  V30 3231 H 299.256 4.34756 -3.3508 0
M  V30 3232 H 299.517 4.10949 -1.63013 0
M  V30 3233 N 298.576 1.31904 0.862503 0
M  V30 3234 C 299.506 1.22782 1.98612 0
M  V30 3235 C 300.487 0.113362 1.69722 0
M  V30 3236 O 301.672 0.299218 1.91881 0
M  V30 3237 C 298.802 0.942058 3.34279 0
M  V30 3238 C 297.756 2.0169 3.77499 0
M  V30 3239 C 297.082 1.58369 5.10709 0
M  V30 3240 C 298.382 3.43096 3.93805 0
M  V30 3241 H 300.076 2.16788 2.06502 0
M  V30 3242 H 297.622 1.04366 0.992154 0
M  V30 3243 H 299.575 0.864818 4.1243 0
M  V30 3244 H 298.299 -0.0336603 3.26583 0
M  V30 3245 H 296.958 2.08416 3.01593 0
M  V30 3246 H 296.606 0.595628 4.99461 0
M  V30 3247 H 296.306 2.30279 5.40597 0
M  V30 3248 H 297.83 1.52067 5.91361 0
M  V30 3249 H 299.244 3.39003 4.62331 0
M  V30 3250 H 297.641 4.13288 4.35101 0
M  V30 3251 H 298.711 3.83334 2.96957 0
M  V30 3252 N 300.054 -1.07777 1.14986 0
M  V30 3253 C 301.303 -1.79669 0.916617 0
M  V30 3254 C 301.616 -1.87474 -0.557917 0
M  V30 3255 O 302.822 -2.55845 -0.908617 0
M  V30 3256 C 301.278 -3.22848 1.59051 0
M  V30 3257 C 300.886 -3.23257 3.10176 0
M  V30 3258 C 302.63 -3.99379 1.43864 0
M  V30 3259 C 300.537 -4.61063 3.70372 0
M  V30 3260 H 299.467 -0.673349 0.33929 0
M  V30 3261 H 302.118 -1.21003 1.37951 0
M  V30 3262 H 300.5 -3.8168 1.0553 0
M  V30 3263 H 301.674 -2.74095 3.70417 0
M  V30 3264 H 299.989 -2.60222 3.25074 0
M  V30 3265 H 302.586 -5.0122 1.86232 0
M  V30 3266 H 302.929 -4.14511 0.385564 0
M  V30 3267 H 303.462 -3.47032 1.94457 0
M  V30 3268 H 300.201 -4.51135 4.7556 0
M  V30 3269 H 299.721 -5.1048 3.14913 0
M  V30 3270 H 301.4 -5.30034 3.71043 0
M  V30 3271 N 301.532 -0.945985 -1.26051 0
M  V30 3272 C 302.762 -0.612136 -1.97323 0
M  V30 3273 C 303.17 0.818171 -1.70595 0
M  V30 3274 O 302.513 1.55777 -0.973613 0
M  V30 3275 C 302.575 -0.780347 -3.50929 0
M  V30 3276 C 302.239 -2.18619 -4.01317 0
M  V30 3277 C 303.236 -3.16209 -4.12683 0
M  V30 3278 C 300.921 -2.50805 -4.35203 0
M  V30 3279 C 302.915 -4.44085 -4.57238 0
M  V30 3280 C 300.602 -3.78912 -4.79446 0
M  V30 3281 C 301.6 -4.75365 -4.90425 0
M  V30 3282 O 301.288 -6.01191 -5.3369 0
M  V30 3283 H 301.02 -0.229134 -0.635982 0
M  V30 3284 H 303.574 -1.27036 -1.61404 0
M  V30 3285 H 301.804 -0.0649864 -3.86645 0
M  V30 3286 H 303.493 -0.448842 -4.03411 0
M  V30 3287 H 304.259 -2.92668 -3.86744 0
M  V30 3288 H 300.138 -1.76463 -4.2589 0
M  V30 3289 H 303.682 -5.19373 -4.65723 0
M  V30 3290 H 299.579 -4.02265 -5.0483 0
M  V30 3291 H 300.347 -6.04442 -5.51899 0
M  V30 3292 N 303.011 1.40521 -0.713556 0
M  V30 3293 C 304.258 2.00923 -0.25219 0
M  V30 3294 C 304.586 1.56571 1.15395 0
M  V30 3295 O 303.841 0.775874 1.79663 0
M  V30 3296 C 304.14 3.56317 -0.278 0
M  V30 3297 C 303.806 4.20246 -1.63415 0
M  V30 3298 C 302.468 4.37422 -2.00538 0
M  V30 3299 C 304.82 4.55923 -2.52554 0
M  V30 3300 C 302.148 4.87558 -3.2635 0
M  V30 3301 C 304.5 5.07458 -3.77716 0
M  V30 3302 C 303.164 5.22843 -4.14959 0
M  V30 3303 H 302.434 0.735231 -0.0922829 0
M  V30 3304 H 305.081 1.68161 -0.916188 0
M  V30 3305 H 303.386 3.88976 0.469567 0
M  V30 3306 H 305.083 4.00883 0.0967819 0
M  V30 3307 H 301.673 4.07263 -1.33546 0
M  V30 3308 H 305.857 4.42291 -2.25149 0
M  V30 3309 H 301.113 4.97654 -3.55176 0
M  V30 3310 H 305.287 5.34041 -4.4696 0
M  V30 3311 H 302.914 5.61454 -5.12516 0
M  V30 3312 N 304.489 0.459591 1.5075 0
M  V30 3313 C 305.419 -0.330644 2.31147 0
M  V30 3314 C 306.4 -1.00087 1.37538 0
M  V30 3315 O 307.585 -1.00025 1.66459 0
M  V30 3316 C 304.715 -1.41958 3.16962 0
M  V30 3317 C 303.669 -0.871608 4.19031 0
M  V30 3318 C 302.995 -2.05797 4.9351 0
M  V30 3319 C 304.295 0.109251 5.22186 0
M  V30 3320 H 305.989 0.340336 2.97459 0
M  V30 3321 H 303.535 0.165119 1.4305 0
M  V30 3322 H 305.488 -1.9798 3.71997 0
M  V30 3323 H 304.212 -2.11917 2.48513 0
M  V30 3324 H 302.871 -0.333442 3.6508 0
M  V30 3325 H 302.519 -2.74427 4.21544 0
M  V30 3326 H 302.219 -1.6976 5.62544 0
M  V30 3327 H 303.743 -2.62331 5.51375 0
M  V30 3328 H 305.157 -0.361405 5.7216 0
M  V30 3329 H 303.554 0.383316 5.98875 0
M  V30 3330 H 304.624 1.03887 4.73641 0
M  V30 3331 N 305.967 -1.56429 0.191757 0
M  V30 3332 C 307.378 -1.83912 -0.321428 0
M  V30 3333 C 307.729 -1.11231 -1.61623 0
M  V30 3334 O 306.854 -0.37202 -2.13178 0
M  V30 3335 C 307.449 -3.33624 -0.589961 0
M  V30 3336 C 306.008 -3.6153 -1.04753 0
M  V30 3337 C 305.155 -2.7714 -0.0943327 0
M  V30 3338 H 308.106 -1.53161 0.415612 0
M  V30 3339 H 308.127 -3.52213 -1.43966 0
M  V30 3340 H 307.639 -3.86495 0.352588 0
M  V30 3341 H 305.74 -3.14089 -2.00447 0
M  V30 3342 H 305.853 -4.69737 -0.942549 0
M  V30 3343 H 304.217 -2.47638 -0.595589 0
M  V30 3344 H 305 -3.32799 0.842601 0
M  V30 3345 N 307.445 0.0818655 -1.57387 0
M  V30 3346 C 308.375 1.09885 -2.06028 0
M  V30 3347 C 309.356 1.4098 -0.951774 0
M  V30 3348 O 310.541 1.50781 -1.22387 0
M  V30 3349 C 307.671 2.4151 -2.4958 0
M  V30 3350 C 306.625 2.24792 -3.64215 0
M  V30 3351 C 305.951 3.61712 -3.93787 0
M  V30 3352 C 307.251 1.67749 -4.94629 0
M  V30 3353 H 308.945 0.694128 -2.91243 0
M  V30 3354 H 306.491 0.332448 -1.4011 0
M  V30 3355 H 308.444 3.12939 -2.82219 0
M  V30 3356 H 307.168 2.83943 -1.61381 0
M  V30 3357 H 305.827 1.55807 -3.31843 0
M  V30 3358 H 305.475 4.01697 -3.02735 0
M  V30 3359 H 305.175 3.51368 -4.70971 0
M  V30 3360 H 306.699 4.34587 -4.28913 0
M  V30 3361 H 308.113 2.29032 -5.25564 0
M  V30 3362 H 306.51 1.68128 -5.76067 0
M  V30 3363 H 307.58 0.638059 -4.80684 0
M  V30 3364 N 308.923 1.53595 0.353017 0
M  V30 3365 C 309.853 1.83902 1.43883 0
M  V30 3366 C 310.834 0.693421 1.55324 0
M  V30 3367 O 312.019 0.944452 1.69687 0
M  V30 3368 C 309.149 2.04016 2.8106 0
M  V30 3369 C 308.103 3.19814 2.84434 0
M  V30 3370 C 307.429 3.25244 4.24406 0
M  V30 3371 C 308.729 4.58133 2.50822 0
M  V30 3372 H 310.423 2.74835 1.1877 0
M  V30 3373 H 307.969 1.32242 0.569917 0
M  V30 3374 H 309.922 2.238 3.57059 0
M  V30 3375 H 308.646 1.09804 3.07588 0
M  V30 3376 H 307.305 2.9987 2.10887 0
M  V30 3377 H 306.953 2.28646 4.48029 0
M  V30 3378 H 306.653 4.03054 4.27576 0
M  V30 3379 H 308.177 3.47228 5.0226 0
M  V30 3380 H 309.591 4.77995 3.16534 0
M  V30 3381 H 307.988 5.38276 2.6529 0
M  V30 3382 H 309.058 4.62387 1.46034 0
M  V30 3383 N 310.401 -0.613514 1.45168 0
M  V30 3384 C 311.647 -1.37471 1.49096 0
M  V30 3385 C 311.98 -1.93765 0.129901 0
M  V30 3386 O 311.255 -1.74707 -0.854858 0
M  V30 3387 C 311.538 -2.52701 2.56542 0
M  V30 3388 C 311.391 -2.01643 4.0207 0
M  V30 3389 C 312.71 -3.54849 2.60327 0
M  V30 3390 H 309.829 -0.498502 0.54283 0
M  V30 3391 H 312.471 -0.692125 1.76945 0
M  V30 3392 H 310.621 -3.10931 2.32926 0
M  V30 3393 H 312.293 -1.48108 4.36877 0
M  V30 3394 H 310.536 -1.32688 4.13009 0
M  V30 3395 H 311.207 -2.84681 4.72928 0
M  V30 3396 H 313.683 -3.0645 2.81474 0
M  V30 3397 H 312.559 -4.32973 3.37381 0
M  V30 3398 H 312.82 -4.10079 1.6519 0
M  V30 3399 N 311.879 -1.3236 -0.855495 0
M  V30 3400 C 313.128 -1.22226 -1.60448 0
M  V30 3401 C 313.441 0.214733 -1.94418 0
M  V30 3402 O 314.647 0.437917 -2.67945 0
M  V30 3403 C 313.103 -2.14063 -2.89318 0
M  V30 3404 C 312.711 -3.62839 -2.62777 0
M  V30 3405 C 314.455 -2.12764 -3.67331 0
M  V30 3406 C 312.362 -4.4664 -3.87643 0
M  V30 3407 H 311.292 -0.453904 -0.602069 0
M  V30 3408 H 313.943 -1.57314 -0.944698 0
M  V30 3409 H 312.325 -1.71889 -3.5675 0
M  V30 3410 H 313.499 -4.1335 -2.03662 0
M  V30 3411 H 311.814 -3.66261 -1.98096 0
M  V30 3412 H 314.411 -2.72611 -4.59987 0
M  V30 3413 H 314.754 -1.11841 -4.00995 0
M  V30 3414 H 315.287 -2.53214 -3.06802 0
M  V30 3415 H 312.026 -5.48373 -3.5912 0
M  V30 3416 H 311.546 -4.0088 -4.46156 0
M  V30 3417 H 313.225 -4.59597 -4.55389 0
M  V30 3418 N 313.357 1.07166 -1.15556 0
M  V30 3419 C 314.605 1.79443 -0.929764 0
M  V30 3420 C 314.926 1.87246 0.544414 0
M  V30 3421 O 314.196 1.37473 1.39564 0
M  V30 3422 H 312.776 0.664625 -0.341003 0
M  V30 3423 H 315.438 1.29499 -1.45657 0
M  V30 3424 H 314.534 2.81832 -1.34079 0
M  V30 3425 N 314.835 0.952656 1.25548 0
M  V30 3426 C 316.065 0.622592 1.96996 0
M  V30 3427 C 316.473 -0.809112 1.71026 0
M  V30 3428 O 315.816 -1.55258 0.981861 0
M  V30 3429 C 315.878 0.798946 3.5051 0
M  V30 3430 C 315.542 2.20744 4.00151 0
M  V30 3431 C 316.539 3.18394 4.11001 0
M  V30 3432 C 314.224 2.5311 4.33867 0
M  V30 3433 C 316.218 4.46504 4.54877 0
M  V30 3434 C 313.905 3.8145 4.7743 0
M  V30 3435 C 314.903 4.77959 4.87897 0
M  V30 3436 O 314.591 6.04012 5.30494 0
M  V30 3437 H 314.323 0.232503 0.634758 0
M  V30 3438 H 316.877 1.2789 1.60728 0
M  V30 3439 H 315.107 0.0854903 3.86605 0
M  V30 3440 H 316.796 0.47023 4.03167 0
M  V30 3441 H 317.562 2.94715 3.85186 0
M  V30 3442 H 313.441 1.78719 4.24948 0
M  V30 3443 H 316.985 5.21835 4.62962 0
M  V30 3444 H 312.882 4.04936 5.0269 0
M  V30 3445 H 313.65 6.0736 5.48685 0
M  V30 3446 N 316.313 -1.40141 0.720998 0
M  V30 3447 C 317.276 -2.29058 0.0805834 0
M  V30 3448 C 318.276 -1.45632 -0.681758 0
M  V30 3449 O 319.466 -1.6648 -0.512856 0
M  V30 3450 C 316.598 -3.28925 -0.895593 0
M  V30 3451 H 317.791 -2.87191 0.863793 0
M  V30 3452 H 315.344 -1.48553 0.485975 0
M  V30 3453 H 316.079 -2.75822 -1.70566 0
M  V30 3454 H 315.864 -3.90519 -0.351766 0
M  V30 3455 H 317.354 -3.95494 -1.34069 0
M  V30 3456 N 317.792 -0.46758 -1.50504 0
M  V30 3457 C 319.022 0.086288 -2.0642 0
M  V30 3458 C 319.43 1.34369 -1.33197 0
M  V30 3459 O 318.773 1.79431 -0.393747 0
M  V30 3460 C 318.835 0.443846 -3.5675 0
M  V30 3461 C 318.499 -0.711035 -4.51435 0
M  V30 3462 C 319.496 -1.59205 -4.94924 0
M  V30 3463 C 317.181 -0.900363 -4.94165 0
M  V30 3464 C 319.175 -2.64683 -5.79846 0
M  V30 3465 C 316.862 -1.95837 -5.7887 0
M  V30 3466 C 317.86 -2.82997 -6.21612 0
M  V30 3467 O 317.548 -3.86977 -7.0463 0
M  V30 3468 H 317.28 -0.00217814 -0.675996 0
M  V30 3469 H 319.834 -0.654346 -1.94698 0
M  V30 3470 H 318.064 1.23762 -3.6636 0
M  V30 3471 H 319.753 0.932386 -3.95046 0
M  V30 3472 H 320.519 -1.45745 -4.62583 0
M  V30 3473 H 316.398 -0.231427 -4.60419 0
M  V30 3474 H 319.942 -3.32745 -6.13128 0
M  V30 3475 H 315.839 -2.09305 -6.10624 0
M  V30 3476 H 316.607 -3.83923 -7.22873 0
M  V30 3477 N 319.27 1.56325 -0.20005 0
M  V30 3478 C 320.498 2.02105 0.442874 0
M  V30 3479 C 320.913 1.08014 1.5485 0
M  V30 3480 O 320.27 0.0858797 1.82298 0
M  V30 3481 C 320.321 3.47549 0.994583 0
M  V30 3482 O 320.042 4.38049 -0.0669322 0
M  V30 3483 C 321.543 4.0887 1.7129 0
M  V30 3484 H 318.763 0.661807 0.110691 0
M  V30 3485 H 321.307 2.02134 -0.310207 0
M  V30 3486 H 319.462 3.48204 1.69803 0
M  V30 3487 H 319.876 5.23368 0.344462 0
M  V30 3488 H 321.35 5.12475 2.05118 0
M  V30 3489 H 321.827 3.52615 2.61838 0
M  V30 3490 H 322.433 4.12002 1.05518 0
M  V30 3491 N 320.748 -0.0735177 1.57428 0
M  V30 3492 C 321.994 -0.774145 1.87443 0
M  V30 3493 C 322.327 -1.77311 0.792103 0
M  V30 3494 O 321.602 -1.93492 -0.197793 0
M  V30 3495 C 321.885 -1.48367 3.28115 0
M  V30 3496 C 321.738 -0.501227 4.46999 0
M  V30 3497 C 323.057 -2.429 3.66998 0
M  V30 3498 H 320.176 -0.279971 0.681752 0
M  V30 3499 H 322.818 -0.0373616 1.89963 0
M  V30 3500 H 320.968 -2.11171 3.26097 0
M  V30 3501 H 322.64 0.121468 4.6114 0
M  V30 3502 H 320.883 0.183593 4.33411 0
M  V30 3503 H 321.554 -1.03526 5.42205 0
M  V30 3504 H 324.03 -1.90175 3.70098 0
M  V30 3505 H 322.906 -2.89549 4.66318 0
M  V30 3506 H 323.167 -3.27628 2.96837 0
M  V30 3507 N 322.226 -1.5378 -0.344866 0
M  V30 3508 C 323.472 -1.71216 -1.08687 0
M  V30 3509 C 323.805 -0.473281 -1.88345 0
M  V30 3510 O 323.08 0.52968 -1.87149 0
M  V30 3511 C 323.363 -2.97486 -2.02914 0
M  V30 3512 C 323.216 -4.31579 -1.26727 0
M  V30 3513 C 324.535 -3.19422 -3.0275 0
M  V30 3514 H 321.654 -0.62301 -0.393735 0
M  V30 3515 H 324.296 -1.8645 -0.365563 0
M  V30 3516 H 322.446 -2.84629 -2.64421 0
M  V30 3517 H 324.118 -4.56284 -0.67845 0
M  V30 3518 H 322.361 -4.30049 -0.569273 0
M  V30 3519 H 323.032 -5.16106 -1.95803 0
M  V30 3520 H 325.508 -3.316 -2.51357 0
M  V30 3521 H 324.384 -4.09169 -3.65885 0
M  V30 3522 H 324.645 -2.35656 -3.74057 0
M  V30 3523 N 323.704 0.605807 -1.45491 0
M  V30 3524 C 324.952 1.36207 -1.49305 0
M  V30 3525 C 325.273 1.94519 -0.136863 0
M  V30 3526 O 324.543 1.77261 0.833983 0
M  V30 3527 H 323.123 0.50565 -0.549843 0
M  V30 3528 H 325.785 0.711239 -1.81459 0
M  V30 3529 H 324.881 2.18058 -2.23287 0
M  V30 3530 N 325.182 1.32811 0.848464 0
M  V30 3531 C 326.431 1.23075 1.59798 0
M  V30 3532 C 326.744 -0.204419 1.94529 0
M  V30 3533 O 327.95 -0.423701 2.68173 0
M  V30 3534 C 326.406 2.15594 2.88179 0
M  V30 3535 C 326.014 3.64228 2.60849 0
M  V30 3536 C 327.758 2.14709 3.66197 0
M  V30 3537 C 325.665 4.48689 3.85269 0
M  V30 3538 H 324.595 0.457091 0.599653 0
M  V30 3539 H 327.246 1.57813 0.936342 0
M  V30 3540 H 325.628 1.73778 3.55833 0
M  V30 3541 H 326.802 4.14424 2.01467 0
M  V30 3542 H 325.117 3.67306 1.96151 0
M  V30 3543 H 327.714 2.75046 4.58534 0
M  V30 3544 H 328.057 1.13966 4.00397 0
M  V30 3545 H 328.59 2.54837 3.05455 0
M  V30 3546 H 325.329 5.5027 3.56207 0
M  V30 3547 H 324.849 4.03241 4.44024 0
M  V30 3548 H 326.528 4.62006 4.52946 0
M  V30 3549 N 326.66 -1.06551 1.16123 0
M  V30 3550 C 327.888 -1.83005 0.965237 0
M  V30 3551 C 328.303 -1.82423 -0.486542 0
M  V30 3552 O 327.66 -1.24152 -1.33763 0
M  V30 3553 C 327.711 -3.29733 1.48183 0
M  V30 3554 O 327.432 -3.30416 2.87674 0
M  V30 3555 C 328.933 -4.22926 1.32848 0
M  V30 3556 H 326.153 -0.577118 0.342309 0
M  V30 3557 H 328.697 -1.3445 1.54089 0
M  V30 3558 H 326.852 -3.75609 0.948517 0
M  V30 3559 H 327.266 -4.22149 3.11272 0
M  V30 3560 H 328.74 -5.23916 1.73827 0
M  V30 3561 H 329.217 -4.38346 0.273692 0
M  V30 3562 H 329.823 -3.82894 1.85127 0
M  V30 3563 N 328.138 -0.959301 -1.25041 0
M  V30 3564 C 329.068 -0.501388 -2.28053 0
M  V30 3565 C 330.049 0.454673 -1.63911 0
M  V30 3566 O 331.234 0.352618 -1.90972 0
M  V30 3567 C 328.364 0.217224 -3.4662 0
M  V30 3568 C 327.318 -0.654034 -4.22973 0
M  V30 3569 C 326.644 0.195589 -5.34342 0
M  V30 3570 C 327.944 -1.93447 -4.85155 0
M  V30 3571 H 329.638 -1.36238 -2.66608 0
M  V30 3572 H 327.184 -0.656534 -1.28163 0
M  V30 3573 H 329.137 0.548732 -4.17812 0
M  V30 3574 H 327.861 1.1125 -3.07068 0
M  V30 3575 H 326.52 -0.968693 -3.5357 0
M  V30 3576 H 326.168 1.09076 -4.91031 0
M  V30 3577 H 325.868 -0.384091 -5.86343 0
M  V30 3578 H 327.392 0.521958 -6.08365 0
M  V30 3579 H 328.806 -1.66908 -5.48466 0
M  V30 3580 H 327.203 -2.46018 -5.47353 0
M  V30 3581 H 328.273 -2.63466 -4.07079 0
M  V30 3582 N 329.616 1.39756 -0.72842 0
M  V30 3583 C 330.862 2.01425 -0.282761 0
M  V30 3584 C 331.217 1.56754 1.11561 0
M  V30 3585 O 330.51 0.783482 1.74849 0
M  V30 3586 C 330.704 3.56002 -0.315776 0
M  V30 3587 C 330.533 4.1568 -1.71582 0
M  V30 3588 C 329.303 4.48555 -2.32651 0
M  V30 3589 C 331.501 4.39667 -2.66829 0
M  V30 3590 N 329.483 4.93698 -3.64877 0
M  V30 3591 C 330.854 4.86942 -3.8378 0
M  V30 3592 C 332.909 4.21724 -2.64675 0
M  V30 3593 C 331.612 5.18158 -4.98904 0
M  V30 3594 C 333.638 4.54049 -3.78937 0
M  V30 3595 C 333 5.01525 -4.94623 0
M  V30 3596 H 329.099 0.76756 -0.149583 0
M  V30 3597 H 331.683 1.69784 -0.952976 0
M  V30 3598 H 329.854 3.87046 0.324057 0
M  V30 3599 H 331.586 4.0443 0.147808 0
M  V30 3600 H 328.341 4.36128 -1.84633 0
M  V30 3601 H 328.765 5.20635 -4.32744 0
M  V30 3602 H 333.407 3.84228 -1.76433 0
M  V30 3603 H 331.125 5.54562 -5.87781 0
M  V30 3604 H 334.711 4.41795 -3.78561 0
M  V30 3605 H 333.591 5.26065 -5.81572 0
M  V30 3606 N 331.094 0.475555 1.50254 0
M  V30 3607 C 332.057 -0.305016 2.27161 0
M  V30 3608 C 333.057 -0.916519 1.32123 0
M  V30 3609 O 334.247 -0.785003 1.5551 0
M  V30 3610 C 331.379 -1.43496 3.09227 0
M  V30 3611 H 332.572 0.369511 2.97615 0
M  V30 3612 H 330.125 0.229747 1.54602 0
M  V30 3613 H 330.86 -2.14441 2.43281 0
M  V30 3614 H 330.645 -1.00223 3.79075 0
M  V30 3615 H 332.135 -1.98548 3.67381 0
M  V30 3616 N 332.573 -1.56217 0.208337 0
M  V30 3617 C 333.798 -2.02782 -0.435222 0
M  V30 3618 C 334.223 -1.08738 -1.53485 0
M  V30 3619 O 333.581 -0.0731855 -1.81152 0
M  V30 3620 C 333.629 -3.47687 -0.956335 0
M  V30 3621 O 332.733 -3.56773 -2.06849 0
M  V30 3622 H 332.074 -0.656403 -0.100158 0
M  V30 3623 H 334.604 -2.02033 0.3231 0
M  V30 3624 H 334.614 -3.87745 -1.26955 0
M  V30 3625 H 333.289 -4.15624 -0.15143 0
M  V30 3626 H 331.866 -3.28597 -1.76292 0
M  V30 3627 N 334.051 0.0651679 -1.57465 0
M  V30 3628 C 334.961 1.09448 -2.07505 0
M  V30 3629 C 335.977 1.41974 -1.00595 0
M  V30 3630 O 337.153 1.52018 -1.32107 0
M  V30 3631 C 334.218 2.38689 -2.51453 0
M  V30 3632 C 333.279 2.13073 -3.72691 0
M  V30 3633 C 332.512 3.36152 -4.14533 0
M  V30 3634 O 332.735 4.45517 -3.56189 0
M  V30 3635 O 331.669 3.23974 -5.07272 0
M  V30 3636 H 335.495 0.69935 -2.95538 0
M  V30 3637 H 333.08 0.279752 -1.46757 0
M  V30 3638 H 334.962 3.14736 -2.80212 0
M  V30 3639 H 333.637 2.77568 -1.66546 0
M  V30 3640 H 332.544 1.34709 -3.49005 0
M  V30 3641 H 333.877 1.79071 -4.5847 0
M  V30 3642 N 335.529 1.53961 0.336706 0
M  V30 3643 C 336.778 1.70751 1.07363 0
M  V30 3644 C 337.091 0.481061 1.89592 0
M  V30 3645 O 338.297 0.530046 2.66276 0
M  V30 3646 C 336.753 3.01965 1.95818 0
M  V30 3647 C 336.361 4.31971 1.18764 0
M  V30 3648 C 338.105 3.28121 2.69327 0
M  V30 3649 C 336.012 5.54255 2.06289 0
M  V30 3650 H 334.942 0.636292 0.404535 0
M  V30 3651 H 337.593 1.80459 0.332681 0
M  V30 3652 H 335.975 2.86132 2.7376 0
M  V30 3653 H 337.149 4.5853 0.456849 0
M  V30 3654 H 335.464 4.12481 0.569946 0
M  V30 3655 H 338.061 4.16673 3.35094 0
M  V30 3656 H 338.404 2.45426 3.36261 0
M  V30 3657 H 338.937 3.44762 1.98454 0
M  V30 3658 H 335.676 6.39513 1.43885 0
M  V30 3659 H 335.196 5.31935 2.77138 0
M  V30 3660 H 336.875 5.90159 2.65182 0
M  V30 3661 N 337.007 -0.598083 1.45811 0
M  V30 3662 C 338.418 -1.18011 1.44673 0
M  V30 3663 C 338.769 -1.95378 0.179364 0
M  V30 3664 O 337.894 -2.04124 -0.718509 0
M  V30 3665 C 338.489 -2.14677 2.62105 0
M  V30 3666 C 337.048 -2.68236 2.64057 0
M  V30 3667 C 336.195 -1.43816 2.37091 0
M  V30 3668 H 339.146 -0.38686 1.53913 0
M  V30 3669 H 339.167 -2.97878 2.36746 0
M  V30 3670 H 338.679 -1.5834 3.5433 0
M  V30 3671 H 336.78 -3.28486 1.75864 0
M  V30 3672 H 336.893 -3.12021 3.63566 0
M  V30 3673 H 335.257 -1.731 1.86838 0
M  V30 3674 H 336.04 -0.893333 3.31473 0
M  V30 3675 N 338.485 -1.33259 -0.841409 0
M  V30 3676 C 339.733 -1.24326 -1.59334 0
M  V30 3677 C 340.054 0.191564 -1.94057 0
M  V30 3678 O 339.324 1.11967 -1.60749 0
M  V30 3679 H 337.904 -0.457174 -0.590763 0
M  V30 3680 H 340.566 -1.66947 -1.00571 0
M  V30 3681 H 339.662 -1.8352 -2.52442 0
M  V30 3682 N 339.963 1.05934 -1.16686 0
M  V30 3683 C 341.24 1.75643 -0.860747 0
M  V30 3684 C 341.62 2.01144 0.640641 0
M  V30 3685 O 340.968 1.64147 1.58959 0
M  V30 3686 C 341.178 3.05493 -1.68745 0
M  V30 3687 C 342.526 3.79581 -1.90271 0
M  V30 3688 O 343.55 3.15344 -1.65641 0
M  V30 3689 O 342.409 4.9499 -2.31618 0
M  V30 3690 H 339.503 0.763426 -0.317977 0
M  V30 3691 H 342.049 1.1217 -1.27342 0
M  V30 3692 H 340.821 2.8264 -2.70611 0
M  V30 3693 H 340.444 3.76702 -1.27206 0
M  V30 3694 N 341.441 0.965919 1.2453 0
M  V30 3695 C 342.666 0.643971 1.97149 0
M  V30 3696 C 343.091 -0.779487 1.71189 0
M  V30 3697 O 342.449 -1.5288 0.974553 0
M  V30 3698 C 342.497 0.922557 3.48599 0
M  V30 3699 O 341.601 0.00707672 4.12399 0
M  V30 3700 H 340.942 0.243647 0.617683 0
M  V30 3701 H 343.472 1.29558 1.58353 0
M  V30 3702 H 343.482 0.853373 3.98976 0
M  V30 3703 H 342.157 1.95996 3.66822 0
M  V30 3704 H 340.734 0.12943 3.72675 0
M  V30 3705 N 342.919 -1.39368 0.735821 0
M  V30 3706 C 344.144 -2.05319 0.293052 0
M  V30 3707 C 344.569 -1.55115 -1.064 0
M  V30 3708 O 343.927 -0.695261 -1.67439 0
M  V30 3709 C 343.975 -3.59305 0.305323 0
M  V30 3710 O 343.079 -4.06299 -0.706761 0
M  V30 3711 H 342.42 -0.650529 0.13307 0
M  V30 3712 H 344.95 -1.78386 1.00197 0
M  V30 3713 H 344.96 -4.07724 0.149997 0
M  V30 3714 H 343.635 -3.95207 1.29553 0
M  V30 3715 H 342.212 -3.69292 -0.517504 0
M  V30 3716 N 344.397 -0.483516 -1.5 0
M  V30 3717 C 345.674 0.129337 -1.95172 0
M  V30 3718 C 346.054 1.55802 -1.4244 0
M  V30 3719 O 345.402 2.19625 -0.630649 0
M  V30 3720 C 345.612 0.0599251 -3.48949 0
M  V30 3721 C 346.96 0.242617 -4.23906 0
M  V30 3722 O 347.984 0.135933 -3.55941 0
M  V30 3723 O 346.843 0.459454 -5.44565 0
M  V30 3724 H 343.937 0.104887 -0.820322 0
M  V30 3725 H 346.483 -0.544807 -1.60717 0
M  V30 3726 H 345.255 -0.937079 -3.79914 0
M  V30 3727 H 344.878 0.774984 -3.89974 0
M  V30 3728 N 345.875 1.56104 -0.216619 0
M  V30 3729 C 347.291 1.58995 0.13886 0
M  V30 3730 C 347.491 1.23333 1.59346 0
M  V30 3731 O 346.547 0.966234 2.33281 0
M  V30 3732 C 347.86 3.00143 -0.182968 0
M  V30 3733 C 349.408 3.12751 -0.124807 0
M  V30 3734 C 349.883 4.56068 -0.420241 0
M  V30 3735 N 351.374 4.61723 -0.369634 0
M  V30 3736 C 352.109 5.70542 -0.571789 0
M  V30 3737 N 351.605 6.87744 -0.835453 0
M  V30 3738 N 353.398 5.59831 -0.504563 0
M  V30 3739 H 345.549 1.77562 -1.16557 0
M  V30 3740 H 347.812 0.825091 -0.466828 0
M  V30 3741 H 347.518 3.30871 -1.19237 0
M  V30 3742 H 347.392 3.73813 0.504367 0
M  V30 3743 H 349.779 2.81822 0.875223 0
M  V30 3744 H 349.86 2.41421 -0.845544 0
M  V30 3745 H 349.504 4.87713 -1.41769 0
M  V30 3746 H 349.434 5.25617 0.321631 0
M  V30 3747 H 351.925 3.77502 -0.173338 0
M  V30 3748 H 352.238 7.66587 -0.977938 0
M  V30 3749 H 350.583 6.895 -0.872592 0
M  V30 3750 H 353.774 4.67145 -0.298842 0
M  V30 3751 H 353.947 6.44573 -0.665519 0
M  V30 3752 N 347.353 -0.0568162 1.57498 0
M  V30 3753 C 348.583 -0.764515 1.91934 0
M  V30 3754 C 348.991 -1.70877 0.81227 0
M  V30 3755 O 348.334 -1.82351 -0.222213 0
M  V30 3756 C 348.396 -1.5994 3.21962 0
M  V30 3757 C 348.06 -0.822925 4.4953 0
M  V30 3758 C 349.057 -0.135464 5.19723 0
M  V30 3759 C 346.742 -0.785666 4.96117 0
M  V30 3760 C 348.736 0.578861 6.34766 0
M  V30 3761 C 346.423 -0.0675784 6.11063 0
M  V30 3762 C 347.421 0.613471 6.80239 0
M  V30 3763 O 347.109 1.31996 7.92989 0
M  V30 3764 H 346.841 -0.221647 0.63863 0
M  V30 3765 H 349.395 -0.0268218 2.05382 0
M  V30 3766 H 347.625 -2.38026 3.04763 0
M  V30 3767 H 349.314 -2.18715 3.41934 0
M  V30 3768 H 350.08 -0.155458 4.84751 0
M  V30 3769 H 345.959 -1.30524 4.42136 0
M  V30 3770 H 349.503 1.111 6.88696 0
M  V30 3771 H 345.4 -0.0455636 6.45484 0
M  V30 3772 H 346.168 1.23077 8.09194 0
M  V30 3773 N 348.832 -1.54138 -0.328536 0
M  V30 3774 C 349.782 -1.79557 -1.4051 0
M  V30 3775 C 350.766 -0.651373 -1.47126 0
M  V30 3776 O 351.958 -0.911226 -1.51742 0
M  V30 3777 C 349.087 -2.02196 -2.77438 0
M  V30 3778 C 348.173 -3.22724 -2.75155 0
M  V30 3779 N 348.564 -4.43881 -2.42494 0
M  V30 3780 C 346.862 -3.24196 -3.06289 0
M  V30 3781 C 347.563 -5.25797 -2.48822 0
M  V30 3782 N 346.539 -4.62862 -2.8506 0
M  V30 3783 H 350.341 -2.70814 -1.1418 0
M  V30 3784 H 347.855 -1.53265 -0.536991 0
M  V30 3785 H 349.852 -2.18546 -3.55026 0
M  V30 3786 H 348.512 -1.12191 -3.04702 0
M  V30 3787 H 349.523 -4.70969 -2.15428 0
M  V30 3788 H 346.2 -2.44208 -3.38627 0
M  V30 3789 H 347.59 -6.32535 -2.26603 0
M  V30 3790 N 350.31 0.590341 -1.46126 0
M  V30 3791 C 351.22 1.72793 -1.58681 0
M  V30 3792 C 352.236 1.67516 -0.470566 0
M  V30 3793 O 353.412 1.87562 -0.733642 0
M  V30 3794 C 350.477 3.09287 -1.5666 0
M  V30 3795 C 349.538 3.25886 -2.79458 0
M  V30 3796 C 348.771 4.55869 -2.77524 0
M  V30 3797 O 348.994 5.3928 -1.85832 0
M  V30 3798 O 347.928 4.75552 -3.68964 0
M  V30 3799 H 351.754 1.65149 -2.54872 0
M  V30 3800 H 349.339 0.756486 -1.28832 0
M  V30 3801 H 351.221 3.90577 -1.58202 0
M  V30 3802 H 349.896 3.17385 -0.636271 0
M  V30 3803 H 348.803 2.44119 -2.83472 0
M  V30 3804 H 350.136 3.22675 -3.71674 0
M  V30 3805 N 351.788 1.33704 0.83433 0
M  V30 3806 C 352.72 1.20172 1.9517 0
M  V30 3807 C 353.733 0.131572 1.62267 0
M  V30 3808 O 354.922 0.382406 1.74356 0
M  V30 3809 C 352.022 0.821716 3.28787 0
M  V30 3810 C 351.195 1.98446 3.89792 0
M  V30 3811 C 350.254 1.58469 5.01771 0
M  V30 3812 O 349.28 2.29968 5.20676 0
M  V30 3813 N 350.482 0.492291 5.78409 0
M  V30 3814 H 353.247 2.16429 2.07313 0
M  V30 3815 H 350.808 1.26509 1.0103 0
M  V30 3816 H 352.8 0.536291 4.01131 0
M  V30 3817 H 351.37 -0.0503058 3.1256 0
M  V30 3818 H 350.59 2.43526 3.09982 0
M  V30 3819 H 351.878 2.76236 4.27283 0
M  V30 3820 H 351.276 -0.102349 5.65607 0
M  V30 3821 H 349.833 0.266555 6.51255 0
M  V30 3822 N 353.266 -1.05314 1.17247 0
M  V30 3823 C 354.512 -1.78557 0.961513 0
M  V30 3824 C 354.845 -1.87419 -0.508697 0
M  V30 3825 O 354.12 -1.37307 -1.37757 0
M  V30 3826 C 354.403 -3.22514 1.60176 0
M  V30 3827 C 354.256 -3.21673 3.14399 0
M  V30 3828 C 355.575 -4.20318 1.30463 0
M  V30 3829 H 352.694 -0.6482 0.350723 0
M  V30 3830 H 355.336 -1.23102 1.44727 0
M  V30 3831 H 353.486 -3.69867 1.18871 0
M  V30 3832 H 355.158 -2.82405 3.64753 0
M  V30 3833 H 353.401 -2.60048 3.47214 0
M  V30 3834 H 354.072 -4.23271 3.54324 0
M  V30 3835 H 356.548 -3.81454 1.66229 0
M  V30 3836 H 355.424 -5.19289 1.77848 0
M  V30 3837 H 355.685 -4.41526 0.22521 0
M  V30 3838 N 354.744 -0.972509 -1.24016 0
M  V30 3839 C 355.969 -0.654417 -1.96805 0
M  V30 3840 C 356.394 0.770398 -1.716 0
M  V30 3841 O 355.752 1.52361 -0.982647 0
M  V30 3842 C 355.8 -0.941031 -3.48105 0
M  V30 3843 O 354.904 -0.0289472 -4.1239 0
M  V30 3844 H 354.245 -0.24692 -0.616382 0
M  V30 3845 H 356.775 -1.30396 -1.57664 0
M  V30 3846 H 356.785 -0.87452 -3.98517 0
M  V30 3847 H 355.46 -1.97939 -3.65777 0
M  V30 3848 H 354.037 -0.149192 -3.72601 0
M  V30 3849 N 356.222 1.38976 -0.743202 0
M  V30 3850 C 357.185 2.28901 -0.117014 0
M  V30 3851 C 358.185 1.46698 0.658503 0
M  V30 3852 O 359.375 1.67274 0.486305 0
M  V30 3853 C 356.507 3.30309 0.84315 0
M  V30 3854 H 357.7 2.8578 -0.909373 0
M  V30 3855 H 355.253 1.47761 -0.509547 0
M  V30 3856 H 355.988 2.785 1.66157 0
M  V30 3857 H 355.773 3.91029 0.289594 0
M  V30 3858 H 357.263 3.97577 1.2776 0
M  V30 3859 N 357.7 0.491464 1.49741 0
M  V30 3860 C 358.647 -0.292027 2.28945 0
M  V30 3861 C 359.617 -0.968973 1.34908 0
M  V30 3862 O 360.802 -0.97748 1.6386 0
M  V30 3863 C 357.942 -1.35617 3.17336 0
M  V30 3864 C 357.055 -0.691957 4.26422 0
M  V30 3865 C 356.19 -1.73572 5.02042 0
M  V30 3866 C 355.229 -1.05286 6.02977 0
M  V30 3867 N 354.366 -2.0404 6.71798 0
M  V30 3868 H 359.206 0.389654 2.95442 0
M  V30 3869 H 356.743 0.204003 1.45679 0
M  V30 3870 H 358.701 -1.98502 3.66951 0
M  V30 3871 H 357.331 -2.00674 2.52844 0
M  V30 3872 H 356.383 0.0499523 3.80367 0
M  V30 3873 H 357.695 -0.153946 4.98562 0
M  V30 3874 H 356.849 -2.43987 5.55478 0
M  V30 3875 H 355.588 -2.30757 4.29654 0
M  V30 3876 H 354.593 -0.334446 5.48782 0
M  V30 3877 H 355.818 -0.487636 6.77347 0
M  V30 3878 H 353.764 -2.60205 6.02187 0
M  V30 3879 H 353.681 -1.55279 7.39881 0
M  V30 3880 H 354.949 -2.73772 7.29842 0
M  V30 3881 N 359.178 -1.55987 0.224894 0
M  V30 3882 C 360.594 -1.59066 -0.130426 0
M  V30 3883 C 360.794 -1.24176 -1.5869 0
M  V30 3884 O 359.85 -0.978592 -2.32766 0
M  V30 3885 C 361.163 -3.00042 0.198883 0
M  V30 3886 C 362.711 -3.1268 0.141391 0
M  V30 3887 C 363.186 -4.55839 0.444422 0
M  V30 3888 N 364.677 -4.6152 0.394115 0
M  V30 3889 C 365.412 -5.70231 0.602038 0
M  V30 3890 N 364.908 -6.87291 0.871914 0
M  V30 3891 N 366.701 -5.59555 0.534245 0
M  V30 3892 H 358.852 -1.76941 1.17497 0
M  V30 3893 H 361.115 -0.822604 0.471197 0
M  V30 3894 H 360.821 -3.30234 1.2099 0
M  V30 3895 H 360.695 -3.74075 -0.484535 0
M  V30 3896 H 363.082 -2.82283 -0.860265 0
M  V30 3897 H 363.163 -2.40969 0.858335 0
M  V30 3898 H 362.807 -4.86954 1.44353 0
M  V30 3899 H 362.737 -5.2578 -0.293752 0
M  V30 3900 H 365.228 -3.77405 0.193356 0
M  V30 3901 H 365.541 -7.66058 1.01858 0
M  V30 3902 H 363.886 -6.89028 0.909145 0
M  V30 3903 H 367.077 -4.6698 0.323612 0
M  V30 3904 H 367.25 -6.44211 0.699693 0
M  V30 3905 N 360.656 0.0484629 -1.57525 0
M  V30 3906 C 361.603 1.05504 -2.05275 0
M  V30 3907 C 362.573 1.37084 -0.937927 0
M  V30 3908 O 363.758 1.47754 -1.2072 0
M  V30 3909 C 360.898 2.35676 -2.52093 0
M  V30 3910 C 360.011 2.10423 -3.77288 0
M  V30 3911 C 359.146 3.34327 -4.12794 0
M  V30 3912 C 358.185 3.04542 -5.30962 0
M  V30 3913 N 357.322 4.20841 -5.61994 0
M  V30 3914 H 362.162 0.640885 -2.91027 0
M  V30 3915 H 359.699 0.304854 -1.43906 0
M  V30 3916 H 361.657 3.11709 -2.77297 0
M  V30 3917 H 360.287 2.7485 -1.69285 0
M  V30 3918 H 359.339 1.24976 -3.59284 0
M  V30 3919 H 360.651 1.84438 -4.63448 0
M  V30 3920 H 359.805 4.1874 -4.39024 0
M  V30 3921 H 358.544 3.63408 -3.25247 0
M  V30 3922 H 357.549 2.18528 -5.04505 0
M  V30 3923 H 358.774 2.76758 -6.20146 0
M  V30 3924 H 356.72 4.4991 -4.77406 0
M  V30 3925 H 356.637 3.98212 -6.42622 0
M  V30 3926 H 357.905 5.06184 -5.92789 0
M  V30 3927 N 362.134 1.5431 0.320358 0
M  V30 3928 C 363.38 1.72924 1.05949 0
M  V30 3929 C 363.713 0.503185 1.87568 0
M  V30 3930 O 362.988 -0.499839 1.87968 0
M  V30 3931 C 363.271 3.00676 1.98156 0
M  V30 3932 C 363.124 4.3354 1.19845 0
M  V30 3933 C 364.443 3.24198 2.9763 0
M  V30 3934 H 361.562 0.629195 0.383774 0
M  V30 3935 H 364.204 1.87008 0.335854 0
M  V30 3936 H 362.354 2.888 2.59859 0
M  V30 3937 H 364.026 4.57305 0.605773 0
M  V30 3938 H 362.269 4.309 0.500784 0
M  V30 3939 H 362.94 5.19156 1.87567 0
M  V30 3940 H 365.416 3.35557 2.4605 0
M  V30 3941 H 364.292 4.14938 3.59329 0
M  V30 3942 H 364.553 2.41577 3.7026 0
M  V30 3943 N 363.613 -0.582584 1.46437 0
M  V30 3944 C 364.859 -1.34278 1.51978 0
M  V30 3945 C 365.192 -1.93446 0.170973 0
M  V30 3946 O 364.467 -1.76481 -0.817608 0
M  V30 3947 C 364.75 -2.47203 2.61845 0
M  V30 3948 C 364.603 -1.93069 4.06257 0
M  V30 3949 C 365.922 -3.49247 2.67795 0
M  V30 3950 H 363.041 -0.486876 0.553282 0
M  V30 3951 H 365.683 -0.654437 1.78374 0
M  V30 3952 H 363.833 -3.0592 2.39469 0
M  V30 3953 H 365.505 -1.38808 4.3992 0
M  V30 3954 H 363.748 -1.23898 4.1573 0
M  V30 3955 H 364.419 -2.74586 4.7886 0
M  V30 3956 H 366.895 -3.00411 2.8791 0
M  V30 3957 H 365.771 -4.25719 3.46489 0
M  V30 3958 H 366.032 -4.06482 1.73852 0
M  V30 3959 N 365.091 -1.34144 -0.827227 0
M  V30 3960 C 366.038 -1.25364 -1.93785 0
M  V30 3961 C 367.008 -0.129774 -1.65592 0
M  V30 3962 O 368.193 -0.310024 -1.88264 0
M  V30 3963 C 365.333 -1.01064 -3.2997 0
M  V30 3964 C 364.446 -2.22185 -3.70484 0
M  V30 3965 C 363.581 -1.91203 -4.95595 0
M  V30 3966 C 362.62 -3.08491 -5.28677 0
M  V30 3967 N 361.757 -2.77421 -6.44967 0
M  V30 3968 H 366.597 -2.20347 -2.00627 0
M  V30 3969 H 364.134 -1.09558 -0.981608 0
M  V30 3970 H 366.092 -0.850139 -4.08446 0
M  V30 3971 H 364.722 -0.0975026 -3.22653 0
M  V30 3972 H 363.774 -2.4917 -2.87434 0
M  V30 3973 H 365.086 -3.0983 -3.90905 0
M  V30 3974 H 364.24 -1.71864 -5.81848 0
M  V30 3975 H 362.979 -1.00812 -4.77167 0
M  V30 3976 H 361.984 -3.28431 -4.40923 0
M  V30 3977 H 363.209 -3.99655 -5.49047 0
M  V30 3978 H 361.155 -1.89601 -6.28003 0
M  V30 3979 H 361.072 -3.58598 -6.6554 0
M  V30 3980 H 362.34 -2.61577 -7.34301 0
M  V30 3981 N 366.569 1.04691 -1.17803 0
M  V30 3982 C 367.502 2.12068 -0.842765 0
M  V30 3983 C 368.48 1.61455 0.192608 0
M  V30 3984 O 369.664 1.88359 0.072995 0
M  V30 3985 C 366.791 3.37715 -0.258063 0
M  V30 3986 C 365.837 4.07164 -1.26962 0
M  V30 3987 S 366.67 4.55047 -2.82299 0
M  V30 3988 C 367.826 5.83935 -2.25323 0
M  V30 3989 H 368.059 2.4018 -1.75217 0
M  V30 3990 H 365.592 1.17366 -1.00323 0
M  V30 3991 H 367.55 4.10435 0.0727935 0
M  V30 3992 H 366.211 3.0773 0.629357 0
M  V30 3993 H 365.404 4.9746 -0.809263 0
M  V30 3994 H 365.006 3.40533 -1.54639 0
M  V30 3995 H 367.298 6.57552 -1.63192 0
M  V30 3996 H 368.241 6.34725 -3.13894 0
M  V30 3997 H 368.649 5.3874 -1.68582 0
M  V30 3998 N 368.047 0.979072 1.23499 0
M  V30 3999 C 368.98 0.463027 2.23453 0
M  V30 4000 C 369.958 -0.469128 1.55685 0
M  V30 4001 O 371.142 -0.397882 1.84253 0
M  V30 4002 C 368.269 -0.330308 3.37086 0
M  V30 4003 C 367.315 0.545795 4.22993 0
M  V30 4004 S 368.148 1.99285 4.97037 0
M  V30 4005 C 369.304 1.20862 6.1412 0
M  V30 4006 H 369.537 1.31005 2.6688 0
M  V30 4007 H 367.07 0.784965 1.32957 0
M  V30 4008 H 369.028 -0.782027 4.02982 0
M  V30 4009 H 367.689 -1.15244 2.92194 0
M  V30 4010 H 366.882 -0.0638928 5.03959 0
M  V30 4011 H 366.484 0.933705 3.62157 0
M  V30 4012 H 368.776 0.469284 6.75873 0
M  V30 4013 H 369.719 1.99307 6.79472 0
M  V30 4014 H 370.127 0.727992 5.59786 0
M  V30 4015 N 369.525 -1.3858 0.750561 0
M  V30 4016 C 370.774 -1.99424 0.302172 0
M  V30 4017 C 371.087 -1.60254 -1.12152 0
M  V30 4018 O 372.293 -2.14046 -1.67023 0
M  V30 4019 C 370.749 -3.56558 0.489307 0
M  V30 4020 C 370.357 -4.04682 1.92189 0
M  V30 4021 C 372.101 -4.24374 0.103478 0
M  V30 4022 C 370.008 -5.54446 2.05775 0
M  V30 4023 H 368.938 -0.746046 0.10923 0
M  V30 4024 H 371.589 -1.58383 0.92667 0
M  V30 4025 H 369.971 -3.95472 -0.204329 0
M  V30 4026 H 371.145 -3.77065 2.64875 0
M  V30 4027 H 369.46 -3.4958 2.26236 0
M  V30 4028 H 372.057 -5.34384 0.183787 0
M  V30 4029 H 372.4 -4.05468 -0.943481 0
M  V30 4030 H 372.933 -3.90688 0.748854 0
M  V30 4031 H 369.672 -5.78252 3.08714 0
M  V30 4032 H 369.192 -5.83816 1.37546 0
M  V30 4033 H 370.871 -6.20099 1.84626 0
M  V30 4034 N 371.003 -0.499398 -1.49478 0
M  V30 4035 C 372.249 0.0457576 -2.02748 0
M  V30 4036 C 372.582 1.36793 -1.37846 0
M  V30 4037 O 371.857 1.87596 -0.513601 0
M  V30 4038 C 372.14 0.199986 -3.59544 0
M  V30 4039 C 371.993 -1.1452 -4.34977 0
M  V30 4040 C 373.312 0.94137 -4.29914 0
M  V30 4041 H 370.431 0.0151552 -0.736844 0
M  V30 4042 H 373.073 -0.650498 -1.78518 0
M  V30 4043 H 371.223 0.793007 -3.8032 0
M  V30 4044 H 372.895 -1.77697 -4.25701 0
M  V30 4045 H 371.138 -1.73488 -3.97598 0
M  V30 4046 H 371.809 -0.990607 -5.43039 0
M  V30 4047 H 374.285 0.43844 -4.13784 0
M  V30 4048 H 373.161 1.01812 -5.39375 0
M  V30 4049 H 373.422 1.98471 -3.95046 0
M  V30 4050 N 372.481 1.55866 -0.233164 0
M  V30 4051 C 373.727 1.98897 0.395959 0
M  V30 4052 C 374.06 1.12091 1.58585 0
M  V30 4053 O 373.335 0.181182 1.93654 0
M  V30 4054 C 373.618 3.50658 0.819224 0
M  V30 4055 C 373.471 4.48233 -0.375109 0
M  V30 4056 C 374.79 4.07135 1.67121 0
M  V30 4057 H 371.909 0.723102 0.142451 0
M  V30 4058 H 374.551 1.87082 -0.331725 0
M  V30 4059 H 372.701 3.60857 1.43925 0
M  V30 4060 H 374.373 4.50031 -1.01341 0
M  V30 4061 H 372.616 4.21624 -1.02058 0
M  V30 4062 H 373.287 5.51988 -0.0358328 0
M  V30 4063 H 375.763 3.99952 1.14795 0
M  V30 4064 H 374.639 5.13615 1.93625 0
M  V30 4065 H 374.9 3.54736 2.63846 0
M  V30 4066 N 373.959 -0.0401083 1.57549 0
M  V30 4067 C 375.205 -0.734211 1.89043 0
M  V30 4068 C 375.538 -1.75591 0.829535 0
M  V30 4069 O 374.813 -1.93868 -0.156706 0
M  V30 4070 C 375.096 -1.41374 3.31188 0
M  V30 4071 C 374.949 -0.406299 4.47961 0
M  V30 4072 C 376.268 -2.35061 3.72068 0
M  V30 4073 H 373.387 -0.265447 0.687537 0
M  V30 4074 H 376.029 0.00294087 1.9 0
M  V30 4075 H 374.179 -2.04206 3.30503 0
M  V30 4076 H 375.851 0.219255 4.60779 0
M  V30 4077 H 374.094 0.275485 4.32924 0
M  V30 4078 H 374.765 -0.920022 5.44279 0
M  V30 4079 H 377.241 -1.82282 3.74049 0
M  V30 4080 H 376.117 -2.79593 4.72355 0
M  V30 4081 H 376.378 -3.21258 3.0372 0
M  V30 4082 N 375.437 -1.54477 -0.31217 0
M  V30 4083 C 376.677 -1.74958 -1.05684 0
M  V30 4084 C 377.041 -0.518414 -1.84869 0
M  V30 4085 O 378.242 -0.600759 -2.62001 0
M  V30 4086 C 376.513 -2.99656 -1.94785 0
M  V30 4087 S 378.072 -3.4109 -2.76049 0
M  V30 4088 H 374.89 -0.615104 -0.356606 0
M  V30 4089 H 377.492 -1.92669 -0.331514 0
M  V30 4090 H 376.196 -3.87397 -1.35468 0
M  V30 4091 H 375.727 -2.845 -2.71704 0
M  V30 4092 H 377.742 -2.97283 -3.97287 0
M  V30 4093 N 376.915 0.57481 -1.46744 0
M  V30 4094 C 378.143 1.35856 -1.56047 0
M  V30 4095 C 378.558 1.87691 -0.204365 0
M  V30 4096 O 377.915 1.64049 0.79963 0
M  V30 4097 C 377.966 2.54066 -2.57163 0
M  V30 4098 O 377.687 2.04377 -3.87507 0
M  V30 4099 C 379.188 3.46514 -2.76483 0
M  V30 4100 H 376.408 0.414754 -0.527466 0
M  V30 4101 H 378.952 0.698035 -1.92218 0
M  V30 4102 H 377.107 3.16092 -2.23974 0
M  V30 4103 H 377.521 2.81419 -4.4261 0
M  V30 4104 H 378.995 4.25919 -3.51137 0
M  V30 4105 H 379.472 3.98951 -1.83671 0
M  V30 4106 H 380.078 2.90318 -3.10799 0
M  V30 4107 N 378.394 1.34581 0.820102 0
M  V30 4108 C 379.641 1.27096 1.57648 0
M  V30 4109 C 379.969 -0.158317 1.93855 0
M  V30 4110 O 379.224 -1.12028 1.60463 0
M  V30 4111 C 379.523 2.10997 2.8847 0
M  V30 4112 C 379.189 3.59966 2.71543 0
M  V30 4113 C 377.851 4.00575 2.66634 0
M  V30 4114 C 380.203 4.54548 2.55021 0
M  V30 4115 C 377.531 5.33953 2.43128 0
M  V30 4116 C 379.883 5.88109 2.33047 0
M  V30 4117 C 378.547 6.27878 2.26552 0
M  V30 4118 H 377.817 0.465078 0.576874 0
M  V30 4119 H 380.464 1.6635 0.948671 0
M  V30 4120 H 378.769 1.6458 3.55557 0
M  V30 4121 H 380.466 2.0255 3.46084 0
M  V30 4122 H 377.056 3.27733 2.76205 0
M  V30 4123 H 381.24 4.24069 2.57835 0
M  V30 4124 H 376.496 5.63781 2.3656 0
M  V30 4125 H 380.67 6.60985 2.19251 0
M  V30 4126 H 378.297 7.31162 2.081 0
M  V30 4127 N 379.872 -1.04064 1.18357 0
M  V30 4128 C 380.835 -2.10243 0.912707 0
M  V30 4129 C 381.835 -1.60477 -0.101928 0
M  V30 4130 O 383.025 -1.73703 0.131517 0
M  V30 4131 C 380.157 -3.38893 0.369387 0
M  V30 4132 H 381.35 -2.35706 1.85426 0
M  V30 4133 H 378.903 -1.20489 0.995594 0
M  V30 4134 H 379.638 -3.19094 -0.578776 0
M  V30 4135 H 379.423 -3.76331 1.1008 0
M  V30 4136 H 380.913 -4.17128 0.198575 0
M  V30 4137 N 381.35 -0.985608 -1.22978 0
M  V30 4138 C 382.599 -0.652881 -1.90841 0
M  V30 4139 C 382.912 0.817842 -1.77681 0
M  V30 4140 O 384.118 1.26185 -2.40395 0
M  V30 4141 C 382.574 -1.11717 -3.42122 0
M  V30 4142 C 382.182 -2.6126 -3.63933 0
M  V30 4143 C 383.926 -0.85843 -4.1573 0
M  V30 4144 C 381.833 -3.0133 -5.08876 0
M  V30 4145 H 380.763 -0.240491 -0.714619 0
M  V30 4146 H 383.414 -1.1942 -1.39324 0
M  V30 4147 H 381.796 -0.504027 -3.92779 0
M  V30 4148 H 382.97 -3.27858 -3.23799 0
M  V30 4149 H 381.285 -2.84937 -3.03644 0
M  V30 4150 H 383.882 -1.13359 -5.22546 0
M  V30 4151 H 384.225 0.205461 -4.15793 0
M  V30 4152 H 384.758 -1.43341 -3.71077 0
M  V30 4153 H 381.497 -4.06864 -5.13947 0
M  V30 4154 H 381.017 -2.3943 -5.49939 0
M  V30 4155 H 382.696 -2.92224 -5.77247 0
M  V30 4156 N 382.828 1.3818 -0.7579 0
M  V30 4157 C 384.068 2.01864 -0.320968 0
M  V30 4158 C 384.432 1.58863 1.07827 0
M  V30 4159 O 385.633 2.14908 1.61456 0
M  V30 4160 C 383.904 3.54626 -0.44446 0
M  V30 4161 S 385.463 4.38706 -0.0907467 0
M  V30 4162 H 382.281 0.700056 -0.124268 0
M  V30 4163 H 384.883 1.68611 -0.989468 0
M  V30 4164 H 383.587 3.83411 -1.4637 0
M  V30 4165 H 383.118 3.92661 0.241073 0
M  V30 4166 H 385.133 4.83435 1.11826 0
M  V30 4167 N 384.306 0.507319 1.49211 0
M  V30 4168 C 385.552 -0.0269732 2.03382 0
M  V30 4169 C 385.907 -1.34111 1.37957 0
M  V30 4170 O 385.2 -1.84733 0.508351 0
M  V30 4171 C 385.394 -0.229513 3.56662 0
M  V30 4172 C 385.223 1.06344 4.36945 0
M  V30 4173 C 383.993 1.617 4.78729 0
M  V30 4174 C 386.191 1.96833 4.75143 0
M  V30 4175 N 384.173 2.8552 5.43463 0
M  V30 4176 C 385.544 3.0523 5.39661 0
M  V30 4177 C 387.599 1.97434 4.57082 0
M  V30 4178 C 386.302 4.14265 5.88028 0
M  V30 4179 C 388.328 3.05448 5.06414 0
M  V30 4180 C 387.69 4.12564 5.70938 0
M  V30 4181 H 383.789 0.0310673 0.781383 0
M  V30 4182 H 386.373 0.683579 1.82305 0
M  V30 4183 H 384.544 -0.909127 3.7761 0
M  V30 4184 H 386.276 -0.761377 3.97473 0
M  V30 4185 H 383.031 1.16132 4.59141 0
M  V30 4186 H 383.455 3.48499 5.80412 0
M  V30 4187 H 388.097 1.15924 4.06597 0
M  V30 4188 H 385.815 4.96569 6.3753 0
M  V30 4189 H 389.401 3.06941 4.94246 0
M  V30 4190 H 388.281 4.94767 6.0842 0
M  V30 4191 N 385.784 -1.5574 0.241426 0
M  V30 4192 C 386.714 -2.24133 -0.654722 0
M  V30 4193 C 387.695 -1.21974 -1.1856 0
M  V30 4194 O 388.88 -1.50612 -1.22595 0
M  V30 4195 C 386.01 -2.93659 -1.85423 0
M  V30 4196 C 384.964 -4.0246 -1.45636 0
M  V30 4197 C 384.29 -4.59383 -2.73626 0
M  V30 4198 C 385.59 -5.18468 -0.631506 0
M  V30 4199 H 387.284 -2.99281 -0.0844353 0
M  V30 4200 H 384.83 -1.43947 -0.0391707 0
M  V30 4201 H 386.783 -3.40203 -2.48676 0
M  V30 4202 H 385.507 -2.15991 -2.44981 0
M  V30 4203 H 384.166 -3.56676 -0.847202 0
M  V30 4204 H 383.814 -3.78422 -3.3137 0
M  V30 4205 H 383.514 -5.32826 -2.4773 0
M  V30 4206 H 385.038 -5.08658 -3.37786 0
M  V30 4207 H 386.452 -5.61272 -1.1682 0
M  V30 4208 H 384.849 -5.98266 -0.468831 0
M  V30 4209 H 385.919 -4.8358 0.357506 0
M  V30 4210 N 387.262 0.0317525 -1.57568 0
M  V30 4211 C 388.673 0.578692 -1.77505 0
M  V30 4212 C 389.024 1.75749 -0.872164 0
M  V30 4213 O 388.149 2.16298 -0.0663106 0
M  V30 4214 C 388.744 1.05658 -3.21904 0
M  V30 4215 C 387.303 1.54906 -3.43047 0
M  V30 4216 C 386.45 0.485939 -2.73009 0
M  V30 4217 H 389.401 -0.194475 -1.57504 0
M  V30 4218 H 389.422 1.92404 -3.28269 0
M  V30 4219 H 388.934 0.198422 -3.87592 0
M  V30 4220 H 387.035 2.42915 -2.82529 0
M  V30 4221 H 387.148 1.59841 -4.5165 0
M  V30 4222 H 385.512 0.940354 -2.36705 0
M  V30 4223 H 386.295 -0.362709 -3.41379 0
M  V30 4224 N 388.74 1.54641 0.303973 0
M  V30 4225 C 389.987 1.7378 1.03955 0
M  V30 4226 C 390.315 0.521986 1.87365 0
M  V30 4227 O 389.57 -0.496099 1.89308 0
M  V30 4228 C 389.869 2.97753 1.97681 0
M  V30 4229 C 389.535 4.31671 1.30271 0
M  V30 4230 C 388.197 4.68075 1.11619 0
M  V30 4231 C 390.549 5.147 0.82055 0
M  V30 4232 C 387.877 5.8509 0.434304 0
M  V30 4233 C 390.229 6.32416 0.152395 0
M  V30 4234 C 388.893 6.67484 -0.0461067 0
M  V30 4235 H 388.163 0.635908 0.380398 0
M  V30 4236 H 390.81 1.88896 0.314718 0
M  V30 4237 H 389.115 2.77406 2.76682 0
M  V30 4238 H 390.812 3.09756 2.54661 0
M  V30 4239 H 387.402 4.03041 1.45795 0
M  V30 4240 H 391.586 4.87077 0.952374 0
M  V30 4241 H 386.842 6.10806 0.269495 0
M  V30 4242 H 391.016 6.96023 -0.229126 0
M  V30 4243 H 388.643 7.58011 -0.576494 0
M  V30 4244 N 390.218 -0.567019 1.47046 0
M  V30 4245 C 391.168 -1.67018 1.55207 0
M  V30 4246 C 392.152 -1.55543 0.411714 0
M  V30 4247 O 393.344 -1.64192 0.661064 0
M  V30 4248 C 390.473 -3.05801 1.56014 0
M  V30 4249 C 389.559 -3.22515 2.75399 0
M  V30 4250 N 389.95 -3.09329 4.00186 0
M  V30 4251 C 388.248 -3.53493 2.71954 0
M  V30 4252 C 388.949 -3.2847 4.80086 0
M  V30 4253 N 387.925 -3.54352 4.12233 0
M  V30 4254 H 391.727 -1.55377 2.4947 0
M  V30 4255 H 389.241 -0.771503 1.42904 0
M  V30 4256 H 391.238 -3.84996 1.59949 0
M  V30 4257 H 389.898 -3.18561 0.628396 0
M  V30 4258 H 390.909 -2.86863 4.31196 0
M  V30 4259 H 387.586 -3.7284 1.87873 0
M  V30 4260 H 388.976 -3.23326 5.88991 0
M  V30 4261 N 391.696 -1.35014 -0.812953 0
M  V30 4262 C 392.945 -1.27269 -1.56479 0
M  V30 4263 C 393.258 0.152771 -1.95002 0
M  V30 4264 O 394.464 0.352451 -2.69203 0
M  V30 4265 C 392.92 -2.23159 -2.82362 0
M  V30 4266 C 392.528 -3.71016 -2.511 0
M  V30 4267 C 394.272 -2.24342 -3.60376 0
M  V30 4268 C 392.179 -4.58746 -3.73237 0
M  V30 4269 H 391.109 -0.472829 -0.587324 0
M  V30 4270 H 393.76 -1.6024 -0.894171 0
M  V30 4271 H 392.142 -1.83151 -3.51101 0
M  V30 4272 H 393.316 -4.1962 -1.90409 0
M  V30 4273 H 391.631 -3.72378 -1.86343 0
M  V30 4274 H 394.228 -2.87107 -4.51081 0
M  V30 4275 H 394.571 -1.24542 -3.97234 0
M  V30 4276 H 395.104 -2.62846 -2.98591 0
M  V30 4277 H 391.843 -5.59521 -3.41492 0
M  V30 4278 H 391.363 -4.14871 -4.33176 0
M  V30 4279 H 393.042 -4.73852 -4.40537 0
M  V30 4280 N 393.175 1.03435 -1.18907 0
M  V30 4281 C 394.422 1.76743 -0.988334 0
M  V30 4282 C 394.75 1.88447 0.481441 0
M  V30 4283 O 394.005 1.39383 1.37371 0
M  V30 4284 C 394.304 3.19792 -1.59586 0
M  V30 4285 C 393.97 3.28108 -3.09283 0
M  V30 4286 C 392.632 3.30084 -3.5014 0
M  V30 4287 C 394.984 3.27696 -4.05296 0
M  V30 4288 C 392.312 3.29299 -4.85571 0
M  V30 4289 C 394.664 3.28451 -5.4065 0
M  V30 4290 C 393.328 3.28723 -5.80946 0
M  V30 4291 H 392.598 0.64675 -0.361657 0
M  V30 4292 H 395.245 1.21442 -1.48068 0
M  V30 4293 H 393.55 3.78136 -1.02568 0
M  V30 4294 H 395.247 3.75171 -1.41589 0
M  V30 4295 H 391.837 3.27294 -2.76725 0
M  V30 4296 H 396.021 3.25354 -3.74778 0
M  V30 4297 H 391.277 3.2783 -5.16079 0
M  V30 4298 H 395.451 3.27082 -6.14809 0
M  V30 4299 H 393.078 3.27868 -6.85862 0
M  V30 4300 N 394.653 0.992116 1.22453 0
M  V30 4301 C 395.9 0.667534 1.91181 0
M  V30 4302 C 396.228 -0.800317 1.77271 0
M  V30 4303 O 395.483 -1.59421 1.13505 0
M  V30 4304 C 395.782 1.01832 3.42586 0
M  V30 4305 C 395.448 2.47831 3.76684 0
M  V30 4306 C 394.11 2.87729 3.85701 0
M  V30 4307 C 396.462 3.42466 3.92895 0
M  V30 4308 C 393.79 4.21252 4.08367 0
M  V30 4309 C 396.142 4.75648 4.17064 0
M  V30 4310 C 394.806 5.15288 4.24305 0
M  V30 4311 H 394.076 0.244268 0.699581 0
M  V30 4312 H 396.723 1.24816 1.45235 0
M  V30 4313 H 395.028 0.355769 3.90181 0
M  V30 4314 H 396.725 0.745228 3.94014 0
M  V30 4315 H 393.315 2.15905 3.70247 0
M  V30 4316 H 397.499 3.12814 3.85307 0
M  V30 4317 H 392.755 4.51554 4.122 0
M  V30 4318 H 396.929 5.48924 4.2855 0
M  V30 4319 H 394.556 6.18769 4.41621 0
M  V30 4320 N 396.131 -1.37776 0.765217 0
M  V30 4321 C 397.061 -2.32945 0.160953 0
M  V30 4322 C 398.042 -1.55454 -0.690516 0
M  V30 4323 O 399.227 -1.83721 -0.629318 0
M  V30 4324 C 396.357 -3.39669 -0.724031 0
M  V30 4325 C 395.311 -4.27992 0.0256173 0
M  V30 4326 C 394.637 -5.25673 -0.978383 0
M  V30 4327 C 395.937 -5.08309 1.20082 0
M  V30 4328 H 397.631 -2.83728 0.955969 0
M  V30 4329 H 395.177 -1.36416 0.461149 0
M  V30 4330 H 397.13 -4.05219 -1.15652 0
M  V30 4331 H 395.854 -2.87396 -1.5515 0
M  V30 4332 H 394.513 -3.63964 0.438812 0
M  V30 4333 H 394.161 -4.69682 -1.80022 0
M  V30 4334 H 393.861 -5.85625 -0.481378 0
M  V30 4335 H 395.385 -5.94098 -1.40995 0
M  V30 4336 H 396.799 -5.67034 0.845307 0
M  V30 4337 H 395.196 -5.77554 1.62947 0
M  V30 4338 H 396.266 -4.41365 2.00811 0
M  V30 4339 N 397.609 -0.515225 -1.4894 0
M  V30 4340 C 398.539 0.244628 -2.32215 0
M  V30 4341 C 399.52 0.949136 -1.41157 0
M  V30 4342 O 400.705 0.937783 -1.70057 0
M  V30 4343 C 397.835 1.30096 -3.22013 0
M  V30 4344 C 396.789 0.715486 -4.21977 0
M  V30 4345 C 396.115 1.87339 -5.00808 0
M  V30 4346 C 397.415 -0.302982 -5.2142 0
M  V30 4347 H 399.109 -0.450501 -2.95991 0
M  V30 4348 H 396.655 -0.218098 -1.42339 0
M  V30 4349 H 398.608 1.84037 -3.79089 0
M  V30 4350 H 397.332 2.02547 -2.56207 0
M  V30 4351 H 395.991 0.197715 -3.66066 0
M  V30 4352 H 395.639 2.58592 -4.31438 0
M  V30 4353 H 395.339 1.48764 -5.68457 0
M  V30 4354 H 396.863 2.41686 -5.60732 0
M  V30 4355 H 398.277 0.148802 -5.73107 0
M  V30 4356 H 396.674 -0.60532 -5.97039 0
M  V30 4357 H 397.744 -1.21395 -4.69459 0
M  V30 4358 N 399.087 1.5561 -0.249682 0
M  V30 4359 C 400.498 1.84979 0.252949 0
M  V30 4360 C 400.849 1.17153 1.57384 0
M  V30 4361 O 399.974 0.450884 2.11651 0
M  V30 4362 C 400.569 3.35584 0.465732 0
M  V30 4363 C 399.128 3.65169 0.912624 0
M  V30 4364 C 398.275 2.77299 -0.00859085 0
M  V30 4365 H 401.226 1.51513 -0.47217 0
M  V30 4366 H 401.247 3.57313 1.30795 0
M  V30 4367 H 400.759 3.8492 -0.49579 0
M  V30 4368 H 398.86 3.21312 1.88652 0
M  V30 4369 H 398.973 4.72912 0.767559 0
M  V30 4370 H 397.337 2.49678 0.50327 0
M  V30 4371 H 398.12 3.29442 -0.965537 0
M  V30 4372 N 400.565 -0.0233959 1.57583 0
M  V30 4373 C 401.795 -0.723631 1.93513 0
M  V30 4374 C 402.203 -1.69115 0.848333 0
M  V30 4375 O 401.546 -1.82781 -0.183484 0
M  V30 4376 C 401.608 -1.53075 3.25282 0
M  V30 4377 C 401.272 -0.727388 4.51174 0
M  V30 4378 C 402.269 -0.0251924 5.19894 0
M  V30 4379 C 399.954 -0.680256 4.97672 0
M  V30 4380 C 401.948 0.713374 6.33395 0
M  V30 4381 C 399.635 0.0620523 6.11068 0
M  V30 4382 C 400.633 0.757622 6.78785 0
M  V30 4383 O 400.321 1.48787 7.90011 0
M  V30 4384 H 400.053 -0.208051 0.643188 0
M  V30 4385 H 402.607 0.0167489 2.05393 0
M  V30 4386 H 400.837 -2.31508 3.09744 0
M  V30 4387 H 402.526 -2.11413 3.46496 0
M  V30 4388 H 403.292 -0.0526003 4.84971 0
M  V30 4389 H 399.171 -1.21116 4.44805 0
M  V30 4390 H 402.715 1.25683 6.86185 0
M  V30 4391 H 398.612 0.0913634 6.45435 0
M  V30 4392 H 399.38 1.40213 8.06401 0
M  V30 4393 N 402.043 -1.548 -0.295768 0
M  V30 4394 C 403.292 -1.73538 -1.02798 0
M  V30 4395 C 403.605 -0.531159 -1.8825 0
M  V30 4396 O 404.811 -0.600458 -2.64777 0
M  V30 4397 C 403.267 -3.07051 -1.87744 0
M  V30 4398 C 402.875 -4.34968 -1.07269 0
M  V30 4399 C 404.619 -3.35146 -2.60533 0
M  V30 4400 C 402.526 -5.5953 -1.91521 0
M  V30 4401 H 401.456 -0.646794 -0.387522 0
M  V30 4402 H 404.107 -1.81278 -0.284718 0
M  V30 4403 H 402.489 -2.93289 -2.66078 0
M  V30 4404 H 403.663 -4.5958 -0.335117 0
M  V30 4405 H 401.978 -4.13847 -0.460384 0
M  V30 4406 H 404.575 -4.2541 -3.23929 0
M  V30 4407 H 404.918 -2.54255 -3.29636 0
M  V30 4408 H 405.451 -3.49902 -1.89244 0
M  V30 4409 H 402.19 -6.43103 -1.26878 0
M  V30 4410 H 401.71 -5.39096 -2.62937 0
M  V30 4411 H 403.389 -5.96982 -2.49442 0
M  V30 4412 N 403.521 0.559213 -1.47345 0
M  V30 4413 C 404.469 1.68747 -1.60085 0
M  V30 4414 C 405.463 1.628 -0.46825 0
M  V30 4415 O 406.669 1.68009 -0.645977 0
M  V30 4416 H 403.044 0.558329 -0.503759 0
M  V30 4417 H 405.015 1.55138 -2.54902 0
M  V30 4418 C 403.764 3.07103 -1.63042 0
M  V30 4419 H 403.087 3.12361 -2.49541 0
M  V30 4420 H 404.527 3.85743 -1.76006 0
M  V30 4421 C 402.986 3.34935 -0.363357 0
M  V30 4422 O 403.516 3.98102 0.536416 0
M  V30 4423 N 401.722 2.89574 -0.244 0
M  V30 4424 H 401.269 2.38348 -0.977133 0
M  V30 4425 H 401.227 3.08566 0.602836 0
M  V30 4426 N 404.999 1.35443 0.805782 0
M  V30 4427 C 406.41 1.25768 1.37983 0
M  V30 4428 C 406.761 -0.10958 1.95894 0
M  V30 4429 O 405.886 -1.01056 1.91355 0
M  V30 4430 C 406.481 2.27727 2.5085 0
M  V30 4431 C 405.04 2.2179 3.04115 0
M  V30 4432 C 404.187 2.13393 1.77084 0
M  V30 4433 H 407.138 1.4656 0.608752 0
M  V30 4434 H 407.159 1.90422 3.29424 0
M  V30 4435 H 406.671 3.27227 2.08671 0
M  V30 4436 H 404.772 1.25703 3.50756 0
M  V30 4437 H 404.885 3.13788 3.62042 0
M  V30 4438 H 403.249 1.59384 1.98668 0
M  V30 4439 H 404.032 3.14755 1.37056 0
M  V30 4440 N 406.477 -1.02803 1.19454 0
M  V30 4441 C 407.754 -1.73299 0.907013 0
M  V30 4442 C 408.134 -2.02772 -0.587086 0
M  V30 4443 O 407.482 -1.68304 -1.54551 0
M  V30 4444 C 407.692 -3.00912 1.76785 0
M  V30 4445 C 409.04 -3.74403 2.00268 0
M  V30 4446 O 410.064 -3.10841 1.73943 0
M  V30 4447 O 408.923 -4.88675 2.4466 0
M  V30 4448 H 406.017 -0.754727 0.338106 0
M  V30 4449 H 408.563 -1.08754 1.30271 0
M  V30 4450 H 407.335 -2.75366 2.7801 0
M  V30 4451 H 406.958 -3.73197 1.37149 0
M  V30 4452 N 407.956 -0.998596 -1.21925 0
M  V30 4453 C 408.886 -0.573688 -2.26343 0
M  V30 4454 C 409.867 0.402296 -1.65274 0
M  V30 4455 O 411.052 0.291683 -1.91997 0
M  V30 4456 C 408.182 0.106839 -3.47136 0
M  V30 4457 C 407.136 -0.788269 -4.20678 0
M  V30 4458 C 406.462 0.0254927 -5.34694 0
M  V30 4459 C 407.762 -2.08784 -4.78755 0
M  V30 4460 H 409.456 -1.44651 -2.62138 0
M  V30 4461 H 407.002 -0.696975 -1.26009 0
M  V30 4462 H 408.955 0.415531 -4.19346 0
M  V30 4463 H 407.679 1.01424 -3.10452 0
M  V30 4464 H 406.338 -1.08069 -3.50309 0
M  V30 4465 H 405.986 0.933989 -4.94253 0
M  V30 4466 H 405.686 -0.570437 -5.84825 0
M  V30 4467 H 407.21 0.328147 -6.09718 0
M  V30 4468 H 408.624 -1.84272 -5.42878 0
M  V30 4469 H 407.021 -2.63307 -5.39249 0
M  V30 4470 H 408.091 -2.76284 -3.98491 0
M  V30 4471 N 409.434 1.37368 -0.772513 0
M  V30 4472 C 410.664 2.03647 -0.348082 0
M  V30 4473 C 411.072 1.58392 1.03482 0
M  V30 4474 O 410.415 0.760921 1.672 0
M  V30 4475 C 410.477 3.58131 -0.313404 0
M  V30 4476 C 410.141 4.2652 -1.64102 0
M  V30 4477 C 411.138 4.50587 -2.5936 0
M  V30 4478 C 408.823 4.64335 -1.91567 0
M  V30 4479 C 410.817 5.11526 -3.80289 0
M  V30 4480 C 408.504 5.24996 -3.12766 0
M  V30 4481 C 409.502 5.48529 -4.06946 0
M  V30 4482 O 409.19 6.07921 -5.26011 0
M  V30 4483 H 408.922 0.660538 -0.143753 0
M  V30 4484 H 411.476 1.76669 -1.04772 0
M  V30 4485 H 409.706 3.84159 0.442617 0
M  V30 4486 H 411.395 4.05813 0.0840613 0
M  V30 4487 H 412.161 4.21784 -2.39423 0
M  V30 4488 H 408.04 4.45353 -1.19088 0
M  V30 4489 H 411.584 5.29811 -4.53813 0
M  V30 4490 H 407.481 5.53223 -3.32588 0
M  V30 4491 H 408.249 6.26398 -5.26847 0
M  V30 4492 N 410.912 0.523116 1.48665 0
M  V30 4493 C 411.842 -0.23231 2.32342 0
M  V30 4494 C 412.823 -0.941637 1.41659 0
M  V30 4495 O 414.008 -0.928751 1.70552 0
M  V30 4496 C 411.138 -1.28387 3.22698 0
M  V30 4497 C 410.092 -0.693098 4.22351 0
M  V30 4498 C 409.418 -1.8468 5.01794 0
M  V30 4499 C 410.718 0.33063 5.21252 0
M  V30 4500 H 412.412 0.466192 2.95748 0
M  V30 4501 H 409.958 0.225643 1.42221 0
M  V30 4502 H 411.911 -1.82024 3.80059 0
M  V30 4503 H 410.635 -2.01186 2.57278 0
M  V30 4504 H 409.294 -0.178299 3.66166 0
M  V30 4505 H 408.942 -2.56301 4.32804 0
M  V30 4506 H 408.642 -1.45747 5.69238 0
M  V30 4507 H 410.166 -2.38709 5.62006 0
M  V30 4508 H 411.58 -0.118407 5.73178 0
M  V30 4509 H 409.977 0.636974 5.9671 0
M  V30 4510 H 411.047 1.23883 4.68808 0
M  V30 4511 N 412.39 -1.55475 0.257931 0
M  V30 4512 C 413.337 -2.21837 -0.636939 0
M  V30 4513 C 414.307 -1.18596 -1.16294 0
M  V30 4514 O 415.492 -1.47081 -1.21539 0
M  V30 4515 C 412.632 -2.9301 -1.82317 0
M  V30 4516 C 411.745 -4.10931 -1.33265 0
M  V30 4517 C 410.88 -4.69791 -2.47931 0
M  V30 4518 C 409.919 -5.7994 -1.95796 0
M  V30 4519 N 409.056 -6.32935 -3.0387 0
M  V30 4520 H 413.896 -2.9793 -0.0643591 0
M  V30 4521 H 411.433 -1.47086 -0.0200031 0
M  V30 4522 H 413.391 -3.3248 -2.52018 0
M  V30 4523 H 412.021 -2.1937 -2.36805 0
M  V30 4524 H 411.073 -3.76699 -0.52931 0
M  V30 4525 H 412.385 -4.90417 -0.910654 0
M  V30 4526 H 411.539 -5.11892 -3.25656 0
M  V30 4527 H 410.278 -3.89545 -2.93438 0
M  V30 4528 H 409.283 -5.37305 -1.16546 0
M  V30 4529 H 410.508 -6.62043 -1.51246 0
M  V30 4530 H 408.454 -5.55591 -3.48791 0
M  V30 4531 H 408.371 -7.07645 -2.66035 0
M  V30 4532 H 409.639 -6.79695 -3.81621 0
M  V30 4533 N 413.868 0.0150385 -1.57593 0
M  V30 4534 C 414.815 1.01126 -2.07466 0
M  V30 4535 C 415.785 1.35064 -0.966794 0
M  V30 4536 O 416.97 1.4516 -1.23827 0
M  V30 4537 C 414.11 2.30276 -2.57035 0
M  V30 4538 C 413.223 2.02373 -3.81666 0
M  V30 4539 C 412.358 3.25496 -4.19793 0
M  V30 4540 C 411.397 2.93211 -5.37303 0
M  V30 4541 N 410.534 4.08826 -5.70794 0
M  V30 4542 H 415.374 0.57901 -2.92321 0
M  V30 4543 H 412.911 0.27426 -1.44521 0
M  V30 4544 H 414.869 3.05757 -2.83846 0
M  V30 4545 H 413.499 2.71197 -1.75077 0
M  V30 4546 H 412.551 1.17327 -3.61854 0
M  V30 4547 H 413.863 1.74567 -4.67256 0
M  V30 4548 H 413.017 4.09333 -4.47807 0
M  V30 4549 H 411.756 3.56428 -3.32882 0
M  V30 4550 H 410.761 2.07777 -5.09027 0
M  V30 4551 H 411.986 2.63542 -6.25877 0
M  V30 4552 H 409.932 4.39682 -4.86842 0
M  V30 4553 H 409.849 3.84491 -6.50924 0
M  V30 4554 H 411.117 4.93496 -6.03392 0
M  V30 4555 N 415.346 1.54954 0.287554 0
M  V30 4556 C 416.593 1.74873 1.02106 0
M  V30 4557 C 416.921 0.541829 1.86801 0
M  V30 4558 O 416.176 -0.475992 1.89823 0
M  V30 4559 C 416.475 2.99833 1.94512 0
M  V30 4560 C 416.141 4.33029 1.25686 0
M  V30 4561 C 414.803 4.69233 1.06649 0
M  V30 4562 C 417.155 5.15542 0.765913 0
M  V30 4563 C 414.483 5.85518 0.372222 0
M  V30 4564 C 416.835 6.32542 0.0853101 0
M  V30 4565 C 415.499 6.67398 -0.1169 0
M  V30 4566 H 414.769 0.639906 0.373632 0
M  V30 4567 H 417.416 1.89219 0.294665 0
M  V30 4568 H 415.721 2.80325 2.73725 0
M  V30 4569 H 417.418 3.1244 2.51361 0
M  V30 4570 H 414.008 4.04564 1.41512 0
M  V30 4571 H 418.192 4.88059 0.90066 0
M  V30 4572 H 413.448 6.11057 0.204695 0
M  V30 4573 H 417.622 6.95741 -0.302936 0
M  V30 4574 H 415.249 7.57357 -0.656859 0
M  V30 4575 N 416.824 -0.551391 1.4764 0
M  V30 4576 C 418.073 -1.30467 1.53822 0
M  V30 4577 C 418.386 -1.94495 0.207661 0
M  V30 4578 O 419.592 -2.71099 0.147533 0
M  V30 4579 C 418.048 -2.36616 2.71184 0
M  V30 4580 C 417.656 -1.78754 4.10793 0
M  V30 4581 C 419.4 -3.13088 2.86663 0
M  V30 4582 C 417.307 -2.82717 5.19447 0
M  V30 4583 H 416.237 -0.490584 0.572576 0
M  V30 4584 H 418.888 -0.58494 1.73927 0
M  V30 4585 H 417.27 -3.11529 2.4447 0
M  V30 4586 H 418.444 -1.10173 4.47435 0
M  V30 4587 H 416.759 -1.14846 4.00249 0
M  V30 4588 H 419.356 -3.90736 3.65007 0
M  V30 4589 H 419.699 -3.67635 1.95321 0
M  V30 4590 H 420.232 -2.45288 3.13175 0
M  V30 4591 H 416.971 -2.33018 6.12685 0
M  V30 4592 H 416.491 -3.4969 4.87316 0
M  V30 4593 H 418.17 -3.46102 5.46646 0
M  V30 4594 N 418.302 -1.35869 -0.798587 0
M  V30 4595 C 419.234 -1.25305 -1.91915 0
M  V30 4596 C 420.247 -0.174548 -1.61862 0
M  V30 4597 O 421.436 -0.428499 -1.73281 0
M  V30 4598 C 418.536 -0.9086 -3.26493 0
M  V30 4599 C 417.709 -2.08711 -3.84394 0
M  V30 4600 C 416.768 -1.71717 -4.97393 0
M  V30 4601 O 415.794 -2.43692 -5.14396 0
M  V30 4602 N 416.996 -0.645473 -5.769 0
M  V30 4603 H 419.761 -2.21849 -2.01502 0
M  V30 4604 H 417.322 -1.29143 -0.976408 0
M  V30 4605 H 419.314 -0.642455 -3.99568 0
M  V30 4606 H 417.884 -0.0325815 -3.12583 0
M  V30 4607 H 417.104 -2.51659 -3.03416 0
M  V30 4608 H 418.392 -2.87468 -4.19809 0
M  V30 4609 H 417.79 -0.047648 -5.6568 0
M  V30 4610 H 416.347 -0.43913 -6.50319 0
M  V30 4611 N 419.78 1.02168 -1.19998 0
M  V30 4612 C 420.712 2.10705 -0.901994 0
M  V30 4613 C 421.725 1.6244 0.108216 0
M  V30 4614 O 422.914 1.78082 -0.12214 0
M  V30 4615 C 420.014 3.37291 -0.329834 0
M  V30 4616 C 419.187 4.14714 -1.39035 0
M  V30 4617 C 418.246 5.19606 -0.830432 0
M  V30 4618 O 417.272 5.48809 -1.50989 0
M  V30 4619 N 418.474 5.79366 0.362696 0
M  V30 4620 H 421.239 2.36856 -1.83628 0
M  V30 4621 H 418.8 1.18518 -1.10296 0
M  V30 4622 H 420.792 4.04657 0.0587633 0
M  V30 4623 H 419.362 3.0843 0.508891 0
M  V30 4624 H 418.582 3.42392 -1.9535 0
M  V30 4625 H 419.87 4.63226 -2.10474 0
M  V30 4626 H 419.268 5.57968 0.932081 0
M  V30 4627 H 417.825 6.48106 0.69299 0
M  V30 4628 N 421.258 1.00505 1.21394 0
M  V30 4629 C 422.504 0.688793 1.90745 0
M  V30 4630 C 422.837 -0.778486 1.77914 0
M  V30 4631 O 422.112 -1.56433 1.15581 0
M  V30 4632 C 422.395 1.11063 3.42545 0
M  V30 4633 C 422.248 2.63737 3.64367 0
M  V30 4634 C 423.567 0.673059 4.34923 0
M  V30 4635 H 420.686 0.251702 0.692687 0
M  V30 4636 H 423.328 1.25074 1.43026 0
M  V30 4637 H 421.478 0.632508 3.83317 0
M  V30 4638 H 423.15 3.19313 3.32922 0
M  V30 4639 H 421.393 3.05248 3.08231 0
M  V30 4640 H 422.064 2.88305 4.70727 0
M  V30 4641 H 424.54 1.08392 4.01734 0
M  V30 4642 H 423.416 0.996383 5.39781 0
M  V30 4643 H 423.677 -0.425808 4.40045 0
M  V30 4644 N 422.737 -1.36956 0.779787 0
M  V30 4645 C 423.967 -2.03459 0.358877 0
M  V30 4646 C 424.375 -1.58939 -1.02641 0
M  V30 4647 O 423.718 -0.769777 -1.66794 0
M  V30 4648 C 423.78 -3.5796 0.332393 0
M  V30 4649 C 423.444 -4.25644 1.66362 0
M  V30 4650 C 424.441 -4.49205 2.61746 0
M  V30 4651 C 422.126 -4.63313 1.94027 0
M  V30 4652 C 424.12 -5.09503 3.82996 0
M  V30 4653 C 421.807 -5.2333 3.15546 0
M  V30 4654 C 422.805 -5.46363 4.0985 0
M  V30 4655 O 422.493 -6.05122 5.29228 0
M  V30 4656 H 422.225 -0.659767 0.147254 0
M  V30 4657 H 424.779 -1.76111 1.05708 0
M  V30 4658 H 423.009 -3.84388 -0.422237 0
M  V30 4659 H 424.698 -4.05852 -0.0625389 0
M  V30 4660 H 425.464 -4.20508 2.41657 0
M  V30 4661 H 421.343 -4.44715 1.21448 0
M  V30 4662 H 424.887 -5.27397 4.56617 0
M  V30 4663 H 420.784 -5.51451 3.35517 0
M  V30 4664 H 421.552 -6.23595 5.30161 0
M  V30 4665 N 424.215 -0.530993 -1.48385 0
M  V30 4666 C 425.145 0.219985 -2.32461 0
M  V30 4667 C 426.126 0.934111 -1.42156 0
M  V30 4668 O 427.311 0.919694 -1.71042 0
M  V30 4669 C 424.441 1.26674 -3.23375 0
M  V30 4670 C 423.395 0.67069 -4.22712 0
M  V30 4671 C 422.721 1.82017 -5.02766 0
M  V30 4672 C 424.021 -0.358268 -5.2107 0
M  V30 4673 H 425.715 -0.48187 -2.95497 0
M  V30 4674 H 423.261 -0.233182 -1.42099 0
M  V30 4675 H 425.214 1.80006 -3.81019 0
M  V30 4676 H 423.938 1.99818 -2.58341 0
M  V30 4677 H 422.597 0.158878 -3.66256 0
M  V30 4678 H 422.245 2.54002 -4.34157 0
M  V30 4679 H 421.945 1.42727 -5.70003 0
M  V30 4680 H 423.469 2.35725 -5.63264 0
M  V30 4681 H 424.883 0.0880081 -5.73232 0
M  V30 4682 H 423.28 -0.66861 -5.96364 0
M  V30 4683 H 424.35 -1.26367 -4.68145 0
M  V30 4684 N 425.693 1.55336 -0.266172 0
M  V30 4685 C 426.656 2.20878 0.612001 0
M  V30 4686 C 427.656 1.18388 1.08816 0
M  V30 4687 O 428.846 1.4335 0.989774 0
M  V30 4688 C 425.978 2.86765 1.84332 0
M  V30 4689 H 427.171 2.99873 0.0398718 0
M  V30 4690 H 424.724 1.56291 -0.0167309 0
M  V30 4691 H 425.459 2.11759 2.45619 0
M  V30 4692 H 425.244 3.61862 1.5099 0
M  V30 4693 H 426.734 3.36867 2.46801 0
M  V30 4694 N 427.171 -0.0066808 1.57599 0
M  V30 4695 C 428.42 -0.692078 1.89455 0
M  V30 4696 C 428.733 -1.75306 0.867586 0
M  V30 4697 O 429.939 -2.49262 1.07614 0
M  V30 4698 C 428.395 -1.2821 3.36289 0
M  V30 4699 C 428.003 -0.256291 4.47266 0
M  V30 4700 C 429.747 -1.94608 3.77264 0
M  V30 4701 C 427.654 -0.855927 5.85173 0
M  V30 4702 H 426.584 -0.262252 0.706923 0
M  V30 4703 H 429.235 0.052769 1.83424 0
M  V30 4704 H 427.617 -2.0774 3.37135 0
M  V30 4705 H 428.791 0.513923 4.57925 0
M  V30 4706 H 427.106 0.306862 4.15268 0
M  V30 4707 H 429.703 -2.40364 4.77629 0
M  V30 4708 H 430.046 -2.77382 3.10427 0
M  V30 4709 H 430.579 -1.21822 3.78688 0
M  V30 4710 H 427.318 -0.0671161 6.55466 0
M  V30 4711 H 426.838 -1.59546 5.78191 0
M  V30 4712 H 428.517 -1.35658 6.32618 0
M  V30 4713 N 428.649 -1.55105 -0.279332 0
M  V30 4714 C 429.582 -1.82467 -1.37044 0
M  V30 4715 C 430.56 -0.677261 -1.47824 0
M  V30 4716 O 431.744 -0.919578 -1.64548 0
M  V30 4717 C 428.871 -1.98066 -2.7475 0
M  V30 4718 C 427.917 -3.20594 -2.81286 0
M  V30 4719 S 428.75 -4.78116 -2.41175 0
M  V30 4720 C 429.906 -4.9668 -3.80867 0
M  V30 4721 H 430.139 -2.74728 -1.1363 0
M  V30 4722 H 427.672 -1.46794 -0.478625 0
M  V30 4723 H 429.63 -2.07739 -3.54055 0
M  V30 4724 H 428.291 -1.06704 -2.9542 0
M  V30 4725 H 427.484 -3.28376 -3.82341 0
M  V30 4726 H 427.086 -3.09479 -2.09996 0
M  V30 4727 H 429.378 -4.82033 -4.76078 0
M  V30 4728 H 430.321 -5.98741 -3.78041 0
M  V30 4729 H 430.729 -4.24698 -3.71876 0
M  V30 4730 N 430.127 0.543554 -1.4793 0
M  V30 4731 C 431.373 1.29961 -1.56466 0
M  V30 4732 C 431.728 1.91024 -0.229696 0
M  V30 4733 O 431.021 1.75619 0.766072 0
M  V30 4734 C 431.215 2.42078 -2.62932 0
M  V30 4735 C 431.044 1.92003 -4.06651 0
M  V30 4736 C 429.814 1.75223 -4.73946 0
M  V30 4737 C 432.012 1.45648 -4.93245 0
M  V30 4738 N 429.994 1.19632 -6.02131 0
M  V30 4739 C 431.365 1.01914 -6.11566 0
M  V30 4740 C 433.42 1.33826 -4.79578 0
M  V30 4741 C 432.123 0.475301 -7.17728 0
M  V30 4742 C 434.149 0.808427 -5.85848 0
M  V30 4743 C 433.511 0.381081 -7.03368 0
M  V30 4744 H 429.61 0.467086 -0.62718 0
M  V30 4745 H 432.194 0.614543 -1.84747 0
M  V30 4746 H 430.365 3.08098 -2.36496 0
M  V30 4747 H 432.097 3.09096 -2.61231 0
M  V30 4748 H 428.852 1.98345 -4.30065 0
M  V30 4749 H 429.276 0.93885 -6.70458 0
M  V30 4750 H 433.918 1.65474 -3.89074 0
M  V30 4751 H 431.636 0.146472 -8.07967 0
M  V30 4752 H 435.222 0.720315 -5.77324 0
M  V30 4753 H 434.102 -0.0225344 -7.84197 0
M  V30 4754 N 431.605 1.3629 0.791371 0
M  V30 4755 C 432.535 1.33137 1.91825 0
M  V30 4756 C 433.516 0.203168 1.68882 0
M  V30 4757 O 434.701 0.400509 1.90025 0
M  V30 4758 C 431.831 1.11793 3.28816 0
M  V30 4759 C 430.785 2.21417 3.66277 0
M  V30 4760 C 430.111 1.85218 5.01596 0
M  V30 4761 C 431.411 3.63489 3.75064 0
M  V30 4762 H 433.105 2.2743 1.9472 0
M  V30 4763 H 430.651 1.09479 0.935437 0
M  V30 4764 H 432.604 1.08222 4.07266 0
M  V30 4765 H 431.328 0.139501 3.26302 0
M  V30 4766 H 429.987 2.2411 2.90121 0
M  V30 4767 H 429.635 0.859544 4.95602 0
M  V30 4768 H 429.335 2.58611 5.27631 0
M  V30 4769 H 430.859 1.832 5.82469 0
M  V30 4770 H 432.273 3.63034 4.43711 0
M  V30 4771 H 430.67 4.35771 4.12582 0
M  V30 4772 H 431.74 3.98536 2.76219 0
M  V30 4773 N 433.083 -1.0153 1.20538 0
M  V30 4774 C 434.046 -2.0826 0.957098 0
M  V30 4775 C 435.046 -1.60657 -0.0678655 0
M  V30 4776 O 436.236 -1.73385 0.168332 0
M  V30 4777 C 433.368 -3.38033 0.441188 0
M  V30 4778 H 434.561 -2.31719 1.90384 0
M  V30 4779 H 432.114 -1.1835 1.02093 0
M  V30 4780 H 432.849 -3.20249 -0.510961 0
M  V30 4781 H 432.634 -3.73911 1.18038 0
M  V30 4782 H 434.124 -4.16613 0.287009 0
M  V30 4783 N 434.561 -1.01147 -1.20859 0
M  V30 4784 C 435.494 -0.522108 -2.22147 0
M  V30 4785 C 436.472 0.427686 -1.56874 0
M  V30 4786 O 437.656 0.34889 -1.85243 0
M  V30 4787 C 434.783 0.240819 -3.37843 0
M  V30 4788 C 433.829 -0.657752 -4.21398 0
M  V30 4789 S 434.662 -2.12393 -4.91578 0
M  V30 4790 C 435.818 -1.37102 -6.10699 0
M  V30 4791 H 436.051 -1.38035 -2.63313 0
M  V30 4792 H 433.584 -0.819941 -1.30829 0
M  V30 4793 H 435.542 0.674908 -4.04914 0
M  V30 4794 H 434.203 1.07457 -2.95147 0
M  V30 4795 H 433.396 -0.0697456 -5.03952 0
M  V30 4796 H 432.998 -1.0294 -3.59555 0
M  V30 4797 H 435.29 -0.648315 -6.74391 0
M  V30 4798 H 436.233 -2.17252 -6.73949 0
M  V30 4799 H 436.641 -0.876154 -5.57659 0
M  V30 4800 N 436.039 1.36541 -0.78704 0
M  V30 4801 C 437.264 2.0409 -0.369053 0
M  V30 4802 C 437.689 1.58957 1.00569 0
M  V30 4803 O 437.047 0.756926 1.64743 0
M  V30 4804 C 437.095 3.57924 -0.438466 0
M  V30 4805 O 436.199 4.08642 0.555479 0
M  V30 4806 H 435.54 0.645142 -0.157122 0
M  V30 4807 H 438.07 1.74545 -1.06749 0
M  V30 4808 H 438.08 4.06887 -0.301218 0
M  V30 4809 H 436.755 3.90127 -1.44132 0
M  V30 4810 H 435.332 3.70958 0.380088 0
M  V30 4811 N 437.518 0.538854 1.48102 0
M  V30 4812 C 438.743 0.0102694 2.07397 0
M  V30 4813 C 439.168 -1.26562 1.39153 0
M  V30 4814 O 438.526 -1.75357 0.460387 0
M  V30 4815 C 438.574 -0.187602 3.60112 0
M  V30 4816 O 437.678 -1.25432 3.92862 0
M  V30 4817 H 437.019 0.0430975 0.6626 0
M  V30 4818 H 439.549 0.749301 1.90385 0
M  V30 4819 H 439.559 -0.407517 4.0596 0
M  V30 4820 H 438.234 0.744386 4.09184 0
M  V30 4821 H 436.811 -1.01636 3.58782 0
M  V30 4822 N 438.996 -1.55193 0.274407 0
M  V30 4823 C 440.224 -2.03987 -0.345943 0
M  V30 4824 C 440.639 -1.15279 -1.4952 0
M  V30 4825 O 439.996 -0.172759 -1.8168 0
M  V30 4826 C 440.047 -3.51898 -0.827631 0
M  V30 4827 O 439.768 -4.37231 0.275855 0
M  V30 4828 C 441.269 -4.16577 -1.51587 0
M  V30 4829 H 438.489 -0.666335 -0.0789892 0
M  V30 4830 H 441.033 -2.00423 0.406294 0
M  V30 4831 H 439.188 -3.55909 -1.52996 0
M  V30 4832 H 439.602 -5.24415 -0.0943638 0
M  V30 4833 H 441.076 -5.21678 -1.80433 0
M  V30 4834 H 441.553 -3.64707 -2.44716 0
M  V30 4835 H 442.159 -4.16568 -0.857409 0
M  V30 4836 N 440.474 -0.00167713 -1.576 0
M  V30 4837 C 441.407 1.02317 -2.03977 0
M  V30 4838 C 442.385 1.33381 -0.929963 0
M  V30 4839 O 443.569 1.45517 -1.19822 0
M  V30 4840 C 440.696 2.35035 -2.43878 0
M  V30 4841 C 439.742 2.19621 -3.65607 0
M  V30 4842 S 440.575 1.52068 -5.13455 0
M  V30 4843 C 441.731 2.86212 -5.56627 0
M  V30 4844 H 441.964 0.628285 -2.90585 0
M  V30 4845 H 439.497 0.209239 -1.52976 0
M  V30 4846 H 441.455 3.11345 -2.67534 0
M  V30 4847 H 440.116 2.71663 -1.57665 0
M  V30 4848 H 439.309 3.1767 -3.91282 0
M  V30 4849 H 438.911 1.51455 -3.41961 0
M  V30 4850 H 441.203 3.82509 -5.59189 0
M  V30 4851 H 442.146 2.65235 -6.56549 0
M  V30 4852 H 442.554 2.90199 -4.84195 0
M  V30 4853 N 441.952 1.55251 0.271103 0
M  V30 4854 C 443.182 1.79713 1.01916 0
M  V30 4855 C 443.59 0.571613 1.80359 0
M  V30 4856 O 442.933 -0.468853 1.77616 0
M  V30 4857 C 442.995 2.97138 2.02359 0
M  V30 4858 C 442.659 4.34104 1.42837 0
M  V30 4859 C 443.656 5.13019 0.843071 0
M  V30 4860 C 441.341 4.80765 1.455 0
M  V30 4861 C 443.335 6.36729 0.292333 0
M  V30 4862 C 441.022 6.0443 0.900402 0
M  V30 4863 C 442.02 6.8225 0.32007 0
M  V30 4864 O 441.708 8.03582 -0.226031 0
M  V30 4865 H 441.44 0.602431 0.306681 0
M  V30 4866 H 443.994 2.03097 0.306701 0
M  V30 4867 H 442.224 2.6945 2.77369 0
M  V30 4868 H 443.913 3.08907 2.63309 0
M  V30 4869 H 444.679 4.781 0.815178 0
M  V30 4870 H 440.558 4.20202 1.89609 0
M  V30 4871 H 444.102 6.97414 -0.161274 0
M  V30 4872 H 439.999 6.3883 0.925541 0
M  V30 4873 H 440.767 8.18418 -0.115572 0
M  V30 4874 N 443.43 -0.535701 1.48216 0
M  V30 4875 C 444.378 -1.66179 1.62749 0
M  V30 4876 C 445.372 -1.62034 0.49409 0
M  V30 4877 O 446.578 -1.6696 0.672624 0
M  V30 4878 H 442.953 -0.550244 0.512578 0
M  V30 4879 H 444.924 -1.51063 2.57337 0
M  V30 4880 C 443.673 -3.04471 1.67907 0
M  V30 4881 H 442.996 -3.08351 2.54479 0
M  V30 4882 H 444.436 -3.82894 1.82121 0
M  V30 4883 C 442.895 -3.34314 0.416596 0
M  V30 4884 O 443.425 -3.98905 -0.473014 0
M  V30 4885 N 441.631 -2.89149 0.290038 0
M  V30 4886 H 441.178 -2.36764 1.01493 0
M  V30 4887 H 441.136 -3.09486 -0.55367 0
M  V30 4888 N 444.908 -1.36708 -0.784132 0
M  V30 4889 C 446.319 -1.27947 -1.35965 0
M  V30 4890 C 446.67 0.0784013 -1.96043 0
M  V30 4891 O 445.795 0.979989 -1.92938 0
M  V30 4892 C 446.39 -2.31689 -2.47195 0
M  V30 4893 C 444.949 -2.26601 -3.00548 0
M  V30 4894 C 444.096 -2.16184 -1.73666 0
M  V30 4895 H 447.047 -1.4751 -0.585358 0
M  V30 4896 H 447.068 -1.95638 -3.26352 0
M  V30 4897 H 446.58 -3.30506 -2.03439 0
M  V30 4898 H 444.681 -1.31268 -3.48711 0
M  V30 4899 H 444.794 -3.19508 -3.57004 0
M  V30 4900 H 443.158 -1.62524 -1.96107 0
M  V30 4901 H 443.941 -3.16896 -1.32031 0
M  V30 4902 N 446.386 1.0089 -1.21074 0
M  V30 4903 C 447.635 1.74019 -1.01981 0
M  V30 4904 C 447.948 1.90408 0.447665 0
M  V30 4905 O 449.154 2.60707 0.757906 0
M  V30 4906 C 447.61 3.13026 -1.77603 0
M  V30 4907 C 447.218 3.04623 -3.28495 0
M  V30 4908 C 448.962 3.90312 -1.66904 0
M  V30 4909 C 446.869 4.38685 -3.96623 0
M  V30 4910 H 445.799 0.652422 -0.377971 0
M  V30 4911 H 448.45 1.12755 -1.44771 0
M  V30 4912 H 446.832 3.74878 -1.27604 0
M  V30 4913 H 448.006 2.52032 -3.85767 0
M  V30 4914 H 446.321 2.40827 -3.39693 0
M  V30 4915 H 448.918 4.8951 -2.15138 0
M  V30 4916 H 449.261 4.11558 -0.62658 0
M  V30 4917 H 449.794 3.35104 -2.14359 0
M  V30 4918 H 446.533 4.22641 -5.01054 0
M  V30 4919 H 446.053 4.91252 -3.4414 0
M  V30 4920 H 447.732 5.075 -4.01314 0
M  V30 4921 N 447.864 1.01787 1.20321 0
M  V30 4922 C 449.113 0.703249 1.89043 0
M  V30 4923 C 449.426 -0.770445 1.79787 0
M  V30 4924 O 450.632 -1.19767 2.43656 0
M  V30 4925 C 449.088 1.20749 3.3904 0
M  V30 4926 C 448.696 2.70817 3.56878 0
M  V30 4927 C 450.44 0.968352 4.13308 0
M  V30 4928 C 448.347 3.14716 5.00708 0
M  V30 4929 H 447.277 0.259354 0.707991 0
M  V30 4930 H 449.928 1.23072 1.36108 0
M  V30 4931 H 448.31 0.607989 3.91305 0
M  V30 4932 H 449.484 3.36327 3.14993 0
M  V30 4933 H 447.799 2.92888 2.95983 0
M  V30 4934 H 450.396 1.27173 5.19356 0
M  V30 4935 H 450.739 -0.095149 4.16191 0
M  V30 4936 H 451.272 1.53129 3.67146 0
M  V30 4937 H 448.011 4.20347 5.02979 0
M  V30 4938 H 447.531 2.53927 5.43398 0
M  V30 4939 H 449.21 3.07426 5.69296 0
M  V30 4940 N 449.342 -1.36122 0.79427 0
M  V30 4941 C 450.572 -2.03067 0.380437 0
M  V30 4942 C 450.98 -1.60018 -1.00949 0
M  V30 4943 O 450.323 -0.787425 -1.65968 0
M  V30 4944 C 450.385 -3.57587 0.37034 0
M  V30 4945 C 450.049 -4.23855 1.70867 0
M  V30 4946 C 451.046 -4.46404 2.66496 0
M  V30 4947 C 448.731 -4.61229 1.9893 0
M  V30 4948 C 450.725 -5.05412 3.88378 0
M  V30 4949 C 448.412 -5.19953 3.21079 0
M  V30 4950 C 449.41 -5.41985 4.15621 0
M  V30 4951 O 449.098 -5.99475 5.35616 0
M  V30 4952 H 448.83 -0.658168 0.154243 0
M  V30 4953 H 451.384 -1.7498 1.0757 0
M  V30 4954 H 449.614 -3.84814 -0.381444 0
M  V30 4955 H 451.303 -4.05895 -0.0194894 0
M  V30 4956 H 452.069 -4.17921 2.46103 0
M  V30 4957 H 447.948 -4.43402 1.26158 0
M  V30 4958 H 451.492 -5.22524 4.62185 0
M  V30 4959 H 447.389 -5.47862 3.41347 0
M  V30 4960 H 448.157 -6.17937 5.36745 0
M  V30 4961 N 450.82 -0.546701 -1.47814 0
M  V30 4962 C 452.06 -0.0209604 -2.04389 0
M  V30 4963 C 452.424 1.29993 -1.413 0
M  V30 4964 O 453.625 1.91273 -1.8886 0
M  V30 4965 C 451.896 0.0812844 -3.57308 0
M  V30 4966 S 453.455 0.55467 -4.3528 0
M  V30 4967 H 450.273 -0.0200865 -0.710716 0
M  V30 4968 H 452.875 -0.731055 -1.81317 0
M  V30 4969 H 451.579 -0.884616 -4.00753 0
M  V30 4970 H 451.11 0.815253 -3.8486 0
M  V30 4971 H 453.125 1.81627 -4.61764 0
M  V30 4972 N 452.299 1.55045 -0.282633 0
M  V30 4973 C 453.539 2.01668 0.333088 0
M  V30 4974 C 453.903 1.1667 1.52486 0
M  V30 4975 O 455.104 1.52907 2.21072 0
M  V30 4976 C 453.375 3.50509 0.698442 0
M  V30 4977 S 454.934 4.19112 1.29963 0
M  V30 4978 H 451.752 0.703468 0.103219 0
M  V30 4979 H 454.354 1.91233 -0.406222 0
M  V30 4980 H 453.058 4.10015 -0.177693 0
M  V30 4981 H 452.589 3.64943 1.46902 0
M  V30 4982 H 454.604 4.23362 2.58803 0
M  V30 4983 N 453.777 0.010035 1.57597 0
M  V30 4984 C 454.707 -0.976857 2.12084 0
M  V30 4985 C 455.688 -1.35191 1.03235 0
M  V30 4986 O 456.873 -1.43389 1.3097 0
M  V30 4987 C 454.003 -2.26548 2.63236 0
M  V30 4988 C 452.957 -2.03175 3.76701 0
M  V30 4989 C 452.283 -3.38138 4.14206 0
M  V30 4990 C 453.583 -1.38625 5.03568 0
M  V30 4991 H 455.277 -0.523145 2.94794 0
M  V30 4992 H 452.823 -0.250195 1.4181 0
M  V30 4993 H 454.776 -2.95952 2.99984 0
M  V30 4994 H 453.5 -2.74051 1.77661 0
M  V30 4995 H 452.159 -1.36195 3.40362 0
M  V30 4996 H 451.807 -3.83363 3.25641 0
M  V30 4997 H 451.507 -3.23312 4.90656 0
M  V30 4998 H 453.031 -4.08841 4.53521 0
M  V30 4999 H 454.445 -1.98 5.38023 0
M  V30 5000 H 452.842 -1.34256 5.84889 0
M  V30 5001 H 453.912 -0.356722 4.83586 0
M  V30 5002 N 455.255 -1.55392 -0.262866 0
M  V30 5003 C 456.203 -1.8977 -1.345 0
M  V30 5004 C 457.197 -0.775063 -1.50629 0
M  V30 5005 O 458.403 -0.959519 -1.52293 0
M  V30 5006 H 454.778 -0.602467 -0.450041 0
M  V30 5007 H 456.749 -2.80147 -1.02762 0
M  V30 5008 C 455.498 -2.19501 -2.69657 0
M  V30 5009 H 454.821 -3.05378 -2.5804 0
M  V30 5010 H 456.261 -2.47469 -3.44289 0
M  V30 5011 C 454.72 -1.00597 -3.21531 0
M  V30 5012 O 455.25 -0.245768 -4.00947 0
M  V30 5013 N 453.456 -0.800911 -2.79345 0
M  V30 5014 H 453.003 -1.42079 -2.14875 0
M  V30 5015 H 452.961 -0.00697996 -3.14399 0
M  V30 5016 N 456.733 0.527833 -1.48498 0
M  V30 5017 C 458.01 1.28905 -1.47115 0
M  V30 5018 C 458.39 2.10297 -0.184007 0
M  V30 5019 O 457.738 2.12728 0.834218 0
M  V30 5020 C 457.948 2.16866 -2.73441 0
M  V30 5021 C 459.296 2.76936 -3.21857 0
M  V30 5022 O 460.32 2.27152 -2.74373 0
M  V30 5023 O 459.179 3.67496 -4.04486 0
M  V30 5024 H 456.273 0.581918 -0.587623 0
M  V30 5025 H 458.819 0.544311 -1.60734 0
M  V30 5026 H 457.591 1.56521 -3.58632 0
M  V30 5027 H 457.214 2.98583 -2.62553 0
M  V30 5028 N 458.211 1.37122 0.776871 0
M  V30 5029 C 459.627 1.1781 1.07671 0
M  V30 5030 C 459.827 0.0107454 2.01497 0
M  V30 5031 O 458.883 -0.650756 2.4397 0
M  V30 5032 C 460.196 2.49451 1.67913 0
M  V30 5033 C 461.744 2.55927 1.80195 0
M  V30 5034 C 462.219 3.87686 2.43851 0
M  V30 5035 N 463.71 3.891 2.51307 0
M  V30 5036 C 464.445 4.87797 3.014 0
M  V30 5037 N 463.941 5.96888 3.51705 0
M  V30 5038 N 465.734 4.75205 3.00227 0
M  V30 5039 H 457.885 2.11843 0.153778 0
M  V30 5040 H 460.148 0.938927 0.130844 0
M  V30 5041 H 459.854 3.35207 1.06439 0
M  V30 5042 H 459.728 2.66169 2.67271 0
M  V30 5043 H 462.115 1.70582 2.40803 0
M  V30 5044 H 462.196 2.43097 0.796069 0
M  V30 5045 H 461.84 4.73444 1.83884 0
M  V30 5046 H 461.77 3.97817 3.45035 0
M  V30 5047 H 464.261 3.10293 2.157 0
M  V30 5048 H 464.574 6.68155 3.88316 0
M  V30 5049 H 462.919 6.0054 3.49824 0
M  V30 5050 H 466.11 3.89103 2.60224 0
M  V30 5051 H 466.283 5.52279 3.38957 0
M  V30 5052 N 459.689 -1.00246 1.21608 0
M  V30 5053 C 460.936 -1.74061 1.03485 0
M  V30 5054 C 461.264 -1.89658 -0.431308 0
M  V30 5055 O 460.519 -1.42976 -1.33627 0
M  V30 5056 C 460.818 -3.15448 1.68009 0
M  V30 5057 C 460.484 -3.19792 3.17874 0
M  V30 5058 C 459.146 -3.20685 3.58768 0
M  V30 5059 C 461.498 -3.16835 4.13842 0
M  V30 5060 C 458.826 -3.16309 4.94131 0
M  V30 5061 C 461.178 -3.14001 5.49169 0
M  V30 5062 C 459.842 -3.13204 5.89457 0
M  V30 5063 H 459.112 -0.636934 0.378677 0
M  V30 5064 H 461.759 -1.17473 1.51236 0
M  V30 5065 H 460.064 -3.75284 1.12557 0
M  V30 5066 H 461.761 -3.71285 1.51487 0
M  V30 5067 H 458.351 -3.19842 2.85305 0
M  V30 5068 H 462.535 -3.15303 3.83272 0
M  V30 5069 H 457.791 -3.14032 5.24589 0
M  V30 5070 H 461.965 -3.10667 6.23265 0
M  V30 5071 H 459.592 -3.09568 6.94314 0
M  V30 5072 N 461.167 -1.02423 -1.1978 0
M  V30 5073 C 462.583 -0.740459 -1.41384 0
M  V30 5074 C 462.783 0.676827 -1.89793 0
M  V30 5075 O 461.839 1.4435 -2.0717 0
M  V30 5076 C 463.152 -1.77264 -2.42895 0
M  V30 5077 C 464.7 -1.79165 -2.56649 0
M  V30 5078 C 465.175 -2.8133 -3.6141 0
M  V30 5079 N 466.666 -2.80118 -3.68901 0
M  V30 5080 C 467.401 -3.55824 -4.49641 0
M  V30 5081 N 466.897 -4.41231 -5.34123 0
M  V30 5082 N 468.69 -3.44387 -4.44246 0
M  V30 5083 H 460.841 -1.9391 -0.866764 0
M  V30 5084 H 463.104 -0.838074 -0.443098 0
M  V30 5085 H 462.81 -2.7884 -2.14339 0
M  V30 5086 H 462.684 -1.59108 -3.42001 0
M  V30 5087 H 465.071 -0.782702 -2.84531 0
M  V30 5088 H 465.152 -2.01396 -1.57713 0
M  V30 5089 H 464.796 -3.82394 -3.34271 0
M  V30 5090 H 464.726 -2.56359 -4.59986 0
M  V30 5091 H 467.217 -2.1817 -3.08562 0
M  V30 5092 H 467.53 -4.95747 -5.92836 0
M  V30 5093 H 465.875 -4.45306 -5.33599 0
M  V30 5094 H 469.066 -2.7708 -3.77285 0
M  V30 5095 H 469.239 -4.0364 -5.06931 0
M  V30 5096 N 462.645 1.35699 -0.801477 0
M  V30 5097 C 463.575 2.32436 -0.222658 0
M  V30 5098 C 464.556 1.5723 0.649057 0
M  V30 5099 O 465.741 1.85324 0.580387 0
M  V30 5100 C 462.871 3.41469 0.633719 0
M  V30 5101 C 461.825 4.27774 -0.139083 0
M  V30 5102 C 461.151 5.28082 0.838666 0
M  V30 5103 C 462.451 5.04946 -1.33517 0
M  V30 5104 H 464.145 2.81094 -1.03086 0
M  V30 5105 H 461.691 1.35146 -0.497155 0
M  V30 5106 H 463.644 4.08143 1.04868 0
M  V30 5107 H 462.368 2.91408 1.47475 0
M  V30 5108 H 461.027 3.62673 -0.535156 0
M  V30 5109 H 460.675 4.7429 1.67506 0
M  V30 5110 H 460.375 5.86695 0.32594 0
M  V30 5111 H 461.899 5.97628 1.25194 0
M  V30 5112 H 463.313 5.64593 -0.995349 0
M  V30 5113 H 461.71 5.7303 -1.78202 0
M  V30 5114 H 462.78 4.35886 -2.12442 0
M  V30 5115 N 464.123 0.554532 1.47522 0
M  V30 5116 C 465.371 0.0294208 2.02079 0
M  V30 5117 C 465.692 -1.32411 1.43151 0
M  V30 5118 O 464.962 -1.863 0.605728 0
M  V30 5119 H 463.542 0.00788672 0.746958 0
M  V30 5120 H 466.204 0.723934 1.80956 0
M  V30 5121 H 465.3 -0.0606745 3.12041 0
M  V30 5122 N 465.601 -1.54893 0.290851 0
M  V30 5123 C 466.848 -1.99933 -0.321391 0
M  V30 5124 C 467.176 -1.17927 -1.54672 0
M  V30 5125 O 466.431 -0.240902 -1.94212 0
M  V30 5126 C 466.73 -3.49815 -0.732397 0
M  V30 5127 C 466.396 -4.4921 0.390056 0
M  V30 5128 C 465.058 -4.76107 0.698223 0
M  V30 5129 C 467.41 -5.08453 1.14562 0
M  V30 5130 C 464.738 -5.59514 1.76526 0
M  V30 5131 C 467.09 -5.9302 2.2025 0
M  V30 5132 C 465.754 -6.18232 2.51684 0
M  V30 5133 H 465.024 -0.731608 -0.117605 0
M  V30 5134 H 467.671 -1.87107 0.407839 0
M  V30 5135 H 465.976 -3.60199 -1.54155 0
M  V30 5136 H 467.673 -3.82083 -1.21712 0
M  V30 5137 H 464.263 -4.28372 0.13976 0
M  V30 5138 H 468.447 -4.87683 0.920801 0
M  V30 5139 H 463.703 -5.77289 2.01364 0
M  V30 5140 H 467.877 -6.37955 2.7926 0
M  V30 5141 H 465.504 -6.82653 3.34499 0
M  V30 5142 N 467.08 -0.0183926 -1.57589 0
M  V30 5143 C 468.027 0.967022 -2.09565 0
M  V30 5144 C 468.997 1.32983 -0.995225 0
M  V30 5145 O 470.182 1.42501 -1.26878 0
M  V30 5146 C 467.322 2.24772 -2.61861 0
M  V30 5147 C 466.435 1.94232 -3.85873 0
M  V30 5148 C 465.57 3.16518 -4.26603 0
M  V30 5149 C 464.609 2.81748 -5.43401 0
M  V30 5150 N 463.746 3.96626 -5.79338 0
M  V30 5151 H 468.586 0.516874 -2.93483 0
M  V30 5152 H 466.123 0.243544 -1.4507 0
M  V30 5153 H 468.081 2.99667 -2.90268 0
M  V30 5154 H 466.711 2.67423 -1.8079 0
M  V30 5155 H 465.763 1.09625 -3.64262 0
M  V30 5156 H 467.075 1.64616 -4.70853 0
M  V30 5157 H 466.229 3.99743 -4.56389 0
M  V30 5158 H 464.968 3.49286 -3.40368 0
M  V30 5159 H 463.973 1.96933 -5.1332 0
M  V30 5160 H 465.198 2.50207 -6.31327 0
M  V30 5161 H 463.144 4.29257 -4.96059 0
M  V30 5162 H 463.061 3.70598 -6.58933 0
M  V30 5163 H 464.329 4.80586 -6.13724 0
M  V30 5164 N 468.558 1.5553 0.254621 0
M  V30 5165 C 469.508 1.86057 1.31783 0
M  V30 5166 C 470.492 0.720827 1.4385 0
M  V30 5167 O 471.684 0.982586 1.47222 0
M  V30 5168 C 468.813 2.15203 2.67475 0
M  V30 5169 C 467.899 3.35484 2.59444 0
M  V30 5170 N 468.29 4.54945 2.2104 0
M  V30 5171 C 466.588 3.38441 2.90472 0
M  V30 5172 C 467.289 5.3707 2.23453 0
M  V30 5173 N 466.265 4.75936 2.62652 0
M  V30 5174 H 470.067 2.75953 1.01129 0
M  V30 5175 H 467.581 1.55653 0.463255 0
M  V30 5176 H 469.578 2.35235 3.44195 0
M  V30 5177 H 468.238 1.26601 2.99002 0
M  V30 5178 H 469.249 4.8071 1.92712 0
M  V30 5179 H 465.926 2.60087 3.2659 0
M  V30 5180 H 467.316 6.42626 1.96166 0
M  V30 5181 N 470.036 -0.519951 1.48776 0
M  V30 5182 C 470.999 -1.60574 1.6355 0
M  V30 5183 C 471.999 -1.52557 0.508234 0
M  V30 5184 O 473.189 -1.56047 0.774262 0
M  V30 5185 C 470.321 -3.00211 1.61512 0
M  V30 5186 H 471.514 -1.4881 2.60376 0
M  V30 5187 H 469.067 -0.742772 1.37523 0
M  V30 5188 H 469.802 -3.17471 0.662009 0
M  V30 5189 H 469.587 -3.07439 2.43359 0
M  V30 5190 H 471.077 -3.79134 1.75064 0
M  V30 5191 N 471.514 -1.37532 -0.769588 0
M  V30 5192 C 472.761 -1.3286 -1.52822 0
M  V30 5193 C 473.089 0.0862597 -1.94309 0
M  V30 5194 O 472.344 1.05995 -1.6451 0
M  V30 5195 C 472.643 -2.21558 -2.8044 0
M  V30 5196 C 472.309 -3.69796 -2.57996 0
M  V30 5197 C 470.971 -4.10194 -2.51583 0
M  V30 5198 C 473.323 -4.63699 -2.37976 0
M  V30 5199 C 470.651 -5.42608 -2.23144 0
M  V30 5200 C 473.003 -5.96353 -2.1106 0
M  V30 5201 C 471.667 -6.35853 -2.03093 0
M  V30 5202 H 470.937 -0.486168 -0.559215 0
M  V30 5203 H 473.584 -1.69757 -0.886277 0
M  V30 5204 H 471.889 -1.77663 -3.49204 0
M  V30 5205 H 473.586 -2.15256 -3.38328 0
M  V30 5206 H 470.176 -3.37759 -2.63851 0
M  V30 5207 H 474.36 -4.33346 -2.41919 0
M  V30 5208 H 469.616 -5.72173 -2.15472 0
M  V30 5209 H 473.79 -6.68667 -1.94568 0
M  V30 5210 H 471.417 -7.38382 -1.8082 0
M  V30 5211 N 472.992 0.995999 -1.22138 0
M  V30 5212 C 474.408 1.25917 -0.980667 0
M  V30 5213 C 474.608 1.98819 0.327604 0
M  V30 5214 O 473.664 2.29587 1.05101 0
M  V30 5215 C 474.977 2.07399 -2.17729 0
M  V30 5216 C 476.525 2.20594 -2.22052 0
M  V30 5217 C 477 3.05462 -3.41258 0
M  V30 5218 N 478.491 3.13049 -3.41401 0
M  V30 5219 C 479.226 3.78997 -4.30289 0
M  V30 5220 N 478.722 4.46899 -5.2939 0
M  V30 5221 N 480.515 3.75728 -4.18073 0
M  V30 5222 H 472.666 0.507158 -2.06256 0
M  V30 5223 H 474.929 0.28658 -0.903646 0
M  V30 5224 H 474.635 1.61191 -3.12586 0
M  V30 5225 H 474.509 3.08154 -2.17534 0
M  V30 5226 H 476.896 2.66017 -1.27745 0
M  V30 5227 H 476.977 1.1928 -2.26287 0
M  V30 5228 H 476.621 2.60739 -4.35864 0
M  V30 5229 H 476.551 4.06911 -3.34262 0
M  V30 5230 H 479.042 2.64721 -2.69688 0
M  V30 5231 H 479.355 4.94952 -5.935 0
M  V30 5232 H 477.7 4.45657 -5.33306 0
M  V30 5233 H 480.891 3.2184 -3.39907 0
M  V30 5234 H 481.064 4.26845 -4.87553 0
M  V30 5235 N 474.47 1.03057 1.19235 0
M  V30 5236 C 475.71 0.736757 1.9066 0
M  V30 5237 C 476.074 -0.721521 1.77927 0
M  V30 5238 O 477.275 -1.12849 2.43964 0
M  V30 5239 C 475.546 1.17755 3.37444 0
M  V30 5240 S 477.105 1.00783 4.27069 0
M  V30 5241 H 473.923 0.268174 0.658486 0
M  V30 5242 H 476.525 1.32076 1.4414 0
M  V30 5243 H 475.229 2.23448 3.44237 0
M  V30 5244 H 474.76 0.586912 3.88997 0
M  V30 5245 H 476.775 -0.0806356 4.96134 0
M  V30 5246 N 475.948 -1.35272 0.808662 0
M  V30 5247 C 477.188 -2.00534 0.395668 0
M  V30 5248 C 477.552 -1.62755 -1.01857 0
M  V30 5249 O 478.753 -2.20752 -1.53368 0
M  V30 5250 C 477.024 -3.52732 0.575771 0
M  V30 5251 S 478.583 -4.38067 0.253507 0
M  V30 5252 H 475.401 -0.694962 0.150165 0
M  V30 5253 H 478.003 -1.64823 1.05137 0
M  V30 5254 H 476.707 -3.77714 1.60499 0
M  V30 5255 H 476.238 -3.93285 -0.0951739 0
M  V30 5256 H 478.253 -4.87252 -0.938068 0
M  V30 5257 N 477.426 -0.562348 -1.47226 0
M  V30 5258 C 478.837 -0.130325 -1.86245 0
M  V30 5259 C 479.188 1.30128 -1.46838 0
M  V30 5260 O 478.313 1.97974 -0.873805 0
M  V30 5261 C 478.908 -0.229738 -3.3802 0
M  V30 5262 C 477.467 0.14728 -3.76112 0
M  V30 5263 C 476.614 -0.574971 -2.71274 0
M  V30 5264 H 479.565 -0.771773 -1.3867 0
M  V30 5265 H 479.586 0.550316 -3.76499 0
M  V30 5266 H 479.098 -1.27178 -3.66671 0
M  V30 5267 H 477.199 1.19023 -3.53078 0
M  V30 5268 H 477.312 -0.214858 -4.78618 0
M  V30 5269 H 475.676 -0.0174756 -2.54694 0
M  V30 5270 H 476.459 -1.61827 -3.02766 0
M  V30 5271 N 478.904 1.54736 -0.299062 0
M  V30 5272 C 480.151 2.00101 0.310784 0
M  V30 5273 C 480.479 1.18746 1.54045 0
M  V30 5274 O 479.734 0.251198 1.94081 0
M  V30 5275 C 480.033 3.50199 0.713835 0
M  V30 5276 C 479.699 4.48997 -0.413873 0
M  V30 5277 C 478.361 4.7573 -0.723462 0
M  V30 5278 C 480.713 5.07839 -1.17257 0
M  V30 5279 C 478.041 5.5857 -1.79491 0
M  V30 5280 C 480.393 5.91844 -2.23392 0
M  V30 5281 C 479.057 6.16889 -2.54959 0
M  V30 5282 H 478.327 0.732221 0.113724 0
M  V30 5283 H 480.974 1.86888 -0.417756 0
M  V30 5284 H 479.279 3.61012 1.52243 0
M  V30 5285 H 480.976 3.82723 1.19684 0
M  V30 5286 H 477.566 4.28292 -0.162476 0
M  V30 5287 H 481.75 4.87188 -0.946651 0
M  V30 5288 H 477.006 5.76213 -2.04423 0
M  V30 5289 H 481.18 6.36465 -2.8264 0
M  V30 5290 H 478.807 6.80869 -3.38114 0
M  V30 5291 N 480.382 0.0267497 1.57577 0
M  V30 5292 C 481.631 -0.651736 1.9088 0
M  V30 5293 C 481.944 -1.73427 0.904576 0
M  V30 5294 O 483.15 -2.46923 1.12877 0
M  V30 5295 C 481.606 -1.21048 3.38933 0
M  V30 5296 C 481.214 -0.161362 4.47709 0
M  V30 5297 C 482.958 -1.86562 3.81307 0
M  V30 5298 C 480.865 -0.731611 5.86857 0
M  V30 5299 H 479.795 -0.247198 0.712326 0
M  V30 5300 H 482.446 0.0916641 1.83271 0
M  V30 5301 H 480.828 -2.00542 3.41466 0
M  V30 5302 H 482.002 0.61094 4.56732 0
M  V30 5303 H 480.317 0.394877 4.14523 0
M  V30 5304 H 482.914 -2.30178 4.8262 0
M  V30 5305 H 483.257 -2.70735 3.16241 0
M  V30 5306 H 483.79 -1.13762 3.81186 0
M  V30 5307 H 480.529 0.0719329 6.55461 0
M  V30 5308 H 480.049 -1.47245 5.81445 0
M  V30 5309 H 481.728 -1.22208 6.35354 0
M  V30 5310 N 481.861 -1.55662 -0.24637 0
M  V30 5311 C 483.086 -1.81914 -0.996093 0
M  V30 5312 C 483.511 -0.603875 -1.78143 0
M  V30 5313 O 482.869 0.447091 -1.75701 0
M  V30 5314 C 482.917 -3.05908 -1.90925 0
M  V30 5315 O 482.021 -2.82861 -3.00105 0
M  V30 5316 H 481.362 -0.600481 -0.283406 0
M  V30 5317 H 483.892 -2.02848 -0.267199 0
M  V30 5318 H 483.902 -3.35356 -2.3238 0
M  V30 5319 H 482.577 -3.93999 -1.33183 0
M  V30 5320 H 481.154 -2.64583 -2.62775 0
M  V30 5321 N 483.339 0.512053 -1.4905 0
M  V30 5322 C 484.302 1.59704 -1.64399 0
M  V30 5323 C 485.302 1.52285 -0.516317 0
M  V30 5324 O 486.492 1.55635 -0.782527 0
M  V30 5325 C 483.624 2.9935 -1.63102 0
M  V30 5326 H 484.817 1.47428 -2.61161 0
M  V30 5327 H 482.37 0.735469 -1.37915 0
M  V30 5328 H 483.105 3.17116 -0.678836 0
M  V30 5329 H 482.89 3.06144 -2.44986 0
M  V30 5330 H 484.38 3.782 -1.77072 0
M  V30 5331 N 484.817 1.37938 0.762283 0
M  V30 5332 C 486.065 1.33404 1.51815 0
M  V30 5333 C 486.386 -0.0780975 1.94844 0
M  V30 5334 O 485.656 -1.02405 1.67003 0
M  V30 5335 H 484.236 0.490839 0.563104 0
M  V30 5336 H 486.898 1.72527 0.906669 0
M  V30 5337 H 485.994 1.97926 2.41313 0
M  V30 5338 N 486.295 -0.989507 1.22664 0
M  V30 5339 C 487.572 -1.70326 0.961688 0
M  V30 5340 C 487.952 -2.04537 -0.522279 0
M  V30 5341 O 487.3 -1.73136 -1.49118 0
M  V30 5342 C 487.51 -2.95135 1.86269 0
M  V30 5343 C 488.858 -3.67842 2.12078 0
M  V30 5344 O 489.882 -3.0515 1.83745 0
M  V30 5345 O 488.741 -4.80644 2.60083 0
M  V30 5346 H 485.835 -0.743589 0.361946 0
M  V30 5347 H 488.381 -1.04555 1.33665 0
M  V30 5348 H 487.153 -2.66382 2.8663 0
M  V30 5349 H 486.776 -3.68645 1.48952 0
M  V30 5350 N 487.773 -1.03688 -1.18687 0
M  V30 5351 C 489.003 -0.756819 -1.92239 0
M  V30 5352 C 489.411 0.689374 -1.76194 0
M  V30 5353 O 488.754 1.48126 -1.08648 0
M  V30 5354 C 488.816 -1.03851 -3.44173 0
M  V30 5355 C 488.48 -2.47785 -3.83994 0
M  V30 5356 C 489.477 -3.4595 -3.88091 0
M  V30 5357 C 487.162 -2.82397 -4.154 0
M  V30 5358 C 489.156 -4.76779 -4.23038 0
M  V30 5359 C 486.843 -4.13433 -4.50018 0
M  V30 5360 C 487.841 -5.10434 -4.53813 0
M  V30 5361 O 487.529 -6.39122 -4.87625 0
M  V30 5362 H 487.261 -0.275678 -0.617234 0
M  V30 5363 H 489.815 -1.38658 -1.51536 0
M  V30 5364 H 488.045 -0.351612 -3.85098 0
M  V30 5365 H 489.734 -0.746846 -3.9897 0
M  V30 5366 H 490.5 -3.20549 -3.63969 0
M  V30 5367 H 486.379 -2.07568 -4.11627 0
M  V30 5368 H 489.923 -5.52488 -4.25914 0
M  V30 5369 H 485.82 -4.38604 -4.736 0
M  V30 5370 H 486.588 -6.43715 -5.05542 0
M  V30 5371 N 489.251 1.34841 -0.815825 0
M  V30 5372 C 490.161 2.33425 -0.234462 0
M  V30 5373 C 491.177 1.62295 0.627413 0
M  V30 5374 O 492.353 1.94109 0.536987 0
M  V30 5375 C 489.418 3.41471 0.599849 0
M  V30 5376 C 488.479 4.28362 -0.283596 0
M  V30 5377 C 487.712 5.31248 0.51099 0
M  V30 5378 O 487.935 5.43056 1.7449 0
M  V30 5379 O 486.869 6.01812 -0.10297 0
M  V30 5380 H 490.695 2.84962 -1.05024 0
M  V30 5381 H 488.28 1.37774 -0.577809 0
M  V30 5382 H 490.162 4.07464 1.07475 0
M  V30 5383 H 488.837 2.9219 1.39308 0
M  V30 5384 H 487.744 3.65318 -0.805836 0
M  V30 5385 H 489.077 4.81066 -1.041 0
M  V30 5386 N 490.729 0.570148 1.46925 0
M  V30 5387 C 491.977 0.0508523 2.02036 0
M  V30 5388 C 492.298 -1.30885 1.44548 0
M  V30 5389 O 491.568 -1.85647 0.625453 0
M  V30 5390 H 490.148 0.0158088 0.746833 0
M  V30 5391 H 492.81 0.743086 1.80178 0
M  V30 5392 H 491.906 -0.027575 3.12088 0
M  V30 5393 N 492.207 -1.54576 0.307264 0
M  V30 5394 C 493.137 -2.26708 -0.55907 0
M  V30 5395 C 494.118 -1.26893 -1.1328 0
M  V30 5396 O 495.303 -1.55677 -1.16097 0
M  V30 5397 C 492.433 -3.01259 -1.72801 0
M  V30 5398 C 491.387 -4.08275 -1.28435 0
M  V30 5399 C 490.713 -4.70575 -2.53895 0
M  V30 5400 C 492.013 -5.2068 -0.411038 0
M  V30 5401 H 493.707 -2.9937 0.042576 0
M  V30 5402 H 491.253 -1.43983 0.0219173 0
M  V30 5403 H 493.206 -3.50444 -2.34023 0
M  V30 5404 H 491.93 -2.26187 -2.356 0
M  V30 5405 H 490.589 -3.59949 -0.695161 0
M  V30 5406 H 490.237 -3.92136 -3.15021 0
M  V30 5407 H 489.937 -5.42854 -2.24908 0
M  V30 5408 H 491.461 -5.22527 -3.15908 0
M  V30 5409 H 492.875 -5.65721 -0.929097 0
M  V30 5410 H 491.272 -5.99716 -0.214664 0
M  V30 5411 H 492.342 -4.81629 0.562287 0
M  V30 5412 N 493.685 -0.035106 -1.57561 0
M  V30 5413 C 494.595 0.960295 -2.14046 0
M  V30 5414 C 495.611 1.3529 -1.0942 0
M  V30 5415 O 496.787 1.43309 -1.41508 0
M  V30 5416 C 493.852 2.22214 -2.66124 0
M  V30 5417 C 492.913 1.8894 -3.85487 0
M  V30 5418 C 492.146 3.09109 -4.35072 0
M  V30 5419 O 492.369 4.21963 -3.83802 0
M  V30 5420 O 491.303 2.91058 -5.26848 0
M  V30 5421 H 495.129 0.509983 -2.99387 0
M  V30 5422 H 492.714 0.185853 -1.48239 0
M  V30 5423 H 494.596 2.96279 -2.99661 0
M  V30 5424 H 493.271 2.66414 -1.83862 0
M  V30 5425 H 492.178 1.12241 -3.56865 0
M  V30 5426 H 493.511 1.49551 -4.6893 0
M  V30 5427 N 495.163 1.55791 0.238111 0
M  V30 5428 C 496.096 1.86036 1.32158 0
M  V30 5429 C 497.074 0.716216 1.45976 0
M  V30 5430 O 498.258 0.962882 1.62052 0
M  V30 5431 C 495.385 2.05281 2.69402 0
M  V30 5432 C 494.431 3.27939 2.72687 0
M  V30 5433 S 495.264 4.84342 2.28413 0
M  V30 5434 C 496.42 5.06604 3.67565 0
M  V30 5435 H 496.653 2.77644 1.06306 0
M  V30 5436 H 494.186 1.48012 0.439537 0
M  V30 5437 H 496.144 2.17053 3.48423 0
M  V30 5438 H 494.805 1.14499 2.92487 0
M  V30 5439 H 493.998 3.38398 3.73501 0
M  V30 5440 H 493.6 3.14938 2.01717 0
M  V30 5441 H 495.892 4.94486 4.6313 0
M  V30 5442 H 496.835 6.08554 3.62033 0
M  V30 5443 H 497.243 4.34409 3.60485 0
M  V30 5444 N 496.642 -0.504142 1.49319 0
M  V30 5445 C 497.589 -1.60603 1.65756 0
M  V30 5446 C 498.559 -1.58425 0.499082 0
M  V30 5447 O 499.744 -1.76459 0.725728 0
M  V30 5448 C 496.884 -2.98764 1.72726 0
M  V30 5449 C 495.997 -3.10982 2.99857 0
M  V30 5450 C 495.132 -4.39857 2.97824 0
M  V30 5451 C 494.171 -4.45697 4.19548 0
M  V30 5452 N 493.308 -5.65995 4.15444 0
M  V30 5453 H 498.148 -1.45895 2.59843 0
M  V30 5454 H 495.685 -0.709891 1.28837 0
M  V30 5455 H 497.643 -3.78839 1.74747 0
M  V30 5456 H 496.273 -3.12183 0.821075 0
M  V30 5457 H 495.325 -2.23991 3.07461 0
M  V30 5458 H 496.637 -3.11157 3.89849 0
M  V30 5459 H 495.791 -5.2825 2.98391 0
M  V30 5460 H 494.53 -4.42242 2.05604 0
M  V30 5461 H 493.535 -3.55707 4.19229 0
M  V30 5462 H 494.76 -4.4503 5.12957 0
M  V30 5463 H 492.706 -5.69229 3.26059 0
M  V30 5464 H 492.623 -5.67773 4.99169 0
M  V30 5465 H 493.891 -6.56604 4.20109 0
M  V30 5466 N 498.12 -1.38341 -0.754957 0
M  V30 5467 C 499.345 -1.37882 -1.5493 0
M  V30 5468 C 499.77 0.0296385 -1.88077 0
M  V30 5469 O 499.128 1.01133 -1.50472 0
M  V30 5470 C 499.176 -2.23996 -2.82592 0
M  V30 5471 O 498.28 -1.65612 -3.77686 0
M  V30 5472 H 497.621 -0.470384 -0.468652 0
M  V30 5473 H 500.151 -1.82084 -0.933082 0
M  V30 5474 H 500.161 -2.37806 -3.3153 0
M  V30 5475 H 498.836 -3.26365 -2.57796 0
M  V30 5476 H 497.413 -1.60936 -3.36384 0
M  V30 5477 N 499.598 0.982988 -1.23187 0
M  V30 5478 C 500.826 1.75921 -1.08901 0
M  V30 5479 C 501.241 1.85341 0.359719 0
M  V30 5480 O 500.598 1.33072 1.24892 0
M  V30 5481 C 500.649 3.18742 -1.70545 0
M  V30 5482 O 500.37 3.09814 -3.09753 0
M  V30 5483 C 501.871 4.1277 -1.61667 0
M  V30 5484 H 499.091 0.552166 -0.381252 0
M  V30 5485 H 501.635 1.23516 -1.62985 0
M  V30 5486 H 499.79 3.68182 -1.20501 0
M  V30 5487 H 500.204 3.99703 -3.39614 0
M  V30 5488 H 501.678 5.10697 -2.09506 0
M  V30 5489 H 502.155 4.3542 -0.575009 0
M  V30 5490 H 502.761 3.69232 -2.11064 0
M  V30 5491 N 501.076 1.04316 1.18135 0
M  V30 5492 C 502.492 0.762858 1.40188 0
M  V30 5493 C 502.692 -0.646547 1.90846 0
M  V30 5494 O 501.748 -1.41036 2.0944 0
M  V30 5495 C 503.061 1.81106 2.40044 0
M  V30 5496 C 504.609 1.83226 2.53766 0
M  V30 5497 C 505.084 2.87044 3.56889 0
M  V30 5498 N 506.575 2.85951 3.64398 0
M  V30 5499 C 507.31 3.62932 4.43923 0
M  V30 5500 N 506.806 4.49672 5.27036 0
M  V30 5501 N 508.599 3.51411 4.38711 0
M  V30 5502 H 500.75 1.95264 0.835805 0
M  V30 5503 H 503.013 0.845017 0.429709 0
M  V30 5504 H 502.719 2.82214 2.09876 0
M  V30 5505 H 502.593 1.64529 3.39426 0
M  V30 5506 H 504.98 0.827869 2.8325 0
M  V30 5507 H 505.061 2.03879 1.54489 0
M  V30 5508 H 504.705 3.87663 3.28145 0
M  V30 5509 H 504.635 2.63645 4.5585 0
M  V30 5510 H 507.126 2.23051 3.05052 0
M  V30 5511 H 507.439 5.05116 5.84874 0
M  V30 5512 H 505.784 4.53738 5.26447 0
M  V30 5513 H 508.975 2.83047 3.72829 0
M  V30 5514 H 509.148 4.11654 5.00445 0
M  V30 5515 N 502.554 -1.34406 0.822964 0
M  V30 5516 C 503.784 -2.02214 0.423424 0
M  V30 5517 C 504.192 -1.62124 -0.975322 0
M  V30 5518 O 503.535 -0.822452 -1.6426 0
M  V30 5519 C 503.597 -3.56721 0.446107 0
M  V30 5520 C 503.261 -4.20136 1.79819 0
M  V30 5521 C 504.258 -4.4065 2.75904 0
M  V30 5522 C 501.943 -4.56906 2.08669 0
M  V30 5523 C 503.937 -4.9706 3.99012 0
M  V30 5524 C 501.624 -5.13026 3.32036 0
M  V30 5525 C 502.622 -5.33047 4.27024 0
M  V30 5526 O 502.31 -5.87979 5.48211 0
M  V30 5527 H 502.042 -0.654748 0.168169 0
M  V30 5528 H 504.596 -1.72659 1.11257 0
M  V30 5529 H 502.826 -3.85537 -0.299734 0
M  V30 5530 H 504.515 -4.05845 0.0666114 0
M  V30 5531 H 505.281 -4.12607 2.54912 0
M  V30 5532 H 501.16 -4.40626 1.35535 0
M  V30 5533 H 504.704 -5.12603 4.73164 0
M  V30 5534 H 500.601 -5.40498 3.52891 0
M  V30 5535 H 501.369 -6.06413 5.49732 0
M  V30 5536 N 504.032 -0.577932 -1.46621 0
M  V30 5537 C 504.962 0.145917 -2.33044 0
M  V30 5538 C 505.943 0.888412 -1.45056 0
M  V30 5539 O 507.128 0.864812 -1.73881 0
M  V30 5540 C 504.258 1.16322 -3.27241 0
M  V30 5541 C 503.212 0.535868 -4.24632 0
M  V30 5542 C 502.538 1.65929 -5.08303 0
M  V30 5543 C 503.838 -0.523861 -5.19666 0
M  V30 5544 H 505.532 -0.575636 -2.93814 0
M  V30 5545 H 503.078 -0.278272 -1.41286 0
M  V30 5546 H 505.031 1.67793 -3.86553 0
M  V30 5547 H 503.755 1.91498 -2.64567 0
M  V30 5548 H 502.414 0.0422759 -3.66576 0
M  V30 5549 H 502.062 2.40061 -4.42018 0
M  V30 5550 H 501.762 1.2452 -5.74255 0
M  V30 5551 H 503.286 2.17686 -5.70478 0
M  V30 5552 H 504.7 -0.0944059 -5.73222 0
M  V30 5553 H 503.097 -0.858 -5.93935 0
M  V30 5554 H 504.167 -1.41197 -4.63887 0
M  V30 5555 N 505.51 1.54411 -0.315457 0
M  V30 5556 C 506.442 2.21527 0.588067 0
M  V30 5557 C 507.455 1.21263 1.08624 0
M  V30 5558 O 508.644 1.47777 1.00121 0
M  V30 5559 C 505.744 2.85963 1.81875 0
M  V30 5560 C 504.917 4.12291 1.46063 0
M  V30 5561 C 503.976 4.60396 2.54799 0
M  V30 5562 O 503.002 5.25265 2.19283 0
M  V30 5563 N 504.204 4.33935 3.85591 0
M  V30 5564 H 506.969 2.99697 0.013414 0
M  V30 5565 H 504.53 1.61308 -0.138295 0
M  V30 5566 H 506.522 3.15071 2.53993 0
M  V30 5567 H 505.092 2.11548 2.30144 0
M  V30 5568 H 504.312 3.90036 0.571445 0
M  V30 5569 H 505.6 4.9452 1.19695 0
M  V30 5570 H 504.998 3.81996 4.17248 0
M  V30 5571 H 503.555 4.67718 4.53964 0
M  V30 5572 N 506.988 0.0434614 1.5754 0
M  V30 5573 C 508.216 -0.641835 1.96693 0
M  V30 5574 C 508.631 -1.64832 0.920652 0
M  V30 5575 O 507.988 -1.82247 -0.095993 0
M  V30 5576 C 508.039 -1.33557 3.35924 0
M  V30 5577 O 507.76 -0.369403 4.3654 0
M  V30 5578 C 509.261 -2.11135 3.89791 0
M  V30 5579 H 506.481 -0.176013 0.647503 0
M  V30 5580 H 509.025 0.107478 2.04217 0
M  V30 5581 H 507.18 -2.03617 3.29574 0
M  V30 5582 H 507.594 -0.863674 5.1734 0
M  V30 5583 H 509.068 -2.55107 4.89514 0
M  V30 5584 H 509.545 -2.95634 3.24803 0
M  V30 5585 H 510.151 -1.46002 3.99454 0
M  V30 5586 N 508.466 -1.55915 -0.229846 0
M  V30 5587 C 509.398 -1.88209 -1.30805 0
M  V30 5588 C 510.411 -0.769672 -1.43457 0
M  V30 5589 O 511.6 -1.04792 -1.44502 0
M  V30 5590 C 508.7 -2.06829 -2.68468 0
M  V30 5591 C 507.873 -3.37798 -2.77869 0
M  V30 5592 C 506.932 -3.45952 -3.96489 0
M  V30 5593 O 505.958 -4.19043 -3.85216 0
M  V30 5594 N 507.16 -2.76488 -5.10426 0
M  V30 5595 H 509.925 -2.81286 -1.03431 0
M  V30 5596 H 507.486 -1.5636 -0.41991 0
M  V30 5597 H 509.478 -2.09608 -3.46189 0
M  V30 5598 H 508.048 -1.20416 -2.88477 0
M  V30 5599 H 507.268 -3.4719 -1.86689 0
M  V30 5600 H 508.556 -4.24091 -2.81113 0
M  V30 5601 H 507.954 -2.16868 -5.2248 0
M  V30 5602 H 506.511 -2.84938 -5.8622 0
M  V30 5603 N 509.944 0.496216 -1.49584 0
M  V30 5604 C 511.192 1.24756 -1.58998 0
M  V30 5605 C 511.513 1.92968 -0.280775 0
M  V30 5606 O 510.783 1.82959 0.700198 0
M  V30 5607 H 509.363 0.463471 -0.585836 0
M  V30 5608 H 512.025 0.574678 -1.86235 0
M  V30 5609 H 511.121 2.00895 -2.38847 0
M  V30 5610 N 511.423 1.38739 0.74761 0
M  V30 5611 C 512.648 1.38702 1.54197 0
M  V30 5612 C 513.073 -0.019664 1.8809 0
M  V30 5613 O 512.431 -1.00333 1.51006 0
M  V30 5614 C 512.479 2.25492 2.814 0
M  V30 5615 O 511.583 1.67613 3.76802 0
M  V30 5616 H 510.924 0.472863 0.466151 0
M  V30 5617 H 513.454 1.82577 0.923413 0
M  V30 5618 H 513.464 2.39561 3.30264 0
M  V30 5619 H 512.139 3.27727 2.56062 0
M  V30 5620 H 510.716 1.62718 3.35526 0
M  V30 5621 N 512.901 -0.976442 1.23707 0
M  V30 5622 C 514.147 -1.72081 1.07312 0
M  V30 5623 C 514.48 -1.90275 -0.388476 0
M  V30 5624 O 513.755 -1.4579 -1.28746 0
M  V30 5625 C 514.038 -3.11675 1.80363 0
M  V30 5626 C 513.891 -3.01027 3.3422 0
M  V30 5627 C 515.21 -4.1117 1.5693 0
M  V30 5628 H 512.329 -0.624583 0.391236 0
M  V30 5629 H 514.971 -1.13649 1.52263 0
M  V30 5630 H 513.121 -3.61559 1.42153 0
M  V30 5631 H 514.793 -2.58637 3.81975 0
M  V30 5632 H 513.036 -2.3744 3.63049 0
M  V30 5633 H 513.707 -3.9988 3.80525 0
M  V30 5634 H 516.183 -3.7011 1.90151 0
M  V30 5635 H 515.059 -5.06928 2.10513 0
M  V30 5636 H 515.32 -4.392 0.505548 0
M  V30 5637 N 514.379 -1.04941 -1.1758 0
M  V30 5638 C 515.609 -0.777166 -1.91425 0
M  V30 5639 C 516.017 0.670647 -1.76915 0
M  V30 5640 O 515.36 1.46965 -1.10213 0
M  V30 5641 C 515.422 -1.07495 -3.43052 0
M  V30 5642 C 515.086 -2.51844 -3.81345 0
M  V30 5643 C 516.083 -3.50047 -3.844 0
M  V30 5644 C 513.768 -2.86787 -4.12382 0
M  V30 5645 C 515.762 -4.81239 -4.17957 0
M  V30 5646 C 513.449 -4.18182 -4.45608 0
M  V30 5647 C 514.447 -5.15219 -4.48373 0
M  V30 5648 O 514.135 -6.44258 -4.80819 0
M  V30 5649 H 513.867 -0.282209 -0.614275 0
M  V30 5650 H 516.421 -1.40258 -1.50056 0
M  V30 5651 H 514.651 -0.392437 -3.84704 0
M  V30 5652 H 516.34 -0.78912 -3.98155 0
M  V30 5653 H 517.106 -3.24391 -3.60548 0
M  V30 5654 H 512.985 -2.11922 -4.09402 0
M  V30 5655 H 516.529 -5.56974 -4.2003 0
M  V30 5656 H 512.426 -4.43602 -4.68922 0
M  V30 5657 H 513.194 -6.49041 -4.98686 0
M  V30 5658 N 515.857 1.33968 -0.830081 0
M  V30 5659 C 516.804 2.29387 -0.255008 0
M  V30 5660 C 517.774 1.53923 0.624243 0
M  V30 5661 O 518.959 1.82262 0.564372 0
M  V30 5662 C 516.099 3.4034 0.571209 0
M  V30 5663 C 515.212 4.30729 -0.331083 0
M  V30 5664 C 514.347 5.2879 0.505389 0
M  V30 5665 C 513.386 6.10819 -0.395843 0
M  V30 5666 N 512.523 7.00948 0.401979 0
M  V30 5667 H 517.363 2.77972 -1.07404 0
M  V30 5668 H 514.9 1.36785 -0.541133 0
M  V30 5669 H 516.858 4.03361 1.06562 0
M  V30 5670 H 515.488 2.9297 1.35529 0
M  V30 5671 H 514.54 3.68507 -0.943759 0
M  V30 5672 H 515.852 4.88181 -1.02377 0
M  V30 5673 H 515.006 5.97297 1.06399 0
M  V30 5674 H 513.745 4.71894 1.23155 0
M  V30 5675 H 512.75 5.41238 -0.966529 0
M  V30 5676 H 513.975 6.69797 -1.12023 0
M  V30 5677 H 511.921 6.46512 1.11168 0
M  V30 5678 H 511.838 7.55643 -0.232167 0
M  V30 5679 H 513.106 7.73774 0.943102 0
M  V30 5680 N 517.335 0.585699 1.46312 0
M  V30 5681 C 518.581 0.0725284 2.0267 0
M  V30 5682 C 518.914 -1.28523 1.45586 0
M  V30 5683 O 518.189 -1.84283 0.622101 0
M  V30 5684 C 518.472 0.0099788 3.60099 0
M  V30 5685 C 518.325 1.39685 4.27561 0
M  V30 5686 C 519.644 -0.689117 4.34671 0
M  V30 5687 H 516.763 0.0278307 0.736474 0
M  V30 5688 H 519.405 0.753472 1.74421 0
M  V30 5689 H 517.555 -0.56992 3.84297 0
M  V30 5690 H 519.227 2.02215 4.14617 0
M  V30 5691 H 517.47 1.96374 3.86807 0
M  V30 5692 H 518.141 1.30553 5.36339 0
M  V30 5693 H 520.617 -0.196446 4.15636 0
M  V30 5694 H 519.493 -0.701921 5.44393 0
M  V30 5695 H 519.754 -1.75101 4.05946 0
M  V30 5696 N 518.813 -1.54241 0.323641 0
M  V30 5697 C 520.038 -2.05452 -0.283605 0
M  V30 5698 C 520.463 -1.19823 -1.44997 0
M  V30 5699 O 519.821 -0.207358 -1.8011 0
M  V30 5700 C 519.869 -3.53823 -0.695795 0
M  V30 5701 O 518.973 -3.71134 -1.79815 0
M  V30 5702 H 518.314 -0.662024 -0.0511917 0
M  V30 5703 H 520.844 -1.99079 0.472073 0
M  V30 5704 H 520.854 -3.96094 -0.978434 0
M  V30 5705 H 519.529 -4.15602 0.157287 0
M  V30 5706 H 518.106 -3.40768 -1.51431 0
M  V30 5707 N 520.291 -0.0518155 -1.57515 0
M  V30 5708 C 521.707 0.304735 -1.56664 0
M  V30 5709 C 521.907 1.71395 -1.05953 0
M  V30 5710 O 520.963 2.42123 -0.716414 0
M  V30 5711 C 522.276 0.132614 -3.00407 0
M  V30 5712 C 523.824 0.20367 -3.12337 0
M  V30 5713 C 524.299 0.0600706 -4.57961 0
M  V30 5714 N 525.79 0.116326 -4.63054 0
M  V30 5715 C 526.525 0.0293363 -5.73392 0
M  V30 5716 N 526.021 -0.110038 -6.92713 0
M  V30 5717 N 527.814 0.0849651 -5.62036 0
M  V30 5718 H 519.965 -0.973056 -1.888 0
M  V30 5719 H 522.228 -0.377781 -0.869474 0
M  V30 5720 H 521.934 -0.839019 -3.41546 0
M  V30 5721 H 521.808 0.893376 -3.66468 0
M  V30 5722 H 524.195 1.16578 -2.71097 0
M  V30 5723 H 524.276 -0.587857 -2.48954 0
M  V30 5724 H 523.92 -0.898715 -4.99886 0
M  V30 5725 H 523.85 0.87075 -5.19351 0
M  V30 5726 H 526.341 0.22327 -3.7724 0
M  V30 5727 H 526.654 -0.169104 -7.72615 0
M  V30 5728 H 524.999 -0.145132 -6.94848 0
M  V30 5729 H 528.19 0.192411 -4.67704 0
M  V30 5730 H 528.363 0.0137131 -6.47999 0
M  V30 5731 N 521.769 1.56035 0.221574 0
M  V30 5732 C 522.699 1.95434 1.2778 0
M  V30 5733 C 523.68 0.822564 1.48889 0
M  V30 5734 O 524.865 1.08486 1.61072 0
M  V30 5735 C 521.995 2.27102 2.62759 0
M  V30 5736 C 520.949 3.4277 2.56306 0
M  V30 5737 C 520.275 3.60043 3.95314 0
M  V30 5738 C 521.575 4.77742 2.11093 0
M  V30 5739 H 523.269 2.83912 0.950504 0
M  V30 5740 H 520.815 1.36596 0.455791 0
M  V30 5741 H 522.768 2.53256 3.36807 0
M  V30 5742 H 521.492 1.35478 2.97176 0
M  V30 5743 H 520.151 3.16664 1.84715 0
M  V30 5744 H 519.799 2.65794 4.27039 0
M  V30 5745 H 519.499 4.37841 3.91879 0
M  V30 5746 H 521.023 3.88545 4.71025 0
M  V30 5747 H 522.437 5.03102 2.74885 0
M  V30 5748 H 520.834 5.58823 2.18716 0
M  V30 5749 H 521.904 4.731 1.06321 0
M  V30 5750 N 523.247 -0.488276 1.49845 0
M  V30 5751 C 524.157 -1.61451 1.70207 0
M  V30 5752 C 525.173 -1.63877 0.584846 0
M  V30 5753 O 526.349 -1.82063 0.861107 0
M  V30 5754 C 523.414 -2.9776 1.77594 0
M  V30 5755 C 522.475 -3.05861 3.01243 0
M  V30 5756 C 521.708 -4.35668 3.08268 0
M  V30 5757 O 521.931 -5.25197 2.22541 0
M  V30 5758 O 520.865 -4.49005 4.00847 0
M  V30 5759 H 524.691 -1.47199 2.65643 0
M  V30 5760 H 522.276 -0.665939 1.33737 0
M  V30 5761 H 524.158 -3.7875 1.84732 0
M  V30 5762 H 522.833 -3.12248 0.8534 0
M  V30 5763 H 521.74 -2.24012 2.99616 0
M  V30 5764 H 523.073 -2.96304 3.9302 0
M  V30 5765 N 524.725 -1.39134 -0.740242 0
M  V30 5766 C 525.953 -1.39334 -1.5295 0
M  V30 5767 C 526.368 0.0135008 -1.88795 0
M  V30 5768 O 525.725 0.983524 -1.5373 0
M  V30 5769 C 525.776 -2.2614 -2.82034 0
M  V30 5770 O 525.497 -3.61345 -2.47712 0
M  V30 5771 C 526.998 -2.34666 -3.76094 0
M  V30 5772 H 524.218 -0.476103 -0.472828 0
M  V30 5773 H 526.762 -1.82883 -0.9151 0
M  V30 5774 H 524.917 -1.86018 -3.39818 0
M  V30 5775 H 525.331 -4.07194 -3.30595 0
M  V30 5776 H 526.805 -2.99663 -4.63579 0
M  V30 5777 H 527.282 -1.36426 -4.17474 0
M  V30 5778 H 527.888 -2.75236 -3.2423 0
M  V30 5779 N 526.204 0.969867 -1.24223 0
M  V30 5780 C 527.432 1.74756 -1.10761 0
M  V30 5781 C 527.847 1.85713 0.340041 0
M  V30 5782 O 527.204 1.34389 1.23474 0
M  V30 5783 C 527.255 3.16915 -1.73917 0
M  V30 5784 O 526.976 3.06511 -3.13021 0
M  V30 5785 C 528.477 4.11032 -1.66036 0
M  V30 5786 H 525.697 0.548092 -0.387087 0
M  V30 5787 H 528.241 1.2178 -1.64286 0
M  V30 5788 H 526.396 3.66884 -1.244 0
M  V30 5789 H 526.81 3.96079 -3.43834 0
M  V30 5790 H 528.284 5.08446 -2.14911 0
M  V30 5791 H 528.761 4.34785 -0.621159 0
M  V30 5792 H 529.367 3.66972 -2.14969 0
M  V30 5793 N 527.682 1.05563 1.17022 0
M  V30 5794 C 528.931 0.763036 1.8671 0
M  V30 5795 C 529.244 -0.712857 1.82147 0
M  V30 5796 O 530.45 -1.11955 2.47343 0
M  V30 5797 C 528.906 1.31474 3.35026 0
M  V30 5798 C 528.514 2.82034 3.48081 0
M  V30 5799 C 530.258 1.09935 4.10018 0
M  V30 5800 C 528.165 3.30486 4.90442 0
M  V30 5801 H 527.095 0.281747 0.699382 0
M  V30 5802 H 529.746 1.2734 1.32124 0
M  V30 5803 H 528.128 0.732171 3.89173 0
M  V30 5804 H 529.302 3.46178 3.04133 0
M  V30 5805 H 527.617 3.02156 2.86515 0
M  V30 5806 H 530.214 1.43632 5.15048 0
M  V30 5807 H 530.557 0.0373072 4.16283 0
M  V30 5808 H 531.09 1.64732 3.62089 0
M  V30 5809 H 527.829 4.36137 4.89352 0
M  V30 5810 H 527.349 2.71086 5.35044 0
M  V30 5811 H 529.028 3.25382 5.59227 0
M  V30 5812 N 529.16 -1.33526 0.837174 0
M  V30 5813 C 530.385 -2.0258 0.444545 0
M  V30 5814 C 530.81 -1.6258 -0.946006 0
M  V30 5815 O 530.168 -0.817548 -1.6182 0
M  V30 5816 C 530.216 -3.5605 0.571006 0
M  V30 5817 O 529.32 -4.10422 -0.403431 0
M  V30 5818 H 528.661 -0.638866 0.180958 0
M  V30 5819 H 531.191 -1.70462 1.13154 0
M  V30 5820 H 531.201 -4.05488 0.452024 0
M  V30 5821 H 529.876 -3.84509 1.58512 0
M  V30 5822 H 528.453 -3.72113 -0.242147 0
M  V30 5823 N 530.638 -0.59345 -1.46 0
M  V30 5824 C 531.866 -0.0890934 -2.06708 0
M  V30 5825 C 532.281 1.2205 -1.44046 0
M  V30 5826 O 531.638 1.74029 -0.549551 0
M  V30 5827 C 531.689 0.0720263 -3.61428 0
M  V30 5828 O 531.41 -1.18574 -4.21748 0
M  V30 5829 C 532.911 0.609487 -4.3909 0
M  V30 5830 H 530.131 -0.0623628 -0.668096 0
M  V30 5831 H 532.675 -0.817171 -1.87464 0
M  V30 5832 H 530.83 0.750369 -3.80063 0
M  V30 5833 H 531.244 -1.0064 -5.14754 0
M  V30 5834 H 532.718 0.671363 -5.47902 0
M  V30 5835 H 533.195 1.62878 -4.07882 0
M  V30 5836 H 533.801 -0.03434 -4.25286 0
M  V30 5837 N 532.116 1.54067 -0.331816 0
M  V30 5838 C 533.362 2.01012 0.268667 0
M  V30 5839 C 533.695 1.2195 1.51136 0
M  V30 5840 O 532.97 0.303972 1.9211 0
M  V30 5841 C 533.253 3.55158 0.59456 0
M  V30 5842 C 533.106 4.4494 -0.659409 0
M  V30 5843 C 534.425 4.16939 1.4089 0
M  V30 5844 H 531.544 0.730698 0.0961756 0
M  V30 5845 H 534.186 1.84593 -0.450031 0
M  V30 5846 H 532.336 3.6928 1.20685 0
M  V30 5847 H 534.008 4.42675 -1.29756 0
M  V30 5848 H 532.251 4.1428 -1.28665 0
M  V30 5849 H 532.922 5.50643 -0.386804 0
M  V30 5850 H 535.398 4.06443 0.891272 0
M  V30 5851 H 534.274 5.24889 1.60569 0
M  V30 5852 H 534.535 3.70798 2.40752 0
M  V30 5853 N 533.594 0.0601682 1.57485 0
M  V30 5854 C 534.84 -0.612501 1.93329 0
M  V30 5855 C 535.173 -1.6996 0.939526 0
M  V30 5856 O 534.448 -1.94472 -0.0330957 0
M  V30 5857 C 534.731 -1.20025 3.39508 0
M  V30 5858 C 534.584 -0.12059 4.49638 0
M  V30 5859 C 535.903 -2.10923 3.86264 0
M  V30 5860 H 533.022 -0.221185 0.703027 0
M  V30 5861 H 535.664 0.123768 1.89596 0
M  V30 5862 H 533.814 -1.82774 3.42821 0
M  V30 5863 H 535.486 0.51185 4.58452 0
M  V30 5864 H 533.729 0.550251 4.30296 0
M  V30 5865 H 534.4 -0.572019 5.49028 0
M  V30 5866 H 536.876 -1.58124 3.84884 0
M  V30 5867 H 535.752 -2.48987 4.8918 0
M  V30 5868 H 536.013 -3.01292 3.23536 0
M  V30 5869 N 535.072 -1.5615 -0.213296 0
M  V30 5870 C 536.32 -1.79191 -0.934612 0
M  V30 5871 C 536.641 -0.630112 -1.84539 0
M  V30 5872 O 535.911 0.35257 -1.92701 0
M  V30 5873 H 534.491 -0.660937 -0.348097 0
M  V30 5874 H 537.153 -1.93618 -0.22317 0
M  V30 5875 H 536.249 -2.71656 -1.53654 0
M  V30 5876 N 536.55 0.480323 -1.50102 0
M  V30 5877 C 537.513 1.56181 -1.6775 0
M  V30 5878 C 538.513 1.51156 -0.548503 0
M  V30 5879 O 539.703 1.5394 -0.815363 0
M  V30 5880 C 536.835 2.95823 -1.69415 0
M  V30 5881 H 538.028 1.41855 -2.6423 0
M  V30 5882 H 535.581 0.70605 -1.39444 0
M  V30 5883 H 536.316 3.15604 -0.745948 0
M  V30 5884 H 536.101 3.00878 -2.51425 0
M  V30 5885 H 537.591 3.74359 -1.85054 0
M  V30 5886 N 538.028 1.39524 0.732853 0
M  V30 5887 C 538.978 1.34905 1.83806 0
M  V30 5888 C 539.962 0.229546 1.59254 0
M  V30 5889 O 541.154 0.467255 1.70721 0
M  V30 5890 C 538.283 1.19699 3.21756 0
M  V30 5891 C 537.369 2.36359 3.5213 0
M  V30 5892 N 537.76 3.61834 3.53426 0
M  V30 5893 C 536.058 2.29363 3.82503 0
M  V30 5894 C 536.759 4.38992 3.81655 0
M  V30 5895 N 535.735 3.68606 3.99538 0
M  V30 5896 H 539.537 2.29882 1.83116 0
M  V30 5897 H 537.051 1.33051 0.931194 0
M  V30 5898 H 539.048 1.14472 4.00876 0
M  V30 5899 H 537.708 0.256739 3.23683 0
M  V30 5900 H 538.719 3.95228 3.34686 0
M  V30 5901 H 535.396 1.43612 3.92023 0
M  V30 5902 H 536.786 5.47763 3.89108 0
M  V30 5903 N 539.506 -0.963266 1.24736 0
M  V30 5904 C 540.416 -2.09246 1.06082 0
M  V30 5905 C 541.432 -1.74 0.000363101 0
M  V30 5906 O 542.608 -2.0041 0.199479 0
M  V30 5907 C 539.673 -3.40115 0.672498 0
M  V30 5908 C 538.734 -3.89282 1.80993 0
M  V30 5909 C 537.967 -5.13905 1.44004 0
M  V30 5910 O 538.19 -5.69434 0.331835 0
M  V30 5911 O 537.124 -5.57566 2.26723 0
M  V30 5912 H 540.95 -2.27881 2.00759 0
M  V30 5913 H 538.535 -1.07649 1.03595 0
M  V30 5914 H 540.417 -4.18797 0.467668 0
M  V30 5915 H 539.092 -3.22771 -0.245102 0
M  V30 5916 H 537.999 -3.11642 2.06955 0
M  V30 5917 H 539.332 -4.1111 2.70646 0
M  V30 5918 N 540.985 -1.06182 -1.16461 0
M  V30 5919 C 541.895 -0.682671 -2.24448 0
M  V30 5920 C 542.911 0.30078 -1.71381 0
M  V30 5921 O 544.087 0.150376 -2.00838 0
M  V30 5922 C 541.152 -0.0737202 -3.46622 0
M  V30 5923 C 540.213 -1.10889 -4.14731 0
M  V30 5924 C 539.446 -0.528908 -5.31073 0
M  V30 5925 O 539.669 0.65868 -5.66584 0
M  V30 5926 O 538.603 -1.26805 -5.88391 0
M  V30 5927 H 542.429 -1.58291 -2.59187 0
M  V30 5928 H 540.014 -0.834013 -1.23954 0
M  V30 5929 H 541.896 0.264192 -4.20571 0
M  V30 5930 H 540.571 0.800015 -3.13658 0
M  V30 5931 H 539.478 -1.49896 -3.42756 0
M  V30 5932 H 540.811 -1.95412 -4.51747 0
M  V30 5933 N 542.463 1.3308 -0.844243 0
M  V30 5934 C 543.373 2.32876 -0.283922 0
M  V30 5935 C 544.389 1.63589 0.592846 0
M  V30 5936 O 545.565 1.95205 0.495693 0
M  V30 5937 C 542.63 3.42667 0.527283 0
M  V30 5938 C 541.691 4.27664 -0.374394 0
M  V30 5939 C 540.924 5.32212 0.39819 0
M  V30 5940 O 541.147 5.46635 1.62932 0
M  V30 5941 O 540.081 6.01458 -0.2306 0
M  V30 5942 H 543.907 2.82671 -1.11045 0
M  V30 5943 H 541.492 1.36518 -0.606903 0
M  V30 5944 H 543.374 4.09652 0.988078 0
M  V30 5945 H 542.049 2.95079 1.33078 0
M  V30 5946 H 540.956 3.63526 -0.883144 0
M  V30 5947 H 542.289 4.78749 -1.1428 0
M  V30 5948 N 543.941 0.601185 1.45683 0
M  V30 5949 C 545.352 0.179659 1.85834 0
M  V30 5950 C 545.703 -1.26189 1.50236 0
M  V30 5951 O 544.828 -1.95587 0.925987 0
M  V30 5952 C 545.423 0.319277 3.37292 0
M  V30 5953 C 543.982 -0.0475092 3.7637 0
M  V30 5954 C 543.129 0.646692 2.69654 0
M  V30 5955 H 546.08 0.808268 1.36575 0
M  V30 5956 H 546.101 -0.4503 3.77826 0
M  V30 5957 H 545.613 1.36855 3.6317 0
M  V30 5958 H 543.714 -1.0962 3.5611 0
M  V30 5959 H 543.827 0.34168 4.7788 0
M  V30 5960 H 542.191 0.0849971 2.54558 0
M  V30 5961 H 542.974 1.69797 2.98369 0
M  V30 5962 N 545.419 -1.53889 0.339982 0
M  V30 5963 C 546.329 -2.28604 -0.526988 0
M  V30 5964 C 547.345 -1.33578 -1.11503 0
M  V30 5965 O 548.521 -1.66612 -1.13148 0
M  V30 5966 C 545.586 -3.04164 -1.66389 0
M  V30 5967 C 544.647 -4.14809 -1.10599 0
M  V30 5968 C 543.88 -4.86756 -2.18871 0
M  V30 5969 O 544.103 -4.58343 -3.39526 0
M  V30 5970 O 543.037 -5.73289 -1.83366 0
M  V30 5971 H 546.863 -3.03594 0.0802707 0
M  V30 5972 H 544.448 -1.4903 0.105141 0
M  V30 5973 H 546.33 -3.51427 -2.32544 0
M  V30 5974 H 545.005 -2.32035 -2.25703 0
M  V30 5975 H 543.912 -3.71857 -0.409067 0
M  V30 5976 H 545.245 -4.89029 -0.557771 0
M  V30 5977 N 546.897 -0.0685191 -1.57451 0
M  V30 5978 C 548.174 0.642167 -1.84758 0
M  V30 5979 C 548.554 1.87991 -0.960344 0
M  V30 5980 O 547.902 2.28485 -0.0257894 0
M  V30 5981 C 548.112 0.982946 -3.34872 0
M  V30 5982 C 549.46 1.35784 -4.02303 0
M  V30 5983 O 550.484 1.07477 -3.39598 0
M  V30 5984 O 549.343 1.88681 -5.12895 0
M  V30 5985 H 546.437 0.318625 -0.763156 0
M  V30 5986 H 548.983 -0.0992015 -1.6941 0
M  V30 5987 H 547.755 0.10372 -3.91163 0
M  V30 5988 H 547.378 1.78119 -3.55471 0
M  V30 5989 N 548.375 1.56261 0.205012 0
M  V30 5990 C 549.623 1.79684 0.925096 0
M  V30 5991 C 549.944 0.63989 1.84202 0
M  V30 5992 O 549.214 -0.342345 1.92885 0
M  V30 5993 H 547.794 0.662774 0.344587 0
M  V30 5994 H 550.456 1.93734 0.212899 0
M  V30 5995 H 549.552 2.72467 1.52211 0
M  V30 5996 N 549.853 -0.472356 1.50355 0
M  V30 5997 C 551.264 -1.05326 1.54154 0
M  V30 5998 C 551.615 -1.93155 0.344303 0
M  V30 5999 O 550.74 -2.09479 -0.542928 0
M  V30 6000 C 551.335 -1.91691 2.79356 0
M  V30 6001 C 549.894 -2.44892 2.8584 0
M  V30 6002 C 549.041 -1.23205 2.48426 0
M  V30 6003 H 551.992 -0.255027 1.56637 0
M  V30 6004 H 552.013 -2.76742 2.6114 0
M  V30 6005 H 551.525 -1.27741 3.66475 0
M  V30 6006 H 549.626 -3.12399 2.0307 0
M  V30 6007 H 549.739 -2.80086 3.88701 0
M  V30 6008 H 548.103 -1.56643 2.00836 0
M  V30 6009 H 548.886 -0.609194 3.37852 0
M  V30 6010 N 551.331 -1.39911 -0.725443 0
M  V30 6011 C 552.278 -1.39393 -1.83952 0
M  V30 6012 C 553.248 -0.252249 -1.64173 0
M  V30 6013 O 554.433 -0.44882 -1.85446 0
M  V30 6014 C 551.573 -1.25262 -3.21564 0
M  V30 6015 C 550.686 -2.49054 -3.52982 0
M  V30 6016 C 549.821 -2.27439 -4.80047 0
M  V30 6017 C 548.86 -3.46857 -5.04338 0
M  V30 6018 N 547.997 -3.24499 -6.22611 0
M  V30 6019 H 552.837 -2.34622 -1.83729 0
M  V30 6020 H 550.374 -1.16537 -0.897636 0
M  V30 6021 H 552.332 -1.15077 -4.01015 0
M  V30 6022 H 550.962 -0.33657 -3.21041 0
M  V30 6023 H 550.014 -2.69805 -2.6816 0
M  V30 6024 H 551.326 -3.37973 -3.66846 0
M  V30 6025 H 550.48 -2.14551 -5.67497 0
M  V30 6026 H 549.219 -1.35929 -4.68374 0
M  V30 6027 H 548.224 -3.60232 -4.15346 0
M  V30 6028 H 549.449 -4.3928 -5.17889 0
M  V30 6029 H 547.395 -2.35663 -6.12208 0
M  V30 6030 H 547.312 -4.06978 -6.37106 0
M  V30 6031 H 548.58 -3.15325 -7.12875 0
M  V30 6032 N 552.809 0.956637 -1.25245 0
M  V30 6033 C 553.772 2.03457 -1.05537 0
M  V30 6034 C 554.772 1.60798 -0.00886317 0
M  V30 6035 O 555.962 1.72384 -0.250865 0
M  V30 6036 C 553.094 3.35543 -0.601965 0
M  V30 6037 H 554.287 2.22372 -2.01223 0
M  V30 6038 H 551.84 1.13344 -1.07623 0
M  V30 6039 H 552.575 3.22323 0.357584 0
M  V30 6040 H 552.36 3.67854 -1.35743 0
M  V30 6041 H 553.85 4.14769 -0.485454 0
M  V30 6042 N 554.287 1.06798 1.15896 0
M  V30 6043 C 555.515 0.808694 1.90441 0
M  V30 6044 C 555.93 -0.637506 1.77711 0
M  V30 6045 O 555.287 -1.43684 1.12522 0
M  V30 6046 C 555.338 1.20068 3.40978 0
M  V30 6047 O 555.059 2.59013 3.53333 0
M  V30 6048 C 556.56 0.96987 4.3256 0
M  V30 6049 H 553.78 0.292809 0.603742 0
M  V30 6050 H 556.324 1.42296 1.46874 0
M  V30 6051 H 554.479 0.630842 3.82229 0
M  V30 6052 H 554.893 2.7485 4.46719 0
M  V30 6053 H 556.367 1.29371 5.36626 0
M  V30 6054 H 556.844 -0.0941209 4.39099 0
M  V30 6055 H 557.45 1.52433 3.97044 0
M  V30 6056 N 555.766 -1.3263 0.851289 0
M  V30 6057 C 557.177 -1.79653 0.5081 0
M  V30 6058 C 557.528 -1.70327 -0.973815 0
M  V30 6059 O 556.653 -1.25986 -1.75944 0
M  V30 6060 C 557.248 -3.26196 0.915515 0
M  V30 6061 C 555.807 -3.71187 0.624277 0
M  V30 6062 C 554.954 -2.53804 1.11709 0
M  V30 6063 H 557.905 -1.19976 1.03882 0
M  V30 6064 H 557.926 -3.79801 0.230535 0
M  V30 6065 H 557.438 -3.32952 1.99411 0
M  V30 6066 H 555.539 -3.69948 -0.443737 0
M  V30 6067 H 555.652 -4.64132 1.18821 0
M  V30 6068 H 554.016 -2.48964 0.537484 0
M  V30 6069 H 554.799 -2.63315 2.20272 0
M  V30 6070 N 557.244 -0.608902 -1.45362 0
M  V30 6071 C 558.469 -0.10921 -2.07112 0
M  V30 6072 C 558.894 1.19779 -1.45033 0
M  V30 6073 O 558.252 1.72961 -0.543527 0
M  V30 6074 C 558.3 0.0155745 -3.60597 0
M  V30 6075 O 557.404 1.06546 -3.98399 0
M  V30 6076 H 556.745 -0.0746619 -0.659789 0
M  V30 6077 H 559.275 -0.839283 -1.86594 0
M  V30 6078 H 559.285 0.213364 -4.07442 0
M  V30 6079 H 557.96 -0.938765 -4.05167 0
M  V30 6080 H 556.537 0.844024 -3.63223 0
M  V30 6081 N 558.722 1.53707 -0.348139 0
M  V30 6082 C 559.947 2.05877 0.250883 0
M  V30 6083 C 560.372 1.22115 1.43072 0
M  V30 6084 O 559.73 0.235986 1.79758 0
M  V30 6085 C 559.778 3.54886 0.639416 0
M  V30 6086 O 558.882 3.73948 1.73888 0
M  V30 6087 H 558.223 0.662754 0.040653 0
M  V30 6088 H 560.753 1.98303 -0.503685 0
M  V30 6089 H 560.763 3.97601 0.915295 0
M  V30 6090 H 559.438 4.153 -0.223386 0
M  V30 6091 H 558.015 3.43134 1.45991 0
M  V30 6092 N 560.2 0.0768682 1.57412 0
M  V30 6093 C 561.13 -0.886026 2.16037 0
M  V30 6094 C 562.111 -1.30691 1.08876 0
M  V30 6095 O 563.296 -1.37705 1.36934 0
M  V30 6096 C 560.426 -2.1518 2.72608 0
M  V30 6097 C 559.38 -1.87015 3.8498 0
M  V30 6098 C 558.706 -3.20266 4.28175 0
M  V30 6099 C 560.006 -1.17143 5.08994 0
M  V30 6100 H 561.7 -0.397642 2.96748 0
M  V30 6101 H 559.246 -0.189823 1.42743 0
M  V30 6102 H 561.199 -2.82962 3.12266 0
M  V30 6103 H 559.923 -2.66269 1.89125 0
M  V30 6104 H 558.582 -1.21636 3.45833 0
M  V30 6105 H 558.23 -3.69207 3.41607 0
M  V30 6106 H 557.93 -3.0221 5.03927 0
M  V30 6107 H 559.454 -3.89237 4.70454 0
M  V30 6108 H 560.868 -1.75003 5.45937 0
M  V30 6109 H 559.265 -1.09328 5.90057 0
M  V30 6110 H 560.335 -0.151295 4.84664 0
M  V30 6111 N 561.678 -1.56367 -0.196722 0
M  V30 6112 C 562.955 -1.71359 -0.943159 0
M  V30 6113 C 563.335 -0.631192 -2.01443 0
M  V30 6114 O 562.683 0.358071 -2.25677 0
M  V30 6115 C 562.893 -3.13623 -1.53106 0
M  V30 6116 C 564.241 -3.73806 -2.01381 0
M  V30 6117 O 565.265 -3.16742 -1.62951 0
M  V30 6118 O 564.124 -4.73951 -2.7209 0
M  V30 6119 H 561.218 -0.698851 -0.442195 0
M  V30 6120 H 563.764 -1.68672 -0.186547 0
M  V30 6121 H 562.536 -3.83873 -0.758785 0
M  V30 6122 H 562.159 -3.20532 -2.35255 0
M  V30 6123 N 563.156 0.464375 -1.50603 0
M  V30 6124 C 564.086 1.56944 -1.72889 0
M  V30 6125 C 565.067 1.59979 -0.577997 0
M  V30 6126 O 566.252 1.76138 -0.817855 0
M  V30 6127 C 563.382 2.95225 -1.8292 0
M  V30 6128 C 562.336 3.07056 -2.98162 0
M  V30 6129 C 561.662 4.47051 -2.93343 0
M  V30 6130 C 562.962 2.83648 -4.38567 0
M  V30 6131 H 564.656 1.38547 -2.65415 0
M  V30 6132 H 562.202 0.665082 -1.27721 0
M  V30 6133 H 564.155 3.72467 -1.97095 0
M  V30 6134 H 562.879 3.14793 -0.870209 0
M  V30 6135 H 561.538 2.32248 -2.83648 0
M  V30 6136 H 561.186 4.63547 -1.95276 0
M  V30 6137 H 560.886 4.55902 -3.70712 0
M  V30 6138 H 562.41 5.26304 -3.09575 0
M  V30 6139 H 563.824 3.50636 -4.53572 0
M  V30 6140 H 562.221 3.03937 -5.17438 0
M  V30 6141 H 563.291 1.79451 -4.50472 0
M  V30 6142 N 564.634 1.40294 0.718013 0
M  V30 6143 C 565.862 1.4175 1.50714 0
M  V30 6144 C 566.277 0.0165366 1.88793 0
M  V30 6145 O 565.634 -0.958942 1.55276 0
M  V30 6146 C 565.685 2.30598 2.784 0
M  V30 6147 O 565.406 3.6524 2.41932 0
M  V30 6148 C 566.907 2.4062 3.72313 0
M  V30 6149 H 564.127 0.483565 0.465194 0
M  V30 6150 H 566.671 1.84316 0.885889 0
M  V30 6151 H 564.826 1.91401 3.36815 0
M  V30 6152 H 565.24 4.12402 3.24076 0
M  V30 6153 H 566.714 3.07001 4.58753 0
M  V30 6154 H 567.191 1.4305 4.15251 0
M  V30 6155 H 567.797 2.80359 3.19811 0
M  V30 6156 N 566.112 -0.949982 1.2575 0
M  V30 6157 C 567.337 -1.73503 1.13628 0
M  V30 6158 C 567.762 -1.85601 -0.30559 0
M  V30 6159 O 567.12 -1.33984 -1.22139 0
M  V30 6160 C 567.168 -3.1243 1.80055 0
M  V30 6161 O 566.272 -3.97916 1.08336 0
M  V30 6162 H 565.613 -0.532665 0.396439 0
M  V30 6163 H 568.143 -1.19043 1.66403 0
M  V30 6164 H 568.153 -3.62866 1.86527 0
M  V30 6165 H 566.828 -3.02941 2.84956 0
M  V30 6166 H 565.405 -3.56375 1.09777 0
M  V30 6167 N 567.59 -1.07411 -1.15328 0
M  V30 6168 C 568.538 -0.689316 -2.22151 0
M  V30 6169 C 569.532 0.300156 -1.6672 0
M  V30 6170 O 570.738 0.163804 -1.79253 0
M  V30 6171 H 567.113 -0.204834 -0.723566 0
M  V30 6172 H 569.084 -1.59988 -2.51886 0
M  V30 6173 C 567.833 -0.103848 -3.47545 0
M  V30 6174 H 567.156 -0.856367 -3.90521 0
M  V30 6175 H 568.596 0.127725 -4.23808 0
M  V30 6176 C 567.055 1.15563 -3.1646 0
M  V30 6177 O 567.585 2.242 -3.33312 0
M  V30 6178 N 565.791 1.06203 -2.70498 0
M  V30 6179 H 565.338 0.177933 -2.56985 0
M  V30 6180 H 565.296 1.90553 -2.50074 0
M  V30 6181 N 569.068 1.32177 -0.85831 0
M  V30 6182 C 570.308 1.98927 -0.469822 0
M  V30 6183 C 570.672 1.66423 0.95746 0
M  V30 6184 O 571.873 2.26293 1.45069 0
M  V30 6185 C 570.144 3.50352 -0.706288 0
M  V30 6186 S 571.703 4.36824 -0.415918 0
M  V30 6187 H 568.521 0.688909 -0.175855 0
M  V30 6188 H 571.123 1.60807 -1.11181 0
M  V30 6189 H 569.827 3.71497 -1.74407 0
M  V30 6190 H 569.358 3.93367 -0.0508568 0
M  V30 6191 H 571.373 4.90398 0.756581 0
M  V30 6192 N 570.547 0.616602 1.45037 0
M  V30 6193 C 571.772 0.120192 2.07051 0
M  V30 6194 C 572.197 -1.19008 1.45666 0
M  V30 6195 O 571.555 -1.7267 0.552692 0
M  V30 6196 C 571.603 0.00354901 3.606 0
M  V30 6197 O 570.707 -1.04431 3.98958 0
M  V30 6198 H 570.048 0.0781599 0.659384 0
M  V30 6199 H 572.578 0.849167 1.86146 0
M  V30 6200 H 572.588 -0.191754 4.07549 0
M  V30 6201 H 571.263 0.960239 4.04663 0
M  V30 6202 H 569.84 -0.824749 3.63665 0
M  V30 6203 N 572.025 -1.5352 0.356285 0
M  V30 6204 C 573.25 -2.06007 -0.239961 0
M  V30 6205 C 573.675 -1.22872 -1.42422 0
M  V30 6206 O 573.033 -0.245516 -1.7963 0
M  V30 6207 C 573.081 -3.5522 -0.620587 0
M  V30 6208 O 572.185 -3.74864 -1.71902 0
M  V30 6209 H 571.526 -0.662961 -0.0371377 0
M  V30 6210 H 574.056 -1.98033 0.514194 0
M  V30 6211 H 574.066 -3.98081 -0.894197 0
M  V30 6212 H 572.741 -4.15175 0.245407 0
M  V30 6213 H 571.318 -3.43904 -1.44169 0
M  V30 6214 N 573.503 -0.0852151 -1.57369 0
M  V30 6215 C 574.919 0.271436 -1.57275 0
M  V30 6216 C 575.119 1.69109 -1.09565 0
M  V30 6217 O 574.175 2.40549 -0.767611 0
M  V30 6218 C 575.488 0.0688638 -3.00621 0
M  V30 6219 C 577.036 0.137373 -3.12698 0
M  V30 6220 C 577.511 -0.0370832 -4.57985 0
M  V30 6221 N 579.002 0.0180794 -4.63196 0
M  V30 6222 C 579.737 -0.0922953 -5.73326 0
M  V30 6223 N 579.233 -0.256948 -6.92323 0
M  V30 6224 N 581.026 -0.0342702 -5.6209 0
M  V30 6225 H 573.177 -1.01288 -1.86693 0
M  V30 6226 H 575.44 -0.396138 -0.861266 0
M  V30 6227 H 575.146 -0.911277 -3.39689 0
M  V30 6228 H 575.02 0.815442 -3.6828 0
M  V30 6229 H 577.407 1.10801 -2.73509 0
M  V30 6230 H 577.488 -0.640532 -2.47651 0
M  V30 6231 H 577.132 -1.00455 -4.97867 0
M  V30 6232 H 577.062 0.760392 -5.21081 0
M  V30 6233 H 579.553 0.143202 -3.77629 0
M  V30 6234 H 579.866 -0.332949 -7.72082 0
M  V30 6235 H 578.211 -0.292487 -6.94384 0
M  V30 6236 H 581.402 0.0931605 -4.68007 0
M  V30 6237 H 581.575 -0.12374 -6.47882 0
M  V30 6238 N 574.981 1.5647 0.188427 0
M  V30 6239 C 576.206 1.85486 0.927891 0
M  V30 6240 C 576.631 0.669575 1.75779 0
M  V30 6241 O 575.989 -0.381573 1.77239 0
M  V30 6242 C 576.037 3.12784 1.7944 0
M  V30 6243 O 575.141 2.93805 2.894 0
M  V30 6244 H 574.482 0.610585 0.260925 0
M  V30 6245 H 577.012 2.037 0.191729 0
M  V30 6246 H 577.022 3.43749 2.19774 0
M  V30 6247 H 575.697 3.98671 1.18468 0
M  V30 6248 H 574.274 2.74153 2.52774 0
M  V30 6249 N 576.459 -0.456382 1.50847 0
M  V30 6250 C 577.736 -1.21739 1.53098 0
M  V30 6251 C 578.116 -2.09179 0.284132 0
M  V30 6252 O 577.464 -2.16466 -0.731773 0
M  V30 6253 C 577.674 -2.03573 2.83477 0
M  V30 6254 C 579.022 -2.61264 3.34703 0
M  V30 6255 O 580.046 -2.13802 2.84898 0
M  V30 6256 O 578.905 -3.47779 4.21559 0
M  V30 6257 H 575.999 -0.553219 0.614718 0
M  V30 6258 H 578.545 -0.467003 1.63148 0
M  V30 6259 H 577.317 -1.39232 3.65691 0
M  V30 6260 H 576.94 -2.85716 2.76499 0
M  V30 6261 N 577.937 -1.40673 -0.710563 0
M  V30 6262 C 579.162 -1.42741 -1.50465 0
M  V30 6263 C 579.587 -0.0302116 -1.88076 0
M  V30 6264 O 578.945 0.962945 -1.53613 0
M  V30 6265 C 578.993 -2.32873 -2.75322 0
M  V30 6266 O 578.097 -1.77544 -3.72226 0
M  V30 6267 H 577.438 -0.485056 -0.45345 0
M  V30 6268 H 579.968 -1.84961 -0.874681 0
M  V30 6269 H 579.978 -2.48233 -3.23797 0
M  V30 6270 H 578.653 -3.34401 -2.47283 0
M  V30 6271 H 577.23 -1.71556 -3.31093 0
M  V30 6272 N 579.415 0.9433 -1.26252 0
M  V30 6273 C 580.362 2.0417 -1.07625 0
M  V30 6274 C 581.332 1.6609 0.0180738 0
M  V30 6275 O 582.517 1.90276 -0.141289 0
M  V30 6276 C 579.657 3.37653 -0.713043 0
M  V30 6277 C 578.77 3.88783 -1.8834 0
M  V30 6278 C 577.905 5.10642 -1.4635 0
M  V30 6279 C 576.944 5.54028 -2.60229 0
M  V30 6280 N 576.081 6.67092 -2.18936 0
M  V30 6281 H 580.921 2.19436 -2.01623 0
M  V30 6282 H 578.458 1.07519 -1.00389 0
M  V30 6283 H 580.416 4.14391 -0.483358 0
M  V30 6284 H 579.046 3.22241 0.18996 0
M  V30 6285 H 578.098 3.08464 -2.22608 0
M  V30 6286 H 579.41 4.16922 -2.73821 0
M  V30 6287 H 578.564 5.94832 -1.19414 0
M  V30 6288 H 577.303 4.84244 -0.579568 0
M  V30 6289 H 576.308 4.68396 -2.87898 0
M  V30 6290 H 577.533 5.82429 -3.49219 0
M  V30 6291 H 575.479 6.42381 -1.32974 0
M  V30 6292 H 575.396 6.94806 -2.97961 0
M  V30 6293 H 576.664 7.54662 -1.95206 0
M  V30 6294 N 580.893 1.08022 1.14757 0
M  V30 6295 C 582.121 0.828847 1.89572 0
M  V30 6296 C 582.536 -0.618621 1.78377 0
M  V30 6297 O 581.893 -1.42482 1.1404 0
M  V30 6298 C 581.944 1.23677 3.39685 0
M  V30 6299 O 581.665 2.62746 3.50566 0
M  V30 6300 C 583.166 1.01569 4.31507 0
M  V30 6301 H 580.386 0.299196 0.600602 0
M  V30 6302 H 582.93 1.43846 1.45357 0
M  V30 6303 H 581.085 0.671347 3.81539 0
M  V30 6304 H 581.499 2.79573 4.43778 0
M  V30 6305 H 582.973 1.35055 5.35223 0
M  V30 6306 H 583.45 -0.0475433 4.39174 0
M  V30 6307 H 584.056 1.56636 3.95405 0
M  V30 6308 N 582.371 -1.3172 0.865308 0
M  V30 6309 C 583.304 -2.26687 0.262376 0
M  V30 6310 C 584.282 -1.50894 -0.605787 0
M  V30 6311 O 585.466 -1.79982 -0.56024 0
M  V30 6312 C 582.593 -3.3281 -0.628915 0
M  V30 6313 C 581.639 -4.26172 0.167278 0
M  V30 6314 S 582.472 -5.12797 1.54272 0
M  V30 6315 C 583.628 -6.22438 0.657427 0
M  V30 6316 H 583.861 -2.77478 1.0674 0
M  V30 6317 H 581.394 -1.39414 0.663555 0
M  V30 6318 H 583.352 -3.94426 -1.13747 0
M  V30 6319 H 582.013 -2.80782 -1.40785 0
M  V30 6320 H 581.206 -5.01392 -0.51203 0
M  V30 6321 H 580.808 -3.69029 0.607777 0
M  V30 6322 H 583.1 -6.77368 -0.133925 0
M  V30 6323 H 584.043 -6.9451 1.38061 0
M  V30 6324 H 584.451 -5.64043 0.227044 0
M  V30 6325 N 583.85 -0.624285 -1.44708 0
M  V30 6326 C 585.077 -0.132919 -2.06473 0
M  V30 6327 C 585.493 1.18967 -1.46602 0
M  V30 6328 O 584.85 1.72824 -0.586341 0
M  V30 6329 C 584.901 -0.00465418 -3.615 0
M  V30 6330 O 584.622 -1.27494 -4.19138 0
M  V30 6331 C 586.123 0.516213 -4.40284 0
M  V30 6332 H 583.343 -0.0765201 -0.666623 0
M  V30 6333 H 585.887 -0.856751 -1.85688 0
M  V30 6334 H 584.042 0.669583 -3.8157 0
M  V30 6335 H 584.456 -1.11536 -5.12504 0
M  V30 6336 H 585.93 0.554994 -5.49203 0
M  V30 6337 H 586.407 1.5419 -4.11245 0
M  V30 6338 H 587.013 -0.124542 -4.25118 0
M  V30 6339 N 585.328 1.53329 -0.364422 0
M  V30 6340 C 586.238 2.29414 0.490552 0
M  V30 6341 C 587.254 1.35335 1.09363 0
M  V30 6342 O 588.43 1.68391 1.10483 0
M  V30 6343 C 585.495 3.06772 1.61529 0
M  V30 6344 C 584.556 4.16516 1.03986 0
M  V30 6345 C 583.789 4.90176 2.111 0
M  V30 6346 O 584.012 4.63687 3.32191 0
M  V30 6347 O 582.946 5.76134 1.74222 0
M  V30 6348 H 586.772 3.03428 -0.12856 0
M  V30 6349 H 584.357 1.48843 -0.128837 0
M  V30 6350 H 586.239 3.55082 2.26924 0
M  V30 6351 H 584.914 2.35596 2.21983 0
M  V30 6352 H 583.821 3.7246 0.349856 0
M  V30 6353 H 585.154 4.89855 0.4799 0
M  V30 6354 N 586.806 0.0935595 1.57322 0
M  V30 6355 C 588.031 -0.582324 1.99057 0
M  V30 6356 C 588.456 -1.61025 0.972242 0
M  V30 6357 O 587.814 -1.81202 -0.0594622 0
M  V30 6358 C 587.862 -1.20799 3.39765 0
M  V30 6359 O 586.966 -2.32382 3.40694 0
M  V30 6360 H 586.307 -0.147884 0.647323 0
M  V30 6361 H 588.837 0.174516 2.03854 0
M  V30 6362 H 588.847 -1.54966 3.77425 0
M  V30 6363 H 587.522 -0.454914 4.13405 0
M  V30 6364 H 586.099 -1.99845 3.14827 0
M  V30 6365 N 588.284 -1.56567 -0.180126 0
M  V30 6366 C 589.531 -1.81492 -0.898167 0
M  V30 6367 C 589.859 -0.669225 -1.82624 0
M  V30 6368 O 589.114 0.344096 -1.92651 0
M  V30 6369 C 589.413 -3.1252 -1.73395 0
M  V30 6370 C 589.079 -4.40658 -0.955567 0
M  V30 6371 C 587.741 -4.75465 -0.740707 0
M  V30 6372 C 590.093 -5.19593 -0.408948 0
M  V30 6373 C 587.421 -5.86691 0.0320128 0
M  V30 6374 C 589.773 -6.31627 0.350638 0
M  V30 6375 C 588.437 -6.65007 0.576378 0
M  V30 6376 H 587.707 -0.664125 -0.328662 0
M  V30 6377 H 590.354 -1.908 -0.163616 0
M  V30 6378 H 588.659 -2.98515 -2.53763 0
M  V30 6379 H 590.356 -3.29013 -2.29241 0
M  V30 6380 H 586.946 -4.13352 -1.13306 0
M  V30 6381 H 591.13 -4.93104 -0.562307 0
M  V30 6382 H 586.386 -6.11016 0.216735 0
M  V30 6383 H 590.56 -6.92001 0.781497 0
M  V30 6384 H 588.187 -7.51033 1.17703 0
M  V30 6385 N 589.762 0.448376 -1.51087 0
M  V30 6386 C 590.987 1.22605 -1.6728 0
M  V30 6387 C 591.412 1.84524 -0.365045 0
M  V30 6388 O 590.77 1.6832 0.673642 0
M  V30 6389 C 590.818 2.29393 -2.78229 0
M  V30 6390 O 589.922 3.34608 -2.41063 0
M  V30 6391 H 589.263 0.359705 -0.558129 0
M  V30 6392 H 591.793 0.530903 -1.97592 0
M  V30 6393 H 591.803 2.74352 -3.01986 0
M  V30 6394 H 590.478 1.83701 -3.73131 0
M  V30 6395 H 589.055 2.95202 -2.27838 0
M  V30 6396 N 591.24 1.41047 0.703093 0
M  V30 6397 C 592.487 1.4 1.46309 0
M  V30 6398 C 592.815 0.00654574 1.94499 0
M  V30 6399 O 592.07 -0.980255 1.6938 0
M  V30 6400 C 592.369 2.34686 2.6955 0
M  V30 6401 C 592.035 3.81684 2.40058 0
M  V30 6402 C 590.697 4.21731 2.31725 0
M  V30 6403 C 593.049 4.74525 2.15581 0
M  V30 6404 C 590.377 5.52637 1.97001 0
M  V30 6405 C 592.729 6.05744 1.82366 0
M  V30 6406 C 591.393 6.44819 1.72524 0
M  V30 6407 H 590.663 0.512295 0.535382 0
M  V30 6408 H 593.31 1.73792 0.804275 0
M  V30 6409 H 591.615 1.94122 3.40329 0
M  V30 6410 H 593.312 2.31152 3.27673 0
M  V30 6411 H 589.902 3.49963 2.47435 0
M  V30 6412 H 594.086 4.44395 2.20968 0
M  V30 6413 H 589.342 5.81802 1.87928 0
M  V30 6414 H 593.516 6.77189 1.62444 0
M  V30 6415 H 591.143 7.46168 1.45385 0
M  V30 6416 N 592.718 -0.936591 1.26751 0
M  V30 6417 C 593.943 -1.72288 1.15462 0
M  V30 6418 C 594.368 -1.85915 -0.285887 0
M  V30 6419 O 593.726 -1.35272 -1.20711 0
M  V30 6420 C 593.774 -3.10503 1.83359 0
M  V30 6421 O 592.878 -3.96745 1.1255 0
M  V30 6422 H 592.219 -0.52843 0.402067 0
M  V30 6423 H 594.749 -1.17271 1.67656 0
M  V30 6424 H 594.759 -3.60867 1.90365 0
M  V30 6425 H 593.434 -2.99901 2.88153 0
M  V30 6426 H 592.011 -3.55191 1.13551 0
M  V30 6427 N 594.196 -1.08629 -1.14182 0
M  V30 6428 C 595.421 -0.83902 -1.89671 0
M  V30 6429 C 595.846 0.603332 -1.78161 0
M  V30 6430 O 595.204 1.42301 -1.12339 0
M  V30 6431 C 595.252 -1.26854 -3.37551 0
M  V30 6432 O 594.356 -0.42188 -4.10236 0
M  V30 6433 H 593.697 -0.304545 -0.590041 0
M  V30 6434 H 596.227 -1.4483 -1.44518 0
M  V30 6435 H 596.237 -1.25038 -3.88368 0
M  V30 6436 H 594.912 -2.31901 -3.45246 0
M  V30 6437 H 593.489 -0.503654 -3.69483 0
M  V30 6438 N 595.674 1.31259 -0.872281 0
M  V30 6439 C 596.622 2.30404 -0.318897 0
M  V30 6440 C 597.616 1.5962 0.567267 0
M  V30 6441 O 598.822 1.74204 0.453111 0
M  V30 6442 H 595.197 0.747243 -0.0844474 0
M  V30 6443 H 597.168 2.74549 -1.16899 0
M  V30 6444 C 595.917 3.44608 0.462683 0
M  V30 6445 H 595.24 3.99248 -0.209936 0
M  V30 6446 H 596.68 4.1609 0.815187 0
M  V30 6447 C 595.139 2.93456 1.65485 0
M  V30 6448 O 595.669 2.92418 2.75417 0
M  V30 6449 N 593.875 2.49628 1.48776 0
M  V30 6450 H 593.422 2.50671 0.593452 0
M  V30 6451 H 593.38 2.15759 2.28682 0
M  V30 6452 N 597.152 0.631951 1.44375 0
M  V30 6453 C 598.398 0.13697 2.02337 0
M  V30 6454 C 598.731 -1.23826 1.49602 0
M  V30 6455 O 598.006 -1.8221 0.680415 0
M  V30 6456 C 598.289 0.124536 3.59885 0
M  V30 6457 C 598.142 1.53217 4.229 0
M  V30 6458 C 599.461 -0.550481 4.36644 0
M  V30 6459 H 596.58 0.051247 0.735216 0
M  V30 6460 H 599.222 0.808581 1.71936 0
M  V30 6461 H 597.372 -0.44737 3.85916 0
M  V30 6462 H 599.044 2.15303 4.07973 0
M  V30 6463 H 597.287 2.0858 3.80364 0
M  V30 6464 H 597.958 1.4755 5.31914 0
M  V30 6465 H 600.434 -0.0641154 4.16051 0
M  V30 6466 H 599.31 -0.528371 5.46351 0
M  V30 6467 H 599.571 -1.62097 4.11311 0
M  V30 6468 N 598.631 -1.53133 0.372548 0
M  V30 6469 C 599.561 -2.28876 -0.462412 0
M  V30 6470 C 600.542 -1.31583 -1.07796 0
M  V30 6471 O 601.727 -1.60461 -1.09389 0
M  V30 6472 C 598.857 -3.08317 -1.59868 0
M  V30 6473 C 597.811 -4.13355 -1.11003 0
M  V30 6474 C 597.137 -4.8092 -2.33708 0
M  V30 6475 C 598.437 -5.21955 -0.18983 0
M  V30 6476 H 600.131 -2.9892 0.169511 0
M  V30 6477 H 597.677 -1.43761 0.0829658 0
M  V30 6478 H 599.63 -3.60055 -2.18949 0
M  V30 6479 H 598.354 -2.35976 -2.25794 0
M  V30 6480 H 597.013 -3.62573 -0.541869 0
M  V30 6481 H 596.661 -4.05144 -2.98106 0
M  V30 6482 H 596.361 -5.51904 -2.01682 0
M  V30 6483 H 597.885 -5.35455 -2.93462 0
M  V30 6484 H 599.299 -5.69153 -0.688319 0
M  V30 6485 H 597.696 -6.00087 0.0398887 0
M  V30 6486 H 598.766 -4.78811 0.766057 0
M  V30 6487 N 600.109 -0.101901 -1.5727 0
M  V30 6488 C 601.334 0.571759 -1.99363 0
M  V30 6489 C 601.759 1.60507 -0.980768 0
M  V30 6490 O 601.117 1.81231 0.0498517 0
M  V30 6491 C 601.165 1.18996 -3.404 0
M  V30 6492 O 600.269 2.30572 -3.41922 0
M  V30 6493 H 599.61 0.144449 -0.648098 0
M  V30 6494 H 602.14 -0.185325 -2.03759 0
M  V30 6495 H 602.15 1.52962 -3.78241 0
M  V30 6496 H 600.825 0.432984 -4.1364 0
M  V30 6497 H 599.402 1.98173 -3.15883 0
M  V30 6498 O 601.626 1.61455 0.0379495 0
M  V30 6499 H 602.317 1.82122 0.659643 0
M  V30 END ATOM
M  V30 BEGIN BOND
M  V30 END BOND
M  V30 END CTAB
M  END
$$$$
