drugbank_target|P25391 Laminin subunit alpha-1 (DB06245)
 OpenBabel12092120053D

  0  0  0     0  0            999 V3000
M  V30 BEGIN CTAB
M  V30 COUNTS 46523 46991 0 0 0
M  V30 BEGIN ATOM
M  V30 1 H -0.908 1.98254 -0.117106 0
M  V30 2 N 0 1.576 0 0
M  V30 3 C 0.933 2.03868 1.02534 0
M  V30 4 C 1.911 0.928543 1.3348 0
M  V30 5 O 3.095 1.19667 1.45644 0
M  V30 6 C 0.222 2.43627 2.35294 0
M  V30 7 C -0.732 3.65373 2.2001 0
M  V30 8 S 0.101 5.13292 1.52614 0
M  V30 9 C 1.257 5.56322 2.86805 0
M  V30 10 H 1.49 2.90518 0.631377 0
M  V30 11 H -0.977 1.52953 0.210867 0
M  V30 12 H 0.981 2.67203 3.11629 0
M  V30 13 H -0.358 1.57376 2.7183 0
M  V30 14 H -1.165 3.90944 3.18086 0
M  V30 15 H -1.563 3.418 1.51819 0
M  V30 16 H 0.729 5.58782 3.83104 0
M  V30 17 H 1.672 6.56266 2.65933 0
M  V30 18 H 2.08 4.83886 2.90714 0
M  V30 19 N 1.4781 -0.272755 1.55222 0
M  V30 20 C 2.8941 -0.619959 1.47067 0
M  V30 21 C 3.0941 -1.895 0.684978 0
M  V30 22 O 2.1501 -2.51675 0.203931 0
M  V30 23 C 3.4631 -0.746693 2.91282 0
M  V30 24 C 5.0111 -0.840731 3.01497 0
M  V30 25 C 5.4861 -0.99924 4.46967 0
M  V30 26 N 6.9771 -1.06476 4.50796 0
M  V30 27 C 7.7121 -1.20621 5.6057 0
M  V30 28 N 7.2081 -1.31483 6.80209 0
M  V30 29 N 9.0011 -1.23733 5.48312 0
M  V30 30 H 1.1521 0.564606 2.04758 0
M  V30 31 H 3.4151 0.191177 0.928523 0
M  V30 32 H 3.1211 0.119753 3.51496 0
M  V30 33 H 2.9951 -1.6269 3.40311 0
M  V30 34 H 5.3821 -1.69764 2.41379 0
M  V30 35 H 5.4631 0.0640874 2.5572 0
M  V30 36 H 5.1071 -0.146984 5.07687 0
M  V30 37 H 5.0371 -1.91871 4.90401 0
M  V30 38 H 7.5281 -0.993196 3.64615 0
M  V30 39 H 7.8411 -1.42111 7.59621 0
M  V30 40 H 6.1861 -1.28487 6.8302 0
M  V30 41 H 9.3771 -1.14877 4.53785 0
M  V30 42 H 9.5501 -1.34412 6.33906 0
M  V30 43 N 2.9562 -1.48159 -0.537278 0
M  V30 44 C 4.2042 -1.55497 -1.29094 0
M  V30 45 C 4.5252 -0.227454 -1.93669 0
M  V30 46 O 3.7952 0.750386 -1.80959 0
M  V30 47 H 2.3752 -0.572832 -0.47945 0
M  V30 48 H 5.0372 -1.84579 -0.625818 0
M  V30 49 H 4.1332 -2.33216 -2.07405 0
M  V30 50 N 4.4343 0.785586 -1.36625 0
M  V30 51 C 5.6823 1.54057 -1.30808 0
M  V30 52 C 6.0033 1.94683 0.111157 0
M  V30 53 O 5.2733 1.65241 1.05224 0
M  V30 54 H 3.8533 0.571354 -0.481211 0
M  V30 55 H 6.5153 0.935821 -1.70963 0
M  V30 56 H 5.6113 2.44637 -1.93801 0
M  V30 57 N 5.9124 1.20967 1.01018 0
M  V30 58 C 7.1584 1.02526 1.74975 0
M  V30 59 C 7.4914 -0.4408 1.89131 0
M  V30 60 O 6.7664 -1.32718 1.42184 0
M  V30 61 C 7.0494 1.71699 3.1653 0
M  V30 62 C 6.9024 3.25791 3.10129 0
M  V30 63 C 8.2214 1.45531 4.15342 0
M  V30 64 H 5.3404 0.373863 0.635134 0
M  V30 65 H 7.9824 1.49071 1.17805 0
M  V30 66 H 6.1324 1.32128 3.65341 0
M  V30 67 H 7.8044 3.74697 2.69072 0
M  V30 68 H 6.0474 3.56363 2.47362 0
M  V30 69 H 6.7184 3.69353 4.10222 0
M  V30 70 H 9.1944 1.79872 3.75213 0
M  V30 71 H 8.0704 1.96453 5.1254 0
M  V30 72 H 8.3314 0.384237 4.40427 0
M  V30 73 N 7.3905 -1.2043 1.01659 0
M  V30 74 C 8.3205 -2.25466 0.607226 0
M  V30 75 C 9.3015 -1.65853 -0.377716 0
M  V30 76 O 10.4865 -1.92409 -0.263149 0
M  V30 77 C 7.6165 -3.47256 -0.0552949 0
M  V30 78 C 6.5705 -4.19462 0.850632 0
M  V30 79 C 5.8965 -5.34673 0.0538859 0
M  V30 80 C 7.1965 -4.75603 2.15868 0
M  V30 81 H 8.8905 -2.59962 1.48526 0
M  V30 82 H 6.4365 -1.2496 0.715605 0
M  V30 83 H 8.3895 -4.19917 -0.353233 0
M  V30 84 H 7.1135 -3.11924 -0.968045 0
M  V30 85 H 5.7725 -3.48667 1.13257 0
M  V30 86 H 5.4205 -4.95585 -0.860514 0
M  V30 87 H 5.1205 -5.83913 0.657192 0
M  V30 88 H 6.6445 -6.10138 -0.237598 0
M  V30 89 H 8.0585 -5.40083 1.92311 0
M  V30 90 H 6.4555 -5.3528 2.71284 0
M  V30 91 H 7.5255 -3.94346 2.82169 0
M  V30 92 N 8.8686 -0.792821 -1.36206 0
M  V30 93 C 9.7986 -0.207853 -2.32573 0
M  V30 94 C 10.7796 0.659055 -1.56813 0
M  V30 95 O 11.9646 0.592176 -1.84951 0
M  V30 96 C 9.0946 0.655449 -3.41059 0
M  V30 97 C 8.0486 -0.111842 -4.27854 0
M  V30 98 C 7.3746 0.872274 -5.27537 0
M  V30 99 C 8.6746 -1.30299 -5.05786 0
M  V30 100 H 10.3686 -1.01294 -2.81744 0
M  V30 101 H 7.9146 -0.48854 -1.3546 0
M  V30 102 H 9.8676 1.07464 -4.07467 0
M  V30 103 H 8.5916 1.49328 -2.90463 0
M  V30 104 H 7.2506 -0.512053 -3.63006 0
M  V30 105 H 6.8986 1.70523 -4.73214 0
M  V30 106 H 6.5986 0.363291 -5.86476 0
M  V30 107 H 8.1226 1.28996 -5.96818 0
M  V30 108 H 9.5366 -0.959379 -5.65216 0
M  V30 109 H 7.9336 -1.7455 -5.74154 0
M  V30 110 H 9.0036 -2.09663 -4.37229 0
M  V30 111 N 10.3467 1.47872 -0.545128 0
M  V30 112 C 11.5927 2.02793 -0.0166104 0
M  V30 113 C 11.9257 1.41987 1.32489 0
M  V30 114 O 11.2007 0.571045 1.85928 0
M  V30 115 C 11.4837 3.59989 0.0893294 0
M  V30 116 C 11.3367 4.3125 -1.27841 0
M  V30 117 C 12.6557 4.32606 0.808724 0
M  V30 118 H 9.7747 0.736962 -0.00751035 0
M  V30 119 H 12.4167 1.76433 -0.705085 0
M  V30 120 H 10.5667 3.82579 0.675681 0
M  V30 121 H 12.2387 4.20035 -1.90704 0
M  V30 122 H 10.4817 3.92076 -1.85632 0
M  V30 123 H 11.1527 5.39736 -1.15713 0
M  V30 124 H 13.6287 4.14936 0.310992 0
M  V30 125 H 12.5047 5.42251 0.851782 0
M  V30 126 H 12.7657 4.00963 1.86229 0
M  V30 127 N 11.8248 0.280983 1.55075 0
M  V30 128 C 12.7548 -0.597469 2.25727 0
M  V30 129 C 13.7358 -1.15417 1.24952 0
M  V30 130 O 14.9208 -1.18722 1.53684 0
M  V30 131 C 12.0508 -1.7789 2.98283 0
M  V30 132 C 11.0048 -1.35347 4.06036 0
M  V30 133 C 10.3308 -2.61846 4.66198 0
M  V30 134 C 11.6308 -0.499354 5.19907 0
M  V30 135 H 13.3248 -0.00824265 2.99399 0
M  V30 136 H 10.8708 -0.0025244 1.44 0
M  V30 137 H 12.8238 -2.39937 3.46422 0
M  V30 138 H 11.5478 -2.39405 2.22155 0
M  V30 139 H 10.2068 -0.756156 3.58717 0
M  V30 140 H 9.8548 -3.21632 3.86732 0
M  V30 141 H 9.5548 -2.3409 5.38958 0
M  V30 142 H 11.0788 -3.24732 5.1709 0
M  V30 143 H 12.4928 -1.02498 5.64063 0
M  V30 144 H 10.8898 -0.316424 5.99265 0
M  V30 145 H 11.9598 0.480459 4.82514 0
M  V30 146 N 13.3029 -1.57598 0.00835791 0
M  V30 147 C 14.2329 -2.1198 -0.979113 0
M  V30 148 C 15.2139 -1.03091 -1.35301 0
M  V30 149 O 16.3989 -1.30818 -1.43528 0
M  V30 150 C 13.5289 -2.62995 -2.26828 0
M  V30 151 C 12.4829 -3.76485 -2.03576 0
M  V30 152 C 11.8089 -4.13846 -3.38579 0
M  V30 153 C 13.1089 -5.0342 -1.39161 0
M  V30 154 H 14.8029 -2.94738 -0.526281 0
M  V30 155 H 12.3489 -1.41783 -0.251704 0
M  V30 156 H 14.3019 -2.99669 -2.96271 0
M  V30 157 H 13.0259 -1.7737 -2.7424 0
M  V30 158 H 11.6849 -3.40217 -1.36557 0
M  V30 159 H 11.3329 -3.25232 -3.83709 0
M  V30 160 H 11.0329 -4.90312 -3.23834 0
M  V30 161 H 12.5569 -4.53086 -4.09323 0
M  V30 162 H 13.9709 -5.37812 -1.98573 0
M  V30 163 H 12.3679 -5.84746 -1.34878 0
M  V30 164 H 13.4379 -4.83548 -0.361868 0
M  V30 165 N 14.781 0.264519 -1.55364 0
M  V30 166 C 15.711 1.33121 -1.91836 0
M  V30 167 C 16.692 1.51101 -0.781192 0
M  V30 168 O 17.877 1.64003 -1.04003 0
M  V30 169 C 15.007 2.68921 -2.19769 0
M  V30 170 C 13.961 2.65661 -3.35571 0
M  V30 171 C 13.287 4.05093 -3.49004 0
M  V30 172 C 14.587 2.24187 -4.71739 0
M  V30 173 H 16.281 1.02844 -2.81182 0
M  V30 174 H 13.827 0.493286 -1.35287 0
M  V30 175 H 15.78 3.43663 -2.43872 0
M  V30 176 H 14.504 3.00799 -1.27231 0
M  V30 177 H 13.163 1.93377 -3.1145 0
M  V30 178 H 12.811 4.34206 -2.53917 0
M  V30 179 H 12.511 4.03804 -4.26868 0
M  V30 180 H 14.035 4.81561 -3.75408 0
M  V30 181 H 15.449 2.88654 -4.9533 0
M  V30 182 H 13.846 2.34044 -5.52579 0
M  V30 183 H 14.916 1.19327 -4.69988 0
M  V30 184 N 16.2591 1.48442 0.529413 0
M  V30 185 C 17.4991 1.58086 1.29569 0
M  V30 186 C 17.8631 0.249302 1.90375 0
M  V30 187 O 19.0641 0.220738 2.67892 0
M  V30 188 C 17.3351 2.68793 2.35552 0
M  V30 189 S 18.8941 2.98207 3.21898 0
M  V30 190 H 15.7121 0.557922 0.440732 0
M  V30 191 H 18.3141 1.85966 0.603059 0
M  V30 192 H 17.0181 3.64102 1.89363 0
M  V30 193 H 16.5491 2.42817 3.09522 0
M  V30 194 H 18.5641 2.37548 4.35644 0
M  V30 195 N 17.7372 -0.778329 1.37039 0
M  V30 196 C 18.9832 -1.53892 1.32079 0
M  V30 197 C 19.3162 -1.9396 -0.0965386 0
M  V30 198 O 18.5912 -1.63568 -1.05242 0
M  V30 199 C 18.8742 -2.80847 2.25382 0
M  V30 200 C 18.7272 -2.47076 3.75864 0
M  V30 201 C 20.0462 -3.82741 2.1725 0
M  V30 202 H 17.1652 -0.558303 0.48111 0
M  V30 203 H 19.8072 -0.893397 1.67685 0
M  V30 204 H 17.9572 -3.35931 1.95148 0
M  V30 205 H 19.6292 -1.97957 4.16666 0
M  V30 206 H 17.8722 -1.79863 3.94755 0
M  V30 207 H 18.5432 -3.37798 4.36574 0
M  V30 208 H 21.0192 -3.37133 2.43887 0
M  V30 209 H 19.8952 -4.69303 2.84686 0
M  V30 210 H 20.1562 -4.2652 1.16331 0
M  V30 211 N 19.2153 -1.21501 -1.00376 0
M  V30 212 C 20.1783 -0.976927 -2.07337 0
M  V30 213 C 21.1783 0.0525322 -1.60714 0
M  V30 214 O 22.3683 -0.184869 -1.73216 0
M  V30 215 C 19.5003 -0.473423 -3.37597 0
M  V30 216 H 20.6933 -1.92587 -2.29892 0
M  V30 217 H 18.2463 -1.03217 -1.17371 0
M  V30 218 H 18.9813 0.480379 -3.20722 0
M  V30 219 H 18.7663 -1.216 -3.72768 0
M  V30 220 H 20.2563 -0.32675 -4.1632 0
M  V30 221 N 20.6934 1.19889 -1.02296 0
M  V30 222 C 21.6564 2.21116 -0.603351 0
M  V30 223 C 22.6564 1.5738 0.329884 0
M  V30 224 O 23.8464 1.73802 0.117702 0
M  V30 225 C 20.9784 3.40696 0.117992 0
M  V30 226 H 22.1714 2.59754 -1.49893 0
M  V30 227 H 19.7244 1.33463 -0.813468 0
M  V30 228 H 20.4594 3.07569 1.0282 0
M  V30 229 H 20.2444 3.88188 -0.552511 0
M  V30 230 H 21.7344 4.15692 0.398696 0
M  V30 231 N 22.1715 0.800033 1.35784 0
M  V30 232 C 23.1035 0.163596 2.28615 0
M  V30 233 C 24.1165 -0.633317 1.49976 0
M  V30 234 O 25.3055 -0.466754 1.72289 0
M  V30 235 C 22.4055 -0.790958 3.29541 0
M  V30 236 C 21.5785 -0.0418255 4.3738 0
M  V30 237 C 20.6375 -0.91389 5.18203 0
M  V30 238 O 19.6635 -0.367234 5.68014 0
M  V30 239 N 20.8655 -2.23682 5.35674 0
M  V30 240 H 23.6305 0.96105 2.83873 0
M  V30 241 H 21.1915 0.654894 1.48063 0
M  V30 242 H 23.1835 -1.37844 3.80501 0
M  V30 243 H 21.7535 -1.48925 2.74846 0
M  V30 244 H 20.9735 0.726813 3.87442 0
M  V30 245 H 22.2615 0.474719 5.06581 0
M  V30 246 H 21.6595 -2.70497 4.96838 0
M  V30 247 H 20.2165 -2.77369 5.89839 0
M  V30 248 N 23.6496 -1.47581 0.552962 0
M  V30 249 C 24.8896 -2.04379 0.0296245 0
M  V30 250 C 25.2536 -1.4185 -1.29393 0
M  V30 251 O 26.4546 -1.89669 -1.90471 0
M  V30 252 C 24.7256 -3.57339 -0.0661371 0
M  V30 253 S 26.2846 -4.35511 -0.536213 0
M  V30 254 H 23.1026 -0.710625 0.0230991 0
M  V30 255 H 25.7046 -1.81005 0.738734 0
M  V30 256 H 24.4086 -4.00374 0.901596 0
M  V30 257 H 23.9396 -3.85202 -0.798931 0
M  V30 258 H 25.9546 -4.6253 -1.79668 0
M  V30 259 N 25.1277 -0.289203 -1.54924 0
M  V30 260 C 26.5437 0.0645403 -1.59469 0
M  V30 261 C 26.7437 1.53419 -1.30632 0
M  V30 262 O 25.7997 2.2852 -1.074 0
M  V30 263 C 27.1127 -0.32278 -2.98963 0
M  V30 264 C 28.6607 -0.270564 -3.11828 0
M  V30 265 C 29.1357 -0.632532 -4.53611 0
M  V30 266 N 30.6267 -0.584617 -4.59496 0
M  V30 267 C 31.3617 -0.837314 -5.67254 0
M  V30 268 N 30.8577 -1.15536 -6.83098 0
M  V30 269 N 32.6507 -0.765166 -5.56868 0
M  V30 270 H 24.8017 -1.24714 -1.71931 0
M  V30 271 H 27.0647 -0.504809 -0.802416 0
M  V30 272 H 26.7707 -1.34541 -3.24948 0
M  V30 273 H 26.6447 0.32944 -3.75759 0
M  V30 274 H 29.0317 0.742805 -2.85598 0
M  V30 275 H 29.1127 -0.957242 -2.37214 0
M  V30 276 H 28.7567 -1.64365 -4.80569 0
M  V30 277 H 28.6867 0.07609 -5.26545 0
M  V30 278 H 31.1777 -0.349248 -3.76283 0
M  V30 279 H 31.4907 -1.33447 -7.61191 0
M  V30 280 H 29.8357 -1.19328 -6.84679 0
M  V30 281 H 33.0267 -0.516432 -4.65243 0
M  V30 282 H 33.1997 -0.965477 -6.40767 0
M  V30 283 N 26.6058 1.57591 -0.0167156 0
M  V30 284 C 27.5378 2.06343 0.997753 0
M  V30 285 C 28.5508 0.984469 1.29661 0
M  V30 286 O 29.7398 1.26093 1.26344 0
M  V30 287 C 26.8398 2.46255 2.32834 0
M  V30 288 C 26.0128 3.77083 2.21646 0
M  V30 289 C 25.0718 4.0368 3.37534 0
M  V30 290 O 24.0978 4.7411 3.14973 0
M  V30 291 N 25.2998 3.52881 4.60929 0
M  V30 292 H 28.0648 2.93997 0.581875 0
M  V30 293 H 25.6258 1.61002 0.170316 0
M  V30 294 H 27.6178 2.61149 3.09166 0
M  V30 295 H 26.1878 1.64032 2.66106 0
M  V30 296 H 25.4078 3.72106 1.30119 0
M  V30 297 H 26.6958 4.62822 2.11361 0
M  V30 298 H 26.0938 2.95878 4.82154 0
M  V30 299 H 24.6508 3.73076 5.34469 0
M  V30 300 N 28.0839 -0.256276 1.55502 0
M  V30 301 C 29.4999 -0.604325 1.47716 0
M  V30 302 C 29.6999 -1.88763 0.705039 0
M  V30 303 O 28.7559 -2.51445 0.230613 0
M  V30 304 C 30.0689 -0.715756 2.92057 0
M  V30 305 C 31.6169 -0.808706 3.02372 0
M  V30 306 C 32.0919 -0.951777 4.48001 0
M  V30 307 N 33.5829 -1.01688 4.519 0
M  V30 308 C 34.3179 -1.14668 5.61817 0
M  V30 309 N 33.8139 -1.24261 6.81565 0
M  V30 310 N 35.6069 -1.1791 5.49594 0
M  V30 311 H 27.7579 0.586291 2.04148 0
M  V30 312 H 30.0209 0.201015 0.926443 0
M  V30 313 H 29.7269 0.157027 3.51349 0
M  V30 314 H 29.6009 -1.59071 3.42018 0
M  V30 315 H 31.9879 -1.67195 2.43166 0
M  V30 316 H 32.0689 0.0912063 2.55637 0
M  V30 317 H 31.7129 -0.0931291 5.07815 0
M  V30 318 H 31.6429 -1.86659 4.92408 0
M  V30 319 H 34.1339 -0.954468 3.65648 0
M  V30 320 H 34.4469 -1.34046 7.61086 0
M  V30 321 H 32.7919 -1.21236 6.84344 0
M  V30 322 H 35.9829 -1.10057 4.54978 0
M  V30 323 H 36.1559 -1.27681 6.35296 0
M  V30 324 N 29.562 -1.4872 -0.521534 0
M  V30 325 C 30.81 -1.56857 -1.27437 0
M  V30 326 C 31.131 -0.247982 -1.93417 0
M  V30 327 O 30.401 0.731151 -1.81744 0
M  V30 328 H 28.981 -0.577885 -0.473347 0
M  V30 329 H 31.643 -1.85233 -0.606205 0
M  V30 330 H 30.739 -2.35402 -2.0492 0
M  V30 331 N 31.0401 0.771051 -1.3745 0
M  V30 332 C 31.9701 1.89827 -1.3597 0
M  V30 333 C 32.9511 1.68562 -0.228216 0
M  V30 334 O 34.1361 1.8941 -0.428675 0
M  V30 335 C 31.2661 3.2712 -1.16662 0
M  V30 336 C 30.2201 3.6295 -2.2683 0
M  V30 337 C 29.5461 4.98791 -1.92644 0
M  V30 338 C 30.8461 3.69627 -3.69017 0
M  V30 339 H 32.5401 1.91323 -2.30295 0
M  V30 340 H 30.0861 0.919082 -1.10855 0
M  V30 341 H 32.0391 4.05615 -1.14256 0
M  V30 342 H 30.7631 3.26059 -0.187926 0
M  V30 343 H 29.4221 2.86763 -2.28392 0
M  V30 344 H 29.0701 4.94271 -0.933021 0
M  V30 345 H 28.7701 5.23733 -2.66416 0
M  V30 346 H 30.2941 5.79685 -1.91826 0
M  V30 347 H 31.7081 4.38273 -3.69581 0
M  V30 348 H 30.1051 4.06067 -4.41848 0
M  V30 349 H 31.1751 2.70273 -4.02592 0
M  V30 350 N 32.5182 1.22032 0.997298 0
M  V30 351 C 33.7652 1.04222 1.73621 0
M  V30 352 C 34.0932 -0.423264 1.89839 0
M  V30 353 O 33.3482 -1.3302 1.43542 0
M  V30 354 C 33.6472 1.69345 3.14733 0
M  V30 355 C 33.3132 3.19226 3.18442 0
M  V30 356 C 31.9752 3.60124 3.19161 0
M  V30 357 C 34.3272 4.15181 3.15078 0
M  V30 358 C 31.6552 4.95467 3.14212 0
M  V30 359 C 34.0072 5.50495 3.1167 0
M  V30 360 C 32.6712 5.90779 3.10703 0
M  V30 361 H 31.9412 0.381374 0.635323 0
M  V30 362 H 34.5882 1.51732 1.16831 0
M  V30 363 H 32.8932 1.14147 3.74803 0
M  V30 364 H 34.5902 1.53059 3.7064 0
M  V30 365 H 31.1802 2.86659 3.18629 0
M  V30 366 H 35.3642 3.84605 3.13676 0
M  V30 367 H 30.6202 5.25916 3.11805 0
M  V30 368 H 34.7942 6.24576 3.08022 0
M  V30 369 H 32.4212 6.9562 3.06622 0
M  V30 370 N 33.9963 -1.19345 1.0293 0
M  V30 371 C 35.4073 -1.70725 0.755633 0
M  V30 372 C 35.7583 -1.82326 -0.724676 0
M  V30 373 O 34.8833 -1.49471 -1.56484 0
M  V30 374 C 35.4783 -3.10084 1.36503 0
M  V30 375 C 34.0373 -3.58723 1.13994 0
M  V30 376 C 33.1843 -2.35577 1.46283 0
M  V30 377 H 36.1353 -1.0418 1.19718 0
M  V30 378 H 36.1563 -3.72787 0.762217 0
M  V30 379 H 35.6683 -3.01609 2.44241 0
M  V30 380 H 33.7693 -3.72512 0.0807901 0
M  V30 381 H 33.8823 -4.42816 1.82894 0
M  V30 382 H 32.2463 -2.38935 0.88217 0
M  V30 383 H 33.0293 -2.29731 2.55105 0
M  V30 384 N 35.4744 -0.807222 -1.35358 0
M  V30 385 C 36.4374 -0.223665 -2.28106 0
M  V30 386 C 37.4374 0.589354 -1.4961 0
M  V30 387 O 38.6274 0.407745 -1.69361 0
M  V30 388 C 35.7594 0.688149 -3.33882 0
M  V30 389 H 36.9524 -1.04169 -2.81227 0
M  V30 390 H 34.5054 -0.577921 -1.45223 0
M  V30 391 H 35.2404 1.52984 -2.85948 0
M  V30 392 H 35.0254 0.10687 -3.91954 0
M  V30 393 H 36.5154 1.09075 -4.03104 0
M  V30 394 N 36.9525 1.47285 -0.560781 0
M  V30 395 C 38.2015 2.01668 -0.035895 0
M  V30 396 C 38.5145 1.44021 1.32353 0
M  V30 397 O 39.7205 1.90088 1.93853 0
M  V30 398 C 38.1765 3.59897 -0.0136659 0
M  V30 399 C 37.7845 4.26536 -1.37006 0
M  V30 400 C 39.5285 4.22017 0.458425 0
M  V30 401 C 37.4355 5.76782 -1.30675 0
M  V30 402 H 36.3655 0.753938 -0.00964879 0
M  V30 403 H 39.0165 1.69243 -0.709166 0
M  V30 404 H 37.3985 3.89301 0.725325 0
M  V30 405 H 38.5725 4.0877 -2.12705 0
M  V30 406 H 36.8875 3.76419 -1.78038 0
M  V30 407 H 39.4845 5.32124 0.524247 0
M  V30 408 H 39.8275 3.89437 1.4712 0
M  V30 409 H 40.3605 3.97159 -0.225818 0
M  V30 410 H 37.0995 6.13988 -2.29564 0
M  V30 411 H 36.6195 5.96875 -0.591622 0
M  V30 412 H 38.2985 6.39063 -1.01033 0
M  V30 413 N 38.4306 0.297415 1.54768 0
M  V30 414 C 39.3606 -0.573494 2.26348 0
M  V30 415 C 40.3416 -1.14085 1.26169 0
M  V30 416 O 41.5266 -1.17086 1.54934 0
M  V30 417 C 38.6566 -1.74716 3.00153 0
M  V30 418 C 37.6106 -1.31032 4.07449 0
M  V30 419 C 36.9366 -2.56887 4.68949 0
M  V30 420 C 38.2366 -0.444183 5.20408 0
M  V30 421 H 39.9306 0.0235131 2.99391 0
M  V30 422 H 37.4766 0.0127488 1.43994 0
M  V30 423 H 39.4296 -2.3625 3.48947 0
M  V30 424 H 38.1536 -2.37035 2.24682 0
M  V30 425 H 36.8126 -0.718066 3.59499 0
M  V30 426 H 36.4606 -3.17512 3.90122 0
M  V30 427 H 36.1606 -2.2836 5.41411 0
M  V30 428 H 37.6846 -3.19229 5.20505 0
M  V30 429 H 39.0986 -0.9651 5.65118 0
M  V30 430 H 37.4956 -0.252846 5.99567 0
M  V30 431 H 38.5656 0.531609 4.81977 0
M  V30 432 N 39.9087 -1.5758 0.0250728 0
M  V30 433 C 40.8567 -2.11125 -0.97617 0
M  V30 434 C 41.8507 -1.03689 -1.33959 0
M  V30 435 O 43.0567 -1.22128 -1.3223 0
M  V30 436 H 39.4317 -0.674468 -0.332561 0
M  V30 437 H 41.4027 -2.94194 -0.499223 0
M  V30 438 C 40.1517 -2.65017 -2.2508 0
M  V30 439 H 39.4747 -3.47333 -1.9799 0
M  V30 440 H 40.9147 -3.06133 -2.93357 0
M  V30 441 C 39.3737 -1.57574 -2.97779 0
M  V30 442 O 39.9037 -0.973203 -3.89733 0
M  V30 443 N 38.1097 -1.29716 -2.60043 0
M  V30 444 H 37.6567 -1.789 -1.85345 0
M  V30 445 H 37.6147 -0.58051 -3.08994 0
M  V30 446 N 41.3868 0.248026 -1.55636 0
M  V30 447 C 42.3168 1.31079 -1.93237 0
M  V30 448 C 43.2978 1.50264 -0.797174 0
M  V30 449 O 44.4828 1.62891 -1.05737 0
M  V30 450 C 41.6128 2.66575 -2.22609 0
M  V30 451 C 40.5668 2.62087 -3.3837 0
M  V30 452 C 39.8928 4.01369 -3.53281 0
M  V30 453 C 41.1928 2.19171 -4.7409 0
M  V30 454 H 42.8868 0.998556 -2.82257 0
M  V30 455 H 40.4328 0.47891 -1.35803 0
M  V30 456 H 42.3858 3.41057 -2.47503 0
M  V30 457 H 41.1098 2.99432 -1.30414 0
M  V30 458 H 39.7688 1.90063 -3.13483 0
M  V30 459 H 39.4168 4.31489 -2.58508 0
M  V30 460 H 39.1168 3.99254 -4.31127 0
M  V30 461 H 40.6408 4.77552 -3.80495 0
M  V30 462 H 42.0548 2.83384 -4.98363 0
M  V30 463 H 40.4518 2.2817 -5.5503 0
M  V30 464 H 41.5218 1.14336 -4.71227 0
M  V30 465 N 42.8649 1.48995 0.513639 0
M  V30 466 C 43.8279 1.64229 1.59879 0
M  V30 467 C 44.8279 0.514696 1.5234 0
M  V30 468 O 46.0179 0.78087 1.55718 0
M  V30 469 C 43.1499 1.62783 2.99524 0
M  V30 470 H 44.3429 2.61004 1.47705 0
M  V30 471 H 41.8959 1.37837 0.736936 0
M  V30 472 H 42.6309 0.675461 3.17188 0
M  V30 473 H 42.4159 2.4466 3.06404 0
M  V30 474 H 43.9059 1.76669 3.78388 0
M  V30 475 N 44.343 -0.763751 1.37857 0
M  V30 476 C 45.568 -1.55805 1.36893 0
M  V30 477 C 45.993 -1.88054 -0.0416135 0
M  V30 478 O 45.351 -1.49825 -1.02089 0
M  V30 479 C 45.399 -2.84012 2.22192 0
M  V30 480 O 44.503 -3.78732 1.63204 0
M  V30 481 H 43.844 -0.471638 0.46739 0
M  V30 482 H 46.374 -0.944657 1.81487 0
M  V30 483 H 46.384 -3.33037 2.35691 0
M  V30 484 H 45.059 -2.59869 3.24716 0
M  V30 485 H 43.636 -3.37402 1.58791 0
M  V30 486 N 45.8211 -1.22559 -0.990812 0
M  V30 487 C 46.7691 -0.994798 -2.10253 0
M  V30 488 C 47.7631 0.0627798 -1.69284 0
M  V30 489 O 48.9691 -0.0898392 -1.79776 0
M  V30 490 H 45.3441 -0.304527 -0.687581 0
M  V30 491 H 47.3151 -1.93812 -2.26891 0
M  V30 492 C 46.0641 -0.591439 -3.42633 0
M  V30 493 H 45.3871 -1.3969 -3.74602 0
M  V30 494 H 46.8271 -0.469385 -4.21394 0
M  V30 495 C 45.2861 0.699232 -3.29564 0
M  V30 496 O 45.8161 1.75112 -3.61523 0
M  V30 497 N 44.0221 0.671182 -2.82743 0
M  V30 498 H 43.5691 -0.185136 -2.56934 0
M  V30 499 H 43.5271 1.53502 -2.7438 0
M  V30 500 N 47.2992 1.18797 -1.03562 0
M  V30 501 C 48.2622 2.20464 -0.626769 0
M  V30 502 C 49.2622 1.57721 0.313173 0
M  V30 503 O 50.4522 1.73917 0.0992615 0
M  V30 504 C 47.5842 3.40802 0.0818498 0
M  V30 505 H 48.7772 2.58149 -1.5264 0
M  V30 506 H 46.3302 1.32593 -0.827578 0
M  V30 507 H 47.0652 3.08642 0.995518 0
M  V30 508 H 46.8502 3.8758 -0.593652 0
M  V30 509 H 48.3402 4.16092 0.354584 0
M  V30 510 N 48.7773 0.814389 1.34928 0
M  V30 511 C 49.7273 0.202752 2.27097 0
M  V30 512 C 50.7113 -0.62799 1.48139 0
M  V30 513 O 51.9033 -0.483969 1.70255 0
M  V30 514 C 49.0323 -0.64146 3.37254 0
M  V30 515 C 48.1183 0.19944 4.23631 0
M  V30 516 N 48.5093 1.26628 4.89693 0
M  V30 517 C 46.8073 -0.0176433 4.45997 0
M  V30 518 C 47.5083 1.78031 5.53787 0
M  V30 519 N 46.4843 1.08553 5.32651 0
M  V30 520 H 50.2863 1.01893 2.75672 0
M  V30 521 H 47.8003 0.656332 1.48546 0
M  V30 522 H 49.7973 -1.09575 4.02243 0
M  V30 523 H 48.4573 -1.4559 2.9023 0
M  V30 524 H 49.4683 1.64901 4.90946 0
M  V30 525 H 46.1453 -0.800601 4.09752 0
M  V30 526 H 47.5353 2.67236 6.16469 0
M  V30 527 N 50.2554 -1.46986 0.568584 0
M  V30 528 C 51.5044 -2.01646 0.0465894 0
M  V30 529 C 51.8174 -1.44721 -1.31587 0
M  V30 530 O 53.0234 -1.91113 -1.92842 0
M  V30 531 C 51.4794 -3.59885 0.032752 0
M  V30 532 C 51.0874 -4.25804 1.39266 0
M  V30 533 C 52.8314 -4.22255 -0.436038 0
M  V30 534 C 50.7384 -5.76081 1.33732 0
M  V30 535 H 49.6684 -0.753876 0.013647 0
M  V30 536 H 52.3194 -1.68864 0.718131 0
M  V30 537 H 50.7014 -3.8968 -0.704669 0
M  V30 538 H 51.8754 -4.07637 2.1487 0
M  V30 539 H 50.1904 -3.7547 1.80032 0
M  V30 540 H 52.7874 -5.32394 -0.49602 0
M  V30 541 H 53.1304 -3.90212 -1.45053 0
M  V30 542 H 53.6634 -3.97033 0.246877 0
M  V30 543 H 50.4024 -6.12761 2.32817 0
M  V30 544 H 49.9224 -5.96553 0.623267 0
M  V30 545 H 51.6014 -6.38518 1.0442 0
M  V30 546 N 51.7335 -0.305618 -1.54608 0
M  V30 547 C 52.9585 0.307562 -2.05107 0
M  V30 548 C 53.3835 1.46385 -1.18123 0
M  V30 549 O 52.7415 1.8034 -0.186324 0
M  V30 550 C 52.7895 0.73704 -3.52987 0
M  V30 551 O 51.8935 1.84134 -3.6901 0
M  V30 552 H 51.2345 0.0589143 -0.661381 0
M  V30 553 H 53.7645 -0.448807 -1.99617 0
M  V30 554 H 53.7745 1.02459 -3.94925 0
M  V30 555 H 52.4495 -0.108773 -4.15758 0
M  V30 556 H 51.0265 1.55398 -3.38978 0
M  V30 557 N 53.2116 1.57565 -0.0334293 0
M  V30 558 C 54.4396 1.9628 0.654347 0
M  V30 559 C 54.8546 0.910138 1.65414 0
M  V30 560 O 54.2116 -0.107595 1.82183 0
M  V30 561 C 54.2626 3.35067 1.35693 0
M  V30 562 O 53.9836 4.36296 0.397191 0
M  V30 563 C 55.4846 3.88439 2.13613 0
M  V30 564 H 52.7046 0.646369 0.180132 0
M  V30 565 H 55.2486 2.04282 -0.0944721 0
M  V30 566 H 53.4036 3.2827 2.05712 0
M  V30 567 H 53.8176 5.1678 0.896597 0
M  V30 568 H 55.2916 4.8788 2.58219 0
M  V30 569 H 55.7686 3.22914 2.97696 0
M  V30 570 H 56.3746 3.98516 1.48543 0
M  V30 571 N 54.6897 -0.239769 1.55765 0
M  V30 572 C 55.6377 -1.31668 1.91745 0
M  V30 573 C 56.6317 -1.49462 0.797338 0
M  V30 574 O 57.8377 -1.50852 0.982021 0
M  V30 575 H 54.2127 -0.441048 0.609082 0
M  V30 576 H 56.1837 -0.985923 2.81642 0
M  V30 577 C 54.9327 -2.66368 2.2348 0
M  V30 578 H 54.2557 -2.53478 3.09175 0
M  V30 579 H 55.6957 -3.40578 2.52553 0
M  V30 580 C 54.1547 -3.20002 1.05359 0
M  V30 581 O 54.6847 -4.00538 0.305261 0
M  V30 582 N 52.8907 -2.78126 0.842292 0
M  V30 583 H 52.4377 -2.12742 1.45253 0
M  V30 584 H 52.3957 -3.14354 0.053652 0
M  V30 585 N 56.1678 -1.49265 -0.50573 0
M  V30 586 C 57.1308 -1.65075 -1.59006 0
M  V30 587 C 58.1308 -0.522768 -1.52065 0
M  V30 588 O 59.3208 -0.789117 -1.55302 0
M  V30 589 C 56.4528 -1.64369 -2.98656 0
M  V30 590 H 57.6458 -2.61784 -1.46319 0
M  V30 591 H 55.1988 -1.38226 -0.729616 0
M  V30 592 H 55.9338 -0.692272 -3.16825 0
M  V30 593 H 55.7188 -2.46282 -3.05103 0
M  V30 594 H 57.2088 -1.78674 -3.77446 0
M  V30 595 N 57.6459 0.756429 -1.3826 0
M  V30 596 C 58.8739 1.54565 -1.3754 0
M  V30 597 C 59.2889 1.88767 0.0355331 0
M  V30 598 O 58.6459 1.52572 1.0014 0
M  V30 599 C 58.6969 2.84654 -2.22833 0
M  V30 600 O 58.4179 2.51912 -3.5843 0
M  V30 601 C 59.9189 3.78807 -2.30261 0
M  V30 602 H 57.1389 0.478353 -0.470553 0
M  V30 603 H 59.6829 0.936381 -1.81803 0
M  V30 604 H 57.8379 3.41965 -1.8204 0
M  V30 605 H 58.2519 3.35325 -4.03308 0
M  V30 606 H 59.7259 4.67045 -2.94233 0
M  V30 607 H 60.2029 4.19038 -1.31545 0
M  V30 608 H 60.8089 3.2742 -2.71433 0
M  V30 609 N 59.124 1.23083 0.984299 0
M  V30 610 C 60.364 1.07226 1.74017 0
M  V30 611 C 60.728 -0.384766 1.88105 0
M  V30 612 O 61.929 -0.664411 2.60459 0
M  V30 613 C 60.2 1.77348 3.10294 0
M  V30 614 S 61.759 1.77014 4.01512 0
M  V30 615 H 58.577 0.383819 0.598502 0
M  V30 616 H 61.179 1.56158 1.17622 0
M  V30 617 H 59.883 2.82506 2.97689 0
M  V30 618 H 59.414 1.28682 3.71759 0
M  V30 619 H 61.429 0.825956 4.89277 0
M  V30 620 N 60.6021 -1.18246 1.0419 0
M  V30 621 C 61.8501 -1.87886 0.744543 0
M  V30 622 C 62.1711 -1.8082 -0.730006 0
M  V30 623 O 61.4411 -1.22736 -1.52685 0
M  V30 624 H 60.0211 -0.695556 0.272417 0
M  V30 625 H 62.6831 -1.43494 1.31892 0
M  V30 626 H 61.7791 -2.9389 1.05049 0
M  V30 627 N 62.0802 -0.821533 -1.34494 0
M  V30 628 C 62.9902 -0.244355 -2.33324 0
M  V30 629 C 64.0062 0.620527 -1.62559 0
M  V30 630 O 65.1822 0.528754 -1.94335 0
M  V30 631 C 62.2472 0.585368 -3.41723 0
M  V30 632 C 61.3082 -0.301752 -4.28238 0
M  V30 633 C 60.5412 0.488466 -5.3146 0
M  V30 634 O 60.7642 1.72186 -5.4379 0
M  V30 635 O 59.6982 -0.12848 -6.01763 0
M  V30 636 H 63.5242 -1.06231 -2.84515 0
M  V30 637 H 61.1092 -0.583645 -1.37528 0
M  V30 638 H 62.9912 1.05747 -4.07916 0
M  V30 639 H 61.6662 1.38068 -2.92778 0
M  V30 640 H 60.5732 -0.821315 -3.64973 0
M  V30 641 H 61.9062 -1.06138 -4.8062 0
M  V30 642 N 63.5583 1.46682 -0.576371 0
M  V30 643 C 64.5053 2.30241 0.160499 0
M  V30 644 C 65.4753 1.40233 0.890162 0
M  V30 645 O 66.6603 1.69186 0.882084 0
M  V30 646 C 63.8003 3.24578 1.1723 0
M  V30 647 C 62.9133 4.29684 0.446736 0
M  V30 648 C 62.0483 5.11154 1.44551 0
M  V30 649 C 61.0873 6.08015 0.70599 0
M  V30 650 N 60.2243 6.82376 1.65251 0
M  V30 651 H 65.0643 2.92727 -0.558127 0
M  V30 652 H 62.6013 1.44272 -0.287056 0
M  V30 653 H 64.5593 3.77711 1.77172 0
M  V30 654 H 63.1893 2.63916 1.85872 0
M  V30 655 H 62.2413 3.79458 -0.267594 0
M  V30 656 H 63.5533 4.98626 -0.131686 0
M  V30 657 H 62.7073 5.68533 2.11791 0
M  V30 658 H 61.4463 4.42158 2.05786 0
M  V30 659 H 60.4513 5.49796 0.0197725 0
M  V30 660 H 61.6763 6.79028 0.09912 0
M  V30 661 H 59.6223 6.16094 2.25308 0
M  V30 662 H 59.5393 7.47556 1.12673 0
M  V30 663 H 60.8073 7.44316 2.31546 0
M  V30 664 N 65.0364 0.313813 1.54444 0
M  V30 665 C 66.2844 -0.291099 1.99993 0
M  V30 666 C 66.6054 -1.53418 1.20366 0
M  V30 667 O 65.8754 -1.93544 0.302927 0
M  V30 668 H 64.4554 -0.110552 0.738774 0
M  V30 669 H 67.1174 0.428106 1.9014 0
M  V30 670 H 66.2134 -0.554268 3.07139 0
M  V30 671 N 66.5145 -1.57545 0.0417849 0
M  V30 672 C 67.9255 -1.80011 -0.495259 0
M  V30 673 C 68.2765 -0.953199 -1.71489 0
M  V30 674 O 67.4015 -0.167138 -2.15754 0
M  V30 675 C 67.9965 -3.26482 -0.905265 0
M  V30 676 C 66.5555 -3.499 -1.38734 0
M  V30 677 C 65.7025 -2.74979 -0.358056 0
M  V30 678 H 68.6535 -1.56425 0.267736 0
M  V30 679 H 68.6745 -3.36887 -1.76882 0
M  V30 680 H 68.1865 -3.88096 -0.017401 0
M  V30 681 H 66.2875 -2.93553 -2.29471 0
M  V30 682 H 66.4005 -4.58615 -1.38598 0
M  V30 683 H 64.7645 -2.40834 -0.828912 0
M  V30 684 H 65.5475 -3.39315 0.521561 0
M  V30 685 N 67.9926 0.231505 -1.5589 0
M  V30 686 C 68.9026 1.308 -1.94752 0
M  V30 687 C 69.9186 1.51826 -0.849989 0
M  V30 688 O 71.0946 1.6515 -1.15271 0
M  V30 689 C 68.1596 2.63968 -2.24771 0
M  V30 690 C 67.2206 2.51331 -3.48039 0
M  V30 691 C 66.4536 3.78148 -3.76616 0
M  V30 692 O 66.6766 4.80722 -3.07022 0
M  V30 693 O 65.6106 3.75857 -4.70123 0
M  V30 694 H 69.4366 1.0083 -2.86474 0
M  V30 695 H 67.0216 0.433547 -1.42971 0
M  V30 696 H 68.9036 3.42633 -2.45318 0
M  V30 697 H 67.5786 2.9364 -1.36225 0
M  V30 698 H 66.4856 1.709 -3.32782 0
M  V30 699 H 67.8186 2.26601 -4.36936 0
M  V30 700 N 69.4707 1.49531 0.497807 0
M  V30 701 C 70.4037 1.61043 1.6168 0
M  V30 702 C 71.3817 0.459386 1.55976 0
M  V30 703 O 72.5657 0.675358 1.75986 0
M  V30 704 C 69.6927 1.56833 3.00202 0
M  V30 705 C 68.7387 2.77173 3.24156 0
M  V30 706 S 69.5717 4.38808 3.06933 0
M  V30 707 C 70.7277 4.37248 4.47845 0
M  V30 708 H 70.9607 2.55702 1.51671 0
M  V30 709 H 68.4937 1.38462 0.683201 0
M  V30 710 H 70.4517 1.55089 3.80076 0
M  V30 711 H 69.1127 0.634561 3.07623 0
M  V30 712 H 68.3057 2.70456 4.25288 0
M  V30 713 H 67.9077 2.76346 2.5201 0
M  V30 714 H 70.1997 4.09164 5.39992 0
M  V30 715 H 71.1427 5.38668 4.59612 0
M  V30 716 H 71.5507 3.67286 4.28674 0
M  V30 717 N 70.9488 -0.749086 1.3866 0
M  V30 718 C 72.1958 -1.50833 1.35114 0
M  V30 719 C 72.5238 -1.94415 -0.0574049 0
M  V30 720 O 71.7788 -1.66065 -1.03541 0
M  V30 721 C 72.0778 -2.7712 2.25697 0
M  V30 722 C 71.7438 -2.52477 3.73585 0
M  V30 723 C 70.4058 -2.45466 4.13884 0
M  V30 724 C 72.7578 -2.31066 4.67181 0
M  V30 725 C 70.0858 -2.15064 5.45861 0
M  V30 726 C 72.4378 -2.02183 5.9942 0
M  V30 727 C 71.1018 -1.93631 6.38798 0
M  V30 728 H 70.3718 -0.551936 0.494416 0
M  V30 729 H 73.0188 -0.860979 1.71054 0
M  V30 730 H 71.3238 -3.46528 1.82827 0
M  V30 731 H 73.0208 -3.35096 2.20254 0
M  V30 732 H 69.6108 -2.58807 3.41638 0
M  V30 733 H 73.7948 -2.35459 4.3689 0
M  V30 734 H 69.0508 -2.06954 5.75308 0
M  V30 735 H 73.2248 -1.8462 6.71482 0
M  V30 736 H 70.8518 -1.69839 7.40985 0
M  V30 737 N 72.4269 -1.23603 -0.977757 0
M  V30 738 C 73.6669 -1.08148 -1.73446 0
M  V30 739 C 74.0309 0.374785 -1.88307 0
M  V30 740 O 75.2319 0.650588 -2.60808 0
M  V30 741 C 73.5029 -1.78991 -3.0935 0
M  V30 742 S 75.0619 -1.79141 -4.00567 0
M  V30 743 H 71.8799 -0.386987 -0.596458 0
M  V30 744 H 74.4819 -1.5678 -1.16792 0
M  V30 745 H 73.1859 -2.8408 -2.96187 0
M  V30 746 H 72.7169 -1.30651 -3.71071 0
M  V30 747 H 74.7319 -0.851892 -4.88833 0
M  V30 748 N 73.905 1.17692 -1.04816 0
M  V30 749 C 74.852 2.21581 -0.645797 0
M  V30 750 C 75.822 1.62367 0.350159 0
M  V30 751 O 77.007 1.89254 0.242433 0
M  V30 752 C 74.147 3.45092 -0.0227568 0
M  V30 753 C 73.26 4.18613 -1.06709 0
M  V30 754 C 72.395 5.29602 -0.411767 0
M  V30 755 C 71.434 5.94904 -1.44067 0
M  V30 756 N 70.571 6.97414 -0.809781 0
M  V30 757 H 75.411 2.55353 -1.5362 0
M  V30 758 H 72.948 1.25438 -0.768364 0
M  V30 759 H 74.906 4.15679 0.35588 0
M  V30 760 H 73.536 3.11917 0.831122 0
M  V30 761 H 72.588 3.46779 -1.5636 0
M  V30 762 H 73.9 4.63293 -1.84827 0
M  V30 763 H 73.054 6.06696 0.0206623 0
M  V30 764 H 71.793 4.86045 0.401438 0
M  V30 765 H 70.798 5.16544 -1.88316 0
M  V30 766 H 72.023 6.40542 -2.25571 0
M  V30 767 H 69.969 6.55998 -0.0170186 0
M  V30 768 H 69.886 7.40386 -1.52856 0
M  V30 769 H 71.154 7.78463 -0.401999 0
M  V30 770 N 75.3831 0.828654 1.34056 0
M  V30 771 C 76.3131 0.269443 2.3194 0
M  V30 772 C 77.2941 -0.617247 1.58506 0
M  V30 773 O 78.4791 -0.542931 1.86456 0
M  V30 774 C 75.6091 -0.564793 3.42677 0
M  V30 775 C 74.5631 0.225241 4.27407 0
M  V30 776 C 73.8891 -0.7321 5.29664 0
M  V30 777 C 75.1891 1.43663 5.02154 0
M  V30 778 H 76.8831 1.08728 2.7896 0
M  V30 779 H 74.4291 0.524283 1.34117 0
M  V30 780 H 76.3821 -0.966233 4.10173 0
M  V30 781 H 75.1061 -1.41574 2.9432 0
M  V30 782 H 73.7651 0.608117 3.61521 0
M  V30 783 H 73.4131 -1.57916 4.77568 0
M  V30 784 H 73.1131 -0.20767 5.87233 0
M  V30 785 H 74.6371 -1.13128 6.00029 0
M  V30 786 H 76.0511 1.1089 5.62473 0
M  V30 787 H 74.4481 1.89711 5.69324 0
M  V30 788 H 75.5181 2.21181 4.31517 0
M  V30 789 N 76.8612 -1.46375 0.584142 0
M  V30 790 C 78.1072 -2.02678 0.0703716 0
M  V30 791 C 78.4402 -1.4545 -1.28678 0
M  V30 792 O 77.7152 -0.62014 -1.84349 0
M  V30 793 C 77.9982 -3.60099 0.00614674 0
M  V30 794 C 77.8512 -4.27709 1.3923 0
M  V30 795 C 79.1702 -4.34598 -0.693742 0
M  V30 796 H 76.2892 -0.736504 0.027047 0
M  V30 797 H 78.9312 -1.74501 0.751615 0
M  V30 798 H 77.0812 -3.84236 -0.574009 0
M  V30 799 H 78.7532 -4.14832 2.01773 0
M  V30 800 H 76.9962 -3.87016 1.95962 0
M  V30 801 H 77.6672 -5.36478 1.29982 0
M  V30 802 H 80.1432 -4.15615 -0.200869 0
M  V30 803 H 79.0192 -5.44318 -0.707714 0
M  V30 804 H 79.2802 -4.05759 -1.75533 0
M  V30 805 N 78.3393 -0.321999 -1.54275 0
M  V30 806 C 79.2493 0.553631 -2.27974 0
M  V30 807 C 80.2653 1.13054 -1.32268 0
M  V30 808 O 81.4413 1.15084 -1.6528 0
M  V30 809 C 78.5063 1.69927 -3.02201 0
M  V30 810 C 77.5673 1.15433 -4.1349 0
M  V30 811 C 76.8003 2.24537 -4.84168 0
M  V30 812 O 77.0233 3.44852 -4.5435 0
M  V30 813 O 75.9573 1.90044 -5.7111 0
M  V30 814 H 79.7833 -0.0448345 -3.03667 0
M  V30 815 H 77.3683 -0.0877418 -1.49142 0
M  V30 816 H 79.2503 2.3663 -3.48689 0
M  V30 817 H 77.9253 2.28395 -2.29385 0
M  V30 818 H 76.8323 0.452436 -3.71354 0
M  V30 819 H 78.1653 0.614805 -4.88345 0
M  V30 820 N 79.8174 1.5752 -0.0501392 0
M  V30 821 C 80.7674 2.07981 0.934231 0
M  V30 822 C 81.7514 0.984745 1.27246 0
M  V30 823 O 82.9434 1.24809 1.25506 0
M  V30 824 C 80.0724 2.62751 2.20945 0
M  V30 825 C 79.1584 3.79225 1.89865 0
M  V30 826 N 79.5494 4.89036 1.29142 0
M  V30 827 C 77.8474 3.88111 2.19741 0
M  V30 828 C 78.5484 5.70084 1.15669 0
M  V30 829 N 77.5244 5.17659 1.65923 0
M  V30 830 H 81.3264 2.90277 0.460053 0
M  V30 831 H 78.8404 1.61665 0.15434 0
M  V30 832 H 80.8374 2.97205 2.9236 0
M  V30 833 H 79.4974 1.81894 2.6897 0
M  V30 834 H 80.5084 5.08854 0.963756 0
M  V30 835 H 77.1854 3.18194 2.70293 0
M  V30 836 H 78.5754 6.68395 0.685356 0
M  V30 837 N 81.2955 -0.223234 1.56011 0
M  V30 838 C 82.5415 -0.949279 1.79211 0
M  V30 839 C 82.8745 -1.84054 0.619494 0
M  V30 840 O 82.1495 -1.90726 -0.381317 0
M  V30 841 C 82.4325 -1.78965 3.12479 0
M  V30 842 C 82.2855 -0.924997 4.40186 0
M  V30 843 C 83.6045 -2.76774 3.42175 0
M  V30 844 H 80.7235 -0.343676 0.651963 0
M  V30 845 H 83.3655 -0.218253 1.88742 0
M  V30 846 H 81.5155 -2.41291 3.04485 0
M  V30 847 H 83.1875 -0.318615 4.60198 0
M  V30 848 H 81.4305 -0.230344 4.33188 0
M  V30 849 H 82.1015 -1.54735 5.29869 0
M  V30 850 H 84.5775 -2.24584 3.50287 0
M  V30 851 H 83.4535 -3.32678 4.36597 0
M  V30 852 H 83.7145 -3.54429 2.64258 0
M  V30 853 N 82.7736 -1.49793 -0.48987 0
M  V30 854 C 84.1846 -1.52914 -1.07118 0
M  V30 855 C 84.5356 -0.321738 -1.93544 0
M  V30 856 O 83.6606 0.567338 -2.08831 0
M  V30 857 C 84.2556 -2.771 -1.94938 0
M  V30 858 C 82.8146 -2.82963 -2.48212 0
M  V30 859 C 81.9616 -2.46972 -1.26096 0
M  V30 860 H 84.9126 -1.56329 -0.273289 0
M  V30 861 H 84.9336 -2.57892 -2.79771 0
M  V30 862 H 84.4456 -3.64959 -1.32009 0
M  V30 863 H 82.5466 -1.99411 -3.14748 0
M  V30 864 H 82.6596 -3.85406 -2.84603 0
M  V30 865 H 81.0236 -1.98994 -1.58976 0
M  V30 866 H 81.8066 -3.37118 -0.648581 0
M  V30 867 N 84.2517 0.741722 -1.39055 0
M  V30 868 C 85.4997 1.49818 -1.35643 0
M  V30 869 C 85.8207 1.94938 0.0491642 0
M  V30 870 O 85.0907 1.68505 0.999141 0
M  V30 871 H 83.6707 0.555755 -0.499144 0
M  V30 872 H 86.3327 0.880957 -1.73854 0
M  V30 873 H 85.4287 2.38348 -2.01486 0
M  V30 874 N 85.7298 1.2412 0.971189 0
M  V30 875 C 87.1458 1.00584 1.23916 0
M  V30 876 C 87.3458 -0.287481 1.99439 0
M  V30 877 O 86.4018 -1.00454 2.31658 0
M  V30 878 C 87.7148 2.21864 2.0297 0
M  V30 879 C 89.2628 2.26452 2.16076 0
M  V30 880 C 89.7378 3.47343 2.98524 0
M  V30 881 N 91.2288 3.47639 3.06107 0
M  V30 882 C 91.9638 4.37837 3.70251 0
M  V30 883 N 91.4598 5.38286 4.36142 0
M  V30 884 N 93.2528 4.25558 3.67228 0
M  V30 885 H 85.4038 2.07236 0.465499 0
M  V30 886 H 87.6668 0.909236 0.268315 0
M  V30 887 H 87.3728 3.15771 1.54861 0
M  V30 888 H 87.2468 2.23698 3.03709 0
M  V30 889 H 89.6338 1.33078 2.6339 0
M  V30 890 H 89.7148 2.28645 1.14696 0
M  V30 891 H 89.3588 4.41029 2.51905 0
M  V30 892 H 89.2888 3.42393 4.00093 0
M  V30 893 H 91.7798 2.74966 2.59233 0
M  V30 894 H 92.0928 6.03352 4.82894 0
M  V30 895 H 90.4378 5.42176 4.34822 0
M  V30 896 H 93.6288 3.46322 3.14927 0
M  V30 897 H 93.8018 4.96054 4.16935 0
M  V30 898 N 87.2079 -1.17134 1.05439 0
M  V30 899 C 88.6189 -1.69084 0.791676 0
M  V30 900 C 88.9699 -1.83822 -0.685839 0
M  V30 901 O 88.0949 -1.52757 -1.53278 0
M  V30 902 C 88.6899 -3.07119 1.4305 0
M  V30 903 C 87.2489 -3.56225 1.21577 0
M  V30 904 C 86.3959 -2.32421 1.51247 0
M  V30 905 H 89.3469 -1.01617 1.219 0
M  V30 906 H 89.3679 -3.71087 0.84112 0
M  V30 907 H 88.8799 -2.9636 2.50584 0
M  V30 908 H 86.9809 -3.72257 0.159787 0
M  V30 909 H 87.0939 -4.38837 1.92246 0
M  V30 910 H 85.4579 -2.3701 0.932653 0
M  V30 911 H 86.2409 -2.24268 2.5992 0
M  V30 912 N 88.686 -0.835752 -1.33615 0
M  V30 913 C 89.932 -0.430596 -1.98176 0
M  V30 914 C 90.265 1.00684 -1.66061 0
M  V30 915 O 89.54 1.70339 -0.938877 0
M  V30 916 C 89.823 -0.648065 -3.5422 0
M  V30 917 C 89.676 -2.13255 -3.96033 0
M  V30 918 C 90.995 -0.0922113 -4.40003 0
M  V30 919 H 88.114 -0.157924 -0.719881 0
M  V30 920 H 90.756 -1.05069 -1.58305 0
M  V30 921 H 88.906 -0.120237 -3.88314 0
M  V30 922 H 90.578 -2.725 -3.72211 0
M  V30 923 H 88.821 -2.61823 -3.45878 0
M  V30 924 H 89.492 -2.23547 -5.04708 0
M  V30 925 H 91.968 -0.543343 -4.12537 0
M  V30 926 H 90.844 -0.274083 -5.48215 0
M  V30 927 H 91.105 1.00378 -4.30554 0
M  V30 928 N 90.1641 1.46063 -0.591896 0
M  V30 929 C 91.5801 1.57561 -0.254288 0
M  V30 930 C 91.7801 1.58565 1.24336 0
M  V30 931 O 90.8361 1.50753 2.02558 0
M  V30 932 C 92.1491 2.86549 -0.911611 0
M  V30 933 C 93.6971 3.00197 -0.886059 0
M  V30 934 C 94.1721 4.31933 -1.5231 0
M  V30 935 N 95.6631 4.38654 -1.48786 0
M  V30 936 C 96.3981 5.39222 -1.95006 0
M  V30 937 N 95.8941 6.46414 -2.49241 0
M  V30 938 N 97.6871 5.3048 -1.85868 0
M  V30 939 H 89.8381 1.43655 -1.56451 0
M  V30 940 H 92.1011 0.68583 -0.654478 0
M  V30 941 H 91.8071 2.91651 -1.96551 0
M  V30 942 H 91.6811 3.74794 -0.425368 0
M  V30 943 H 94.0681 2.9467 0.159246 0
M  V30 944 H 94.1491 2.13403 -1.41041 0
M  V30 945 H 93.7931 4.38217 -2.56765 0
M  V30 946 H 93.7231 5.17516 -0.973891 0
M  V30 947 H 96.2141 3.61793 -1.09151 0
M  V30 948 H 96.5271 7.19376 -2.82344 0
M  V30 949 H 94.8721 6.47208 -2.53272 0
M  V30 950 H 98.0631 4.45643 -1.43248 0
M  V30 951 H 98.2361 6.08711 -2.22204 0
M  V30 952 N 91.6422 0.330177 1.54103 0
M  V30 953 C 92.5902 -0.548226 2.26047 0
M  V30 954 C 93.5842 -1.11309 1.27698 0
M  V30 955 O 94.7902 -1.06036 1.45452 0
M  V30 956 H 91.1652 -0.195456 0.726155 0
M  V30 957 H 93.1362 0.0807567 2.98291 0
M  V30 958 C 91.8852 -1.69415 3.03634 0
M  V30 959 H 91.2082 -1.26876 3.79134 0
M  V30 960 H 92.6482 -2.28423 3.5721 0
M  V30 961 C 91.1072 -2.61569 2.12328 0
M  V30 962 O 91.6372 -3.63462 1.7105 0
M  V30 963 N 89.8432 -2.29952 1.77681 0
M  V30 964 H 89.3902 -1.47134 2.11446 0
M  V30 965 H 89.3482 -2.91871 1.16869 0
M  V30 966 N 93.1203 -1.57491 0.0584922 0
M  V30 967 C 94.5313 -1.80526 -0.476138 0
M  V30 968 C 94.8823 -0.971334 -1.70469 0
M  V30 969 O 94.0073 -0.190012 -2.15564 0
M  V30 970 C 94.6023 -3.27424 -0.870587 0
M  V30 971 C 93.1613 -3.51351 -1.35015 0
M  V30 972 C 92.3083 -2.75343 -0.32887 0
M  V30 973 H 95.2593 -1.56133 0.284312 0
M  V30 974 H 95.2803 -3.38745 -1.73299 0
M  V30 975 H 94.7923 -3.88093 0.0237627 0
M  V30 976 H 92.8933 -2.95971 -2.26345 0
M  V30 977 H 93.0063 -4.60059 -1.33726 0
M  V30 978 H 91.3703 -2.417 -0.803321 0
M  V30 979 H 92.1533 -3.38743 0.557521 0
M  V30 980 N 94.5984 0.214957 -1.56127 0
M  V30 981 C 95.5304 1.29004 -1.89448 0
M  V30 982 C 96.5434 1.42716 -0.783326 0
M  V30 983 O 97.7324 1.43496 -1.06166 0
M  V30 984 C 94.8324 2.66482 -2.09381 0
M  V30 985 C 94.0054 2.74633 -3.40434 0
M  V30 986 C 93.0644 3.9317 -3.49719 0
M  V30 987 O 92.0904 3.812 -4.227 0
M  V30 988 N 93.2924 5.07765 -2.81346 0
M  V30 989 H 96.0574 1.00743 -2.82261 0
M  V30 990 H 93.6184 0.40497 -1.56753 0
M  V30 991 H 95.6104 3.44173 -2.12901 0
M  V30 992 H 94.1804 2.87314 -1.23163 0
M  V30 993 H 93.4004 1.83368 -3.48955 0
M  V30 994 H 94.6884 2.77054 -4.26754 0
M  V30 995 H 94.0864 5.20386 -2.21843 0
M  V30 996 H 92.6434 5.83474 -2.90519 0
M  V30 997 N 96.0765 1.50051 0.48192 0
M  V30 998 C 97.3165 1.62128 1.24474 0
M  V30 999 C 97.6805 0.309742 1.89485 0
M  V30 1000 O 98.8815 0.305854 2.67054 0
M  V30 1001 C 97.1525 2.76151 2.26882 0
M  V30 1002 S 98.7115 3.08297 3.12247 0
M  V30 1003 H 95.5295 0.571661 0.422759 0
M  V30 1004 H 98.1315 1.87791 0.54359 0
M  V30 1005 H 96.8355 3.69942 1.77683 0
M  V30 1006 H 96.3665 2.52541 3.0164 0
M  V30 1007 H 98.3815 2.51287 4.27866 0
M  V30 1008 N 97.5546 -0.734337 1.39446 0
M  V30 1009 C 98.9706 -1.03997 1.21065 0
M  V30 1010 C 99.1706 -2.01369 0.0727019 0
M  V30 1011 O 98.2266 -2.45856 -0.575426 0
M  V30 1012 C 99.5396 -1.60163 2.54496 0
M  V30 1013 C 101.088 -1.7224 2.61347 0
M  V30 1014 C 101.563 -2.31814 3.95002 0
M  V30 1015 N 103.054 -2.39223 3.96644 0
M  V30 1016 C 103.789 -2.86258 4.96834 0
M  V30 1017 N 103.285 -3.33184 6.07421 0
M  V30 1018 N 105.078 -2.85473 4.84213 0
M  V30 1019 H 97.2286 -0.0885624 2.12215 0
M  V30 1020 H 99.4916 -0.10191 0.942506 0
M  V30 1021 H 99.1976 -0.960811 3.38321 0
M  V30 1022 H 99.0716 -2.5896 2.74262 0
M  V30 1023 H 101.459 -2.35443 1.77906 0
M  V30 1024 H 101.54 -0.720939 2.4543 0
M  V30 1025 H 101.184 -1.69238 4.78875 0
M  V30 1026 H 101.114 -3.32638 4.08239 0
M  V30 1027 H 103.605 -2.06057 3.16779 0
M  V30 1028 H 103.918 -3.67586 6.7978 0
M  V30 1029 H 102.263 -3.31191 6.11013 0
M  V30 1030 H 105.454 -2.48136 3.96921 0
M  V30 1031 H 105.627 -3.21814 5.62441 0
M  V30 1032 N 99.0327 -1.24633 -0.964593 0
M  V30 1033 C 100.282 -1.08188 -1.7023 0
M  V30 1034 C 100.595 0.37873 -1.91898 0
M  V30 1035 O 101.801 0.663427 -2.6327 0
M  V30 1036 C 100.257 -1.88773 -3.06419 0
M  V30 1037 C 99.8647 -3.39263 -2.92582 0
M  V30 1038 C 101.609 -1.80867 -3.84041 0
M  V30 1039 C 99.5157 -4.1218 -4.24101 0
M  V30 1040 H 98.4457 -0.401245 -0.638372 0
M  V30 1041 H 101.097 -1.48742 -1.07462 0
M  V30 1042 H 99.4787 -1.41035 -3.70034 0
M  V30 1043 H 100.653 -3.94603 -2.37961 0
M  V30 1044 H 98.9677 -3.48154 -2.28424 0
M  V30 1045 H 101.565 -2.32646 -4.81435 0
M  V30 1046 H 101.908 -0.774543 -4.09031 0
M  V30 1047 H 102.441 -2.26301 -3.27159 0
M  V30 1048 H 99.1797 -5.15965 -4.04303 0
M  V30 1049 H 98.6997 -3.61626 -4.78526 0
M  V30 1050 H 100.379 -4.19349 -4.92702 0
M  V30 1051 N 100.511 1.16574 -1.06058 0
M  V30 1052 C 101.751 1.88723 -0.78504 0
M  V30 1053 C 102.115 1.79706 0.676006 0
M  V30 1054 O 103.316 2.46757 1.06603 0
M  V30 1055 C 101.587 3.34338 -1.26304 0
M  V30 1056 S 103.146 4.24366 -1.1162 0
M  V30 1057 H 99.9638 0.651448 -0.284846 0
M  V30 1058 H 102.566 1.40732 -1.35701 0
M  V30 1059 H 101.27 3.38439 -2.32136 0
M  V30 1060 H 100.801 3.87378 -0.685719 0
M  V30 1061 H 102.816 4.96179 -0.0456539 0
M  V30 1062 N 101.989 0.842826 1.3317 0
M  V30 1063 C 103.266 0.362216 1.92217 0
M  V30 1064 C 103.646 -1.15289 1.76838 0
M  V30 1065 O 102.994 -1.96914 1.15919 0
M  V30 1066 C 103.204 0.813495 3.39387 0
M  V30 1067 C 104.552 0.823804 4.16532 0
M  V30 1068 O 105.576 0.757358 3.48055 0
M  V30 1069 O 104.435 0.915193 5.38782 0
M  V30 1070 H 101.529 0.103317 0.820521 0
M  V30 1071 H 104.075 0.928942 1.42017 0
M  V30 1072 H 102.847 1.85624 3.4447 0
M  V30 1073 H 102.47 0.223561 3.96971 0
M  V30 1074 N 103.467 -1.45747 0.599634 0
M  V30 1075 C 104.715 -2.01893 0.0915472 0
M  V30 1076 C 105.036 -1.47155 -1.27946 0
M  V30 1077 O 104.306 -0.66273 -1.84349 0
M  V30 1078 H 102.886 -0.746363 0.0308524 0
M  V30 1079 H 105.548 -1.78645 0.779237 0
M  V30 1080 H 104.644 -3.1208 0.0353086 0
M  V30 1081 N 104.945 -0.338344 -1.53925 0
M  V30 1082 C 105.893 0.536231 -2.26335 0
M  V30 1083 C 106.887 1.1063 -1.28286 0
M  V30 1084 O 108.093 1.05264 -1.46012 0
M  V30 1085 H 104.468 0.191602 -0.727181 0
M  V30 1086 H 106.439 -0.0965747 -2.98244 0
M  V30 1087 C 105.188 1.67803 -3.04528 0
M  V30 1088 H 104.511 1.24864 -3.79801 0
M  V30 1089 H 105.951 2.26526 -3.58416 0
M  V30 1090 C 104.41 2.60439 -2.13712 0
M  V30 1091 O 104.94 3.6255 -1.72975 0
M  V30 1092 N 103.146 2.29006 -1.78898 0
M  V30 1093 H 102.693 1.46011 -2.12223 0
M  V30 1094 H 102.651 2.91248 -1.18416 0
M  V30 1095 N 106.423 1.57458 -0.0668435 0
M  V30 1096 C 107.648 1.9804 0.616027 0
M  V30 1097 C 108.073 0.944771 1.62652 0
M  V30 1098 O 107.431 -0.0902094 1.81075 0
M  V30 1099 C 107.479 3.37665 1.26549 0
M  V30 1100 O 106.583 3.36701 2.38131 0
M  V30 1101 H 105.924 0.644719 0.158849 0
M  V30 1102 H 108.454 2.04121 -0.139891 0
M  V30 1103 H 108.464 3.7474 1.6135 0
M  V30 1104 H 107.139 4.12573 0.525016 0
M  V30 1105 H 105.716 3.1139 2.0516 0
M  V30 1106 N 107.901 -0.206675 1.56239 0
M  V30 1107 C 108.864 -1.23976 1.92776 0
M  V30 1108 C 109.864 -1.39041 0.807729 0
M  V30 1109 O 111.054 -1.37051 1.0753 0
M  V30 1110 C 108.186 -2.61112 2.19165 0
M  V30 1111 H 109.379 -0.927764 2.85189 0
M  V30 1112 H 106.932 -0.447718 1.4975 0
M  V30 1113 H 107.667 -2.97386 1.29352 0
M  V30 1114 H 107.452 -2.51552 3.00772 0
M  V30 1115 H 108.942 -3.35633 2.48476 0
M  V30 1116 N 109.379 -1.50304 -0.473955 0
M  V30 1117 C 110.327 -1.69482 -1.59307 0
M  V30 1118 C 111.321 -0.560669 -1.59853 0
M  V30 1119 O 112.527 -0.741087 -1.64036 0
M  V30 1120 H 108.902 -0.534892 -0.528578 0
M  V30 1121 H 110.873 -2.63364 -1.40293 0
M  V30 1122 C 109.622 -1.80354 -2.97267 0
M  V30 1123 H 108.945 -2.67012 -2.97564 0
M  V30 1124 H 110.385 -1.97798 -3.75036 0
M  V30 1125 C 108.844 -0.55448 -3.32306 0
M  V30 1126 O 109.374 0.307661 -4.0052 0
M  V30 1127 N 107.58 -0.409354 -2.87702 0
M  V30 1128 H 107.127 -1.11196 -2.32364 0
M  V30 1129 H 107.085 0.425223 -3.11511 0
M  V30 1130 N 110.857 0.726932 -1.39834 0
M  V30 1131 C 112.268 1.30558 -1.3346 0
M  V30 1132 C 112.619 1.962 -0.00273003 0
M  V30 1133 O 111.744 1.96826 0.899371 0
M  V30 1134 C 112.339 2.37404 -2.41713 0
M  V30 1135 C 110.898 2.90921 -2.38835 0
M  V30 1136 C 110.045 1.64578 -2.2318 0
M  V30 1137 H 112.996 0.523862 -1.49804 0
M  V30 1138 H 113.017 3.17984 -2.08966 0
M  V30 1139 H 112.529 1.89599 -3.38635 0
M  V30 1140 H 110.63 3.42985 -1.45575 0
M  V30 1141 H 110.743 3.43487 -3.33997 0
M  V30 1142 H 109.107 1.89219 -1.70494 0
M  V30 1143 H 109.89 1.18814 -3.22084 0
M  V30 1144 N 112.336 1.25143 0.95797 0
M  V30 1145 C 113.752 1.01892 1.22842 0
M  V30 1146 C 113.952 -0.266311 1.99732 0
M  V30 1147 O 113.008 -0.979913 2.3271 0
M  V30 1148 C 114.321 2.24004 2.00606 0
M  V30 1149 C 115.869 2.28731 2.13662 0
M  V30 1150 C 116.344 3.5049 2.94823 0
M  V30 1151 N 117.835 3.50866 3.02403 0
M  V30 1152 C 118.57 4.4174 3.65586 0
M  V30 1153 N 118.066 5.42882 4.30408 0
M  V30 1154 N 119.859 4.29429 3.62694 0
M  V30 1155 H 112.01 2.07718 0.443493 0
M  V30 1156 H 114.273 0.912031 0.258657 0
M  V30 1157 H 113.979 3.17395 1.51503 0
M  V30 1158 H 113.853 2.26907 3.01319 0
M  V30 1159 H 116.24 1.35865 2.61963 0
M  V30 1160 H 116.321 2.29848 1.12265 0
M  V30 1161 H 115.965 4.43676 2.47213 0
M  V30 1162 H 115.895 3.46617 3.96439 0
M  V30 1163 H 118.386 2.777 2.56302 0
M  V30 1164 H 118.699 6.0844 4.76467 0
M  V30 1165 H 117.044 5.46758 4.29047 0
M  V30 1166 H 120.235 3.49643 3.11236 0
M  V30 1167 H 120.408 5.00448 4.1165 0
M  V30 1168 N 113.814 -1.1601 1.06675 0
M  V30 1169 C 114.724 -2.24156 0.692179 0
M  V30 1170 C 115.74 -1.71507 -0.293513 0
M  V30 1171 O 116.916 -2.009 -0.141861 0
M  V30 1172 C 113.981 -3.46587 0.0884131 0
M  V30 1173 C 113.042 -4.14257 1.12646 0
M  V30 1174 C 112.275 -5.30844 0.551416 0
M  V30 1175 O 112.498 -5.66858 -0.634656 0
M  V30 1176 O 111.432 -5.87848 1.29298 0
M  V30 1177 H 115.258 -2.58513 1.59388 0
M  V30 1178 H 112.843 -1.23599 0.83926 0
M  V30 1179 H 114.725 -4.20679 -0.246361 0
M  V30 1180 H 113.4 -3.13994 -0.786712 0
M  V30 1181 H 112.307 -3.42118 1.51348 0
M  V30 1182 H 113.64 -4.50914 1.97325 0
M  V30 1183 N 115.292 -0.849877 -1.32721 0
M  V30 1184 C 116.708 -0.539102 -1.50219 0
M  V30 1185 C 116.908 0.931271 -1.78689 0
M  V30 1186 O 115.964 1.71455 -1.85363 0
M  V30 1187 C 117.277 -1.42196 -2.64954 0
M  V30 1188 C 118.825 -1.42189 -2.78839 0
M  V30 1189 C 119.3 -2.28985 -3.96648 0
M  V30 1190 N 120.791 -2.26754 -4.03902 0
M  V30 1191 C 121.526 -2.90644 -4.94281 0
M  V30 1192 N 121.022 -3.63629 -5.897 0
M  V30 1193 N 122.815 -2.80057 -4.87365 0
M  V30 1194 H 114.966 -1.80156 -1.12506 0
M  V30 1195 H 117.229 -0.769217 -0.554085 0
M  V30 1196 H 116.935 -2.46733 -2.50631 0
M  V30 1197 H 116.809 -1.10591 -3.60624 0
M  V30 1198 H 119.196 -0.38419 -2.92588 0
M  V30 1199 H 119.277 -1.77807 -1.83898 0
M  V30 1200 H 118.921 -3.32819 -3.83658 0
M  V30 1201 H 118.851 -1.90702 -4.90857 0
M  V30 1202 H 121.342 -1.73688 -3.3562 0
M  V30 1203 H 121.655 -4.09558 -6.55349 0
M  V30 1204 H 120 -3.67737 -5.89741 0
M  V30 1205 H 123.191 -2.22593 -4.11789 0
M  V30 1206 H 123.364 -3.30132 -5.57599 0
M  V30 1207 N 116.77 1.45427 -0.607355 0
M  V30 1208 C 117.72 2.27612 0.133038 0
M  V30 1209 C 118.704 1.37307 0.838785 0
M  V30 1210 O 119.896 1.61299 0.728813 0
M  V30 1211 C 117.025 3.24173 1.12991 0
M  V30 1212 C 116.111 4.21965 0.425011 0
M  V30 1213 N 116.502 5.02982 -0.533217 0
M  V30 1214 C 114.8 4.40899 0.672593 0
M  V30 1215 C 115.501 5.73931 -0.947518 0
M  V30 1216 N 114.477 5.42819 -0.291321 0
M  V30 1217 H 118.279 2.87649 -0.602935 0
M  V30 1218 H 115.793 1.56576 -0.431006 0
M  V30 1219 H 117.79 3.81783 1.67473 0
M  V30 1220 H 116.45 2.65696 1.86644 0
M  V30 1221 H 117.461 5.09843 -0.90995 0
M  V30 1222 H 114.138 3.93547 1.39382 0
M  V30 1223 H 115.528 6.49037 -1.73782 0
M  V30 1224 N 118.248 0.346503 1.53744 0
M  V30 1225 C 119.659 -0.136779 1.86198 0
M  V30 1226 C 120.01 -1.49749 1.26766 0
M  V30 1227 O 119.135 -2.08417 0.582355 0
M  V30 1228 C 119.73 -0.254966 3.37839 0
M  V30 1229 C 118.289 -0.682482 3.70161 0
M  V30 1230 C 117.436 0.181981 2.76702 0
M  V30 1231 H 120.387 0.565994 1.48264 0
M  V30 1232 H 120.408 -1.08195 3.64793 0
M  V30 1233 H 119.92 0.735526 3.81066 0
M  V30 1234 H 118.021 -1.68189 3.3248 0
M  V30 1235 H 118.134 -0.470326 4.76786 0
M  V30 1236 H 116.498 -0.34615 2.52337 0
M  V30 1237 H 117.281 1.16966 3.2276 0
M  V30 1238 N 119.726 -1.57421 0.075193 0
M  V30 1239 C 120.975 -1.92794 -0.592731 0
M  V30 1240 C 121.288 -0.957478 -1.70563 0
M  V30 1241 O 122.494 -1.20417 -2.43335 0
M  V30 1242 C 120.95 -3.42495 -1.10569 0
M  V30 1243 C 120.558 -4.47994 -0.0236121 0
M  V30 1244 C 122.302 -3.86864 -1.74748 0
M  V30 1245 C 120.209 -5.88829 -0.550803 0
M  V30 1246 H 119.139 -0.719591 -0.225177 0
M  V30 1247 H 121.79 -1.82902 0.147978 0
M  V30 1248 H 120.172 -3.47471 -1.89947 0
M  V30 1249 H 121.346 -4.54637 0.751099 0
M  V30 1250 H 119.661 -4.13113 0.522159 0
M  V30 1251 H 122.258 -4.8947 -2.15229 0
M  V30 1252 H 122.601 -3.24417 -2.60882 0
M  V30 1253 H 123.134 -3.84504 -1.01986 0
M  V30 1254 H 119.873 -6.54929 0.273457 0
M  V30 1255 H 119.393 -5.85698 -1.29296 0
M  V30 1256 H 121.072 -6.38811 -1.02613 0
M  V30 1257 N 121.204 0.198386 -1.56346 0
M  V30 1258 C 122.429 0.939682 -1.84891 0
M  V30 1259 C 122.854 1.76202 -0.658369 0
M  V30 1260 O 122.212 1.76993 0.392851 0
M  V30 1261 C 122.26 1.81428 -3.11635 0
M  V30 1262 O 121.364 2.91265 -2.91956 0
M  V30 1263 H 120.705 0.264807 -0.608912 0
M  V30 1264 H 123.235 0.204695 -2.03573 0
M  V30 1265 H 123.245 2.21958 -3.42343 0
M  V30 1266 H 121.92 1.21004 -3.97908 0
M  V30 1267 H 120.497 2.54514 -2.72538 0
M  V30 1268 N 122.682 1.50554 0.465978 0
M  V30 1269 C 123.632 1.66177 1.56106 0
M  V30 1270 C 124.616 0.516265 1.52393 0
M  V30 1271 O 125.808 0.770906 1.5933 0
M  V30 1272 C 122.937 1.76396 2.94515 0
M  V30 1273 C 122.023 2.9664 3.03093 0
M  V30 1274 N 122.414 4.20245 2.81474 0
M  V30 1275 C 120.712 2.95304 3.34233 0
M  V30 1276 C 121.413 5.01259 2.95151 0
M  V30 1277 N 120.389 4.35318 3.25576 0
M  V30 1278 H 124.191 2.59434 1.38099 0
M  V30 1279 H 121.705 1.47808 0.6728 0
M  V30 1280 H 123.702 1.85694 3.73261 0
M  V30 1281 H 122.362 0.843017 3.13565 0
M  V30 1282 H 123.373 4.4966 2.56956 0
M  V30 1283 H 120.05 2.12729 3.59239 0
M  V30 1284 H 121.44 6.09564 2.82632 0
M  V30 1285 N 124.16 -0.719506 1.40217 0
M  V30 1286 C 125.123 -1.8153 1.39927 0
M  V30 1287 C 126.123 -1.58095 0.293723 0
M  V30 1288 O 127.313 -1.65209 0.552429 0
M  V30 1289 C 124.445 -3.19561 1.18716 0
M  V30 1290 H 125.638 -1.83186 2.37451 0
M  V30 1291 H 123.191 -0.924746 1.26008 0
M  V30 1292 H 123.926 -3.23557 0.219366 0
M  V30 1293 H 123.711 -3.3797 1.98793 0
M  V30 1294 H 125.201 -3.99598 1.21291 0
M  V30 1295 N 125.638 -1.25649 -0.95132 0
M  V30 1296 C 126.887 -1.09988 -1.69073 0
M  V30 1297 C 127.2 0.358355 -1.92289 0
M  V30 1298 O 128.406 0.635466 -2.63958 0
M  V30 1299 C 126.862 -1.92012 -3.044 0
M  V30 1300 C 126.47 -3.42347 -2.88968 0
M  V30 1301 C 128.214 -1.8493 -3.82101 0
M  V30 1302 C 126.121 -4.16655 -4.19705 0
M  V30 1303 H 125.051 -0.407993 -0.63408 0
M  V30 1304 H 127.702 -1.49873 -1.05879 0
M  V30 1305 H 126.084 -1.44952 -3.68517 0
M  V30 1306 H 127.258 -3.97104 -2.33762 0
M  V30 1307 H 125.573 -3.50557 -2.24719 0
M  V30 1308 H 128.17 -2.37739 -4.78941 0
M  V30 1309 H 128.513 -0.817883 -4.08187 0
M  V30 1310 H 129.046 -2.29758 -3.2474 0
M  V30 1311 H 125.785 -5.20224 -3.98807 0
M  V30 1312 H 125.305 -3.66681 -4.74663 0
M  V30 1313 H 126.984 -4.24551 -4.88227 0
M  V30 1314 N 127.117 1.15442 -1.07289 0
M  V30 1315 C 128.394 1.82306 -0.708792 0
M  V30 1316 C 128.774 1.94991 0.808807 0
M  V30 1317 O 128.122 1.50085 1.72298 0
M  V30 1318 C 128.332 3.18695 -1.42247 0
M  V30 1319 C 129.68 3.94341 -1.57417 0
M  V30 1320 O 130.704 3.28247 -1.38319 0
M  V30 1321 O 129.563 5.12839 -1.88834 0
M  V30 1322 H 126.657 0.787628 -0.252132 0
M  V30 1323 H 129.203 1.22559 -1.17377 0
M  V30 1324 H 127.975 3.04557 -2.45684 0
M  V30 1325 H 127.598 3.86128 -0.948223 0
M  V30 1326 N 128.595 0.856903 1.32268 0
M  V30 1327 C 129.843 0.460474 1.96784 0
M  V30 1328 C 130.164 -0.987701 1.68135 0
M  V30 1329 O 129.434 -1.69058 0.989765 0
M  V30 1330 H 128.014 0.167289 0.728027 0
M  V30 1331 H 130.676 1.09383 1.61312 0
M  V30 1332 H 129.772 0.60739 3.06133 0
M  V30 1333 N 130.073 -1.45103 0.615059 0
M  V30 1334 C 131.301 -2.06553 0.11977 0
M  V30 1335 C 131.716 -1.45842 -1.19898 0
M  V30 1336 O 131.073 -0.575325 -1.73194 0
M  V30 1337 C 131.124 -3.61495 -0.018364 0
M  V30 1338 O 130.845 -4.19942 1.24822 0
M  V30 1339 C 132.346 -4.39947 -0.544237 0
M  V30 1340 H 129.566 -0.667096 0.0722739 0
M  V30 1341 H 132.11 -1.8623 0.84491 0
M  V30 1342 H 130.265 -3.81135 -0.693865 0
M  V30 1343 H 130.679 -5.13204 1.0827 0
M  V30 1344 H 132.153 -5.48838 -0.589953 0
M  V30 1345 H 132.63 -4.10255 -1.56805 0
M  V30 1346 H 133.236 -4.25188 0.0974703 0
M  V30 1347 N 131.551 -0.354651 -1.53558 0
M  V30 1348 C 132.499 0.512195 -2.26891 0
M  V30 1349 C 133.493 1.09263 -1.29452 0
M  V30 1350 O 134.699 1.03709 -1.47121 0
M  V30 1351 H 131.074 0.183878 -0.729173 0
M  V30 1352 H 133.045 -0.128202 -2.98124 0
M  V30 1353 C 131.794 1.64563 -3.06291 0
M  V30 1354 H 131.117 1.20829 -3.81104 0
M  V30 1355 H 132.557 2.22711 -3.60799 0
M  V30 1356 C 131.016 2.58158 -2.16462 0
M  V30 1357 O 131.546 3.60695 -1.76811 0
M  V30 1358 N 129.752 2.27096 -1.81317 0
M  V30 1359 H 129.299 1.43751 -2.1376 0
M  V30 1360 H 129.257 2.89975 -1.21498 0
M  V30 1361 N 133.029 1.57378 -0.0835403 0
M  V30 1362 C 133.977 2.14602 0.89714 0
M  V30 1363 C 134.971 1.08589 1.30018 0
M  V30 1364 O 136.177 1.26952 1.27606 0
M  V30 1365 H 132.552 0.686346 0.3073 0
M  V30 1366 H 134.523 2.95845 0.38969 0
M  V30 1367 C 133.272 2.73188 2.15089 0
M  V30 1368 H 132.595 3.54442 1.84962 0
M  V30 1369 H 134.035 3.1681 2.81793 0
M  V30 1370 C 132.494 1.68517 2.91725 0
M  V30 1371 O 133.024 1.11718 3.85852 0
M  V30 1372 N 131.23 1.39277 2.55049 0
M  V30 1373 H 130.777 1.85655 1.78577 0
M  V30 1374 H 130.735 0.694791 3.06627 0
M  V30 1375 N 134.507 -0.190092 1.56449 0
M  V30 1376 C 135.753 -0.906472 1.82084 0
M  V30 1377 C 136.108 -1.80677 0.661335 0
M  V30 1378 O 135.401 -1.88501 -0.343237 0
M  V30 1379 C 135.595 -1.75382 3.1141 0
M  V30 1380 C 135.424 -0.937053 4.39829 0
M  V30 1381 C 134.194 -0.619507 5.01488 0
M  V30 1382 C 136.392 -0.2874 5.13496 0
M  V30 1383 N 134.374 0.215367 6.13522 0
M  V30 1384 C 135.745 0.409454 6.18646 0
M  V30 1385 C 137.8 -0.203639 4.97483 0
M  V30 1386 C 136.503 1.1821 7.0952 0
M  V30 1387 C 138.529 0.555622 5.88784 0
M  V30 1388 C 137.891 1.24091 6.93384 0
M  V30 1389 H 133.99 -0.310931 0.717528 0
M  V30 1390 H 136.574 -0.174821 1.93914 0
M  V30 1391 H 134.745 -2.45703 3.00806 0
M  V30 1392 H 136.477 -2.41006 3.25112 0
M  V30 1393 H 133.232 -0.945126 4.64074 0
M  V30 1394 H 133.656 0.622562 6.74131 0
M  V30 1395 H 138.298 -0.719099 4.1664 0
M  V30 1396 H 136.016 1.70897 7.89823 0
M  V30 1397 H 139.602 0.621854 5.78467 0
M  V30 1398 H 138.482 1.81901 7.62812 0
M  V30 1399 N 135.985 -1.50799 -0.457987 0
M  V30 1400 C 137.231 -1.63648 -1.20792 0
M  V30 1401 C 137.586 -0.338662 -1.89396 0
M  V30 1402 O 136.879 0.664291 -1.79716 0
M  V30 1403 C 137.073 -2.76358 -2.2663 0
M  V30 1404 C 136.902 -4.16974 -1.68411 0
M  V30 1405 C 135.672 -4.83199 -1.47807 0
M  V30 1406 C 137.87 -5.00774 -1.17176 0
M  V30 1407 N 135.852 -6.07991 -0.849692 0
M  V30 1408 C 137.223 -6.16397 -0.667403 0
M  V30 1409 C 139.278 -4.86452 -1.06155 0
M  V30 1410 C 137.981 -7.19272 -0.0636908 0
M  V30 1411 C 140.007 -5.89515 -0.471759 0
M  V30 1412 C 139.369 -7.04397 0.0221557 0
M  V30 1413 H 135.468 -0.652888 -0.43042 0
M  V30 1414 H 138.052 -1.87962 -0.507785 0
M  V30 1415 H 136.223 -2.53744 -2.94056 0
M  V30 1416 H 137.955 -2.78496 -2.93636 0
M  V30 1417 H 134.71 -4.40714 -1.73403 0
M  V30 1418 H 135.134 -6.74733 -0.553537 0
M  V30 1419 H 139.776 -3.97907 -1.42932 0
M  V30 1420 H 137.494 -8.07481 0.316253 0
M  V30 1421 H 141.08 -5.805 -0.388671 0
M  V30 1422 H 139.96 -7.82782 0.471375 0
M  V30 1423 N 137.463 0.71206 -1.40597 0
M  V30 1424 C 138.395 1.83704 -1.37061 0
M  V30 1425 C 139.408 1.60453 -0.275426 0
M  V30 1426 O 140.597 1.70262 -0.53602 0
M  V30 1427 C 137.697 3.20172 -1.11099 0
M  V30 1428 C 136.87 3.7059 -2.3234 0
M  V30 1429 C 135.929 4.85681 -2.02485 0
M  V30 1430 O 134.955 4.9815 -2.75382 0
M  V30 1431 N 136.157 5.71735 -1.00497 0
M  V30 1432 H 138.922 1.87235 -2.34016 0
M  V30 1433 H 136.483 0.893739 -1.34996 0
M  V30 1434 H 138.475 3.94768 -0.891064 0
M  V30 1435 H 137.045 3.11767 -0.227989 0
M  V30 1436 H 136.265 2.87085 -2.7014 0
M  V30 1437 H 137.553 4.01011 -3.13157 0
M  V30 1438 H 136.951 5.64275 -0.401298 0
M  V30 1439 H 135.508 6.463 -0.844942 0
M  V30 1440 N 138.941 1.26152 0.944643 0
M  V30 1441 C 140.166 1.14363 1.7302 0
M  V30 1442 C 140.591 -0.29772 1.85729 0
M  V30 1443 O 139.949 -1.2157 1.34501 0
M  V30 1444 C 139.997 1.81378 3.11664 0
M  V30 1445 O 139.101 1.10022 3.97453 0
M  V30 1446 H 138.442 0.398694 0.53098 0
M  V30 1447 H 140.972 1.66906 1.18337 0
M  V30 1448 H 140.982 1.88064 3.62072 0
M  V30 1449 H 139.657 2.86237 3.0173 0
M  V30 1450 H 138.234 1.11287 3.55907 0
M  V30 1451 N 140.419 -1.14872 1.07899 0
M  V30 1452 C 141.83 -1.67367 0.827363 0
M  V30 1453 C 142.181 -1.85236 -0.646693 0
M  V30 1454 O 141.306 -1.55974 -1.50004 0
M  V30 1455 C 141.901 -3.04016 1.49532 0
M  V30 1456 C 140.46 -3.53566 1.29106 0
M  V30 1457 C 139.607 -2.29161 1.56143 0
M  V30 1458 H 142.558 -0.990083 1.24028 0
M  V30 1459 H 142.579 -3.69219 0.919643 0
M  V30 1460 H 142.091 -2.90978 2.56814 0
M  V30 1461 H 140.192 -3.71835 0.238713 0
M  V30 1462 H 140.305 -4.34661 2.01511 0
M  V30 1463 H 138.669 -2.34978 0.982717 0
M  V30 1464 H 139.452 -2.18705 2.64619 0
M  V30 1465 N 141.898 -0.863906 -1.31812 0
M  V30 1466 C 143.123 -0.48527 -2.01643 0
M  V30 1467 C 143.548 0.913058 -1.64453 0
M  V30 1468 O 142.906 1.6014 -0.849985 0
M  V30 1469 C 142.954 -0.642625 -3.54828 0
M  V30 1470 O 142.058 0.320659 -4.11151 0
M  V30 1471 H 141.399 -0.193793 -0.635091 0
M  V30 1472 H 143.929 -1.16565 -1.68148 0
M  V30 1473 H 143.939 -0.533628 -4.04495 0
M  V30 1474 H 142.614 -1.66227 -3.81237 0
M  V30 1475 H 141.191 0.167126 -3.72525 0
M  V30 1476 N 143.376 1.44774 -0.622745 0
M  V30 1477 C 144.625 2.01334 -0.121397 0
M  V30 1478 C 144.938 1.49505 1.26125 0
M  V30 1479 O 146.144 1.98139 1.85616 0
M  V30 1480 C 144.6 3.59516 -0.166298 0
M  V30 1481 C 144.208 4.20342 -1.54974 0
M  V30 1482 C 145.952 4.23582 0.279021 0
M  V30 1483 C 143.859 5.70721 -1.55021 0
M  V30 1484 H 142.789 0.752851 -0.0416172 0
M  V30 1485 H 145.44 1.66083 -0.780309 0
M  V30 1486 H 143.822 3.92027 0.559557 0
M  V30 1487 H 144.996 3.99381 -2.29851 0
M  V30 1488 H 143.311 3.68529 -1.93843 0
M  V30 1489 H 145.908 5.33868 0.298083 0
M  V30 1490 H 146.251 3.95327 1.30471 0
M  V30 1491 H 146.784 3.95843 -0.394063 0
M  V30 1492 H 143.523 6.03698 -2.55399 0
M  V30 1493 H 143.043 5.93829 -0.844245 0
M  V30 1494 H 144.722 6.34203 -1.28047 0
M  V30 1495 N 144.854 0.36279 1.53368 0
M  V30 1496 C 145.786 -0.519668 2.23231 0
M  V30 1497 C 146.799 -1.04844 1.24546 0
M  V30 1498 O 147.988 -0.955296 1.50786 0
M  V30 1499 C 145.088 -1.72995 2.9142 0
M  V30 1500 C 144.261 -1.33316 4.16588 0
M  V30 1501 C 143.32 -2.40521 4.68013 0
M  V30 1502 O 142.346 -2.03027 5.3176 0
M  V30 1503 N 143.548 -3.72065 4.45587 0
M  V30 1504 H 146.313 0.078751 2.99597 0
M  V30 1505 H 143.874 0.187833 1.60807 0
M  V30 1506 H 145.866 -2.44184 3.22733 0
M  V30 1507 H 144.436 -2.2353 2.18525 0
M  V30 1508 H 143.656 -0.451236 3.91609 0
M  V30 1509 H 144.944 -1.04432 4.97967 0
M  V30 1510 H 144.342 -4.05304 3.94646 0
M  V30 1511 H 142.899 -4.39366 4.81457 0
M  V30 1512 N 146.332 -1.57332 0.0918853 0
M  V30 1513 C 147.28 -2.15075 -0.885747 0
M  V30 1514 C 148.274 -1.09277 -1.29441 0
M  V30 1515 O 149.48 -1.27627 -1.26931 0
M  V30 1516 H 145.855 -0.687966 -0.303656 0
M  V30 1517 H 147.826 -2.96047 -0.373995 0
M  V30 1518 C 146.575 -2.74325 -2.13638 0
M  V30 1519 H 145.898 -3.55418 -1.8308 0
M  V30 1520 H 147.338 -3.183 -2.80109 0
M  V30 1521 C 145.797 -1.70062 -2.90827 0
M  V30 1522 O 146.327 -1.13763 -3.85254 0
M  V30 1523 N 144.533 -1.40628 -2.54307 0
M  V30 1524 H 144.08 -1.866 -1.7759 0
M  V30 1525 H 144.038 -0.711043 -3.06254 0
M  V30 1526 N 147.81 0.181792 -1.56548 0
M  V30 1527 C 149.058 0.89832 -1.81038 0
M  V30 1528 C 149.379 1.83232 -0.667164 0
M  V30 1529 O 148.649 1.93372 0.313673 0
M  V30 1530 H 147.229 0.33471 -0.667816 0
M  V30 1531 H 149.891 0.184116 -1.94028 0
M  V30 1532 H 148.987 1.4815 -2.74696 0
M  V30 1533 N 149.288 1.51039 0.449983 0
M  V30 1534 C 150.704 1.38934 0.785462 0
M  V30 1535 C 150.904 0.461817 1.96136 0
M  V30 1536 O 149.96 -0.0877389 2.52348 0
M  V30 1537 C 151.273 2.80724 1.0777 0
M  V30 1538 C 152.821 2.89787 1.1829 0
M  V30 1539 C 153.296 4.32457 1.50815 0
M  V30 1540 N 154.787 4.35505 1.57764 0
M  V30 1541 C 155.522 5.42914 1.84477 0
M  V30 1542 N 155.018 6.60502 2.09068 0
M  V30 1543 N 156.811 5.3038 1.86155 0
M  V30 1544 H 148.962 2.09904 -0.324647 0
M  V30 1545 H 151.225 0.944378 -0.0827957 0
M  V30 1546 H 150.931 3.50531 0.286498 0
M  V30 1547 H 150.805 3.19273 2.00859 0
M  V30 1548 H 153.192 2.20186 1.96474 0
M  V30 1549 H 153.273 2.54752 0.231314 0
M  V30 1550 H 152.917 5.02603 0.731622 0
M  V30 1551 H 152.847 4.64995 2.47158 0
M  V30 1552 H 155.338 3.50724 1.40715 0
M  V30 1553 H 155.651 7.38158 2.28785 0
M  V30 1554 H 153.996 6.63639 2.06416 0
M  V30 1555 H 157.187 4.37505 1.66454 0
M  V30 1556 H 157.36 6.1417 2.06637 0
M  V30 1557 N 150.766 -0.704594 1.40972 0
M  V30 1558 C 151.676 -1.84856 1.44448 0
M  V30 1559 C 152.692 -1.70726 0.335961 0
M  V30 1560 O 153.868 -1.92799 0.582276 0
M  V30 1561 C 150.933 -3.20758 1.31587 0
M  V30 1562 C 149.994 -3.47063 2.52677 0
M  V30 1563 C 149.227 -4.76481 2.4042 0
M  V30 1564 O 149.45 -5.52341 1.42391 0
M  V30 1565 O 148.384 -5.03367 3.30007 0
M  V30 1566 H 152.21 -1.8488 2.40942 0
M  V30 1567 H 149.795 -0.85647 1.22413 0
M  V30 1568 H 151.677 -4.01913 1.26665 0
M  V30 1569 H 150.352 -3.21438 0.382049 0
M  V30 1570 H 149.259 -2.65873 2.63177 0
M  V30 1571 H 150.592 -3.5119 3.44858 0
M  V30 1572 N 152.244 -1.26651 -0.937939 0
M  V30 1573 C 153.474 -1.15006 -1.71631 0
M  V30 1574 C 153.882 0.297026 -1.86854 0
M  V30 1575 O 153.225 1.21493 -1.37786 0
M  V30 1576 C 153.287 -1.74984 -3.14039 0
M  V30 1577 C 152.951 -3.24103 -3.2219 0
M  V30 1578 C 153.948 -4.20877 -3.05219 0
M  V30 1579 C 151.633 -3.64625 -3.45476 0
M  V30 1580 C 153.627 -5.56151 -3.11408 0
M  V30 1581 C 151.314 -5.00032 -3.513 0
M  V30 1582 C 152.312 -5.95604 -3.34282 0
M  V30 1583 O 152 -7.28545 -3.3982 0
M  V30 1584 H 151.732 -0.401183 -0.544085 0
M  V30 1585 H 154.286 -1.67832 -1.18413 0
M  V30 1586 H 152.516 -1.16624 -3.68695 0
M  V30 1587 H 154.205 -1.58199 -3.73802 0
M  V30 1588 H 154.971 -3.90908 -2.87081 0
M  V30 1589 H 150.85 -2.90718 -3.57777 0
M  V30 1590 H 154.394 -6.30727 -2.98043 0
M  V30 1591 H 150.291 -5.29659 -3.68959 0
M  V30 1592 H 151.059 -7.3686 -3.56343 0
M  V30 1593 N 153.722 1.14298 -1.08507 0
M  V30 1594 C 154.672 2.17449 -0.685569 0
M  V30 1595 C 155.656 1.58167 0.295315 0
M  V30 1596 O 156.848 1.76675 0.107172 0
M  V30 1597 C 153.977 3.43161 -0.0975318 0
M  V30 1598 C 153.063 4.09471 -1.10426 0
M  V30 1599 N 153.454 4.51089 -2.28806 0
M  V30 1600 C 151.752 4.35976 -0.940258 0
M  V30 1601 C 152.453 5.02654 -2.9277 0
M  V30 1602 N 151.429 4.96927 -2.20374 0
M  V30 1603 H 155.231 2.47369 -1.587 0
M  V30 1604 H 152.745 1.30992 -0.959936 0
M  V30 1605 H 154.742 4.16388 0.20664 0
M  V30 1606 H 153.402 3.14719 0.798872 0
M  V30 1607 H 154.413 4.44097 -2.66455 0
M  V30 1608 H 151.09 4.17386 -0.0977441 0
M  V30 1609 H 152.48 5.44723 -3.93352 0
M  V30 1610 N 155.201 0.870884 1.31352 0
M  V30 1611 C 156.447 0.492314 1.97352 0
M  V30 1612 C 156.802 -0.945174 1.67583 0
M  V30 1613 O 156.095 -1.65674 0.962423 0
M  V30 1614 C 156.289 0.687157 3.50732 0
M  V30 1615 C 156.118 2.14203 3.95407 0
M  V30 1616 C 154.888 2.78382 4.21701 0
M  V30 1617 C 157.086 3.1144 4.09279 0
M  V30 1618 N 155.068 4.14611 4.52737 0
M  V30 1619 C 156.439 4.32702 4.44037 0
M  V30 1620 C 158.494 3.07418 3.91661 0
M  V30 1621 C 157.197 5.50463 4.63015 0
M  V30 1622 C 159.223 4.24438 4.11833 0
M  V30 1623 C 158.585 5.44463 4.46923 0
M  V30 1624 H 154.684 0.229206 0.747655 0
M  V30 1625 H 157.268 1.12568 1.5886 0
M  V30 1626 H 155.439 0.083384 3.8831 0
M  V30 1627 H 157.171 0.276883 4.03752 0
M  V30 1628 H 153.926 2.29326 4.14375 0
M  V30 1629 H 154.35 4.84928 4.72413 0
M  V30 1630 H 158.992 2.15732 3.6362 0
M  V30 1631 H 156.71 6.42666 4.89904 0
M  V30 1632 H 160.296 4.2278 3.99685 0
M  V30 1633 H 159.176 6.33504 4.62214 0
M  V30 1634 N 156.679 -1.44442 0.630414 0
M  V30 1635 C 157.925 -2.02351 0.134816 0
M  V30 1636 C 158.258 -1.4947 -1.23986 0
M  V30 1637 O 157.533 -0.678475 -1.82283 0
M  V30 1638 C 157.816 -3.59898 0.120707 0
M  V30 1639 C 157.669 -4.23063 1.52767 0
M  V30 1640 C 158.988 -4.36585 -0.555127 0
M  V30 1641 H 156.107 -0.73527 0.0504646 0
M  V30 1642 H 158.749 -1.72022 0.806751 0
M  V30 1643 H 156.899 -3.85868 -0.451477 0
M  V30 1644 H 158.571 -4.08202 2.14869 0
M  V30 1645 H 156.814 -3.80586 2.08175 0
M  V30 1646 H 157.485 -5.32071 1.46984 0
M  V30 1647 H 159.961 -4.16044 -0.0685429 0
M  V30 1648 H 158.837 -5.46294 -0.534185 0
M  V30 1649 H 159.098 -4.11138 -1.62535 0
M  V30 1650 N 158.157 -0.370918 -1.53173 0
M  V30 1651 C 159.385 0.217704 -2.05751 0
M  V30 1652 C 159.8 1.42018 -1.24404 0
M  V30 1653 O 159.157 1.80245 -0.286033 0
M  V30 1654 C 159.208 0.605954 -3.56385 0
M  V30 1655 O 158.929 -0.548734 -4.3465 0
M  V30 1656 C 160.43 1.2524 -4.25241 0
M  V30 1657 H 157.65 0.0371659 -0.66997 0
M  V30 1658 H 160.194 -0.530832 -1.9749 0
M  V30 1659 H 158.349 1.3044 -3.6478 0
M  V30 1660 H 158.763 -0.23376 -5.23979 0
M  V30 1661 H 160.237 1.47458 -5.3194 0
M  V30 1662 H 160.714 2.2143 -3.79296 0
M  V30 1663 H 161.32 0.595233 -4.21114 0
M  V30 1664 N 159.635 1.57281 -0.100228 0
M  V30 1665 C 160.884 1.93713 0.561984 0
M  V30 1666 C 161.197 0.984492 1.69018 0
M  V30 1667 O 162.403 1.24273 2.41389 0
M  V30 1668 C 160.859 3.4421 1.05106 0
M  V30 1669 C 160.467 4.47975 -0.0476628 0
M  V30 1670 C 162.211 3.89595 1.68571 0
M  V30 1671 C 160.118 5.89631 0.457055 0
M  V30 1672 H 159.048 0.723082 0.2137 0
M  V30 1673 H 161.699 1.82644 -0.177057 0
M  V30 1674 H 160.081 3.50449 1.84395 0
M  V30 1675 H 161.255 4.53385 -0.823333 0
M  V30 1676 H 159.57 4.1223 -0.587816 0
M  V30 1677 H 162.167 4.92832 2.07414 0
M  V30 1678 H 162.51 3.28526 2.55688 0
M  V30 1679 H 163.043 3.86078 0.958562 0
M  V30 1680 H 159.782 6.54411 -0.377616 0
M  V30 1681 H 159.302 5.87681 1.19962 0
M  V30 1682 H 160.981 6.40363 0.92437 0
M  V30 1683 N 161.113 -0.173488 1.56642 0
M  V30 1684 C 162.341 -0.906095 1.86004 0
M  V30 1685 C 162.756 -1.75921 0.685355 0
M  V30 1686 O 162.113 -1.79198 -0.345578 0
M  V30 1687 C 162.164 -1.78462 3.14378 0
M  V30 1688 O 161.885 -0.965914 4.27319 0
M  V30 1689 C 163.386 -2.62707 3.57071 0
M  V30 1690 H 160.606 -0.263341 0.617165 0
M  V30 1691 H 163.15 -0.174236 2.03756 0
M  V30 1692 H 161.305 -2.46984 2.98459 0
M  V30 1693 H 161.719 -1.56655 5.00559 0
M  V30 1694 H 163.193 -3.19969 4.49804 0
M  V30 1695 H 163.67 -3.37472 2.81086 0
M  V30 1696 H 164.276 -1.99521 3.75595 0
M  V30 1697 N 162.591 -1.51276 -0.441967 0
M  V30 1698 C 163.521 -1.752 -1.54361 0
M  V30 1699 C 164.502 -0.601682 -1.59103 0
M  V30 1700 O 165.687 -0.843913 -1.74905 0
M  V30 1701 C 162.817 -1.87282 -2.92477 0
M  V30 1702 C 161.771 -3.02687 -3.02596 0
M  V30 1703 C 161.097 -2.99947 -4.42647 0
M  V30 1704 C 162.397 -4.4273 -2.77106 0
M  V30 1705 H 164.091 -2.67442 -1.34592 0
M  V30 1706 H 161.637 -1.28694 -0.646048 0
M  V30 1707 H 163.59 -2.02602 -3.695 0
M  V30 1708 H 162.314 -0.916844 -3.13467 0
M  V30 1709 H 160.973 -2.87065 -2.28012 0
M  V30 1710 H 160.621 -2.02136 -4.60597 0
M  V30 1711 H 160.321 -3.77439 -4.50348 0
M  V30 1712 H 161.845 -3.17354 -5.2165 0
M  V30 1713 H 163.259 -4.58727 -3.43864 0
M  V30 1714 H 161.656 -5.21893 -2.96222 0
M  V30 1715 H 162.726 -4.53087 -1.72744 0
M  V30 1716 N 164.069 0.697108 -1.41344 0
M  V30 1717 C 165.346 1.45154 -1.31109 0
M  V30 1718 C 165.726 2.11009 0.0620449 0
M  V30 1719 O 165.074 2.01571 1.07618 0
M  V30 1720 C 165.284 2.47223 -2.46337 0
M  V30 1721 C 166.632 3.1252 -2.87431 0
M  V30 1722 O 167.656 2.57547 -2.46065 0
M  V30 1723 O 166.515 4.12083 -3.58957 0
M  V30 1724 H 163.609 0.646365 -0.515889 0
M  V30 1725 H 166.155 0.727716 -1.53305 0
M  V30 1726 H 164.927 1.97204 -3.37974 0
M  V30 1727 H 164.55 3.27116 -2.2601 0
M  V30 1728 N 165.547 1.27147 0.931209 0
M  V30 1729 C 166.477 1.12081 2.04842 0
M  V30 1730 C 167.458 0.0232364 1.70084 0
M  V30 1731 O 168.643 0.197085 1.93197 0
M  V30 1732 C 165.773 0.76354 3.38803 0
M  V30 1733 C 164.727 1.81396 3.87659 0
M  V30 1734 C 164.053 1.31075 5.18385 0
M  V30 1735 C 165.353 3.21739 4.11438 0
M  V30 1736 H 167.047 2.05537 2.17703 0
M  V30 1737 H 164.593 0.989603 1.04608 0
M  V30 1738 H 166.546 0.644982 4.16435 0
M  V30 1739 H 165.27 -0.206727 3.25945 0
M  V30 1740 H 163.929 1.92136 3.12217 0
M  V30 1741 H 163.577 0.330037 5.01916 0
M  V30 1742 H 163.277 2.013 5.52044 0
M  V30 1743 H 164.801 1.20506 5.98591 0
M  V30 1744 H 166.215 3.14019 4.79651 0
M  V30 1745 H 164.612 3.89644 4.56397 0
M  V30 1746 H 165.682 3.67054 3.16859 0
M  V30 1747 N 167.025 -1.13721 1.09112 0
M  V30 1748 C 168.441 -1.36914 0.820174 0
M  V30 1749 C 168.641 -1.93356 -0.567079 0
M  V30 1750 O 167.697 -2.15093 -1.32255 0
M  V30 1751 C 169.01 -2.3235 1.90877 0
M  V30 1752 C 170.558 -2.45973 1.93562 0
M  V30 1753 C 171.033 -3.44714 3.01556 0
M  V30 1754 N 172.524 -3.52263 3.00775 0
M  V30 1755 C 173.259 -4.28536 3.80978 0
M  V30 1756 N 172.755 -5.07991 4.71081 0
M  V30 1757 N 174.548 -4.23804 3.69251 0
M  V30 1758 H 166.699 -0.754348 1.98553 0
M  V30 1759 H 168.962 -0.3944 0.862063 0
M  V30 1760 H 168.668 -1.98027 2.90651 0
M  V30 1761 H 168.542 -3.32332 1.78424 0
M  V30 1762 H 170.929 -2.79584 0.944286 0
M  V30 1763 H 171.01 -1.45926 2.10093 0
M  V30 1764 H 170.654 -3.11835 4.00901 0
M  V30 1765 H 170.584 -4.44558 2.82269 0
M  V30 1766 H 173.075 -2.95567 2.35475 0
M  V30 1767 H 173.388 -5.63487 5.28869 0
M  V30 1768 H 171.733 -5.07235 4.75119 0
M  V30 1769 H 174.924 -3.60806 2.98222 0
M  V30 1770 H 175.097 -4.82995 4.31995 0
M  V30 1771 N 168.503 -0.877838 -1.30888 0
M  V30 1772 C 169.435 -0.296607 -2.27273 0
M  V30 1773 C 170.448 0.544799 -1.53414 0
M  V30 1774 O 171.637 0.365511 -1.74718 0
M  V30 1775 C 168.737 0.597481 -3.33592 0
M  V30 1776 C 167.91 -0.213251 -4.3688 0
M  V30 1777 C 166.969 0.610208 -5.2265 0
M  V30 1778 O 165.995 0.035441 -5.69189 0
M  V30 1779 N 167.197 1.92071 -5.47804 0
M  V30 1780 H 169.962 -1.12492 -2.77787 0
M  V30 1781 H 167.523 -0.740105 -1.43993 0
M  V30 1782 H 169.515 1.15425 -3.87891 0
M  V30 1783 H 168.085 1.32647 -2.83061 0
M  V30 1784 H 167.305 -0.951466 -3.82545 0
M  V30 1785 H 168.593 -0.769262 -5.02951 0
M  V30 1786 H 167.991 2.4107 -5.11763 0
M  V30 1787 H 166.548 2.42508 -6.05007 0
M  V30 1788 N 169.982 1.44106 -0.638065 0
M  V30 1789 C 171.228 2.02277 -0.145546 0
M  V30 1790 C 171.561 1.50125 1.23191 0
M  V30 1791 O 170.836 0.688133 1.8192 0
M  V30 1792 C 171.119 3.59829 -0.139791 0
M  V30 1793 C 170.972 4.22247 -1.55008 0
M  V30 1794 C 172.291 4.36873 0.531966 0
M  V30 1795 H 169.41 0.734992 -0.0543632 0
M  V30 1796 H 172.052 1.71592 -0.815863 0
M  V30 1797 H 170.202 3.86102 0.431007 0
M  V30 1798 H 171.874 4.07057 -2.1703 0
M  V30 1799 H 170.117 3.79476 -2.10191 0
M  V30 1800 H 170.788 5.31284 -1.49804 0
M  V30 1801 H 173.264 4.16074 0.0464781 0
M  V30 1802 H 172.14 5.4657 0.505206 0
M  V30 1803 H 172.401 4.11995 1.60352 0
M  V30 1804 N 171.46 0.379036 1.52974 0
M  V30 1805 C 172.707 -0.206421 2.01445 0
M  V30 1806 C 173.035 -1.47668 1.26587 0
M  V30 1807 O 172.29 -1.92514 0.351675 0
M  V30 1808 C 172.589 -0.53096 3.53434 0
M  V30 1809 C 172.255 0.646546 4.46241 0
M  V30 1810 C 170.917 0.969604 4.7133 0
M  V30 1811 C 173.269 1.43479 5.01062 0
M  V30 1812 C 170.597 2.08263 5.48492 0
M  V30 1813 C 172.949 2.53834 5.7944 0
M  V30 1814 C 171.613 2.86659 6.02812 0
M  V30 1815 H 170.883 -0.0755349 0.73714 0
M  V30 1816 H 173.53 0.514271 1.84465 0
M  V30 1817 H 171.835 -1.33285 3.68432 0
M  V30 1818 H 173.532 -0.996417 3.88423 0
M  V30 1819 H 170.122 0.384734 4.2687 0
M  V30 1820 H 174.306 1.19844 4.81613 0
M  V30 1821 H 169.562 2.34078 5.64816 0
M  V30 1822 H 173.736 3.15319 6.20924 0
M  V30 1823 H 171.363 3.73026 6.62387 0
M  V30 1824 N 172.938 -1.57226 0.108567 0
M  V30 1825 C 173.87 -2.11809 -0.875752 0
M  V30 1826 C 174.883 -1.05839 -1.23701 0
M  V30 1827 O 176.072 -1.33245 -1.18778 0
M  V30 1828 C 173.172 -2.59411 -2.18081 0
M  V30 1829 C 172.345 -3.89364 -1.99284 0
M  V30 1830 C 171.404 -4.22672 -3.13424 0
M  V30 1831 O 170.43 -4.91668 -2.86795 0
M  V30 1832 N 171.632 -3.79154 -4.3957 0
M  V30 1833 H 174.397 -2.9689 -0.409477 0
M  V30 1834 H 171.958 -1.61721 -0.076158 0
M  V30 1835 H 173.95 -2.7873 -2.93414 0
M  V30 1836 H 172.52 -1.79268 -2.5609 0
M  V30 1837 H 171.74 -3.79059 -1.08203 0
M  V30 1838 H 173.028 -4.74358 -1.84017 0
M  V30 1839 H 172.426 -3.23486 -4.64083 0
M  V30 1840 H 170.983 -4.03602 -5.11809 0
M  V30 1841 N 174.416 0.165178 -1.56732 0
M  V30 1842 C 175.662 0.882112 -1.82611 0
M  V30 1843 C 175.995 1.81628 -0.687378 0
M  V30 1844 O 175.27 1.92009 0.310267 0
M  V30 1845 C 175.553 1.67245 -3.18906 0
M  V30 1846 C 175.406 0.760987 -4.43316 0
M  V30 1847 C 176.725 2.63884 -3.52212 0
M  V30 1848 H 173.844 0.319242 -0.664269 0
M  V30 1849 H 176.486 0.148052 -1.89422 0
M  V30 1850 H 174.636 2.29824 -3.1323 0
M  V30 1851 H 176.308 0.147596 -4.61064 0
M  V30 1852 H 174.551 0.0694102 -4.33744 0
M  V30 1853 H 175.222 1.34962 -5.35247 0
M  V30 1854 H 177.698 2.11429 -3.58381 0
M  V30 1855 H 176.574 3.16245 -4.48643 0
M  V30 1856 H 176.835 3.44377 -2.77231 0
M  V30 1857 N 175.894 1.51508 0.433938 0
M  V30 1858 C 176.857 1.72473 1.50949 0
M  V30 1859 C 177.857 0.594725 1.49398 0
M  V30 1860 O 179.047 0.862315 1.5136 0
M  V30 1861 C 176.179 1.78431 2.90474 0
M  V30 1862 H 177.372 2.68467 1.33662 0
M  V30 1863 H 174.925 1.41549 0.662836 0
M  V30 1864 H 175.66 0.842645 3.13161 0
M  V30 1865 H 175.445 2.60558 2.93005 0
M  V30 1866 H 176.935 1.96479 3.68491 0
M  V30 1867 N 177.372 -0.689602 1.41712 0
M  V30 1868 C 178.602 -1.47613 1.44548 0
M  V30 1869 C 179.01 -1.89132 0.0509034 0
M  V30 1870 O 178.353 -1.57741 -0.94146 0
M  V30 1871 C 178.415 -2.76596 2.2964 0
M  V30 1872 C 178.079 -2.57245 3.77722 0
M  V30 1873 C 179.076 -2.22804 4.69739 0
M  V30 1874 C 176.761 -2.727 4.2183 0
M  V30 1875 C 178.755 -2.04064 6.03851 0
M  V30 1876 C 176.442 -2.53576 5.56006 0
M  V30 1877 C 177.44 -2.1931 6.46832 0
M  V30 1878 O 177.128 -2.00359 7.78532 0
M  V30 1879 H 176.86 -0.461227 0.494212 0
M  V30 1880 H 179.414 -0.856045 1.86711 0
M  V30 1881 H 177.644 -3.41033 1.82301 0
M  V30 1882 H 179.333 -3.38424 2.24107 0
M  V30 1883 H 180.099 -2.10473 4.36951 0
M  V30 1884 H 175.978 -2.98353 3.51435 0
M  V30 1885 H 179.522 -1.77241 6.74708 0
M  V30 1886 H 175.419 -2.65499 5.88371 0
M  V30 1887 H 176.187 -2.15075 7.89737 0
M  V30 1888 N 178.85 -1.27639 -0.924453 0
M  V30 1889 C 180.096 -1.14336 -1.67497 0
M  V30 1890 C 180.429 0.309465 -1.91718 0
M  V30 1891 O 179.704 1.22608 -1.50989 0
M  V30 1892 C 179.987 -1.93096 -3.0395 0
M  V30 1893 C 179.84 -3.46381 -2.8695 0
M  V30 1894 C 181.159 -1.73798 -4.0433 0
M  V30 1895 H 178.278 -0.416728 -0.607871 0
M  V30 1896 H 180.92 -1.56832 -1.07256 0
M  V30 1897 H 179.07 -1.56982 -3.55372 0
M  V30 1898 H 180.742 -3.92343 -2.42621 0
M  V30 1899 H 178.985 -3.72557 -2.22225 0
M  V30 1900 H 179.656 -3.96735 -3.83804 0
M  V30 1901 H 182.132 -2.05293 -3.61931 0
M  V30 1902 H 181.008 -2.31294 -4.97789 0
M  V30 1903 H 181.269 -0.686725 -4.36734 0
M  V30 1904 N 180.328 1.1314 -1.09713 0
M  V30 1905 C 181.577 1.83838 -0.829851 0
M  V30 1906 C 181.89 1.84599 0.646728 0
M  V30 1907 O 183.096 2.51218 1.02965 0
M  V30 1908 C 181.552 3.30069 -1.43466 0
M  V30 1909 C 181.16 3.37688 -2.94399 0
M  V30 1910 C 182.904 4.05788 -1.24645 0
M  V30 1911 C 180.811 4.78209 -3.47952 0
M  V30 1912 H 179.741 0.68877 -0.306777 0
M  V30 1913 H 182.392 1.27448 -1.3202 0
M  V30 1914 H 180.774 3.8628 -0.871996 0
M  V30 1915 H 181.948 2.91456 -3.56918 0
M  V30 1916 H 180.263 2.75436 -3.12289 0
M  V30 1917 H 182.86 5.09535 -1.62107 0
M  V30 1918 H 183.203 4.15878 -0.187357 0
M  V30 1919 H 183.736 3.55915 -1.77678 0
M  V30 1920 H 180.475 4.73311 -4.53495 0
M  V30 1921 H 179.995 5.24924 -2.90198 0
M  V30 1922 H 181.674 5.47133 -3.45332 0
M  V30 1923 N 181.806 0.884767 1.30421 0
M  V30 1924 C 183.055 0.499164 1.95426 0
M  V30 1925 C 183.368 -0.95645 1.70621 0
M  V30 1926 O 184.574 -1.44889 2.29607 0
M  V30 1927 C 183.03 0.84177 3.49917 0
M  V30 1928 C 182.638 2.31514 3.83543 0
M  V30 1929 C 184.382 0.525355 4.21237 0
M  V30 1930 C 182.289 2.59939 5.31212 0
M  V30 1931 H 181.219 0.182944 0.73147 0
M  V30 1932 H 183.87 1.07971 1.48373 0
M  V30 1933 H 182.252 0.190311 3.95542 0
M  V30 1934 H 183.426 3.0109 3.48829 0
M  V30 1935 H 181.741 2.59907 3.25326 0
M  V30 1936 H 184.338 0.714762 5.29901 0
M  V30 1937 H 184.681 -0.535222 4.12845 0
M  V30 1938 H 185.214 1.134 3.81294 0
M  V30 1939 H 181.953 3.64736 5.44654 0
M  V30 1940 H 181.473 1.94972 5.67227 0
M  V30 1941 H 183.152 2.45429 5.98643 0
M  V30 1942 N 183.284 -1.43765 0.645699 0
M  V30 1943 C 184.231 -2.30745 -0.0504648 0
M  V30 1944 C 185.201 -1.4432 -0.822241 0
M  V30 1945 O 186.386 -1.73202 -0.800358 0
M  V30 1946 C 183.526 -3.29802 -1.0161 0
M  V30 1947 C 182.639 -4.31326 -0.241219 0
M  V30 1948 C 181.774 -5.17469 -1.19998 0
M  V30 1949 C 180.813 -6.10691 -0.415094 0
M  V30 1950 N 179.95 -6.89483 -1.32506 0
M  V30 1951 H 184.79 -2.8973 0.697155 0
M  V30 1952 H 182.327 -1.42738 0.355563 0
M  V30 1953 H 184.285 -3.85734 -1.58949 0
M  V30 1954 H 182.915 -2.72483 -1.73069 0
M  V30 1955 H 181.967 -3.77749 0.448334 0
M  V30 1956 H 183.279 -4.9743 0.369437 0
M  V30 1957 H 182.433 -5.7799 -1.84424 0
M  V30 1958 H 181.172 -4.51473 -1.84455 0
M  V30 1959 H 180.177 -5.49265 0.242565 0
M  V30 1960 H 181.402 -6.78727 0.224966 0
M  V30 1961 H 179.348 -6.26142 -1.95657 0
M  V30 1962 H 179.265 -7.52081 -0.768783 0
M  V30 1963 H 180.533 -7.54516 -1.9577 0
M  V30 1964 N 184.763 -0.387143 -1.52771 0
M  V30 1965 C 185.726 0.436939 -2.24997 0
M  V30 1966 C 186.726 0.991991 -1.26555 0
M  V30 1967 O 187.916 0.874335 -1.50669 0
M  V30 1968 C 185.048 1.61281 -3.00335 0
M  V30 1969 H 186.241 -0.195365 -2.99263 0
M  V30 1970 H 183.794 -0.139218 -1.55679 0
M  V30 1971 H 184.529 2.2826 -2.30364 0
M  V30 1972 H 184.314 1.22154 -3.72587 0
M  V30 1973 H 185.804 2.19629 -3.5518 0
M  V30 1974 N 186.241 1.57166 -0.116904 0
M  V30 1975 C 187.204 2.14039 0.819742 0
M  V30 1976 C 188.204 1.07477 1.19605 0
M  V30 1977 O 189.394 1.33263 1.1219 0
M  V30 1978 C 186.526 2.67891 2.10826 0
M  V30 1979 H 187.719 2.98128 0.325511 0
M  V30 1980 H 185.272 1.55739 0.132312 0
M  V30 1981 H 186.007 1.87384 2.64685 0
M  V30 1982 H 185.792 3.45823 1.84793 0
M  V30 1983 H 187.282 3.11809 2.77785 0
M  V30 1984 N 187.719 -0.156864 1.56817 0
M  V30 1985 C 188.667 -1.21319 1.98455 0
M  V30 1986 C 189.661 -1.45025 0.875444 0
M  V30 1987 O 190.867 -1.45435 1.0606 0
M  V30 1988 H 187.242 -0.408142 0.631605 0
M  V30 1989 H 189.213 -0.835244 2.86472 0
M  V30 1990 C 187.962 -2.54148 2.37285 0
M  V30 1991 H 187.285 -2.36733 3.22176 0
M  V30 1992 H 188.725 -3.26712 2.70251 0
M  V30 1993 C 187.184 -3.13967 1.22173 0
M  V30 1994 O 187.714 -3.98357 0.517149 0
M  V30 1995 N 185.92 -2.7327 0.988536 0
M  V30 1996 H 185.467 -2.04744 1.56326 0
M  V30 1997 H 185.425 -3.13628 0.220209 0
M  V30 1998 N 189.197 -1.51736 -0.425897 0
M  V30 1999 C 190.16 -1.73271 -1.50032 0
M  V30 2000 C 191.16 -0.602639 -1.4908 0
M  V30 2001 O 192.35 -0.87033 -1.509 0
M  V30 2002 C 189.482 -1.79969 -2.89523 0
M  V30 2003 H 190.675 -2.69172 -1.32237 0
M  V30 2004 H 188.228 -1.41899 -0.65532 0
M  V30 2005 H 188.963 -0.859241 -3.1271 0
M  V30 2006 H 188.748 -2.62109 -2.91619 0
M  V30 2007 H 190.238 -1.9843 -3.67444 0
M  V30 2008 N 190.675 0.682077 -1.42076 0
M  V30 2009 C 192.086 1.26246 -1.37546 0
M  V30 2010 C 192.437 1.96092 -0.0651481 0
M  V30 2011 O 191.562 1.99587 0.836297 0
M  V30 2012 C 192.157 2.29594 -2.49143 0
M  V30 2013 C 190.716 2.83175 -2.47969 0
M  V30 2014 C 189.863 1.57395 -2.28303 0
M  V30 2015 H 192.814 0.475937 -1.51395 0
M  V30 2016 H 192.835 3.11175 -2.18976 0
M  V30 2017 H 192.347 1.78729 -3.44496 0
M  V30 2018 H 190.448 3.3818 -1.56413 0
M  V30 2019 H 190.561 3.32687 -3.44755 0
M  V30 2020 H 188.925 1.83699 -1.76428 0
M  V30 2021 H 189.708 1.08507 -3.25701 0
M  V30 2022 N 192.153 1.28127 0.917671 0
M  V30 2023 C 193.569 1.05749 1.19538 0
M  V30 2024 C 193.769 -0.202633 2.00479 0
M  V30 2025 O 192.825 -0.905382 2.3571 0
M  V30 2026 C 194.138 2.30273 1.93378 0
M  V30 2027 C 195.686 2.35412 2.06277 0
M  V30 2028 C 196.161 3.59692 2.83524 0
M  V30 2029 N 197.652 3.60309 2.91087 0
M  V30 2030 C 198.387 4.53147 3.51348 0
M  V30 2031 N 197.883 5.563 4.12919 0
M  V30 2032 N 199.676 4.40751 3.48849 0
M  V30 2033 H 191.827 2.09024 0.377184 0
M  V30 2034 H 194.09 0.919798 0.22951 0
M  V30 2035 H 193.796 3.22055 1.41328 0
M  V30 2036 H 193.67 2.36378 2.93947 0
M  V30 2037 H 196.057 1.4413 2.57508 0
M  V30 2038 H 196.138 2.33304 1.04895 0
M  V30 2039 H 195.782 4.51316 2.32973 0
M  V30 2040 H 195.712 3.59054 3.85211 0
M  V30 2041 H 198.203 2.85714 2.47338 0
M  V30 2042 H 198.516 6.2329 4.56869 0
M  V30 2043 H 196.861 5.60131 4.11435 0
M  V30 2044 H 200.052 3.59367 2.99955 0
M  V30 2045 H 200.225 5.13291 3.9552 0
M  V30 2046 N 193.631 -1.12557 1.10312 0
M  V30 2047 C 195.042 -1.65574 0.862678 0
M  V30 2048 C 195.393 -1.86566 -0.607256 0
M  V30 2049 O 194.518 -1.59121 -1.46662 0
M  V30 2050 C 195.113 -3.00776 1.55947 0
M  V30 2051 C 193.672 -3.50748 1.36576 0
M  V30 2052 C 192.819 -2.25797 1.60968 0
M  V30 2053 H 195.77 -0.963552 1.26101 0
M  V30 2054 H 195.791 -3.67185 0.997753 0
M  V30 2055 H 195.303 -2.85465 2.62928 0
M  V30 2056 H 193.404 -3.71245 0.317531 0
M  V30 2057 H 193.517 -4.30289 2.10686 0
M  V30 2058 H 191.881 -2.32841 1.03234 0
M  V30 2059 H 192.664 -2.13043 2.69198 0
M  V30 2060 N 195.109 -0.891671 -1.2995 0
M  V30 2061 C 196.357 -0.512486 -1.95494 0
M  V30 2062 C 196.678 0.942776 -1.70695 0
M  V30 2063 O 195.948 1.66374 -1.03424 0
M  V30 2064 H 194.528 -0.186533 -0.723336 0
M  V30 2065 H 197.19 -1.13621 -1.58355 0
M  V30 2066 H 196.286 -0.688342 -3.04415 0
M  V30 2067 N 196.587 1.43421 -0.653314 0
M  V30 2068 C 197.535 2.32546 0.0501531 0
M  V30 2069 C 198.529 1.48617 0.812985 0
M  V30 2070 O 199.735 1.64825 0.723375 0
M  V30 2071 H 196.11 0.751185 0.0350032 0
M  V30 2072 H 198.081 2.89602 -0.719261 0
M  V30 2073 C 196.83 3.32925 1.00279 0
M  V30 2074 H 196.153 3.97532 0.425236 0
M  V30 2075 H 197.593 3.9792 1.46409 0
M  V30 2076 C 196.052 2.63532 2.09886 0
M  V30 2077 O 196.582 2.45092 3.18265 0
M  V30 2078 N 194.788 2.22905 1.86445 0
M  V30 2079 H 194.335 2.38103 0.98309 0
M  V30 2080 H 194.293 1.76805 2.59976 0
M  V30 2081 N 198.065 0.39524 1.52563 0
M  V30 2082 C 199.311 -0.177763 2.02622 0
M  V30 2083 C 199.666 -1.43974 1.27629 0
M  V30 2084 O 198.959 -1.87995 0.36992 0
M  V30 2085 C 199.153 -0.493444 3.53977 0
M  V30 2086 C 198.982 0.736392 4.4363 0
M  V30 2087 C 197.752 1.25744 4.89404 0
M  V30 2088 C 199.95 1.61046 4.88435 0
M  V30 2089 N 197.932 2.44421 5.63145 0
M  V30 2090 C 199.303 2.64359 5.60816 0
M  V30 2091 C 201.358 1.62985 4.70468 0
M  V30 2092 C 200.061 3.69505 6.17137 0
M  V30 2093 C 202.087 2.67042 5.27677 0
M  V30 2094 C 201.449 3.69077 5.99968 0
M  V30 2095 H 197.548 -0.0269794 0.781534 0
M  V30 2096 H 200.132 0.546466 1.86874 0
M  V30 2097 H 198.303 -1.18672 3.69826 0
M  V30 2098 H 200.035 -1.05412 3.90731 0
M  V30 2099 H 196.79 0.817546 4.6649 0
M  V30 2100 H 197.214 3.04485 6.04663 0
M  V30 2101 H 201.856 0.854442 4.14076 0
M  V30 2102 H 199.574 4.4791 6.72608 0
M  V30 2103 H 203.16 2.69433 5.15652 0
M  V30 2104 H 202.04 4.48273 6.43444 0
M  V30 2105 N 199.544 -1.57102 0.125237 0
M  V30 2106 C 200.793 -1.94582 -0.531095 0
M  V30 2107 C 201.106 -1.01126 -1.6743 0
M  V30 2108 O 202.312 -1.28097 -2.39381 0
M  V30 2109 C 200.768 -3.45839 -0.996164 0
M  V30 2110 C 200.376 -4.47842 0.118926 0
M  V30 2111 C 202.12 -3.92227 -1.62352 0
M  V30 2112 C 200.027 -5.90284 -0.363192 0
M  V30 2113 H 198.957 -0.726391 -0.20217 0
M  V30 2114 H 201.608 -1.82339 0.206092 0
M  V30 2115 H 199.99 -3.53338 -1.78796 0
M  V30 2116 H 201.164 -4.52018 0.895358 0
M  V30 2117 H 199.479 -4.11243 0.653324 0
M  V30 2118 H 202.076 -4.96069 -1.99548 0
M  V30 2119 H 202.419 -3.32552 -2.50429 0
M  V30 2120 H 202.952 -3.87554 -0.897019 0
M  V30 2121 H 199.691 -6.53728 0.481679 0
M  V30 2122 H 199.211 -5.89515 -1.10597 0
M  V30 2123 H 200.89 -6.41752 -0.822377 0
M  V30 2124 N 201.022 0.148545 -1.56898 0
M  V30 2125 C 201.952 1.18524 -2.01182 0
M  V30 2126 C 202.933 1.4489 -0.891123 0
M  V30 2127 O 204.118 1.55836 -1.15882 0
M  V30 2128 C 201.248 2.51879 -2.39112 0
M  V30 2129 C 200.202 2.40038 -3.54353 0
M  V30 2130 C 199.528 3.78089 -3.78091 0
M  V30 2131 C 200.828 1.88577 -4.87069 0
M  V30 2132 H 202.522 0.817029 -2.88036 0
M  V30 2133 H 200.068 0.391575 -1.38574 0
M  V30 2134 H 202.021 3.24627 -2.68692 0
M  V30 2135 H 200.745 2.90532 -1.49193 0
M  V30 2136 H 199.404 1.69742 -3.24936 0
M  V30 2137 H 199.052 4.14175 -2.85426 0
M  V30 2138 H 198.752 3.71028 -4.55645 0
M  V30 2139 H 200.276 4.52387 -4.10095 0
M  V30 2140 H 201.69 2.51117 -5.15377 0
M  V30 2141 H 200.087 1.9241 -5.68417 0
M  V30 2142 H 201.157 0.84136 -4.77545 0
M  V30 2143 N 202.5 1.5196 0.417844 0
M  V30 2144 C 203.41 1.77554 1.53336 0
M  V30 2145 C 204.426 0.660655 1.6097 0
M  V30 2146 O 205.602 0.945099 1.77848 0
M  V30 2147 C 202.667 1.91291 2.89152 0
M  V30 2148 C 201.728 3.15183 2.91475 0
M  V30 2149 C 200.961 3.28256 4.20813 0
M  V30 2150 O 201.184 2.46798 5.14244 0
M  V30 2151 O 200.118 4.21356 4.29817 0
M  V30 2152 H 203.944 2.7222 1.34647 0
M  V30 2153 H 201.529 1.36698 0.602828 0
M  V30 2154 H 203.411 2.02199 3.69721 0
M  V30 2155 H 202.086 0.998129 3.07927 0
M  V30 2156 H 200.993 3.09739 2.09791 0
M  V30 2157 H 202.326 4.06414 2.77648 0
M  V30 2158 N 203.978 -0.674533 1.42435 0
M  V30 2159 C 205.394 -0.98769 1.25367 0
M  V30 2160 C 205.594 -2.00879 0.158044 0
M  V30 2161 O 204.65 -2.48075 -0.470633 0
M  V30 2162 C 205.963 -1.49224 2.6106 0
M  V30 2163 C 207.511 -1.61 2.68417 0
M  V30 2164 C 207.986 -2.14852 4.04478 0
M  V30 2165 N 209.477 -2.22185 4.06434 0
M  V30 2166 C 210.212 -2.64928 5.08528 0
M  V30 2167 N 209.708 -3.07121 6.21006 0
M  V30 2168 N 211.501 -2.64679 4.95885 0
M  V30 2169 H 203.652 0.00152503 2.124 0
M  V30 2170 H 205.915 -0.0618434 0.945981 0
M  V30 2171 H 205.621 -0.816453 3.42092 0
M  V30 2172 H 205.495 -2.47094 2.84999 0
M  V30 2173 H 207.882 -2.27686 1.87732 0
M  V30 2174 H 207.963 -0.616195 2.48267 0
M  V30 2175 H 207.607 -1.48775 4.85622 0
M  V30 2176 H 207.537 -3.15024 4.2198 0
M  V30 2177 H 210.028 -1.92435 3.25234 0
M  V30 2178 H 210.341 -3.38423 6.94759 0
M  V30 2179 H 208.686 -3.04978 6.24511 0
M  V30 2180 H 211.877 -2.31078 4.07088 0
M  V30 2181 H 212.05 -2.9767 5.75584 0
M  V30 2182 N 205.456 -1.28612 -0.910864 0
M  V30 2183 C 206.681 -1.1891 -1.69927 0
M  V30 2184 C 207.106 0.248372 -1.86453 0
M  V30 2185 O 206.464 1.17961 -1.37676 0
M  V30 2186 C 206.512 -1.89578 -3.06745 0
M  V30 2187 O 205.616 -1.20521 -3.94396 0
M  V30 2188 H 204.957 -0.412632 -0.520222 0
M  V30 2189 H 207.487 -1.69985 -1.1387 0
M  V30 2190 H 207.497 -1.97597 -3.56958 0
M  V30 2191 H 206.172 -2.94136 -2.94035 0
M  V30 2192 H 204.749 -1.20684 -3.52831 0
M  V30 2193 N 206.934 1.1197 -1.10907 0
M  V30 2194 C 207.864 2.19928 -0.784473 0
M  V30 2195 C 208.845 1.6833 0.244726 0
M  V30 2196 O 210.03 1.93892 0.109418 0
M  V30 2197 C 207.16 3.46597 -0.220827 0
M  V30 2198 C 206.114 4.11376 -1.18127 0
M  V30 2199 C 205.44 5.32554 -0.478594 0
M  V30 2200 C 206.74 4.56945 -2.52979 0
M  V30 2201 H 208.434 2.47337 -1.68715 0
M  V30 2202 H 205.98 1.18879 -0.812642 0
M  V30 2203 H 207.933 4.21396 0.0184278 0
M  V30 2204 H 206.657 3.1863 0.717113 0
M  V30 2205 H 205.316 3.38564 -1.40606 0
M  V30 2206 H 204.964 5.00856 0.463976 0
M  V30 2207 H 204.664 5.76844 -1.11912 0
M  V30 2208 H 206.188 6.10096 -0.248 0
M  V30 2209 H 207.602 5.23093 -2.3462 0
M  V30 2210 H 205.999 5.1203 -3.12962 0
M  V30 2211 H 207.069 3.70676 -3.12614 0
M  V30 2212 N 208.412 0.89855 1.29475 0
M  V30 2213 C 209.689 0.443416 1.90508 0
M  V30 2214 C 210.069 -1.07685 1.81569 0
M  V30 2215 O 209.417 -1.9182 1.24166 0
M  V30 2216 C 209.627 0.956708 3.35631 0
M  V30 2217 C 210.975 0.999728 4.12663 0
M  V30 2218 O 211.999 0.904299 3.4453 0
M  V30 2219 O 210.858 1.14289 5.34416 0
M  V30 2220 H 207.952 0.138025 0.815401 0
M  V30 2221 H 210.498 0.98834 1.37949 0
M  V30 2222 H 209.27 2.00067 3.36287 0
M  V30 2223 H 208.893 0.391728 3.95666 0
M  V30 2224 N 209.89 -1.43072 0.660911 0
M  V30 2225 C 211.138 -2.01323 0.177094 0
M  V30 2226 C 211.459 -1.5245 -1.2159 0
M  V30 2227 O 210.729 -0.740322 -1.81373 0
M  V30 2228 H 209.309 -0.744382 0.0624804 0
M  V30 2229 H 211.971 -1.75179 0.854305 0
M  V30 2230 H 211.067 -3.11649 0.167641 0
M  V30 2231 N 211.368 -0.403325 -1.52352 0
M  V30 2232 C 212.596 0.174012 -2.06167 0
M  V30 2233 C 213.011 1.39347 -1.27388 0
M  V30 2234 O 212.368 1.79597 -0.324201 0
M  V30 2235 C 212.419 0.530223 -3.5759 0
M  V30 2236 O 212.14 -0.640806 -4.33388 0
M  V30 2237 C 213.641 1.16192 -4.27802 0
M  V30 2238 H 210.861 0.0229464 -0.670608 0
M  V30 2239 H 213.405 -0.572604 -1.9632 0
M  V30 2240 H 211.56 1.22673 -3.67464 0
M  V30 2241 H 211.974 -0.344851 -5.23365 0
M  V30 2242 H 213.448 1.36141 -5.34948 0
M  V30 2243 H 213.925 2.13335 -3.83907 0
M  V30 2244 H 214.531 0.505775 -4.22282 0
M  V30 2245 N 212.846 1.57033 -0.133567 0
M  V30 2246 C 214.074 2.00044 0.528195 0
M  V30 2247 C 214.489 1.01349 1.59291 0
M  V30 2248 O 213.846 0.00848369 1.82498 0
M  V30 2249 C 213.897 3.43018 1.1411 0
M  V30 2250 O 213.618 4.37939 0.11892 0
M  V30 2251 C 215.119 4.01237 1.88477 0
M  V30 2252 H 212.339 0.656517 0.138661 0
M  V30 2253 H 214.883 2.03267 -0.224196 0
M  V30 2254 H 213.038 3.40688 1.84418 0
M  V30 2255 H 213.452 5.21436 0.56613 0
M  V30 2256 H 214.926 5.03314 2.26669 0
M  V30 2257 H 215.403 3.41193 2.76558 0
M  V30 2258 H 216.009 4.07156 1.22898 0
M  V30 2259 N 214.325 -0.140222 1.56975 0
M  V30 2260 C 215.572 -0.851687 1.83719 0
M  V30 2261 C 215.9 -1.80862 0.715485 0
M  V30 2262 O 215.155 -1.93464 -0.294956 0
M  V30 2263 C 215.454 -1.65386 3.16832 0
M  V30 2264 C 215.12 -0.843112 4.42947 0
M  V30 2265 C 213.782 -0.619464 4.77196 0
M  V30 2266 C 216.134 -0.276582 5.20466 0
M  V30 2267 C 213.462 0.181312 5.8642 0
M  V30 2268 C 215.814 0.51127 6.30531 0
M  V30 2269 C 214.478 0.745432 6.63325 0
M  V30 2270 H 213.748 -0.311654 0.672274 0
M  V30 2271 H 216.395 -0.115006 1.91154 0
M  V30 2272 H 214.7 -2.46084 3.04877 0
M  V30 2273 H 216.397 -2.20793 3.34741 0
M  V30 2274 H 212.987 -1.0275 4.16101 0
M  V30 2275 H 217.171 -0.436632 4.94376 0
M  V30 2276 H 212.427 0.372165 6.10266 0
M  V30 2277 H 216.601 0.957354 6.89788 0
M  V30 2278 H 214.228 1.36778 7.47794 0
M  V30 2279 N 215.803 -1.52179 -0.40978 0
M  V30 2280 C 217.028 -1.70347 -1.18308 0
M  V30 2281 C 217.453 -0.411887 -1.83535 0
M  V30 2282 O 216.811 0.630587 -1.6998 0
M  V30 2283 C 216.859 -2.83977 -2.22238 0
M  V30 2284 O 215.963 -2.495 -3.28365 0
M  V30 2285 H 215.304 -0.567103 -0.345384 0
M  V30 2286 H 217.834 -1.98879 -0.480445 0
M  V30 2287 H 217.844 -3.0887 -2.66577 0
M  V30 2288 H 216.519 -3.77685 -1.74146 0
M  V30 2289 H 215.096 -2.35277 -2.89308 0
M  V30 2290 N 217.281 0.66697 -1.42791 0
M  V30 2291 C 218.692 1.2478 -1.38877 0
M  V30 2292 C 219.043 1.96012 -0.0859426 0
M  V30 2293 O 218.168 2.00463 0.815081 0
M  V30 2294 C 218.763 2.26938 -2.51564 0
M  V30 2295 C 217.322 2.80529 -2.50959 0
M  V30 2296 C 216.469 1.54965 -2.29959 0
M  V30 2297 H 219.42 0.459853 -1.51892 0
M  V30 2298 H 219.441 3.08834 -2.22265 0
M  V30 2299 H 218.953 1.75065 -3.46372 0
M  V30 2300 H 217.054 3.36502 -1.59991 0
M  V30 2301 H 217.167 3.29012 -3.48265 0
M  V30 2302 H 215.531 1.81817 -1.78366 0
M  V30 2303 H 216.314 1.05047 -3.26833 0
M  V30 2304 N 218.759 1.29093 0.90403 0
M  V30 2305 C 220.005 1.17996 1.65676 0
M  V30 2306 C 220.36 -0.266816 1.90541 0
M  V30 2307 O 219.653 -1.19 1.50165 0
M  V30 2308 C 219.847 1.92224 3.01305 0
M  V30 2309 C 219.676 3.43972 2.89678 0
M  V30 2310 C 218.446 4.1332 2.90679 0
M  V30 2311 C 220.644 4.39546 2.67028 0
M  V30 2312 N 218.626 5.51463 2.69743 0
M  V30 2313 C 219.997 5.65119 2.5503 0
M  V30 2314 C 222.052 4.29359 2.52101 0
M  V30 2315 C 220.755 6.81663 2.29626 0
M  V30 2316 C 222.781 5.4565 2.28079 0
M  V30 2317 C 222.143 6.70193 2.16843 0
M  V30 2318 H 218.242 0.486759 0.612037 0
M  V30 2319 H 220.826 1.62868 1.06688 0
M  V30 2320 H 218.997 1.49773 3.58361 0
M  V30 2321 H 220.729 1.73429 3.65656 0
M  V30 2322 H 217.484 3.64984 3.01801 0
M  V30 2323 H 217.908 6.24105 2.6234 0
M  V30 2324 H 222.55 3.33769 2.59534 0
M  V30 2325 H 220.268 7.77313 2.20932 0
M  V30 2326 H 223.854 5.39664 2.1738 0
M  V30 2327 H 222.734 7.58659 1.98511 0
M  V30 2328 N 220.237 -1.11381 1.11499 0
M  V30 2329 C 221.169 -2.17207 0.731704 0
M  V30 2330 C 222.182 -1.61066 -0.236957 0
M  V30 2331 O 223.371 -1.78489 -0.0197591 0
M  V30 2332 C 220.471 -3.38846 0.0607624 0
M  V30 2333 C 219.644 -4.24451 1.0564 0
M  V30 2334 C 218.703 -5.24562 0.4149 0
M  V30 2335 O 217.729 -5.59071 1.069 0
M  V30 2336 N 218.931 -5.74651 -0.821943 0
M  V30 2337 H 221.696 -2.50699 1.64225 0
M  V30 2338 H 219.257 -1.26908 1.00529 0
M  V30 2339 H 221.249 -4.02911 -0.380139 0
M  V30 2340 H 219.819 -3.03411 -0.752376 0
M  V30 2341 H 219.039 -3.56833 1.67524 0
M  V30 2342 H 220.327 -4.78486 1.72998 0
M  V30 2343 H 219.725 -5.48797 -1.37252 0
M  V30 2344 H 218.282 -6.40549 -1.20582 0
M  V30 2345 N 221.715 -0.905404 -1.28997 0
M  V30 2346 C 222.945 -0.549049 -1.99171 0
M  V30 2347 C 223.353 0.87203 -1.67906 0
M  V30 2348 O 222.696 1.58796 -0.923561 0
M  V30 2349 C 222.758 -0.668306 -3.53234 0
M  V30 2350 C 222.422 -2.0574 -4.08069 0
M  V30 2351 C 223.419 -3.0292 -4.22534 0
M  V30 2352 C 221.104 -2.36833 -4.42962 0
M  V30 2353 C 223.098 -4.29314 -4.71135 0
M  V30 2354 C 220.785 -3.63467 -4.91258 0
M  V30 2355 C 221.783 -4.59522 -5.053 0
M  V30 2356 O 221.471 -5.83907 -5.52546 0
M  V30 2357 H 221.203 -0.208784 -0.64295 0
M  V30 2358 H 223.757 -1.21836 -1.65363 0
M  V30 2359 H 221.987 0.0580547 -3.86656 0
M  V30 2360 H 223.676 -0.320273 -4.04634 0
M  V30 2361 H 224.442 -2.80216 -3.95859 0
M  V30 2362 H 220.321 -1.62824 -4.31288 0
M  V30 2363 H 223.865 -5.04293 -4.8201 0
M  V30 2364 H 219.762 -3.86 -5.17372 0
M  V30 2365 H 220.53 -5.86578 -5.70849 0
M  V30 2366 N 223.193 1.4272 -0.668489 0
M  V30 2367 C 224.423 2.05668 -0.196063 0
M  V30 2368 C 224.831 1.5028 1.14946 0
M  V30 2369 O 224.174 0.6348 1.72383 0
M  V30 2370 C 224.236 3.59469 -0.0468879 0
M  V30 2371 C 223.9 4.37518 -1.32012 0
M  V30 2372 C 224.897 4.68584 -2.25222 0
M  V30 2373 C 222.582 4.77266 -1.56596 0
M  V30 2374 C 224.576 5.38326 -3.41297 0
M  V30 2375 C 222.263 5.4675 -2.72962 0
M  V30 2376 C 223.261 5.77204 -3.65137 0
M  V30 2377 O 222.949 6.45264 -4.79468 0
M  V30 2378 H 222.681 0.669382 -0.0943599 0
M  V30 2379 H 225.235 1.83954 -0.913788 0
M  V30 2380 H 223.465 3.79817 0.726357 0
M  V30 2381 H 225.154 4.04071 0.384852 0
M  V30 2382 H 225.92 4.38382 -2.07477 0
M  V30 2383 H 221.799 4.52959 -0.857249 0
M  V30 2384 H 225.343 5.62014 -4.13263 0
M  V30 2385 H 221.24 5.76369 -2.90635 0
M  V30 2386 H 222.008 6.63753 -4.78931 0
M  V30 2387 N 224.671 0.411399 1.52136 0
M  V30 2388 C 225.634 -0.401089 2.25663 0
M  V30 2389 C 226.634 -0.971732 1.28117 0
M  V30 2390 O 227.824 -0.850254 1.52041 0
M  V30 2391 C 224.956 -1.56483 3.02863 0
M  V30 2392 H 226.149 0.24295 2.98914 0
M  V30 2393 H 223.702 0.163968 1.55438 0
M  V30 2394 H 224.437 -2.24567 2.33967 0
M  V30 2395 H 224.222 -1.16211 3.74483 0
M  V30 2396 H 225.712 -2.13951 3.58629 0
M  V30 2397 N 226.149 -1.5696 0.141893 0
M  V30 2398 C 227.395 -1.9625 -0.511248 0
M  V30 2399 C 227.728 -1.02654 -1.64851 0
M  V30 2400 O 227.003 -0.0679676 -1.94381 0
M  V30 2401 C 227.286 -3.45285 -1.02227 0
M  V30 2402 C 227.139 -4.49658 0.113138 0
M  V30 2403 C 228.458 -3.96698 -1.90574 0
M  V30 2404 H 225.577 -0.713567 -0.184367 0
M  V30 2405 H 228.219 -1.88698 0.222087 0
M  V30 2406 H 226.369 -3.51852 -1.64719 0
M  V30 2407 H 228.041 -4.55174 0.749302 0
M  V30 2408 H 226.284 -4.26857 0.773026 0
M  V30 2409 H 226.955 -5.51258 -0.286053 0
M  V30 2410 H 229.431 -3.92578 -1.37918 0
M  V30 2411 H 228.307 -5.01453 -2.2324 0
M  V30 2412 H 228.568 -3.3875 -2.84079 0
M  V30 2413 N 227.627 0.131896 -1.57047 0
M  V30 2414 C 228.852 0.860418 -1.8871 0
M  V30 2415 C 229.277 1.73251 -0.73251 0
M  V30 2416 O 228.635 1.785 0.317429 0
M  V30 2417 C 228.683 1.68047 -3.19049 0
M  V30 2418 O 227.787 2.7862 -3.04047 0
M  V30 2419 H 227.128 0.238743 -0.619595 0
M  V30 2420 H 229.658 0.118169 -2.04258 0
M  V30 2421 H 229.668 2.07238 -3.51449 0
M  V30 2422 H 228.343 1.04018 -4.02682 0
M  V30 2423 H 226.92 2.42726 -2.83088 0
M  V30 2424 N 229.106 1.52395 0.401703 0
M  V30 2425 C 230.383 1.57387 1.16141 0
M  V30 2426 C 230.763 0.359359 2.08019 0
M  V30 2427 O 230.111 -0.65326 2.18963 0
M  V30 2428 C 230.321 2.90631 1.93221 0
M  V30 2429 C 231.669 3.43904 2.49028 0
M  V30 2430 O 232.693 2.92421 2.03393 0
M  V30 2431 O 231.552 4.33823 3.32356 0
M  V30 2432 H 228.646 0.634262 0.530698 0
M  V30 2433 H 231.192 1.64725 0.407883 0
M  V30 2434 H 229.964 3.70473 1.25958 0
M  V30 2435 H 229.587 2.8662 2.75563 0
M  V30 2436 N 230.584 -0.659388 1.43143 0
M  V30 2437 C 231.809 -1.45221 1.48073 0
M  V30 2438 C 232.234 -1.87845 0.097995 0
M  V30 2439 O 231.592 -1.56985 -0.90694 0
M  V30 2440 C 231.64 -2.66748 2.42647 0
M  V30 2441 O 230.744 -3.65583 1.90848 0
M  V30 2442 H 230.085 -0.435669 0.501088 0
M  V30 2443 H 232.615 -0.807432 1.87994 0
M  V30 2444 H 232.625 -3.14637 2.59745 0
M  V30 2445 H 231.3 -2.35067 3.43098 0
M  V30 2446 H 229.877 -3.24693 1.83381 0
M  V30 2447 N 232.062 -1.29571 -0.897171 0
M  V30 2448 C 232.972 -1.16808 -2.03453 0
M  V30 2449 C 233.988 -0.0907471 -1.73763 0
M  V30 2450 O 235.164 -0.303312 -1.99103 0
M  V30 2451 C 232.229 -0.848264 -3.36163 0
M  V30 2452 C 231.29 -2.0097 -3.79354 0
M  V30 2453 C 230.523 -1.70505 -5.05731 0
M  V30 2454 O 230.746 -0.62718 -5.66941 0
M  V30 2455 O 229.68 -2.5538 -5.45036 0
M  V30 2456 H 233.506 -2.12325 -2.17144 0
M  V30 2457 H 231.091 -1.09047 -1.02123 0
M  V30 2458 H 232.973 -0.684581 -4.15802 0
M  V30 2459 H 231.648 0.0771071 -3.23608 0
M  V30 2460 H 230.555 -2.22863 -3.00471 0
M  V30 2461 H 231.888 -2.91636 -3.96496 0
M  V30 2462 N 233.54 1.10788 -1.12088 0
M  V30 2463 C 234.78 1.84297 -0.883974 0
M  V30 2464 C 235.144 1.83036 0.579797 0
M  V30 2465 O 236.345 2.52061 0.933734 0
M  V30 2466 C 234.616 3.27173 -1.43849 0
M  V30 2467 S 236.175 4.17853 -1.33957 0
M  V30 2468 H 232.993 0.635433 -0.318977 0
M  V30 2469 H 235.595 1.33341 -1.4297 0
M  V30 2470 H 234.299 3.25658 -2.49749 0
M  V30 2471 H 233.83 3.83198 -0.890096 0
M  V30 2472 H 235.845 4.95239 -0.308603 0
M  V30 2473 N 235.018 0.912232 1.28515 0
M  V30 2474 C 235.948 0.416403 2.29757 0
M  V30 2475 C 236.929 -0.515194 1.6211 0
M  V30 2476 O 238.114 -0.423253 1.89532 0
M  V30 2477 C 235.244 -0.34572 3.45575 0
M  V30 2478 C 234.198 0.496599 4.25109 0
M  V30 2479 C 233.524 -0.393771 5.33248 0
M  V30 2480 C 234.824 1.75307 4.92001 0
M  V30 2481 H 236.518 1.26249 2.7148 0
M  V30 2482 H 234.064 0.608515 1.30511 0
M  V30 2483 H 236.017 -0.703422 4.15488 0
M  V30 2484 H 234.741 -1.2257 3.02728 0
M  V30 2485 H 233.4 0.8368 3.56922 0
M  V30 2486 H 233.048 -1.27225 4.86644 0
M  V30 2487 H 232.748 0.166209 5.87365 0
M  V30 2488 H 234.272 -0.747389 6.06009 0
M  V30 2489 H 235.686 1.46437 5.54283 0
M  V30 2490 H 234.083 2.25534 5.56106 0
M  V30 2491 H 235.153 2.48176 4.16577 0
M  V30 2492 N 236.496 -1.42363 0.676048 0
M  V30 2493 C 237.721 -2.06377 0.205705 0
M  V30 2494 C 238.146 -1.50463 -1.12883 0
M  V30 2495 O 237.504 -0.623619 -1.70237 0
M  V30 2496 C 237.552 -3.60277 0.152655 0
M  V30 2497 O 236.656 -4.02935 -0.87845 0
M  V30 2498 H 235.997 -0.655588 0.105359 0
M  V30 2499 H 238.527 -1.82475 0.925412 0
M  V30 2500 H 238.537 -4.07993 -0.0230675 0
M  V30 2501 H 237.212 -4.00346 1.12675 0
M  V30 2502 H 235.789 -3.66764 -0.673668 0
M  V30 2503 N 237.974 -0.419461 -1.51915 0
M  V30 2504 C 239.39 -0.0708431 -1.59443 0
M  V30 2505 C 239.59 1.41796 -1.43164 0
M  V30 2506 O 238.646 2.18596 -1.26381 0
M  V30 2507 C 239.959 -0.574991 -2.95151 0
M  V30 2508 C 241.507 -0.533867 -3.08413 0
M  V30 2509 C 241.982 -1.01469 -4.46618 0
M  V30 2510 N 243.473 -0.971939 -4.52888 0
M  V30 2511 C 244.208 -1.31505 -5.58116 0
M  V30 2512 N 243.704 -1.73014 -6.70849 0
M  V30 2513 N 245.497 -1.23436 -5.48379 0
M  V30 2514 H 237.648 -1.38836 -1.60743 0
M  V30 2515 H 239.911 -0.570998 -0.756747 0
M  V30 2516 H 239.617 -1.61597 -3.12377 0
M  V30 2517 H 239.491 0.00979777 -3.77199 0
M  V30 2518 H 241.878 0.498086 -2.90866 0
M  V30 2519 H 241.959 -1.15484 -2.28248 0
M  V30 2520 H 241.603 -2.04502 -4.6491 0
M  V30 2521 H 241.533 -0.370433 -5.25295 0
M  V30 2522 H 244.024 -0.666893 -3.71969 0
M  V30 2523 H 244.337 -1.97479 -7.47143 0
M  V30 2524 H 242.682 -1.76926 -6.72103 0
M  V30 2525 H 245.873 -0.908869 -4.59192 0
M  V30 2526 H 246.046 -1.50506 -6.30279 0
M  V30 2527 N 239.452 1.56882 -0.150215 0
M  V30 2528 C 240.682 2.00302 0.506213 0
M  V30 2529 C 241.09 1.02934 1.58749 0
M  V30 2530 O 240.433 0.0188384 1.8369 0
M  V30 2531 C 240.495 3.40156 1.16337 0
M  V30 2532 C 240.159 4.56439 0.226311 0
M  V30 2533 C 241.156 5.17012 -0.547265 0
M  V30 2534 C 238.841 5.02136 0.128279 0
M  V30 2535 C 240.835 6.21693 -1.40629 0
M  V30 2536 C 238.522 6.06672 -0.734345 0
M  V30 2537 C 239.52 6.6632 -1.50023 0
M  V30 2538 O 239.208 7.68831 -2.34848 0
M  V30 2539 H 238.94 0.662182 0.135984 0
M  V30 2540 H 241.494 2.03961 -0.242746 0
M  V30 2541 H 239.724 3.33346 1.96004 0
M  V30 2542 H 241.413 3.67663 1.71985 0
M  V30 2543 H 242.179 4.82603 -0.48158 0
M  V30 2544 H 238.058 4.55435 0.714157 0
M  V30 2545 H 241.602 6.68179 -2.00455 0
M  V30 2546 H 237.499 6.40507 -0.801309 0
M  V30 2547 H 238.267 7.86065 -2.28131 0
M  V30 2548 N 240.93 -0.123565 1.57115 0
M  V30 2549 C 241.878 -1.17082 2.00984 0
M  V30 2550 C 242.872 -1.43136 0.906009 0
M  V30 2551 O 244.078 -1.43152 1.09121 0
M  V30 2552 H 240.453 -0.394653 0.64012 0
M  V30 2553 H 242.424 -0.774292 2.88179 0
M  V30 2554 C 241.173 -2.49057 2.42623 0
M  V30 2555 H 240.496 -2.29846 3.27125 0
M  V30 2556 H 241.936 -3.20906 2.7712 0
M  V30 2557 C 240.395 -3.11305 1.28805 0
M  V30 2558 O 240.925 -3.97171 0.60153 0
M  V30 2559 N 239.131 -2.71111 1.04628 0
M  V30 2560 H 238.678 -2.01382 1.60634 0
M  V30 2561 H 238.636 -3.1309 0.286685 0
M  V30 2562 N 242.408 -1.52605 -0.393616 0
M  V30 2563 C 243.657 -1.66649 -1.13627 0
M  V30 2564 C 243.97 -0.410364 -1.91247 0
M  V30 2565 O 245.176 -0.430854 -2.68059 0
M  V30 2566 C 243.632 -2.9449 -2.06891 0
M  V30 2567 C 243.24 -4.27266 -1.34714 0
M  V30 2568 C 244.984 -3.17899 -2.81319 0
M  V30 2569 C 242.891 -5.46217 -2.26717 0
M  V30 2570 H 241.821 -0.62084 -0.427871 0
M  V30 2571 H 244.472 -1.791 -0.399428 0
M  V30 2572 H 242.854 -2.75774 -2.84191 0
M  V30 2573 H 244.028 -4.56518 -0.626714 0
M  V30 2574 H 242.343 -4.10081 -0.722643 0
M  V30 2575 H 244.94 -4.03949 -3.50328 0
M  V30 2576 H 245.283 -2.32777 -3.45139 0
M  V30 2577 H 245.816 -3.37159 -2.11113 0
M  V30 2578 H 242.555 -6.33733 -1.67521 0
M  V30 2579 H 242.075 -5.21283 -2.96689 0
M  V30 2580 H 243.754 -5.7991 -2.86903 0
M  V30 2581 N 243.887 0.651787 -1.4349 0
M  V30 2582 C 245.115 1.43937 -1.48626 0
M  V30 2583 C 245.53 1.8851 -0.104587 0
M  V30 2584 O 244.887 1.5958 0.885464 0
M  V30 2585 C 244.938 2.6734 -2.43334 0
M  V30 2586 O 244.659 2.24631 -3.76128 0
M  V30 2587 C 246.16 3.60683 -2.57726 0
M  V30 2588 H 243.38 0.44213 -0.504739 0
M  V30 2589 H 245.924 0.798944 -1.88248 0
M  V30 2590 H 244.079 3.2752 -2.06904 0
M  V30 2591 H 244.493 3.04485 -4.2707 0
M  V30 2592 H 245.967 4.43933 -3.28067 0
M  V30 2593 H 246.444 4.08126 -1.62265 0
M  V30 2594 H 247.05 3.06384 -2.94973 0
M  V30 2595 N 245.365 1.30045 0.890287 0
M  V30 2596 C 246.776 1.16738 1.45702 0
M  V30 2597 C 247.127 -0.233939 1.948 0
M  V30 2598 O 246.252 -1.13021 1.84541 0
M  V30 2599 C 246.847 2.11313 2.64825 0
M  V30 2600 C 245.406 2.02001 3.17604 0
M  V30 2601 C 244.553 2.01699 1.90296 0
M  V30 2602 H 247.504 1.42392 0.700726 0
M  V30 2603 H 247.525 1.69086 3.40867 0
M  V30 2604 H 247.037 3.13294 2.2906 0
M  V30 2605 H 245.138 1.03142 3.5804 0
M  V30 2606 H 245.251 2.90128 3.81264 0
M  V30 2607 H 243.615 1.46427 2.08402 0
M  V30 2608 H 244.398 3.05402 1.56795 0
M  V30 2609 N 246.843 -1.10192 1.12674 0
M  V30 2610 C 248.259 -1.34235 0.863317 0
M  V30 2611 C 248.459 -1.95062 -0.505277 0
M  V30 2612 O 247.515 -2.19192 -1.25345 0
M  V30 2613 C 248.828 -2.2616 1.98172 0
M  V30 2614 C 250.376 -2.3969 2.0129 0
M  V30 2615 C 250.851 -3.34946 3.1237 0
M  V30 2616 N 252.342 -3.42515 3.11829 0
M  V30 2617 C 253.077 -4.16199 3.94419 0
M  V30 2618 N 252.573 -4.92747 4.87004 0
M  V30 2619 N 254.366 -4.11843 3.82547 0
M  V30 2620 H 246.517 -0.690798 2.00853 0
M  V30 2621 H 248.78 -0.366774 0.874174 0
M  V30 2622 H 248.486 -1.8868 2.96804 0
M  V30 2623 H 248.36 -3.26488 1.88906 0
M  V30 2624 H 250.747 -2.76438 1.03276 0
M  V30 2625 H 250.828 -1.39169 2.14629 0
M  V30 2626 H 250.472 -2.98923 4.10619 0
M  V30 2627 H 250.402 -4.35353 2.96269 0
M  V30 2628 H 252.893 -2.87926 2.44759 0
M  V30 2629 H 253.206 -5.46376 5.46528 0
M  V30 2630 H 251.551 -4.91862 4.91016 0
M  V30 2631 H 254.742 -3.51136 3.0955 0
M  V30 2632 H 254.915 -4.69007 4.47142 0
M  V30 2633 N 248.321 -0.919034 -1.28029 0
M  V30 2634 C 249.737 -0.617972 -1.4715 0
M  V30 2635 C 249.937 0.835242 -1.83374 0
M  V30 2636 O 248.993 1.61388 -1.94191 0
M  V30 2637 C 250.306 -1.56041 -2.57044 0
M  V30 2638 C 251.854 -1.56769 -2.7091 0
M  V30 2639 C 252.329 -2.49688 -3.83953 0
M  V30 2640 N 253.82 -2.47845 -3.91314 0
M  V30 2641 C 254.555 -3.16437 -4.78179 0
M  V30 2642 N 254.051 -3.94376 -5.69596 0
M  V30 2643 N 255.844 -3.05498 -4.71834 0
M  V30 2644 H 247.995 -1.85866 -1.02798 0
M  V30 2645 H 250.258 -0.797506 -0.512531 0
M  V30 2646 H 249.964 -2.59671 -2.372 0
M  V30 2647 H 249.838 -1.29551 -3.54255 0
M  V30 2648 H 252.225 -0.538745 -2.90141 0
M  V30 2649 H 252.306 -1.87305 -1.74214 0
M  V30 2650 H 251.95 -3.52688 -3.65477 0
M  V30 2651 H 251.88 -2.16453 -4.80058 0
M  V30 2652 H 254.371 -1.91234 -3.25941 0
M  V30 2653 H 254.684 -4.43721 -6.32718 0
M  V30 2654 H 253.029 -3.98481 -5.69419 0
M  V30 2655 H 256.22 -2.44108 -3.99411 0
M  V30 2656 H 256.393 -3.59225 -5.39316 0
M  V30 2657 N 249.799 1.42003 -0.683588 0
M  V30 2658 C 251.047 2.01015 -0.209101 0
M  V30 2659 C 251.368 1.54365 1.19149 0
M  V30 2660 O 250.638 0.769083 1.80172 0
M  V30 2661 H 249.218 0.743294 -0.074315 0
M  V30 2662 H 251.88 1.73798 -0.882066 0
M  V30 2663 H 250.976 3.11343 -0.2172 0
M  V30 2664 N 251.277 0.427512 1.51691 0
M  V30 2665 C 252.688 -0.0378867 1.86662 0
M  V30 2666 C 253.039 -1.42819 1.34525 0
M  V30 2667 O 252.164 -2.05037 0.692014 0
M  V30 2668 C 252.759 -0.0755266 3.38716 0
M  V30 2669 C 251.318 -0.485309 3.73258 0
M  V30 2670 C 250.465 0.328399 2.75349 0
M  V30 2671 H 253.416 0.64379 1.45055 0
M  V30 2672 H 253.437 -0.887056 3.70016 0
M  V30 2673 H 252.949 0.936487 3.76632 0
M  V30 2674 H 251.05 -1.50329 3.40928 0
M  V30 2675 H 251.163 -0.21693 4.78609 0
M  V30 2676 H 249.527 -0.211905 2.53817 0
M  V30 2677 H 250.31 1.3391 3.16106 0
M  V30 2678 N 252.755 -1.56801 0.158532 0
M  V30 2679 C 254.166 -1.83189 -0.360366 0
M  V30 2680 C 254.517 -1.07778 -1.63946 0
M  V30 2681 O 253.642 -0.326718 -2.13919 0
M  V30 2682 C 254.237 -3.32297 -0.660595 0
M  V30 2683 C 252.796 -3.59227 -1.12398 0
M  V30 2684 C 251.943 -2.76877 -0.153097 0
M  V30 2685 H 254.894 -1.54008 0.383031 0
M  V30 2686 H 254.915 -3.4908 -1.51405 0
M  V30 2687 H 254.427 -3.87156 0.270527 0
M  V30 2688 H 252.528 -3.09766 -2.07064 0
M  V30 2689 H 252.641 -4.67632 -1.04197 0
M  V30 2690 H 251.005 -2.46319 -0.647983 0
M  V30 2691 H 251.788 -3.34511 0.77182 0
M  V30 2692 N 254.233 0.115231 -1.57178 0
M  V30 2693 C 255.461 0.836437 -1.89239 0
M  V30 2694 C 255.876 1.73256 -0.750175 0
M  V30 2695 O 255.233 1.80357 0.278832 0
M  V30 2696 C 255.284 1.66671 -3.20785 0
M  V30 2697 O 255.005 0.806652 -4.3061 0
M  V30 2698 C 256.506 2.49274 -3.66575 0
M  V30 2699 H 253.726 0.240253 -0.626514 0
M  V30 2700 H 256.27 0.0984932 -2.04263 0
M  V30 2701 H 254.425 2.35737 -3.0742 0
M  V30 2702 H 254.839 1.37969 -5.06028 0
M  V30 2703 H 256.313 3.03055 -4.6137 0
M  V30 2704 H 256.79 3.26807 -2.93417 0
M  V30 2705 H 257.396 1.85443 -3.82741 0
M  V30 2706 N 255.711 1.52812 0.385517 0
M  V30 2707 C 256.941 1.71658 1.14966 0
M  V30 2708 C 257.349 0.436253 1.84102 0
M  V30 2709 O 256.692 -0.599313 1.73649 0
M  V30 2710 C 256.754 2.81309 2.23843 0
M  V30 2711 C 256.418 4.22313 1.74644 0
M  V30 2712 C 257.415 5.05352 1.22129 0
M  V30 2713 C 255.1 4.68648 1.80761 0
M  V30 2714 C 257.094 6.32807 0.763838 0
M  V30 2715 C 254.781 5.96086 1.34627 0
M  V30 2716 C 255.779 6.77996 0.825264 0
M  V30 2717 O 255.467 8.03045 0.370669 0
M  V30 2718 H 255.199 0.578022 0.350523 0
M  V30 2719 H 257.753 2.00263 0.456509 0
M  V30 2720 H 255.983 2.48133 2.96592 0
M  V30 2721 H 257.672 2.88524 2.85497 0
M  V30 2722 H 258.438 4.70736 1.16758 0
M  V30 2723 H 254.317 4.04979 2.20256 0
M  V30 2724 H 257.861 6.96689 0.356494 0
M  V30 2725 H 253.758 6.30205 1.39686 0
M  V30 2726 H 254.526 8.17021 0.491829 0
M  V30 2727 N 257.189 -0.644168 1.43834 0
M  V30 2728 C 258.605 -0.960875 1.27434 0
M  V30 2729 C 258.805 -2.00499 0.200618 0
M  V30 2730 O 257.861 -2.49018 -0.417906 0
M  V30 2731 C 259.174 -1.43653 2.64167 0
M  V30 2732 C 260.722 -1.55271 2.71772 0
M  V30 2733 C 261.197 -2.06224 4.08944 0
M  V30 2734 N 262.688 -2.13513 4.11055 0
M  V30 2735 C 263.423 -2.54081 5.14033 0
M  V30 2736 N 262.919 -2.9388 6.27381 0
M  V30 2737 N 264.712 -2.54101 5.01387 0
M  V30 2738 H 256.863 0.0465779 2.12349 0
M  V30 2739 H 259.126 -0.0417638 0.94708 0
M  V30 2740 H 258.832 -0.743706 3.43747 0
M  V30 2741 H 258.706 -2.40993 2.90176 0
M  V30 2742 H 261.093 -2.23653 1.92519 0
M  V30 2743 H 261.174 -0.563395 2.49519 0
M  V30 2744 H 260.818 -1.38441 4.88668 0
M  V30 2745 H 260.748 -3.06003 4.28567 0
M  V30 2746 H 263.239 -1.85493 3.29242 0
M  V30 2747 H 263.552 -3.2361 7.01781 0
M  V30 2748 H 261.897 -2.91663 6.30839 0
M  V30 2749 H 265.088 -2.22391 4.11898 0
M  V30 2750 H 265.261 -2.85394 5.81768 0
M  V30 2751 N 258.668 -1.30515 -0.883378 0
M  V30 2752 C 259.631 -1.1701 -1.97082 0
M  V30 2753 C 260.631 -0.10089 -1.60483 0
M  V30 2754 O 261.821 -0.349127 -1.70666 0
M  V30 2755 C 258.953 -0.793045 -3.31547 0
M  V30 2756 H 260.146 -2.13622 -2.10489 0
M  V30 2757 H 257.699 -1.13935 -1.06998 0
M  V30 2758 H 258.434 0.172499 -3.23841 0
M  V30 2759 H 258.219 -1.56576 -3.5948 0
M  V30 2760 H 259.709 -0.722073 -4.1131 0
M  V30 2761 N 260.146 1.09593 -1.13257 0
M  V30 2762 C 261.423 1.78293 -0.804432 0
M  V30 2763 C 261.803 1.99004 0.70431 0
M  V30 2764 O 261.151 1.59007 1.641 0
M  V30 2765 C 261.361 3.10707 -1.5894 0
M  V30 2766 C 262.709 3.85443 -1.78099 0
M  V30 2767 O 263.733 3.20454 -1.55525 0
M  V30 2768 O 262.592 5.02108 -2.15753 0
M  V30 2769 H 259.686 0.773156 -0.293528 0
M  V30 2770 H 262.232 1.16164 -1.23709 0
M  V30 2771 H 261.004 2.91106 -2.61482 0
M  V30 2772 H 260.627 3.80558 -1.15157 0
M  V30 2773 N 261.624 0.925811 1.2754 0
M  V30 2774 C 262.901 0.483726 1.89524 0
M  V30 2775 C 263.281 -1.03809 1.83812 0
M  V30 2776 O 262.629 -1.89143 1.28207 0
M  V30 2777 C 262.839 1.02769 3.33526 0
M  V30 2778 C 264.187 1.08703 4.10449 0
M  V30 2779 O 265.211 0.977175 3.42534 0
M  V30 2780 O 264.07 1.25599 5.31871 0
M  V30 2781 H 261.164 0.15529 0.812289 0
M  V30 2782 H 263.71 1.01738 1.35822 0
M  V30 2783 H 262.482 2.07155 3.31967 0
M  V30 2784 H 262.105 0.475567 3.94746 0
M  V30 2785 N 263.102 -1.41638 0.69111 0
M  V30 2786 C 264.012 -2.34588 0.0233487 0
M  V30 2787 C 265.028 -1.55987 -0.770984 0
M  V30 2788 O 266.204 -1.88486 -0.709569 0
M  V30 2789 C 263.269 -3.34684 -0.904851 0
M  V30 2790 C 262.33 -4.29176 -0.103225 0
M  V30 2791 C 261.563 -5.2449 -0.987216 0
M  V30 2792 O 261.786 -5.2514 -2.22674 0
M  V30 2793 O 260.72 -6.00295 -0.439281 0
M  V30 2794 H 264.546 -2.93261 0.789416 0
M  V30 2795 H 262.131 -1.42417 0.45142 0
M  V30 2796 H 264.013 -3.96133 -1.43724 0
M  V30 2797 H 262.688 -2.78461 -1.65049 0
M  V30 2798 H 261.595 -3.71089 0.473655 0
M  V30 2799 H 262.928 -4.88484 0.60365 0
M  V30 2800 N 264.58 -0.43555 -1.51462 0
M  V30 2801 C 265.826 0.131709 -2.02372 0
M  V30 2802 C 266.159 1.42516 -1.3192 0
M  V30 2803 O 265.434 1.89606 -0.433573 0
M  V30 2804 C 265.717 0.352301 -3.58373 0
M  V30 2805 C 265.57 -0.959676 -4.39443 0
M  V30 2806 C 266.889 1.12286 -4.25535 0
M  V30 2807 H 264.008 0.0463936 -0.735538 0
M  V30 2808 H 266.65 -0.574197 -1.81116 0
M  V30 2809 H 264.8 0.9536 -3.76615 0
M  V30 2810 H 266.472 -1.59482 -4.32855 0
M  V30 2811 H 264.715 -1.56468 -4.04599 0
M  V30 2812 H 265.386 -0.759394 -5.46752 0
M  V30 2813 H 267.862 0.613545 -4.11552 0
M  V30 2814 H 266.738 1.24598 -5.34571 0
M  V30 2815 H 266.999 2.15048 -3.86273 0
M  V30 2816 N 266.058 1.56714 -0.166846 0
M  V30 2817 C 267.307 1.95922 0.479318 0
M  V30 2818 C 267.62 1.05529 1.6469 0
M  V30 2819 O 268.826 1.34399 2.35901 0
M  V30 2820 C 267.282 3.48359 0.90412 0
M  V30 2821 C 266.89 4.47369 -0.237621 0
M  V30 2822 C 268.634 3.96394 1.51896 0
M  V30 2823 C 266.541 5.91039 0.206561 0
M  V30 2824 H 265.471 0.731495 0.18284 0
M  V30 2825 H 268.122 1.81728 -0.254363 0
M  V30 2826 H 266.504 3.57955 1.69365 0
M  V30 2827 H 267.678 4.49485 -1.01489 0
M  V30 2828 H 265.993 4.09366 -0.762128 0
M  V30 2829 H 268.59 5.01186 1.86325 0
M  V30 2830 H 268.933 3.39075 2.41524 0
M  V30 2831 H 269.466 3.89796 0.79395 0
M  V30 2832 H 266.205 6.52221 -0.654834 0
M  V30 2833 H 265.725 5.9224 0.949282 0
M  V30 2834 H 267.404 6.43707 0.651939 0
M  V30 2835 N 267.536 -0.106894 1.57237 0
M  V30 2836 C 268.776 -0.818277 1.87306 0
M  V30 2837 C 269.14 -1.76474 0.756371 0
M  V30 2838 O 270.341 -2.5186 0.939155 0
M  V30 2839 C 268.612 -1.53806 3.22612 0
M  V30 2840 S 270.171 -2.28935 3.74345 0
M  V30 2841 H 266.989 -0.272862 0.656557 0
M  V30 2842 H 269.591 -0.075988 1.95352 0
M  V30 2843 H 268.295 -0.834951 4.01817 0
M  V30 2844 H 267.826 -2.32049 3.17674 0
M  V30 2845 H 269.841 -3.54871 3.46815 0
M  V30 2846 N 269.014 -1.53014 -0.377408 0
M  V30 2847 C 270.242 -1.72515 -1.14219 0
M  V30 2848 C 270.657 -0.448735 -1.8339 0
M  V30 2849 O 270.014 0.577592 -1.73119 0
M  V30 2850 C 270.065 -2.8826 -2.18148 0
M  V30 2851 O 269.786 -4.10962 -1.51795 0
M  V30 2852 C 271.287 -3.19536 -3.07264 0
M  V30 2853 H 268.507 -0.577301 -0.342001 0
M  V30 2854 H 271.051 -1.99712 -0.439935 0
M  V30 2855 H 269.206 -2.63492 -2.83991 0
M  V30 2856 H 269.62 -4.75693 -2.20945 0
M  V30 2857 H 271.094 -4.03959 -3.76193 0
M  V30 2858 H 271.571 -2.34403 -3.71419 0
M  V30 2859 H 272.177 -3.46186 -2.47053 0
M  V30 2860 N 270.492 0.636531 -1.44174 0
M  V30 2861 C 271.717 1.42847 -1.50364 0
M  V30 2862 C 272.142 1.87665 -0.127867 0
M  V30 2863 O 271.5 1.58408 0.88185 0
M  V30 2864 C 271.548 2.62854 -2.4686 0
M  V30 2865 O 270.652 3.62501 -1.9664 0
M  V30 2866 H 269.993 0.427642 -0.507955 0
M  V30 2867 H 272.523 0.777422 -1.89255 0
M  V30 2868 H 272.533 3.10465 -2.64718 0
M  V30 2869 H 271.208 2.29578 -3.46795 0
M  V30 2870 H 269.785 3.21735 -1.88523 0
M  V30 2871 N 271.97 1.30982 0.876444 0
M  V30 2872 C 273.2 1.23063 1.65949 0
M  V30 2873 C 273.608 -0.207537 1.88058 0
M  V30 2874 O 272.951 -1.14781 1.43426 0
M  V30 2875 C 273.013 1.89768 3.05333 0
M  V30 2876 C 272.677 3.39106 3.0636 0
M  V30 2877 C 273.674 4.3496 2.84791 0
M  V30 2878 C 271.359 3.80693 3.27686 0
M  V30 2879 C 273.353 5.70375 2.84519 0
M  V30 2880 C 271.04 5.16223 3.27043 0
M  V30 2881 C 272.038 6.10875 3.05485 0
M  V30 2882 O 271.726 7.43928 3.04674 0
M  V30 2883 H 271.458 0.426685 0.524324 0
M  V30 2884 H 274.012 1.7329 1.10271 0
M  V30 2885 H 272.242 1.34082 3.6271 0
M  V30 2886 H 273.931 1.75853 3.65829 0
M  V30 2887 H 274.697 4.0416 2.68103 0
M  V30 2888 H 270.576 3.07457 3.43499 0
M  V30 2889 H 274.12 6.44228 2.67611 0
M  V30 2890 H 270.017 5.4666 3.43269 0
M  V30 2891 H 270.785 7.53022 3.2078 0
M  V30 2892 N 273.449 -1.08991 1.13837 0
M  V30 2893 C 274.679 -1.84743 0.924859 0
M  V30 2894 C 275.087 -1.81629 -0.529874 0
M  V30 2895 O 274.43 -1.21397 -1.37872 0
M  V30 2896 C 274.492 -3.33568 1.34061 0
M  V30 2897 C 274.156 -3.60425 2.80968 0
M  V30 2898 C 275.153 -3.55771 3.79108 0
M  V30 2899 C 272.838 -3.88627 3.18236 0
M  V30 2900 C 274.832 -3.78939 5.12527 0
M  V30 2901 C 272.519 -4.11449 4.51833 0
M  V30 2902 C 273.517 -4.06598 5.48787 0
M  V30 2903 O 273.205 -4.28826 6.79973 0
M  V30 2904 H 272.937 -0.590258 0.329502 0
M  V30 2905 H 275.491 -1.38598 1.51591 0
M  V30 2906 H 273.721 -3.80442 0.692853 0
M  V30 2907 H 275.41 -3.90743 1.09886 0
M  V30 2908 H 276.176 -3.34005 3.51661 0
M  V30 2909 H 272.055 -3.91526 2.43369 0
M  V30 2910 H 275.599 -3.75068 5.88192 0
M  V30 2911 H 271.496 -4.32698 4.79002 0
M  V30 2912 H 272.264 -4.46264 6.86142 0
M  V30 2913 N 274.927 -0.932562 -1.27047 0
M  V30 2914 C 276.152 -0.591474 -1.98787 0
M  V30 2915 C 276.577 0.824601 -1.69062 0
M  V30 2916 O 275.935 1.5541 -0.933677 0
M  V30 2917 C 275.983 -0.829808 -3.50922 0
M  V30 2918 O 275.087 0.102266 -4.12273 0
M  V30 2919 H 274.428 -0.227185 -0.623926 0
M  V30 2920 H 276.958 -1.25314 -1.61733 0
M  V30 2921 H 276.968 -0.747292 -4.01098 0
M  V30 2922 H 275.643 -1.86201 -3.7189 0
M  V30 2923 H 274.22 -0.0305761 -3.72887 0
M  V30 2924 N 276.405 1.4127 -0.698611 0
M  V30 2925 C 277.821 1.55241 -0.370462 0
M  V30 2926 C 278.021 1.67351 1.12231 0
M  V30 2927 O 277.077 1.65363 1.90818 0
M  V30 2928 C 278.39 2.78997 -1.12165 0
M  V30 2929 C 279.938 2.92797 -1.1063 0
M  V30 2930 C 280.413 4.19445 -1.8393 0
M  V30 2931 N 281.904 4.26409 -1.80914 0
M  V30 2932 C 282.639 5.23271 -2.34467 0
M  V30 2933 N 282.135 6.26145 -2.96504 0
M  V30 2934 N 283.928 5.15232 -2.24706 0
M  V30 2935 H 276.079 1.31654 -1.66676 0
M  V30 2936 H 278.342 0.635393 -0.703548 0
M  V30 2937 H 278.048 2.76268 -2.17644 0
M  V30 2938 H 277.922 3.70606 -0.702209 0
M  V30 2939 H 280.309 2.95039 -0.0597713 0
M  V30 2940 H 280.39 2.02353 -1.56483 0
M  V30 2941 H 280.034 4.17964 -2.88563 0
M  V30 2942 H 279.964 5.08866 -1.35509 0
M  V30 2943 H 282.455 3.527 -1.35687 0
M  V30 2944 H 282.768 6.96451 -3.34927 0
M  V30 2945 H 281.113 6.26638 -3.00583 0
M  V30 2946 H 284.304 4.33789 -1.7591 0
M  V30 2947 H 284.477 5.90552 -2.66745 0
M  V30 2948 N 277.883 0.443576 1.51229 0
M  V30 2949 C 278.813 -0.355142 2.30783 0
M  V30 2950 C 279.794 -1.0154 1.36468 0
M  V30 2951 O 280.979 -1.01785 1.65389 0
M  V30 2952 C 278.109 -1.45312 3.15439 0
M  V30 2953 C 277.063 -0.916002 4.18083 0
M  V30 2954 C 276.389 -2.1102 4.91299 0
M  V30 2955 C 277.689 0.0538602 5.22272 0
M  V30 2956 H 279.383 0.308767 2.97804 0
M  V30 2957 H 276.929 0.149937 1.43217 0
M  V30 2958 H 278.882 -2.01914 3.69876 0
M  V30 2959 H 277.606 -2.14541 2.46252 0
M  V30 2960 H 276.265 -0.372145 3.64706 0
M  V30 2961 H 275.913 -2.78882 4.18609 0
M  V30 2962 H 275.613 -1.75717 5.60712 0
M  V30 2963 H 277.137 -2.68164 5.48562 0
M  V30 2964 H 278.551 -0.422069 5.71744 0
M  V30 2965 H 276.948 0.319776 5.99247 0
M  V30 2966 H 278.018 0.98858 4.74716 0
M  V30 2967 N 279.361 -1.56624 0.175154 0
M  V30 2968 C 280.607 -1.9729 -0.469506 0
M  V30 2969 C 280.94 -1.06128 -1.62636 0
M  V30 2970 O 280.215 -0.109183 -1.94193 0
M  V30 2971 C 280.498 -3.47375 -0.948804 0
M  V30 2972 C 280.351 -4.49317 0.208491 0
M  V30 2973 C 281.67 -4.00652 -1.82116 0
M  V30 2974 H 278.789 -0.717317 -0.16919 0
M  V30 2975 H 281.431 -1.88184 0.262062 0
M  V30 2976 H 279.581 -3.55267 -1.57219 0
M  V30 2977 H 281.253 -4.53482 0.845682 0
M  V30 2978 H 279.496 -4.25121 0.863395 0
M  V30 2979 H 280.167 -5.51741 -0.169059 0
M  V30 2980 H 282.643 -3.95416 -1.2956 0
M  V30 2981 H 281.519 -5.06075 -2.12554 0
M  V30 2982 H 281.78 -3.44699 -2.7683 0
M  V30 2983 N 280.839 0.0985539 -1.57292 0
M  V30 2984 C 282.25 0.653457 -1.74891 0
M  V30 2985 C 282.601 1.7929 -0.796838 0
M  V30 2986 O 281.726 2.16385 0.0254886 0
M  V30 2987 C 282.321 1.19216 -3.17133 0
M  V30 2988 C 280.88 1.69316 -3.36168 0
M  V30 2989 C 280.027 0.601294 -2.70702 0
M  V30 2990 H 282.978 -0.127497 -1.58187 0
M  V30 2991 H 282.999 2.06154 -3.19814 0
M  V30 2992 H 282.511 0.362635 -3.86402 0
M  V30 2993 H 280.612 2.5468 -2.71972 0
M  V30 2994 H 280.725 1.78853 -4.44464 0
M  V30 2995 H 279.089 1.0399 -2.32504 0
M  V30 2996 H 279.872 -0.217592 -3.4261 0
M  V30 2997 N 282.317 1.53212 0.369288 0
M  V30 2998 C 283.247 1.82365 1.45826 0
M  V30 2999 C 284.228 0.676907 1.56051 0
M  V30 3000 O 285.413 0.926401 1.70679 0
M  V30 3001 C 282.543 2.01023 2.83208 0
M  V30 3002 C 281.497 3.1678 2.8781 0
M  V30 3003 C 280.823 3.20724 4.27832 0
M  V30 3004 C 282.123 4.55447 2.55667 0
M  V30 3005 H 283.817 2.73559 1.21678 0
M  V30 3006 H 281.363 1.3163 0.583911 0
M  V30 3007 H 283.316 2.20001 3.59413 0
M  V30 3008 H 282.04 1.06536 3.08736 0
M  V30 3009 H 280.699 2.97616 2.14056 0
M  V30 3010 H 280.347 2.23882 4.50429 0
M  V30 3011 H 280.047 3.98496 4.31827 0
M  V30 3012 H 281.571 3.41881 5.05915 0
M  V30 3013 H 282.985 4.74611 3.21586 0
M  V30 3014 H 281.382 5.35432 2.70984 0
M  V30 3015 H 282.452 4.60812 1.5093 0
M  V30 3016 N 283.795 -0.628877 1.44509 0
M  V30 3017 C 284.705 -1.7694 1.54044 0
M  V30 3018 C 285.721 -1.68705 0.425987 0
M  V30 3019 O 286.897 -1.89442 0.683656 0
M  V30 3020 C 283.962 -3.13332 1.48405 0
M  V30 3021 C 283.023 -3.33181 2.70719 0
M  V30 3022 C 282.256 -4.63067 2.6534 0
M  V30 3023 O 282.479 -5.44017 1.71469 0
M  V30 3024 O 281.413 -4.85167 3.56226 0
M  V30 3025 H 285.239 -1.71848 2.50403 0
M  V30 3026 H 282.824 -0.790378 1.26781 0
M  V30 3027 H 284.706 -3.94634 1.47791 0
M  V30 3028 H 283.381 -3.1896 0.551898 0
M  V30 3029 H 282.288 -2.51549 2.769 0
M  V30 3030 H 283.621 -3.32416 3.62988 0
M  V30 3031 N 285.273 -1.31445 -0.869486 0
M  V30 3032 C 286.223 -1.15731 -1.96444 0
M  V30 3033 C 287.207 -0.0681855 -1.60755 0
M  V30 3034 O 288.399 -0.293154 -1.74555 0
M  V30 3035 C 285.528 -0.867255 -3.32165 0
M  V30 3036 C 284.614 -1.99738 -3.74119 0
M  V30 3037 N 285.005 -3.24447 -3.88031 0
M  V30 3038 C 283.303 -1.89723 -4.03635 0
M  V30 3039 C 284.004 -3.98374 -4.23879 0
M  V30 3040 N 282.98 -3.26547 -4.3459 0
M  V30 3041 H 286.782 -2.10296 -2.05312 0
M  V30 3042 H 284.296 -1.23009 -1.06031 0
M  V30 3043 H 286.293 -0.735668 -4.10358 0
M  V30 3044 H 284.953 0.0701614 -3.24624 0
M  V30 3045 H 285.964 -3.59557 -3.72746 0
M  V30 3046 H 282.641 -1.03449 -4.04481 0
M  V30 3047 H 284.031 -5.05844 -4.42235 0
M  V30 3048 N 286.751 1.08385 -1.14413 0
M  V30 3049 C 287.999 1.80419 -0.910679 0
M  V30 3050 C 288.32 1.86658 0.564243 0
M  V30 3051 O 287.59 1.35985 1.41014 0
M  V30 3052 H 286.17 0.668204 -0.333934 0
M  V30 3053 H 288.832 1.31037 -1.44275 0
M  V30 3054 H 287.928 2.83238 -1.31082 0
M  V30 3055 N 288.23 0.939286 1.26551 0
M  V30 3056 C 289.14 0.453432 2.30176 0
M  V30 3057 C 290.156 -0.471649 1.67486 0
M  V30 3058 O 291.332 -0.35164 1.98306 0
M  V30 3059 C 288.397 -0.275326 3.45605 0
M  V30 3060 C 287.458 0.686084 4.23782 0
M  V30 3061 C 286.691 -0.00798994 5.33699 0
M  V30 3062 O 286.914 -1.22528 5.57085 0
M  V30 3063 O 285.848 0.669746 5.98162 0
M  V30 3064 H 289.674 1.31416 2.73795 0
M  V30 3065 H 287.259 0.705095 1.31715 0
M  V30 3066 H 289.141 -0.685911 4.1578 0
M  V30 3067 H 287.816 -1.11147 3.0402 0
M  V30 3068 H 286.723 1.14658 3.56096 0
M  V30 3069 H 288.056 1.48979 4.69112 0
M  V30 3070 N 289.708 -1.40897 0.706093 0
M  V30 3071 C 290.957 -2.00284 0.238574 0
M  V30 3072 C 291.27 -1.56604 -1.17194 0
M  V30 3073 O 292.476 -2.08624 -1.73748 0
M  V30 3074 C 290.932 -3.57934 0.375623 0
M  V30 3075 C 290.54 -4.10591 1.79217 0
M  V30 3076 C 292.284 -4.24488 -0.0315857 0
M  V30 3077 C 290.191 -5.60712 1.88032 0
M  V30 3078 H 289.121 -0.749144 0.0854398 0
M  V30 3079 H 291.772 -1.61251 0.875813 0
M  V30 3080 H 290.154 -3.94622 -0.330042 0
M  V30 3081 H 291.328 -3.85301 2.52745 0
M  V30 3082 H 289.643 -3.56601 2.15 0
M  V30 3083 H 292.24 -5.34698 0.0136842 0
M  V30 3084 H 292.583 -4.02261 -1.072 0
M  V30 3085 H 293.116 -3.92873 0.624181 0
M  V30 3086 H 289.855 -5.87781 2.90161 0
M  V30 3087 H 289.375 -5.87896 1.18903 0
M  V30 3088 H 291.054 -6.25658 1.64805 0
M  V30 3089 N 291.186 -0.45159 -1.50991 0
M  V30 3090 C 292.136 0.370861 -2.24964 0
M  V30 3091 C 293.12 0.978074 -1.2776 0
M  V30 3092 O 294.312 0.893854 -1.52772 0
M  V30 3093 C 291.441 1.46344 -3.10545 0
M  V30 3094 C 290.527 0.864924 -4.15187 0
M  V30 3095 N 290.918 -0.00311354 -5.058 0
M  V30 3096 C 289.216 1.13099 -4.31422 0
M  V30 3097 C 289.917 -0.340772 -5.80701 0
M  V30 3098 N 288.893 0.279203 -5.42883 0
M  V30 3099 H 292.695 -0.298134 -2.92384 0
M  V30 3100 H 290.209 -0.264528 -1.60231 0
M  V30 3101 H 292.206 2.06565 -3.62128 0
M  V30 3102 H 290.866 2.13463 -2.4467 0
M  V30 3103 H 291.877 -0.37058 -5.16572 0
M  V30 3104 H 288.554 1.79861 -3.76771 0
M  V30 3105 H 289.944 -1.048 -6.63677 0
M  V30 3106 N 292.664 1.56529 -0.183458 0
M  V30 3107 C 293.892 2.01623 0.464285 0
M  V30 3108 C 294.307 1.06366 1.55986 0
M  V30 3109 O 293.664 0.0665398 1.82379 0
M  V30 3110 C 293.715 3.46475 1.03139 0
M  V30 3111 O 293.436 4.38095 -0.0204675 0
M  V30 3112 C 294.937 4.0703 1.75617 0
M  V30 3113 H 292.157 0.660596 0.117704 0
M  V30 3114 H 294.701 2.02451 -0.288751 0
M  V30 3115 H 292.856 3.46383 1.73486 0
M  V30 3116 H 293.27 5.22973 0.399952 0
M  V30 3117 H 294.744 5.10271 2.10542 0
M  V30 3118 H 295.221 3.49819 2.65563 0
M  V30 3119 H 295.827 4.1086 1.09882 0
M  V30 3120 N 294.142 -0.090211 1.57342 0
M  V30 3121 C 295.367 -0.810082 1.90925 0
M  V30 3122 C 295.792 -1.71248 0.778187 0
M  V30 3123 O 295.15 -1.79278 -0.269991 0
M  V30 3124 C 295.198 -1.59529 3.23393 0
M  V30 3125 O 294.302 -2.70461 3.11327 0
M  V30 3126 H 293.643 -0.222231 0.625707 0
M  V30 3127 H 296.173 -0.0639716 2.045 0
M  V30 3128 H 296.183 -1.97847 3.5682 0
M  V30 3129 H 294.858 -0.933055 4.05299 0
M  V30 3130 H 293.435 -2.35135 2.89423 0
M  V30 3131 N 295.62 -1.53406 -0.361157 0
M  V30 3132 C 296.55 -1.83136 -1.44857 0
M  V30 3133 C 297.531 -0.685174 -1.5569 0
M  V30 3134 O 298.716 -0.93544 -1.70186 0
M  V30 3135 C 295.846 -2.02522 -2.82138 0
M  V30 3136 C 294.8 -3.18302 -2.86126 0
M  V30 3137 C 294.126 -3.22989 -4.26125 0
M  V30 3138 C 295.426 -4.56796 -2.53248 0
M  V30 3139 H 297.12 -2.74201 -1.20226 0
M  V30 3140 H 294.666 -1.31938 -0.576922 0
M  V30 3141 H 296.619 -2.21904 -3.58241 0
M  V30 3142 H 295.343 -1.08172 -3.08166 0
M  V30 3143 H 294.002 -2.98747 -2.12475 0
M  V30 3144 H 293.65 -2.26267 -4.49235 0
M  V30 3145 H 293.35 -4.00781 -4.29708 0
M  V30 3146 H 294.874 -3.44559 -5.04094 0
M  V30 3147 H 296.288 -4.7631 -3.19064 0
M  V30 3148 H 294.685 -5.36862 -2.68141 0
M  V30 3149 H 295.755 -4.61606 -1.48484 0
M  V30 3150 N 297.098 0.621204 -1.44841 0
M  V30 3151 C 298.347 1.37658 -1.47422 0
M  V30 3152 C 298.66 1.95264 -0.114629 0
M  V30 3153 O 299.866 2.71494 -0.0180199 0
M  V30 3154 C 298.322 2.49285 -2.59586 0
M  V30 3155 C 297.93 1.98149 -4.01797 0
M  V30 3156 C 299.674 3.26409 -2.71399 0
M  V30 3157 C 297.581 3.07178 -5.05367 0
M  V30 3158 H 296.511 0.517344 -0.548517 0
M  V30 3159 H 299.162 0.667257 -1.70938 0
M  V30 3160 H 297.544 3.22839 -2.29328 0
M  V30 3161 H 298.718 1.31395 -4.41669 0
M  V30 3162 H 297.033 1.33812 -3.94314 0
M  V30 3163 H 299.63 4.07706 -3.45948 0
M  V30 3164 H 299.973 3.76535 -1.77559 0
M  V30 3165 H 300.506 2.5995 -3.01116 0
M  V30 3166 H 297.245 2.61985 -6.00869 0
M  V30 3167 H 296.765 3.72542 -4.70077 0
M  V30 3168 H 298.444 3.71789 -5.29511 0
M  V30 3169 N 298.576 1.31904 0.862503 0
M  V30 3170 C 299.524 1.20125 1.9918 0
M  V30 3171 C 300.518 0.107824 1.69056 0
M  V30 3172 O 301.724 0.270223 1.7796 0
M  V30 3173 H 298.099 0.372148 0.65346 0
M  V30 3174 H 300.07 2.15652 2.06244 0
M  V30 3175 C 298.819 0.933099 3.34946 0
M  V30 3176 H 298.142 1.76664 3.5865 0
M  V30 3177 H 299.582 0.890892 4.14535 0
M  V30 3178 C 298.041 -0.364172 3.34926 0
M  V30 3179 O 298.571 -1.37858 3.77304 0
M  V30 3180 N 296.777 -0.383362 2.8806 0
M  V30 3181 H 296.324 0.442651 2.53768 0
M  V30 3182 H 296.282 -1.25123 2.8843 0
M  V30 3183 N 300.054 -1.07777 1.14986 0
M  V30 3184 C 301.302 -1.79934 0.920235 0
M  V30 3185 C 301.623 -1.86955 -0.554336 0
M  V30 3186 O 300.893 -1.36731 -1.40291 0
M  V30 3187 H 299.473 -0.666424 0.337473 0
M  V30 3188 H 302.135 -1.3027 1.44968 0
M  V30 3189 H 301.231 -2.82539 1.32583 0
M  V30 3190 N 301.532 -0.945985 -1.26051 0
M  V30 3191 C 302.948 -0.649045 -1.45807 0
M  V30 3192 C 303.148 0.796158 -1.85104 0
M  V30 3193 O 302.204 1.57233 -1.97571 0
M  V30 3194 C 303.517 -1.61458 -2.53677 0
M  V30 3195 C 305.065 -1.62481 -2.67524 0
M  V30 3196 C 305.54 -2.57776 -3.7857 0
M  V30 3197 N 307.031 -2.5609 -3.85969 0
M  V30 3198 C 307.766 -3.26508 -4.7136 0
M  V30 3199 N 307.262 -4.0637 -5.61102 0
M  V30 3200 N 309.055 -3.15437 -4.65248 0
M  V30 3201 H 301.206 -1.88005 -0.988328 0
M  V30 3202 H 303.469 -0.808198 -0.4955 0
M  V30 3203 H 303.175 -2.64644 -2.31638 0
M  V30 3204 H 303.049 -1.37036 -3.51427 0
M  V30 3205 H 305.436 -0.600167 -2.88933 0
M  V30 3206 H 305.517 -1.90958 -1.70202 0
M  V30 3207 H 305.161 -3.60361 -3.57913 0
M  V30 3208 H 305.091 -2.26587 -4.75359 0
M  V30 3209 H 307.582 -1.98105 -3.21812 0
M  V30 3210 H 307.895 -4.57042 -6.23164 0
M  V30 3211 H 306.24 -4.10469 -5.60839 0
M  V30 3212 H 309.431 -2.52525 -3.94143 0
M  V30 3213 H 309.604 -3.70584 -5.31575 0
M  V30 3214 N 303.011 1.40521 -0.713556 0
M  V30 3215 C 304.422 1.83853 -0.324807 0
M  V30 3216 C 304.773 1.59667 1.14021 0
M  V30 3217 O 303.898 1.07649 1.87725 0
M  V30 3218 C 304.493 3.33751 -0.582746 0
M  V30 3219 C 303.052 3.75584 -0.247727 0
M  V30 3220 C 302.199 2.63753 -0.856121 0
M  V30 3221 H 305.15 1.29817 -0.91286 0
M  V30 3222 H 305.171 3.80194 0.152682 0
M  V30 3223 H 304.683 3.51322 -1.64908 0
M  V30 3224 H 302.784 3.63608 0.813624 0
M  V30 3225 H 302.897 4.7373 -0.715307 0
M  V30 3226 H 301.261 2.53108 -0.28432 0
M  V30 3227 H 302.044 2.84137 -1.92668 0
M  V30 3228 N 304.489 0.459591 1.5075 0
M  V30 3229 C 305.714 -0.0996819 2.0716 0
M  V30 3230 C 306.139 -1.33761 1.32249 0
M  V30 3231 O 305.497 -1.77551 0.366786 0
M  V30 3232 C 305.545 -0.378226 3.58611 0
M  V30 3233 O 304.649 -1.46081 3.85661 0
M  V30 3234 H 303.99 0.00791392 0.663953 0
M  V30 3235 H 306.52 0.647329 1.9409 0
M  V30 3236 H 306.53 -0.622135 4.03229 0
M  V30 3237 H 305.205 0.526439 4.12555 0
M  V30 3238 H 303.782 -1.20511 3.5289 0
M  V30 3239 N 305.967 -1.56429 0.191757 0
M  V30 3240 C 306.93 -2.17707 -0.716688 0
M  V30 3241 C 307.93 -1.13061 -1.14341 0
M  V30 3242 O 309.12 -1.38464 -1.05704 0
M  V30 3243 C 306.252 -2.77644 -1.97804 0
M  V30 3244 H 307.445 -2.99342 -0.1829 0
M  V30 3245 H 304.998 -1.56193 -0.0578566 0
M  V30 3246 H 305.733 -1.99799 -2.55443 0
M  V30 3247 H 305.518 -3.54246 -1.68083 0
M  V30 3248 H 307.008 -3.24708 -2.62592 0
M  V30 3249 N 307.445 0.0818655 -1.57387 0
M  V30 3250 C 308.722 0.815343 -1.77796 0
M  V30 3251 C 309.102 1.96289 -0.77679 0
M  V30 3252 O 308.45 2.27691 0.192106 0
M  V30 3253 C 308.66 1.29765 -3.23978 0
M  V30 3254 C 310.008 1.7351 -3.8753 0
M  V30 3255 O 311.032 1.39356 -3.27808 0
M  V30 3256 O 309.891 2.36708 -4.92576 0
M  V30 3257 H 306.985 0.389914 -0.729312 0
M  V30 3258 H 309.531 0.0627213 -1.69584 0
M  V30 3259 H 308.303 0.47608 -3.88393 0
M  V30 3260 H 307.926 2.11189 -3.36875 0
M  V30 3261 N 308.923 1.53595 0.353017 0
M  V30 3262 C 310.2 1.61002 1.11075 0
M  V30 3263 C 310.58 0.425356 2.0677 0
M  V30 3264 O 309.928 -0.583267 2.2093 0
M  V30 3265 C 310.138 2.96631 1.83877 0
M  V30 3266 C 311.486 3.51653 2.37961 0
M  V30 3267 O 312.51 2.98743 1.93987 0
M  V30 3268 O 311.369 4.44177 3.18386 0
M  V30 3269 H 308.463 0.650825 0.510251 0
M  V30 3270 H 311.009 1.6594 0.35527 0
M  V30 3271 H 309.781 3.74293 1.14108 0
M  V30 3272 H 309.404 2.95242 2.66304 0
M  V30 3273 N 310.401 -0.613514 1.45168 0
M  V30 3274 C 311.331 -1.7354 1.56225 0
M  V30 3275 C 312.312 -1.64981 0.41414 0
M  V30 3276 O 313.497 -1.83472 0.636526 0
M  V30 3277 C 310.627 -3.12128 1.52295 0
M  V30 3278 C 309.581 -3.35491 2.65762 0
M  V30 3279 C 308.907 -4.74291 2.46885 0
M  V30 3280 C 310.207 -3.26325 4.0781 0
M  V30 3281 H 311.901 -1.64543 2.50132 0
M  V30 3282 H 309.447 -0.790185 1.20383 0
M  V30 3283 H 311.4 -3.90404 1.58628 0
M  V30 3284 H 310.124 -3.2195 0.549139 0
M  V30 3285 H 308.783 -2.59603 2.58847 0
M  V30 3286 H 308.431 -4.80839 1.47657 0
M  V30 3287 H 308.131 -4.9088 3.22972 0
M  V30 3288 H 309.655 -5.54775 2.55063 0
M  V30 3289 H 311.069 -3.94483 4.16 0
M  V30 3290 H 309.466 -3.54445 4.8424 0
M  V30 3291 H 310.536 -2.23855 4.30136 0
M  V30 3292 N 311.879 -1.3236 -0.855495 0
M  V30 3293 C 313.104 -1.2601 -1.64731 0
M  V30 3294 C 313.529 0.169068 -1.87339 0
M  V30 3295 O 312.887 1.12016 -1.42556 0
M  V30 3296 C 312.935 -2.02417 -2.98429 0
M  V30 3297 O 312.039 -1.3714 -3.8893 0
M  V30 3298 H 311.38 -0.434325 -0.502253 0
M  V30 3299 H 313.91 -1.74661 -1.06558 0
M  V30 3300 H 313.92 -2.12559 -3.48257 0
M  V30 3301 H 312.595 -3.06343 -2.81295 0
M  V30 3302 H 311.172 -1.3554 -3.47395 0
M  V30 3303 N 313.357 1.07166 -1.15556 0
M  V30 3304 C 314.768 1.6127 -0.940693 0
M  V30 3305 C 315.119 1.89251 0.517551 0
M  V30 3306 O 314.244 1.65937 1.38903 0
M  V30 3307 C 314.839 2.92993 -1.7012 0
M  V30 3308 C 313.398 3.43832 -1.53156 0
M  V30 3309 C 312.545 2.1786 -1.71558 0
M  V30 3310 H 315.496 0.90229 -1.30554 0
M  V30 3311 H 315.517 3.62007 -1.17181 0
M  V30 3312 H 315.029 2.72596 -2.76248 0
M  V30 3313 H 313.13 3.69307 -0.494294 0
M  V30 3314 H 313.243 4.19747 -2.30975 0
M  V30 3315 H 311.607 2.2765 -1.14225 0
M  V30 3316 H 312.39 1.99956 -2.79056 0
M  V30 3317 N 314.835 0.952656 1.25548 0
M  V30 3318 C 315.782 0.47008 2.25962 0
M  V30 3319 C 316.752 -0.476384 1.59122 0
M  V30 3320 O 317.937 -0.39007 1.8677 0
M  V30 3321 C 315.077 -0.247881 3.44209 0
M  V30 3322 C 314.19 0.735591 4.25691 0
M  V30 3323 C 313.325 -0.0047306 5.312 0
M  V30 3324 C 312.364 0.969805 6.04368 0
M  V30 3325 N 311.501 0.260486 7.01617 0
M  V30 3326 H 316.341 1.33126 2.66611 0
M  V30 3327 H 313.878 0.66765 1.31076 0
M  V30 3328 H 315.836 -0.680695 4.1161 0
M  V30 3329 H 314.466 -1.07312 3.0444 0
M  V30 3330 H 313.518 1.28689 3.57971 0
M  V30 3331 H 314.83 1.47934 4.76358 0
M  V30 3332 H 313.984 -0.496275 6.04667 0
M  V30 3333 H 312.723 -0.781282 4.81401 0
M  V30 3334 H 311.728 1.47237 5.29718 0
M  V30 3335 H 312.953 1.74655 6.56256 0
M  V30 3336 H 310.899 -0.497364 6.54112 0
M  V30 3337 H 310.816 0.943362 7.50091 0
M  V30 3338 H 312.084 -0.209587 7.79218 0
M  V30 3339 N 316.313 -1.40141 0.720998 0
M  V30 3340 C 317.243 -2.33339 0.0867621 0
M  V30 3341 C 318.224 -1.53178 -0.739622 0
M  V30 3342 O 319.409 -1.81625 -0.687449 0
M  V30 3343 C 316.539 -3.37194 -0.831728 0
M  V30 3344 C 315.493 -4.27857 -0.110558 0
M  V30 3345 C 314.819 -5.22294 -1.14513 0
M  V30 3346 C 316.119 -5.11872 1.0385 0
M  V30 3347 H 317.813 -2.86626 0.865219 0
M  V30 3348 H 315.359 -1.37814 0.417516 0
M  V30 3349 H 317.312 -4.01335 -1.28485 0
M  V30 3350 H 316.036 -2.82314 -1.64214 0
M  V30 3351 H 314.695 -3.65176 0.322797 0
M  V30 3352 H 314.343 -4.63717 -1.94874 0
M  V30 3353 H 314.043 -5.83797 -0.667446 0
M  V30 3354 H 315.567 -5.89312 -1.59824 0
M  V30 3355 H 316.981 -5.69436 0.664482 0
M  V30 3356 H 315.378 -5.82445 1.4449 0
M  V30 3357 H 316.448 -4.4753 1.86668 0
M  V30 3358 N 317.792 -0.46758 -1.50504 0
M  V30 3359 C 318.722 0.318381 -2.31319 0
M  V30 3360 C 319.703 0.993564 -1.38066 0
M  V30 3361 O 320.888 0.991411 -1.66987 0
M  V30 3362 C 318.018 1.40275 -3.17711 0
M  V30 3363 C 316.972 0.849373 -4.19487 0
M  V30 3364 C 316.298 2.03177 -4.94594 0
M  V30 3365 C 317.598 -0.136942 -5.2212 0
M  V30 3366 H 319.292 -0.356106 -2.97275 0
M  V30 3367 H 316.838 -0.172703 -1.42961 0
M  V30 3368 H 318.791 1.96004 -3.73042 0
M  V30 3369 H 317.515 2.10596 -2.49634 0
M  V30 3370 H 316.174 0.314076 -3.65252 0
M  V30 3371 H 315.822 2.72187 -4.22993 0
M  V30 3372 H 315.522 1.66774 -5.63436 0
M  V30 3373 H 317.046 2.59403 -5.52759 0
M  V30 3374 H 318.46 0.331056 -5.72343 0
M  V30 3375 H 316.857 -0.41507 -5.98663 0
M  V30 3376 H 317.927 -1.06398 -4.73083 0
M  V30 3377 N 319.27 1.56325 -0.20005 0
M  V30 3378 C 320.18 2.22931 0.730668 0
M  V30 3379 C 321.196 1.22997 1.23076 0
M  V30 3380 O 322.372 1.55748 1.27689 0
M  V30 3381 C 319.437 2.87948 1.93098 0
M  V30 3382 C 318.498 4.03166 1.47497 0
M  V30 3383 C 317.731 4.65073 2.61807 0
M  V30 3384 O 317.954 4.25913 3.79413 0
M  V30 3385 O 316.888 5.54452 2.34237 0
M  V30 3386 H 320.714 3.03084 0.193391 0
M  V30 3387 H 318.299 1.49371 0.0294621 0
M  V30 3388 H 320.181 3.29063 2.6324 0
M  V30 3389 H 318.856 2.10771 2.45677 0
M  V30 3390 H 317.763 3.66664 0.742201 0
M  V30 3391 H 319.096 4.82022 0.995796 0
M  V30 3392 N 320.748 -0.0735177 1.57428 0
M  V30 3393 C 321.995 -0.772999 1.87166 0
M  V30 3394 C 322.323 -1.77665 0.791551 0
M  V30 3395 O 321.578 -1.94541 -0.212636 0
M  V30 3396 C 321.877 -1.51799 3.23561 0
M  V30 3397 C 321.543 -0.654484 4.46125 0
M  V30 3398 C 320.205 -0.416511 4.79394 0
M  V30 3399 C 322.557 -0.0555862 5.2117 0
M  V30 3400 C 319.885 0.429869 5.85123 0
M  V30 3401 C 322.237 0.778239 6.27795 0
M  V30 3402 C 320.901 1.0261 6.59566 0
M  V30 3403 H 320.171 -0.282861 0.684888 0
M  V30 3404 H 322.818 -0.0338272 1.9147 0
M  V30 3405 H 321.123 -2.32932 3.1504 0
M  V30 3406 H 322.82 -2.06397 3.43804 0
M  V30 3407 H 319.41 -0.850091 4.20085 0
M  V30 3408 H 323.594 -0.226558 4.95783 0
M  V30 3409 H 318.85 0.630665 6.08139 0
M  V30 3410 H 323.024 1.24906 6.85107 0
M  V30 3411 H 320.651 1.68371 7.4132 0
M  V30 3412 N 322.226 -1.5378 -0.344866 0
M  V30 3413 C 323.454 -1.74899 -1.10534 0
M  V30 3414 C 323.869 -0.487534 -1.82397 0
M  V30 3415 O 323.226 0.540741 -1.74305 0
M  V30 3416 C 323.277 -2.92822 -2.11984 0
M  V30 3417 O 322.998 -4.14089 -1.43044 0
M  V30 3418 C 324.499 -3.25982 -3.00417 0
M  V30 3419 H 321.719 -0.584426 -0.329678 0
M  V30 3420 H 324.263 -2.006 -0.397474 0
M  V30 3421 H 322.418 -2.69457 -2.78338 0
M  V30 3422 H 322.832 -4.80272 -2.10805 0
M  V30 3423 H 324.306 -4.11848 -3.67539 0
M  V30 3424 H 324.783 -2.42228 -3.66363 0
M  V30 3425 H 325.389 -3.51349 -2.39654 0
M  V30 3426 N 323.704 0.605807 -1.45491 0
M  V30 3427 C 324.929 1.39625 -1.53361 0
M  V30 3428 C 325.354 1.87351 -0.167645 0
M  V30 3429 O 324.712 1.60243 0.848051 0
M  V30 3430 C 324.76 2.57559 -2.5238 0
M  V30 3431 O 323.864 3.58248 -2.04285 0
M  V30 3432 H 323.205 0.416771 -0.516912 0
M  V30 3433 H 325.735 0.737103 -1.90861 0
M  V30 3434 H 325.745 3.0478 -2.71244 0
M  V30 3435 H 324.42 2.22171 -3.51586 0
M  V30 3436 H 322.997 3.17664 -1.95305 0
M  V30 3437 N 325.182 1.32811 0.848464 0
M  V30 3438 C 326.145 1.22194 1.9391 0
M  V30 3439 C 327.145 0.143404 1.60159 0
M  V30 3440 O 328.335 0.394253 1.6968 0
M  V30 3441 C 325.467 0.88067 3.29328 0
M  V30 3442 H 326.66 2.19127 2.04752 0
M  V30 3443 H 324.213 1.16731 1.0394 0
M  V30 3444 H 324.948 -0.0865776 3.24184 0
M  V30 3445 H 324.733 1.66052 3.55203 0
M  V30 3446 H 326.223 0.830871 4.09251 0
M  V30 3447 N 326.66 -1.06551 1.16123 0
M  V30 3448 C 328.076 -1.3142 0.905585 0
M  V30 3449 C 328.276 -1.96571 -0.442964 0
M  V30 3450 O 327.332 -2.23068 -1.18308 0
M  V30 3451 C 328.645 -2.19741 2.05267 0
M  V30 3452 C 330.193 -2.33165 2.08813 0
M  V30 3453 C 330.668 -3.24838 3.22868 0
M  V30 3454 N 332.159 -3.32421 3.22568 0
M  V30 3455 C 332.894 -4.0344 4.0746 0
M  V30 3456 N 332.39 -4.77003 5.02434 0
M  V30 3457 N 334.183 -3.99464 3.95456 0
M  V30 3458 H 326.334 -0.626548 2.02949 0
M  V30 3459 H 328.597 -0.338777 0.8854 0
M  V30 3460 H 328.303 -1.79142 3.02657 0
M  V30 3461 H 328.177 -3.20313 1.99198 0
M  V30 3462 H 330.564 -2.73013 1.12018 0
M  V30 3463 H 330.645 -1.3227 2.18948 0
M  V30 3464 H 330.289 -2.85708 4.19921 0
M  V30 3465 H 330.219 -4.25707 3.0997 0
M  V30 3466 H 332.71 -2.79994 2.53795 0
M  V30 3467 H 333.023 -5.28712 5.63634 0
M  V30 3468 H 331.368 -4.75992 5.06415 0
M  V30 3469 H 334.559 -3.4111 3.20564 0
M  V30 3470 H 334.732 -4.54544 4.61837 0
M  V30 3471 N 328.138 -0.959301 -1.25041 0
M  V30 3472 C 329.368 -0.63303 -1.96663 0
M  V30 3473 C 329.776 0.800031 -1.71453 0
M  V30 3474 O 329.119 1.54736 -0.99008 0
M  V30 3475 C 329.181 -0.817523 -3.50081 0
M  V30 3476 C 328.845 -2.22863 -3.98975 0
M  V30 3477 C 329.842 -3.20569 -4.09306 0
M  V30 3478 C 327.527 -2.55407 -4.32519 0
M  V30 3479 C 329.521 -4.4891 -4.52503 0
M  V30 3480 C 327.208 -3.83976 -4.754 0
M  V30 3481 C 328.206 -4.8054 -4.85356 0
M  V30 3482 O 327.894 -6.06817 -5.27284 0
M  V30 3483 H 327.626 -0.235866 -0.633516 0
M  V30 3484 H 330.18 -1.2874 -1.60047 0
M  V30 3485 H 328.41 -0.105992 -3.86555 0
M  V30 3486 H 330.099 -0.491604 -4.02912 0
M  V30 3487 H 330.865 -2.96753 -3.83618 0
M  V30 3488 H 326.744 -1.8097 -4.23994 0
M  V30 3489 H 330.288 -5.24283 -4.60188 0
M  V30 3490 H 326.185 -4.07596 -5.00535 0
M  V30 3491 H 326.953 -6.10262 -5.45457 0
M  V30 3492 N 329.616 1.39756 -0.72842 0
M  V30 3493 C 330.865 1.99879 -0.270407 0
M  V30 3494 C 331.178 1.58449 1.14688 0
M  V30 3495 O 332.384 2.11362 1.70407 0
M  V30 3496 C 330.84 3.57292 -0.43252 0
M  V30 3497 C 330.448 4.07688 -1.85727 0
M  V30 3498 C 332.192 4.24485 -0.0359507 0
M  V30 3499 C 330.099 5.5765 -1.96928 0
M  V30 3500 H 329.029 0.747689 -0.0973472 0
M  V30 3501 H 331.68 1.59837 -0.901355 0
M  V30 3502 H 330.062 3.95097 0.267219 0
M  V30 3503 H 331.236 3.81231 -2.58843 0
M  V30 3504 H 329.551 3.53135 -2.20646 0
M  V30 3505 H 332.148 5.34609 -0.0987484 0
M  V30 3506 H 332.491 4.03915 1.00787 0
M  V30 3507 H 333.024 3.9183 -0.686604 0
M  V30 3508 H 329.763 5.8309 -2.99476 0
M  V30 3509 H 329.283 5.8593 -1.28241 0
M  V30 3510 H 330.962 6.22957 -1.74737 0
M  V30 3511 N 331.094 0.475555 1.50254 0
M  V30 3512 C 332.51 0.12997 1.5907 0
M  V30 3513 C 332.71 -1.36385 1.48328 0
M  V30 3514 O 331.766 -2.13754 1.34407 0
M  V30 3515 C 333.079 0.684139 2.92814 0
M  V30 3516 C 334.627 0.647965 3.0622 0
M  V30 3517 C 335.102 1.17975 4.42545 0
M  V30 3518 N 336.593 1.13936 4.48969 0
M  V30 3519 C 337.328 1.52129 5.52851 0
M  V30 3520 N 336.824 1.97793 6.63965 0
M  V30 3521 N 338.617 1.43704 5.4342 0
M  V30 3522 H 330.768 1.44706 1.55479 0
M  V30 3523 H 333.031 0.598691 0.735033 0
M  V30 3524 H 332.737 1.73079 3.06164 0
M  V30 3525 H 332.611 0.130204 3.76975 0
M  V30 3526 H 334.998 -0.38979 2.92514 0
M  V30 3527 H 335.079 1.23876 2.23805 0
M  V30 3528 H 334.723 2.21616 4.57 0
M  V30 3529 H 334.653 0.565138 5.23559 0
M  V30 3530 H 337.144 0.804488 3.69238 0
M  V30 3531 H 337.457 2.25072 7.39299 0
M  V30 3532 H 335.802 2.01749 6.65073 0
M  V30 3533 H 338.993 1.07867 4.55502 0
M  V30 3534 H 339.166 1.73794 6.24259 0
M  V30 3535 N 332.573 -1.56217 0.208337 0
M  V30 3536 C 333.503 -2.22694 -0.702116 0
M  V30 3537 C 334.484 -1.19432 -1.2112 0
M  V30 3538 O 335.669 -1.47978 -1.25762 0
M  V30 3539 C 332.799 -2.8966 -1.9161 0
M  V30 3540 C 331.753 -3.9928 -1.5414 0
M  V30 3541 C 331.079 -4.53476 -2.83308 0
M  V30 3542 C 332.379 -5.17012 -0.741339 0
M  V30 3543 H 334.073 -2.99034 -0.147898 0
M  V30 3544 H 331.619 -1.43831 -0.0696951 0
M  V30 3545 H 333.572 -3.34852 -2.55836 0
M  V30 3546 H 332.296 -2.10746 -2.49507 0
M  V30 3547 H 330.955 -3.54799 -0.922668 0
M  V30 3548 H 330.603 -3.71308 -3.39322 0
M  V30 3549 H 330.303 -5.27451 -2.58976 0
M  V30 3550 H 331.827 -5.01378 -3.485 0
M  V30 3551 H 333.241 -5.58667 -1.28699 0
M  V30 3552 H 331.638 -5.97137 -0.595627 0
M  V30 3553 H 332.708 -4.8423 0.254851 0
M  V30 3554 N 334.051 0.0651679 -1.57465 0
M  V30 3555 C 335.467 0.420105 -1.53972 0
M  V30 3556 C 335.667 1.78782 -0.929474 0
M  V30 3557 O 334.723 2.46771 -0.534839 0
M  V30 3558 C 336.036 0.355084 -2.98596 0
M  V30 3559 C 337.584 0.434792 -3.09965 0
M  V30 3560 C 338.059 0.399609 -4.56253 0
M  V30 3561 N 339.55 0.459488 -4.60915 0
M  V30 3562 C 340.285 0.454584 -5.71595 0
M  V30 3563 N 339.781 0.404102 -6.9162 0
M  V30 3564 N 341.574 0.501635 -5.59857 0
M  V30 3565 H 333.725 -0.830328 -1.95498 0
M  V30 3566 H 335.988 -0.312244 -0.895102 0
M  V30 3567 H 335.694 -0.583357 -3.46828 0
M  V30 3568 H 335.568 1.16275 -3.58831 0
M  V30 3569 H 337.955 1.36366 -2.61703 0
M  V30 3570 H 338.036 -0.40157 -2.52628 0
M  V30 3571 H 337.68 -0.525436 -5.05175 0
M  V30 3572 H 337.61 1.25359 -5.11461 0
M  V30 3573 H 340.101 0.502482 -3.74544 0
M  V30 3574 H 340.414 0.404468 -7.71741 0
M  V30 3575 H 338.759 0.37069 -6.94011 0
M  V30 3576 H 341.95 0.538812 -4.64989 0
M  V30 3577 H 342.123 0.494345 -6.46112 0
M  V30 3578 N 335.529 1.53961 0.336706 0
M  V30 3579 C 336.459 1.85417 1.41925 0
M  V30 3580 C 337.44 0.709856 1.5458 0
M  V30 3581 O 338.625 0.962396 1.68676 0
M  V30 3582 C 335.755 2.06985 2.78881 0
M  V30 3583 C 334.709 3.22813 2.81026 0
M  V30 3584 C 334.035 3.29727 4.20932 0
M  V30 3585 C 335.335 4.60767 2.45949 0
M  V30 3586 H 337.029 2.76079 1.15848 0
M  V30 3587 H 334.575 1.32839 0.555859 0
M  V30 3588 H 336.528 2.27575 3.54665 0
M  V30 3589 H 335.252 1.13061 3.06406 0
M  V30 3590 H 333.911 3.0209 2.07695 0
M  V30 3591 H 333.559 2.33385 4.45579 0
M  V30 3592 H 333.259 4.07566 4.23277 0
M  V30 3593 H 334.783 3.52536 4.98549 0
M  V30 3594 H 336.197 4.81325 3.11446 0
M  V30 3595 H 334.594 5.4106 2.59566 0
M  V30 3596 H 335.664 4.6391 1.41122 0
M  V30 3597 N 337.007 -0.598083 1.45811 0
M  V30 3598 C 337.939 -1.72231 1.51225 0
M  V30 3599 C 338.952 -1.57757 0.402059 0
M  V30 3600 O 340.141 -1.65464 0.669624 0
M  V30 3601 C 337.241 -3.10331 1.3619 0
M  V30 3602 C 336.414 -3.50955 2.61054 0
M  V30 3603 C 335.473 -4.68055 2.40439 0
M  V30 3604 O 334.499 -4.74691 3.14097 0
M  V30 3605 N 335.701 -5.61941 1.45612 0
M  V30 3606 H 338.466 -1.68046 2.48154 0
M  V30 3607 H 336.027 -0.783637 1.41671 0
M  V30 3608 H 338.019 -3.86439 1.20195 0
M  V30 3609 H 336.589 -3.0897 0.475015 0
M  V30 3610 H 335.809 -2.64711 2.92099 0
M  V30 3611 H 337.097 -3.74858 3.44034 0
M  V30 3612 H 336.495 -5.59301 0.848431 0
M  V30 3613 H 335.052 -6.37542 1.35585 0
M  V30 3614 N 338.485 -1.33259 -0.841409 0
M  V30 3615 C 339.901 -1.12538 -1.13169 0
M  V30 3616 C 340.101 0.0854037 -2.01319 0
M  V30 3617 O 339.157 0.766417 -2.40587 0
M  V30 3618 C 340.47 -2.41156 -1.79623 0
M  V30 3619 C 342.018 -2.47038 -1.922 0
M  V30 3620 C 342.493 -3.7561 -2.6207 0
M  V30 3621 N 343.984 -3.76667 -2.69585 0
M  V30 3622 C 344.719 -4.72861 -3.2433 0
M  V30 3623 N 344.215 -5.79428 -3.79783 0
M  V30 3624 N 346.008 -4.6034 -3.22558 0
M  V30 3625 H 338.159 -2.10868 -0.254676 0
M  V30 3626 H 340.422 -0.931615 -0.175493 0
M  V30 3627 H 340.128 -3.29747 -1.22311 0
M  V30 3628 H 340.002 -2.53114 -2.79666 0
M  V30 3629 H 342.389 -1.58898 -2.48667 0
M  V30 3630 H 342.47 -2.39022 -0.911148 0
M  V30 3631 H 342.114 -4.64131 -2.06263 0
M  V30 3632 H 342.044 -3.80902 -3.63622 0
M  V30 3633 H 344.535 -2.99648 -2.30259 0
M  V30 3634 H 344.848 -6.48867 -4.19752 0
M  V30 3635 H 343.193 -5.83166 -3.78078 0
M  V30 3636 H 346.384 -3.76244 -2.78492 0
M  V30 3637 H 346.557 -5.35478 -3.64921 0
M  V30 3638 N 339.963 1.05934 -1.16686 0
M  V30 3639 C 341.212 1.78188 -0.945085 0
M  V30 3640 C 341.525 1.88338 0.528021 0
M  V30 3641 O 342.731 2.57258 0.867799 0
M  V30 3642 C 341.187 3.20277 -1.64167 0
M  V30 3643 C 340.795 3.18281 -3.15279 0
M  V30 3644 C 342.539 3.97039 -1.502 0
M  V30 3645 C 340.446 4.55112 -3.7766 0
M  V30 3646 H 339.376 0.667866 -0.349959 0
M  V30 3647 H 342.027 1.18794 -1.39858 0
M  V30 3648 H 340.409 3.79952 -1.11589 0
M  V30 3649 H 341.583 2.68167 -3.74731 0
M  V30 3650 H 339.898 2.55018 -3.29173 0
M  V30 3651 H 342.495 4.98194 -1.94183 0
M  V30 3652 H 342.838 4.13845 -0.451461 0
M  V30 3653 H 343.371 3.43894 -1.99954 0
M  V30 3654 H 340.11 4.43512 -4.82677 0
M  V30 3655 H 339.63 5.05406 -3.22994 0
M  V30 3656 H 341.309 5.24064 -3.79428 0
M  V30 3657 N 341.441 0.965919 1.2453 0
M  V30 3658 C 342.857 0.67216 1.44756 0
M  V30 3659 C 343.057 -0.766609 1.86347 0
M  V30 3660 O 342.113 -1.5407 2.00047 0
M  V30 3661 C 343.426 1.65473 2.51076 0
M  V30 3662 C 344.974 1.66716 2.64905 0
M  V30 3663 C 345.449 2.63766 3.74421 0
M  V30 3664 N 346.94 2.62198 3.81846 0
M  V30 3665 C 347.675 3.33966 4.66106 0
M  V30 3666 N 347.171 4.15245 5.54566 0
M  V30 3667 N 348.964 3.22799 4.60171 0
M  V30 3668 H 341.115 1.89553 0.958293 0
M  V30 3669 H 343.378 0.815979 0.482579 0
M  V30 3670 H 343.084 2.68296 2.27399 0
M  V30 3671 H 342.958 1.4261 3.49202 0
M  V30 3672 H 345.345 0.646057 2.87941 0
M  V30 3673 H 345.426 1.93642 1.67142 0
M  V30 3674 H 345.07 3.6601 3.52135 0
M  V30 3675 H 345 2.34121 4.71694 0
M  V30 3676 H 347.491 2.032 3.18619 0
M  V30 3677 H 347.804 4.66898 6.15814 0
M  V30 3678 H 346.149 4.1934 5.54237 0
M  V30 3679 H 349.34 2.58764 3.90075 0
M  V30 3680 H 349.513 3.78994 5.25612 0
M  V30 3681 N 342.919 -1.39368 0.735821 0
M  V30 3682 C 344.147 -2.04795 0.294393 0
M  V30 3683 C 344.562 -1.55478 -1.07107 0
M  V30 3684 O 343.919 -0.720038 -1.67695 0
M  V30 3685 C 343.97 -3.6035 0.288071 0
M  V30 3686 O 343.691 -4.07852 1.59963 0
M  V30 3687 C 345.192 -4.42976 -0.169422 0
M  V30 3688 H 342.412 -0.658571 0.128551 0
M  V30 3689 H 344.956 -1.78399 0.999701 0
M  V30 3690 H 343.111 -3.85645 -0.368355 0
M  V30 3691 H 343.525 -5.02181 1.51375 0
M  V30 3692 H 344.999 -5.51864 -0.122687 0
M  V30 3693 H 345.476 -4.22068 -1.21472 0
M  V30 3694 H 346.082 -4.22832 0.457469 0
M  V30 3695 N 344.397 -0.483516 -1.5 0
M  V30 3696 C 345.327 0.293829 -2.31644 0
M  V30 3697 C 346.308 0.978864 -1.39112 0
M  V30 3698 O 347.493 0.973644 -1.68029 0
M  V30 3699 C 344.623 1.36897 -3.19181 0
M  V30 3700 C 343.577 0.804833 -4.20365 0
M  V30 3701 C 342.903 1.9792 -4.96721 0
M  V30 3702 C 344.203 -0.192313 -5.21946 0
M  V30 3703 H 345.897 -0.387616 -2.9688 0
M  V30 3704 H 343.443 -0.187856 -1.42769 0
M  V30 3705 H 345.396 1.92037 -3.751 0
M  V30 3706 H 344.12 2.07936 -2.51853 0
M  V30 3707 H 342.779 0.275319 -3.65565 0
M  V30 3708 H 342.427 2.67686 -4.25856 0
M  V30 3709 H 342.127 1.60789 -5.65173 0
M  V30 3710 H 343.651 2.53526 -5.55479 0
M  V30 3711 H 345.065 0.270333 -5.72662 0
M  V30 3712 H 343.462 -0.478543 -5.98189 0
M  V30 3713 H 344.532 -1.11409 -4.71928 0
M  V30 3714 N 345.875 1.56104 -0.216619 0
M  V30 3715 C 346.823 2.21434 0.712036 0
M  V30 3716 C 347.817 1.19218 1.20348 0
M  V30 3717 O 349.023 1.3731 1.16387 0
M  V30 3718 H 345.398 0.70992 0.248026 0
M  V30 3719 H 347.369 2.98083 0.137558 0
M  V30 3720 C 346.118 2.90434 1.91163 0
M  V30 3721 H 345.441 3.68842 1.54258 0
M  V30 3722 H 346.881 3.39552 2.5393 0
M  V30 3723 C 345.34 1.92635 2.76394 0
M  V30 3724 O 345.87 1.44017 3.74996 0
M  V30 3725 N 344.076 1.60392 2.42328 0
M  V30 3726 H 343.623 2.00122 1.622 0
M  V30 3727 H 343.581 0.952159 2.99635 0
M  V30 3728 N 347.353 -0.0568162 1.57498 0
M  V30 3729 C 348.316 -1.05038 2.03715 0
M  V30 3730 C 349.316 -1.30709 0.936577 0
M  V30 3731 O 350.506 -1.26178 1.20103 0
M  V30 3732 C 347.638 -2.39034 2.43055 0
M  V30 3733 H 348.831 -0.651715 2.92733 0
M  V30 3734 H 346.384 -0.302947 1.53336 0
M  V30 3735 H 347.119 -2.83703 1.57108 0
M  V30 3736 H 346.904 -2.21739 3.2338 0
M  V30 3737 H 348.394 -3.10421 2.79336 0
M  V30 3738 N 348.832 -1.54138 -0.328536 0
M  V30 3739 C 350.109 -1.62749 -1.08499 0
M  V30 3740 C 350.489 -0.458198 -2.06067 0
M  V30 3741 O 349.837 0.548046 -2.2183 0
M  V30 3742 C 350.047 -2.99519 -1.79135 0
M  V30 3743 C 351.395 -3.55394 -2.32337 0
M  V30 3744 O 352.419 -3.01792 -1.89209 0
M  V30 3745 O 351.278 -4.49186 -3.11279 0
M  V30 3746 H 348.372 -0.65886 -0.499832 0
M  V30 3747 H 350.918 -1.66484 -0.328826 0
M  V30 3748 H 349.69 -3.76061 -1.08139 0
M  V30 3749 H 349.313 -2.99441 -2.61574 0
M  V30 3750 N 350.31 0.590341 -1.46126 0
M  V30 3751 C 351.24 1.71032 -1.58966 0
M  V30 3752 C 352.221 1.64302 -0.440335 0
M  V30 3753 O 353.406 1.82436 -0.665634 0
M  V30 3754 C 350.536 3.09665 -1.57241 0
M  V30 3755 C 349.49 3.31221 -2.71066 0
M  V30 3756 C 348.816 4.70303 -2.54399 0
M  V30 3757 C 350.116 3.19796 -4.1295 0
M  V30 3758 H 351.81 1.60543 -2.52718 0
M  V30 3759 H 349.356 0.770933 -1.21625 0
M  V30 3760 H 351.309 3.87831 -1.64819 0
M  V30 3761 H 350.033 3.21036 -0.600289 0
M  V30 3762 H 348.692 2.55452 -2.62944 0
M  V30 3763 H 348.34 4.78429 -1.55288 0
M  V30 3764 H 348.04 4.85679 -3.30741 0
M  V30 3765 H 349.564 5.50647 -2.63857 0
M  V30 3766 H 350.978 3.87815 -4.22223 0
M  V30 3767 H 349.375 3.46696 -4.89818 0
M  V30 3768 H 350.445 2.16983 -4.33643 0
M  V30 3769 N 351.788 1.33704 0.83433 0
M  V30 3770 C 352.721 1.18675 1.94914 0
M  V30 3771 C 353.699 0.0811145 1.62398 0
M  V30 3772 O 354.883 0.244186 1.86912 0
M  V30 3773 C 352.01 0.821231 3.28593 0
M  V30 3774 C 351.056 1.93501 3.80079 0
M  V30 3775 S 351.889 3.54671 4.01209 0
M  V30 3776 C 353.045 3.20136 5.37833 0
M  V30 3777 H 353.278 2.13043 2.07364 0
M  V30 3778 H 350.811 1.18598 0.988624 0
M  V30 3779 H 352.769 0.617123 4.05835 0
M  V30 3780 H 351.43 -0.103927 3.13928 0
M  V30 3781 H 350.623 1.63273 4.76821 0
M  V30 3782 H 350.225 2.09601 3.09747 0
M  V30 3783 H 352.517 2.71242 6.20833 0
M  V30 3784 H 353.46 4.15975 5.73036 0
M  V30 3785 H 353.868 2.56613 5.02802 0
M  V30 3786 N 353.266 -1.05314 1.17247 0
M  V30 3787 C 354.494 -1.81971 0.984593 0
M  V30 3788 C 354.909 -1.82929 -0.467166 0
M  V30 3789 O 354.266 -1.25564 -1.32438 0
M  V30 3790 C 354.317 -3.28143 1.51672 0
M  V30 3791 O 354.038 -3.27347 2.91163 0
M  V30 3792 C 355.539 -4.21493 1.37326 0
M  V30 3793 H 352.759 -0.573455 0.348411 0
M  V30 3794 H 355.303 -1.32808 1.55506 0
M  V30 3795 H 353.458 -3.74582 0.988302 0
M  V30 3796 H 353.872 -4.18824 3.15732 0
M  V30 3797 H 355.346 -5.22043 1.79375 0
M  V30 3798 H 355.823 -4.38031 0.320169 0
M  V30 3799 H 356.429 -3.80909 1.89178 0
M  V30 3800 N 354.744 -0.972509 -1.24016 0
M  V30 3801 C 355.674 -0.525548 -2.27509 0
M  V30 3802 C 356.655 0.437262 -1.64384 0
M  V30 3803 O 357.84 0.332343 -1.91335 0
M  V30 3804 C 354.97 0.180448 -3.46831 0
M  V30 3805 C 353.924 -0.698859 -4.22256 0
M  V30 3806 C 353.25 0.138903 -5.3452 0
M  V30 3807 C 354.55 -1.98582 -4.83076 0
M  V30 3808 H 356.244 -1.39058 -2.65148 0
M  V30 3809 H 353.79 -0.67009 -1.27459 0
M  V30 3810 H 355.743 0.504387 -4.18371 0
M  V30 3811 H 354.467 1.07987 -3.08231 0
M  V30 3812 H 353.126 -1.00614 -3.52523 0
M  V30 3813 H 352.774 1.03862 -4.9216 0
M  V30 3814 H 352.474 -0.446259 -5.85903 0
M  V30 3815 H 353.998 0.457404 -6.08884 0
M  V30 3816 H 355.412 -1.72715 -5.46665 0
M  V30 3817 H 353.809 -2.5181 -5.44713 0
M  V30 3818 H 354.879 -2.67769 -4.04262 0
M  V30 3819 N 356.222 1.38976 -0.743202 0
M  V30 3820 C 357.447 2.05161 -0.303936 0
M  V30 3821 C 357.872 1.55677 1.05576 0
M  V30 3822 O 357.23 0.704131 1.67068 0
M  V30 3823 C 357.278 3.59138 -0.324373 0
M  V30 3824 O 356.382 4.06668 0.685204 0
M  V30 3825 H 355.723 0.649815 -0.136518 0
M  V30 3826 H 358.253 1.77852 -1.01142 0
M  V30 3827 H 358.263 4.07639 -0.171618 0
M  V30 3828 H 356.938 3.94515 -1.31647 0
M  V30 3829 H 355.515 3.69561 0.497913 0
M  V30 3830 N 357.7 0.491464 1.49741 0
M  V30 3831 C 358.65 -0.311086 2.25868 0
M  V30 3832 C 359.634 -0.943857 1.30308 0
M  V30 3833 O 360.826 -0.853035 1.55088 0
M  V30 3834 C 357.955 -1.38059 3.14316 0
M  V30 3835 C 357.041 -0.754541 4.17334 0
M  V30 3836 N 357.432 0.137216 5.05614 0
M  V30 3837 C 355.73 -1.01621 4.34269 0
M  V30 3838 C 356.431 0.494614 5.79593 0
M  V30 3839 N 355.407 -0.135169 5.43432 0
M  V30 3840 H 359.209 0.37555 2.91491 0
M  V30 3841 H 356.723 0.306917 1.59473 0
M  V30 3842 H 358.72 -1.96891 3.67477 0
M  V30 3843 H 357.38 -2.06901 2.50244 0
M  V30 3844 H 358.391 0.50741 5.15408 0
M  V30 3845 H 355.068 -1.69808 3.81407 0
M  V30 3846 H 356.458 1.2236 6.60665 0
M  V30 3847 N 359.178 -1.55987 0.224894 0
M  V30 3848 C 360.594 -1.59066 -0.130426 0
M  V30 3849 C 360.794 -1.24176 -1.5869 0
M  V30 3850 O 359.85 -0.978592 -2.32766 0
M  V30 3851 C 361.163 -3.00042 0.198883 0
M  V30 3852 C 362.711 -3.1268 0.141391 0
M  V30 3853 C 363.186 -4.55839 0.444422 0
M  V30 3854 N 364.677 -4.6152 0.394115 0
M  V30 3855 C 365.412 -5.70231 0.602038 0
M  V30 3856 N 364.908 -6.87291 0.871914 0
M  V30 3857 N 366.701 -5.59555 0.534245 0
M  V30 3858 H 358.852 -1.76941 1.17497 0
M  V30 3859 H 361.115 -0.822604 0.471197 0
M  V30 3860 H 360.821 -3.30234 1.2099 0
M  V30 3861 H 360.695 -3.74075 -0.484535 0
M  V30 3862 H 363.082 -2.82283 -0.860265 0
M  V30 3863 H 363.163 -2.40969 0.858335 0
M  V30 3864 H 362.807 -4.86954 1.44353 0
M  V30 3865 H 362.737 -5.2578 -0.293752 0
M  V30 3866 H 365.228 -3.77405 0.193356 0
M  V30 3867 H 365.541 -7.66058 1.01858 0
M  V30 3868 H 363.886 -6.89028 0.909145 0
M  V30 3869 H 367.077 -4.6698 0.323612 0
M  V30 3870 H 367.25 -6.44211 0.699693 0
M  V30 3871 N 360.656 0.0484629 -1.57525 0
M  V30 3872 C 361.566 1.07241 -2.08654 0
M  V30 3873 C 362.582 1.409 -1.02095 0
M  V30 3874 O 363.758 1.50609 -1.33712 0
M  V30 3875 C 360.823 2.36008 -2.5397 0
M  V30 3876 C 359.884 2.09108 -3.7493 0
M  V30 3877 C 359.117 3.31736 -4.18075 0
M  V30 3878 O 359.34 4.41714 -3.60895 0
M  V30 3879 O 358.274 3.18576 -5.10679 0
M  V30 3880 H 362.1 0.667965 -2.96263 0
M  V30 3881 H 359.685 0.26417 -1.47046 0
M  V30 3882 H 361.567 3.11747 -2.83535 0
M  V30 3883 H 360.242 2.75786 -1.69481 0
M  V30 3884 H 359.149 1.31 -3.50414 0
M  V30 3885 H 360.482 1.74198 -4.60343 0
M  V30 3886 N 362.134 1.5431 0.320358 0
M  V30 3887 C 363.545 1.63872 0.894594 0
M  V30 3888 C 363.896 0.534847 1.88769 0
M  V30 3889 O 363.021 -0.331732 2.13842 0
M  V30 3890 C 363.616 2.97049 1.62934 0
M  V30 3891 C 362.175 3.08796 2.15226 0
M  V30 3892 C 361.322 2.59456 0.978671 0
M  V30 3893 H 364.273 1.58398 0.0978544 0
M  V30 3894 H 364.294 2.87388 2.49376 0
M  V30 3895 H 363.806 3.7737 0.906302 0
M  V30 3896 H 361.907 2.33156 2.90636 0
M  V30 3897 H 362.02 4.14649 2.40006 0
M  V30 3898 H 360.384 2.1543 1.35875 0
M  V30 3899 H 361.167 3.42237 0.269895 0
M  V30 3900 N 363.613 -0.582584 1.46437 0
M  V30 3901 C 364.56 -1.69164 1.5701 0
M  V30 3902 C 365.53 -1.60847 0.414403 0
M  V30 3903 O 366.715 -1.80058 0.631171 0
M  V30 3904 C 363.855 -3.075 1.56646 0
M  V30 3905 C 362.968 -3.2644 2.82951 0
M  V30 3906 C 362.103 -4.55026 2.7409 0
M  V30 3907 C 361.142 -4.6731 3.95333 0
M  V30 3908 N 360.279 -5.87221 3.84858 0
M  V30 3909 H 365.119 -1.59464 2.51744 0
M  V30 3910 H 362.656 -0.777186 1.24893 0
M  V30 3911 H 364.614 -3.8757 1.5442 0
M  V30 3912 H 363.244 -3.16096 0.654439 0
M  V30 3913 H 362.296 -2.39974 2.95155 0
M  V30 3914 H 363.608 -3.31385 3.72808 0
M  V30 3915 H 362.762 -5.43324 2.6997 0
M  V30 3916 H 361.501 -4.52519 1.81873 0
M  V30 3917 H 360.506 -3.77429 3.99784 0
M  V30 3918 H 361.731 -4.71595 4.88646 0
M  V30 3919 H 359.677 -5.85712 2.95427 0
M  V30 3920 H 359.594 -5.93435 4.6837 0
M  V30 3921 H 360.862 -6.7795 3.84713 0
M  V30 3922 N 365.091 -1.34144 -0.827227 0
M  V30 3923 C 366.001 -1.27428 -1.96975 0
M  V30 3924 C 367.017 -0.182728 -1.73038 0
M  V30 3925 O 368.193 -0.408426 -1.97215 0
M  V30 3926 C 365.258 -1.02526 -3.31194 0
M  V30 3927 C 364.319 -2.20796 -3.68168 0
M  V30 3928 C 363.552 -1.97073 -4.95982 0
M  V30 3929 O 363.775 -0.926822 -5.6282 0
M  V30 3930 O 362.709 -2.83912 -5.30733 0
M  V30 3931 H 366.535 -2.23537 -2.05584 0
M  V30 3932 H 364.12 -1.14307 -0.961989 0
M  V30 3933 H 366.002 -0.904026 -4.11589 0
M  V30 3934 H 364.677 -0.0945389 -3.23562 0
M  V30 3935 H 363.584 -2.38477 -2.88235 0
M  V30 3936 H 364.917 -3.12243 -3.8048 0
M  V30 3937 N 366.569 1.04691 -1.17803 0
M  V30 3938 C 367.499 2.14494 -0.92275 0
M  V30 3939 C 368.48 1.69546 0.137179 0
M  V30 3940 O 369.665 1.94195 -0.0141108 0
M  V30 3941 C 366.795 3.44491 -0.440803 0
M  V30 3942 C 365.749 4.03031 -1.4405 0
M  V30 3943 C 365.075 5.28432 -0.81631 0
M  V30 3944 C 366.375 4.39932 -2.81527 0
M  V30 3945 H 368.069 2.36107 -1.84103 0
M  V30 3946 H 365.615 1.1347 -0.886599 0
M  V30 3947 H 367.568 4.2066 -0.249602 0
M  V30 3948 H 366.292 3.22546 0.513025 0
M  V30 3949 H 364.951 3.28937 -1.61853 0
M  V30 3950 H 364.599 5.02792 0.144511 0
M  V30 3951 H 364.299 5.68559 -1.48371 0
M  V30 3952 H 365.823 6.07284 -0.635496 0
M  V30 3953 H 367.237 5.07113 -2.67412 0
M  V30 3954 H 365.634 4.9109 -3.44892 0
M  V30 3955 H 366.704 3.50045 -3.35554 0
M  V30 3956 N 368.047 0.979072 1.23499 0
M  V30 3957 C 369.324 0.563674 1.87302 0
M  V30 3958 C 369.704 -0.959199 1.88049 0
M  V30 3959 O 369.052 -1.83535 1.36114 0
M  V30 3960 C 369.262 1.16822 3.28867 0
M  V30 3961 C 370.61 1.26014 4.0547 0
M  V30 3962 O 371.634 1.12158 3.38082 0
M  V30 3963 O 370.493 1.48044 5.26066 0
M  V30 3964 H 367.587 0.189602 0.804972 0
M  V30 3965 H 370.133 1.07407 1.31384 0
M  V30 3966 H 368.905 2.21049 3.22883 0
M  V30 3967 H 368.528 0.642564 3.92373 0
M  V30 3968 N 369.525 -1.3858 0.750561 0
M  V30 3969 C 370.936 -1.82927 0.373438 0
M  V30 3970 C 371.287 -1.62634 -1.09748 0
M  V30 3971 O 370.412 -1.12588 -1.84805 0
M  V30 3972 C 371.007 -3.32088 0.671029 0
M  V30 3973 C 369.566 -3.74795 0.34722 0
M  V30 3974 C 368.713 -2.61391 0.92575 0
M  V30 3975 H 371.664 -1.27351 0.946958 0
M  V30 3976 H 371.685 -3.80465 -0.0518269 0
M  V30 3977 H 371.197 -3.46826 1.74164 0
M  V30 3978 H 369.298 -3.65638 -0.716933 0
M  V30 3979 H 369.411 -4.71667 0.840656 0
M  V30 3980 H 367.775 -2.52265 0.351327 0
M  V30 3981 H 368.558 -2.78929 2.00133 0
M  V30 3982 N 371.003 -0.499398 -1.49478 0
M  V30 3983 C 372.252 0.0475259 -2.01644 0
M  V30 3984 C 372.565 1.38195 -1.38425 0
M  V30 3985 O 373.771 2.01547 -1.8191 0
M  V30 3986 C 372.227 0.135164 -3.59646 0
M  V30 3987 C 371.835 -1.19252 -4.31837 0
M  V30 3988 C 373.579 0.632538 -4.19761 0
M  V30 3989 C 371.486 -1.06713 -5.81693 0
M  V30 3990 H 370.416 0.0215349 -0.753692 0
M  V30 3991 H 373.067 -0.638577 -1.7203 0
M  V30 3992 H 371.449 0.885681 -3.85969 0
M  V30 3993 H 372.623 -1.9562 -4.17216 0
M  V30 3994 H 370.938 -1.62321 -3.83459 0
M  V30 3995 H 373.535 0.743833 -5.29501 0
M  V30 3996 H 373.878 1.63098 -3.83021 0
M  V30 3997 H 374.411 -0.0613987 -3.97753 0
M  V30 3998 H 371.15 -2.03979 -6.22955 0
M  V30 3999 H 370.67 -0.344307 -5.98811 0
M  V30 4000 H 372.349 -0.745208 -6.42694 0
M  V30 4001 N 372.481 1.55866 -0.233164 0
M  V30 4002 C 373.727 1.98897 0.395959 0
M  V30 4003 C 374.06 1.12091 1.58585 0
M  V30 4004 O 373.335 0.181182 1.93654 0
M  V30 4005 C 373.618 3.50658 0.819224 0
M  V30 4006 C 373.471 4.48233 -0.375109 0
M  V30 4007 C 374.79 4.07135 1.67121 0
M  V30 4008 H 371.909 0.723102 0.142451 0
M  V30 4009 H 374.551 1.87082 -0.331725 0
M  V30 4010 H 372.701 3.60857 1.43925 0
M  V30 4011 H 374.373 4.50031 -1.01341 0
M  V30 4012 H 372.616 4.21624 -1.02058 0
M  V30 4013 H 373.287 5.51988 -0.0358328 0
M  V30 4014 H 375.763 3.99952 1.14795 0
M  V30 4015 H 374.639 5.13615 1.93625 0
M  V30 4016 H 374.9 3.54736 2.63846 0
M  V30 4017 N 373.959 -0.0401083 1.57549 0
M  V30 4018 C 375.187 -0.745196 1.93014 0
M  V30 4019 C 375.602 -1.6948 0.831984 0
M  V30 4020 O 374.959 -1.81482 -0.192463 0
M  V30 4021 C 375.01 -1.51176 3.28372 0
M  V30 4022 O 374.731 -0.600284 4.33968 0
M  V30 4023 C 376.232 -2.315 3.78051 0
M  V30 4024 H 373.452 -0.210088 0.637263 0
M  V30 4025 H 375.996 -0.000924689 2.045 0
M  V30 4026 H 374.151 -2.20801 3.18317 0
M  V30 4027 H 374.565 -1.13669 5.12035 0
M  V30 4028 H 376.039 -2.80697 4.75303 0
M  V30 4029 H 376.516 -3.12436 3.08675 0
M  V30 4030 H 377.122 -1.66971 3.91153 0
M  V30 4031 N 375.437 -1.54477 -0.31217 0
M  V30 4032 C 376.853 -1.45442 -0.657185 0
M  V30 4033 C 377.053 -0.63653 -1.91182 0
M  V30 4034 O 376.109 -0.139815 -2.52113 0
M  V30 4035 C 377.422 -2.89287 -0.82058 0
M  V30 4036 C 378.97 -2.9926 -0.917188 0
M  V30 4037 C 379.445 -4.44279 -1.11267 0
M  V30 4038 N 380.936 -4.4794 -1.17914 0
M  V30 4039 C 381.671 -5.57318 -1.34848 0
M  V30 4040 N 381.167 -6.76642 -1.48752 0
M  V30 4041 N 382.96 -5.44986 -1.37647 0
M  V30 4042 H 375.111 -2.06129 0.512313 0
M  V30 4043 H 377.374 -0.933088 0.167485 0
M  V30 4044 H 377.08 -3.51687 0.0302604 0
M  V30 4045 H 376.954 -3.36061 -1.71298 0
M  V30 4046 H 379.341 -2.36981 -1.75852 0
M  V30 4047 H 379.422 -2.558 -0.00101257 0
M  V30 4048 H 379.066 -5.07149 -0.27614 0
M  V30 4049 H 378.996 -4.85359 -2.04289 0
M  V30 4050 H 381.487 -3.61969 -1.08567 0
M  V30 4051 H 381.8 -7.55758 -1.61397 0
M  V30 4052 H 380.145 -6.79529 -1.45828 0
M  V30 4053 H 383.336 -4.50715 -1.26388 0
M  V30 4054 H 383.509 -6.3028 -1.50501 0
M  V30 4055 N 376.915 0.57481 -1.46744 0
M  V30 4056 C 378.331 0.898981 -1.31873 0
M  V30 4057 C 378.531 1.99313 -0.29605 0
M  V30 4058 O 377.587 2.50728 0.298621 0
M  V30 4059 C 378.9 1.30886 -2.7072 0
M  V30 4060 C 380.448 1.42127 -2.78871 0
M  V30 4061 C 380.923 1.86478 -4.18318 0
M  V30 4062 N 382.414 1.93658 -4.20774 0
M  V30 4063 C 383.149 2.29267 -5.2557 0
M  V30 4064 N 382.645 2.63612 -6.40688 0
M  V30 4065 N 384.438 2.29889 -5.1294 0
M  V30 4066 H 376.589 -0.147839 -2.11885 0
M  V30 4067 H 378.852 -0.00347013 -0.947994 0
M  V30 4068 H 378.558 0.578853 -3.46904 0
M  V30 4069 H 378.432 2.26874 -3.01343 0
M  V30 4070 H 380.819 2.14213 -2.0297 0
M  V30 4071 H 380.9 0.443705 -2.51922 0
M  V30 4072 H 380.544 1.14968 -4.94717 0
M  V30 4073 H 380.474 2.85207 -4.42679 0
M  V30 4074 H 382.965 1.69574 -3.37718 0
M  V30 4075 H 383.278 2.89759 -7.16421 0
M  V30 4076 H 381.623 2.61232 -6.44036 0
M  V30 4077 H 384.814 2.02485 -4.22039 0
M  V30 4078 H 384.987 2.57312 -5.94722 0
M  V30 4079 N 378.394 1.34581 0.820102 0
M  V30 4080 C 379.624 1.29991 1.6058 0
M  V30 4081 C 380.032 -0.127588 1.88769 0
M  V30 4082 O 379.375 -1.08595 1.48165 0
M  V30 4083 C 379.437 2.02548 2.9701 0
M  V30 4084 C 379.101 3.51794 2.91701 0
M  V30 4085 C 380.098 4.46647 2.66087 0
M  V30 4086 C 377.783 3.94249 3.11245 0
M  V30 4087 C 379.777 5.81929 2.60071 0
M  V30 4088 C 377.464 5.2963 3.04853 0
M  V30 4089 C 378.462 6.23282 2.793 0
M  V30 4090 O 378.15 7.56181 2.72847 0
M  V30 4091 H 377.882 0.448539 0.505756 0
M  V30 4092 H 380.436 1.77811 1.02822 0
M  V30 4093 H 378.666 1.49345 3.56697 0
M  V30 4094 H 380.355 1.91211 3.58041 0
M  V30 4095 H 381.121 4.15168 2.5072 0
M  V30 4096 H 377 3.21749 3.30149 0
M  V30 4097 H 380.544 6.54999 2.40046 0
M  V30 4098 H 376.441 5.60727 3.19774 0
M  V30 4099 H 377.209 7.6595 2.88553 0
M  V30 4100 N 379.872 -1.04064 1.18357 0
M  V30 4101 C 381.102 -1.80654 1.00238 0
M  V30 4102 C 381.51 -1.83713 -0.452362 0
M  V30 4103 O 380.853 -1.27135 -1.32599 0
M  V30 4104 C 380.915 -3.27582 1.48088 0
M  V30 4105 C 380.579 -3.48184 2.96002 0
M  V30 4106 C 381.576 -3.39372 3.93856 0
M  V30 4107 C 379.261 -3.7478 3.34433 0
M  V30 4108 C 381.255 -3.5686 5.28138 0
M  V30 4109 C 378.942 -3.91915 4.68877 0
M  V30 4110 C 379.94 -3.82956 5.65539 0
M  V30 4111 O 379.628 -3.996 6.97549 0
M  V30 4112 H 379.36 -0.575751 0.354241 0
M  V30 4113 H 381.914 -1.32044 1.57333 0
M  V30 4114 H 380.144 -3.77161 0.853588 0
M  V30 4115 H 381.833 -3.8573 1.2636 0
M  V30 4116 H 382.599 -3.18789 3.65511 0
M  V30 4117 H 378.478 -3.80852 2.59756 0
M  V30 4118 H 382.022 -3.49783 6.03571 0
M  V30 4119 H 377.919 -4.11992 4.96923 0
M  V30 4120 H 378.687 -4.1676 7.04452 0
M  V30 4121 N 381.35 -0.985608 -1.22978 0
M  V30 4122 C 382.58 -0.674603 -1.95276 0
M  V30 4123 C 382.988 0.763483 -1.73111 0
M  V30 4124 O 382.331 1.52601 -1.02268 0
M  V30 4125 C 382.393 -0.891597 -3.48268 0
M  V30 4126 C 382.057 -2.31275 -3.94158 0
M  V30 4127 C 383.054 -3.29179 -4.02415 0
M  V30 4128 C 380.739 -2.64524 -4.27004 0
M  V30 4129 C 382.733 -4.58407 -4.42879 0
M  V30 4130 C 380.42 -3.93974 -4.67149 0
M  V30 4131 C 381.418 -4.90727 -4.75053 0
M  V30 4132 O 381.106 -6.17865 -5.14294 0
M  V30 4133 H 380.838 -0.249251 -0.628371 0
M  V30 4134 H 383.392 -1.32106 -1.5728 0
M  V30 4135 H 381.622 -0.187962 -3.86243 0
M  V30 4136 H 383.311 -0.576957 -4.01779 0
M  V30 4137 H 384.077 -3.04823 -3.77237 0
M  V30 4138 H 379.956 -1.89923 -4.2006 0
M  V30 4139 H 383.5 -5.33926 -4.48964 0
M  V30 4140 H 379.397 -4.18122 -4.91777 0
M  V30 4141 H 380.165 -6.21694 -5.32389 0
M  V30 4142 N 382.828 1.3818 -0.7579 0
M  V30 4143 C 384.053 2.04827 -0.325679 0
M  V30 4144 C 384.478 1.56788 1.03919 0
M  V30 4145 O 383.836 0.721811 1.66312 0
M  V30 4146 C 383.884 3.58774 -0.362447 0
M  V30 4147 O 382.988 4.07372 0.642033 0
M  V30 4148 H 382.329 0.64833 -0.143402 0
M  V30 4149 H 384.859 1.7677 -1.03023 0
M  V30 4150 H 384.869 4.07434 -0.214844 0
M  V30 4151 H 383.544 3.93096 -1.35824 0
M  V30 4152 H 382.121 3.70068 0.458688 0
M  V30 4153 N 384.306 0.507319 1.49211 0
M  V30 4154 C 385.555 -0.0368315 2.01666 0
M  V30 4155 C 385.868 -1.37459 1.39156 0
M  V30 4156 O 387.074 -2.00579 1.82976 0
M  V30 4157 C 385.53 -0.116089 3.59713 0
M  V30 4158 C 385.138 1.2154 4.31198 0
M  V30 4159 C 386.882 -0.610268 4.2009 0
M  V30 4160 C 384.789 1.09796 5.81119 0
M  V30 4161 H 383.719 -0.0175376 0.753796 0
M  V30 4162 H 386.37 0.647691 1.71689 0
M  V30 4163 H 384.752 -0.8652 3.86433 0
M  V30 4164 H 385.926 1.9783 4.16173 0
M  V30 4165 H 384.241 1.64352 3.82593 0
M  V30 4166 H 386.838 -0.715742 5.29888 0
M  V30 4167 H 387.181 -1.61064 3.8388 0
M  V30 4168 H 387.714 0.0824916 3.97714 0
M  V30 4169 H 384.453 2.0728 6.21864 0
M  V30 4170 H 383.973 0.376058 5.9862 0
M  V30 4171 H 385.652 0.779281 6.4229 0
M  V30 4172 N 385.784 -1.5574 0.241426 0
M  V30 4173 C 386.731 -2.21149 -0.660432 0
M  V30 4174 C 387.701 -1.17356 -1.17545 0
M  V30 4175 O 388.886 -1.45784 -1.23093 0
M  V30 4176 C 386.026 -2.91059 -1.85414 0
M  V30 4177 C 385.139 -4.09495 -1.37616 0
M  V30 4178 C 384.274 -4.67135 -2.529 0
M  V30 4179 C 383.313 -5.77831 -2.01936 0
M  V30 4180 N 382.45 -6.29677 -3.10566 0
M  V30 4181 H 387.29 -2.97845 -0.095955 0
M  V30 4182 H 384.827 -1.47057 -0.0356024 0
M  V30 4183 H 386.785 -3.29788 -2.5553 0
M  V30 4184 H 385.415 -2.16846 -2.39118 0
M  V30 4185 H 384.467 -3.76117 -0.569235 0
M  V30 4186 H 385.779 -4.89423 -0.962618 0
M  V30 4187 H 384.933 -5.08409 -3.31067 0
M  V30 4188 H 383.672 -3.86411 -2.97553 0
M  V30 4189 H 382.677 -5.36039 -1.22238 0
M  V30 4190 H 383.902 -6.60402 -1.58259 0
M  V30 4191 H 381.848 -5.5186 -3.54664 0
M  V30 4192 H 381.765 -7.04783 -2.73526 0
M  V30 4193 H 383.033 -6.75609 -3.88809 0
M  V30 4194 N 387.262 0.0317525 -1.57568 0
M  V30 4195 C 388.539 0.758366 -1.803 0
M  V30 4196 C 388.919 1.93718 -0.838845 0
M  V30 4197 O 388.267 2.28187 0.119571 0
M  V30 4198 C 388.477 1.19392 -3.27943 0
M  V30 4199 C 389.825 1.61094 -3.92854 0
M  V30 4200 O 390.849 1.28857 -3.32076 0
M  V30 4201 O 389.708 2.20918 -4.99858 0
M  V30 4202 H 386.802 0.366514 -0.741348 0
M  V30 4203 H 389.348 0.00873765 -1.69698 0
M  V30 4204 H 388.12 0.352275 -3.89711 0
M  V30 4205 H 387.743 2.00365 -3.43424 0
M  V30 4206 N 388.74 1.54641 0.303973 0
M  V30 4207 C 389.989 1.7299 1.03717 0
M  V30 4208 C 390.302 0.521168 1.88529 0
M  V30 4209 O 391.508 0.586408 2.65092 0
M  V30 4210 C 389.964 3.06051 1.89369 0
M  V30 4211 C 389.572 4.34393 1.09574 0
M  V30 4212 C 391.316 3.3376 2.62306 0
M  V30 4213 C 389.223 5.58506 1.94486 0
M  V30 4214 H 388.153 0.64473 0.390947 0
M  V30 4215 H 390.804 1.81124 0.294328 0
M  V30 4216 H 389.186 2.91874 2.67629 0
M  V30 4217 H 390.36 4.59396 0.359485 0
M  V30 4218 H 388.675 4.13597 0.482324 0
M  V30 4219 H 391.272 4.23687 3.26181 0
M  V30 4220 H 391.615 2.52503 3.3098 0
M  V30 4221 H 392.148 3.48894 1.91097 0
M  V30 4222 H 388.887 6.42422 1.30287 0
M  V30 4223 H 388.407 5.37694 2.65792 0
M  V30 4224 H 390.086 5.95651 2.52605 0
M  V30 4225 N 390.218 -0.567019 1.47046 0
M  V30 4226 C 391.443 -1.3551 1.57009 0
M  V30 4227 C 391.868 -1.86841 0.217259 0
M  V30 4228 O 391.226 -1.62435 -0.805268 0
M  V30 4229 C 391.274 -2.50777 2.5912 0
M  V30 4230 O 390.378 -3.52706 2.13711 0
M  V30 4231 H 389.719 -0.402919 0.52778 0
M  V30 4232 H 392.249 -0.686241 1.92748 0
M  V30 4233 H 392.259 -2.97481 2.79229 0
M  V30 4234 H 390.934 -2.12771 3.57353 0
M  V30 4235 H 389.511 -3.12374 2.03659 0
M  V30 4236 N 391.696 -1.35014 -0.812953 0
M  V30 4237 C 392.942 -1.2812 -1.57204 0
M  V30 4238 C 393.275 0.145869 -1.93651 0
M  V30 4239 O 392.55 1.0937 -1.60836 0
M  V30 4240 C 392.833 -2.18162 -2.86492 0
M  V30 4241 C 392.686 -3.69454 -2.56561 0
M  V30 4242 C 394.005 -2.07439 -3.88145 0
M  V30 4243 H 391.124 -0.466746 -0.570366 0
M  V30 4244 H 393.766 -1.65357 -0.935783 0
M  V30 4245 H 391.916 -1.86535 -3.40789 0
M  V30 4246 H 393.588 -4.11493 -2.08497 0
M  V30 4247 H 391.831 -3.9005 -1.89851 0
M  V30 4248 H 392.502 -4.27835 -3.48799 0
M  V30 4249 H 394.978 -2.35228 -3.4323 0
M  V30 4250 H 393.854 -2.7265 -4.76396 0
M  V30 4251 H 394.115 -1.05439 -4.29343 0
M  V30 4252 N 393.175 1.03435 -1.18907 0
M  V30 4253 C 394.423 1.76394 -0.986382 0
M  V30 4254 C 394.744 1.88883 0.484567 0
M  V30 4255 O 394.014 1.41843 1.3512 0
M  V30 4256 H 392.594 0.65344 -0.361975 0
M  V30 4257 H 395.256 1.248 -1.49703 0
M  V30 4258 H 394.352 2.77424 -1.42978 0
M  V30 4259 N 394.653 0.992116 1.22453 0
M  V30 4260 C 395.901 0.666215 1.90804 0
M  V30 4261 C 396.222 -0.804152 1.77647 0
M  V30 4262 O 395.492 -1.57629 1.16318 0
M  V30 4263 H 394.072 0.243423 0.706225 0
M  V30 4264 H 396.734 1.25845 1.48825 0
M  V30 4265 H 395.83 0.928069 2.97982 0
M  V30 4266 N 396.131 -1.37776 0.765217 0
M  V30 4267 C 397.064 -2.28008 0.0935025 0
M  V30 4268 C 398.042 -1.45985 -0.716047 0
M  V30 4269 O 399.226 -1.75331 -0.692203 0
M  V30 4270 C 396.353 -3.27228 -0.874052 0
M  V30 4271 C 395.399 -4.26239 -0.149307 0
M  V30 4272 S 396.232 -5.22827 1.15809 0
M  V30 4273 C 397.388 -6.256 0.193906 0
M  V30 4274 H 397.621 -2.84631 0.858637 0
M  V30 4275 H 395.154 -1.43952 0.558313 0
M  V30 4276 H 397.112 -3.84902 -1.42691 0
M  V30 4277 H 395.773 -2.69565 -1.61225 0
M  V30 4278 H 394.966 -4.96213 -0.88254 0
M  V30 4279 H 394.568 -3.7252 0.332366 0
M  V30 4280 H 396.86 -6.74508 -0.636011 0
M  V30 4281 H 397.803 -7.02838 0.861638 0
M  V30 4282 H 398.211 -5.64173 -0.191975 0
M  V30 4283 N 397.609 -0.515225 -1.4894 0
M  V30 4284 C 398.849 0.0223983 -2.04388 0
M  V30 4285 C 399.213 1.32961 -1.38511 0
M  V30 4286 O 400.414 1.95236 -1.8476 0
M  V30 4287 C 398.685 0.157056 -3.57055 0
M  V30 4288 S 400.244 0.646875 -4.34006 0
M  V30 4289 H 397.062 -0.00500662 -0.710982 0
M  V30 4290 H 399.664 -0.69243 -1.82827 0
M  V30 4291 H 398.368 -0.799412 -4.02539 0
M  V30 4292 H 397.899 0.896704 -3.83044 0
M  V30 4293 H 399.914 1.91381 -4.57808 0
M  V30 4294 N 399.087 1.5561 -0.249682 0
M  V30 4295 C 400.336 1.98187 0.37479 0
M  V30 4296 C 400.649 1.14111 1.58865 0
M  V30 4297 O 401.855 1.46714 2.28445 0
M  V30 4298 C 400.311 3.52661 0.718192 0
M  V30 4299 C 399.919 4.45481 -0.474428 0
M  V30 4300 C 401.663 4.03888 1.3067 0
M  V30 4301 C 399.57 5.91303 -0.107026 0
M  V30 4302 H 398.5 0.740159 0.143808 0
M  V30 4303 H 401.151 1.80125 -0.350336 0
M  V30 4304 H 399.533 3.66429 1.50152 0
M  V30 4305 H 400.707 4.43473 -1.25172 0
M  V30 4306 H 399.022 4.04751 -0.978052 0
M  V30 4307 H 401.619 5.10358 1.59496 0
M  V30 4308 H 401.962 3.51401 2.23211 0
M  V30 4309 H 402.495 3.93457 0.586211 0
M  V30 4310 H 399.234 6.47833 -0.999642 0
M  V30 4311 H 398.754 5.9644 0.634013 0
M  V30 4312 H 400.433 6.46258 0.309807 0
M  V30 4313 N 400.565 -0.0233959 1.57583 0
M  V30 4314 C 401.805 -0.71784 1.9138 0
M  V30 4315 C 402.169 -1.72216 0.848853 0
M  V30 4316 O 403.37 -2.46527 1.07134 0
M  V30 4317 C 401.641 -1.36489 3.30311 0
M  V30 4318 S 403.2 -2.0877 3.85954 0
M  V30 4319 H 400.018 -0.237676 0.670098 0
M  V30 4320 H 402.62 0.0276709 1.9548 0
M  V30 4321 H 401.324 -0.620782 4.05678 0
M  V30 4322 H 400.855 -2.14883 3.29528 0
M  V30 4323 H 402.87 -3.35988 3.65139 0
M  V30 4324 N 402.043 -1.548 -0.295768 0
M  V30 4325 C 403.273 -1.78069 -1.04762 0
M  V30 4326 C 403.681 -0.542847 -1.81245 0
M  V30 4327 O 403.024 0.497051 -1.76848 0
M  V30 4328 C 403.086 -2.93881 -2.07061 0
M  V30 4329 C 402.75 -4.31777 -1.49725 0
M  V30 4330 C 403.747 -5.11613 -0.924581 0
M  V30 4331 C 401.432 -4.78389 -1.5313 0
M  V30 4332 C 403.426 -6.36184 -0.393594 0
M  V30 4333 C 401.113 -6.02921 -0.996447 0
M  V30 4334 C 402.111 -6.81654 -0.428569 0
M  V30 4335 O 401.799 -8.0384 0.0981593 0
M  V30 4336 H 401.531 -0.597475 -0.316226 0
M  V30 4337 H 404.085 -2.02584 -0.338973 0
M  V30 4338 H 402.315 -2.65003 -2.81621 0
M  V30 4339 H 404.004 -3.04679 -2.6819 0
M  V30 4340 H 404.77 -4.76743 -0.891136 0
M  V30 4341 H 400.649 -4.17132 -1.9627 0
M  V30 4342 H 404.193 -6.97582 0.0503014 0
M  V30 4343 H 400.09 -6.37277 -1.02706 0
M  V30 4344 H 400.858 -8.18499 -0.0146455 0
M  V30 4345 N 403.521 0.559213 -1.47345 0
M  V30 4346 C 404.769 1.31388 -1.53563 0
M  V30 4347 C 405.09 1.93985 -0.198678 0
M  V30 4348 O 404.36 1.79825 0.777167 0
M  V30 4349 H 402.94 0.487901 -0.565652 0
M  V30 4350 H 405.602 0.65315 -1.8363 0
M  V30 4351 H 404.698 2.10844 -2.30111 0
M  V30 4352 N 404.999 1.35443 0.805782 0
M  V30 4353 C 405.949 1.24972 1.90699 0
M  V30 4354 C 406.933 0.144806 1.60247 0
M  V30 4355 O 408.125 0.376102 1.72958 0
M  V30 4356 C 405.254 1.02475 3.27649 0
M  V30 4357 C 404.34 2.17361 3.64164 0
M  V30 4358 N 404.731 3.42591 3.72109 0
M  V30 4359 C 403.029 2.08765 3.94123 0
M  V30 4360 C 403.73 4.18144 4.04389 0
M  V30 4361 N 402.706 3.4691 4.18515 0
M  V30 4362 H 406.508 2.19852 1.95044 0
M  V30 4363 H 404.022 1.27928 1.00041 0
M  V30 4364 H 406.019 0.930617 4.06381 0
M  V30 4365 H 404.679 0.0848009 3.24589 0
M  V30 4366 H 405.69 3.76932 3.55166 0
M  V30 4367 H 402.367 1.22629 3.99084 0
M  V30 4368 H 403.757 5.26367 4.17597 0
M  V30 4369 N 406.477 -1.02803 1.19454 0
M  V30 4370 C 407.44 -2.09264 0.934955 0
M  V30 4371 C 408.44 -1.60576 -0.0849015 0
M  V30 4372 O 409.63 -1.73554 0.149933 0
M  V30 4373 C 406.762 -3.38482 0.40531 0
M  V30 4374 H 407.955 -2.33726 1.87916 0
M  V30 4375 H 405.508 -1.19426 1.00832 0
M  V30 4376 H 406.243 -3.19689 -0.544899 0
M  V30 4377 H 406.028 -3.75142 1.14065 0
M  V30 4378 H 407.518 -4.16894 0.242806 0
M  V30 4379 N 407.956 -0.998596 -1.21925 0
M  V30 4380 C 409.181 -0.696015 -1.95372 0
M  V30 4381 C 409.606 0.733826 -1.73195 0
M  V30 4382 O 408.964 1.50242 -1.01474 0
M  V30 4383 C 409.012 -1.01466 -3.4603 0
M  V30 4384 O 408.116 -0.116415 -4.12236 0
M  V30 4385 H 407.457 -0.259938 -0.611006 0
M  V30 4386 H 409.987 -1.33711 -1.54863 0
M  V30 4387 H 409.997 -0.958855 -3.96573 0
M  V30 4388 H 408.672 -2.05653 -3.61497 0
M  V30 4389 H 407.249 -0.228193 -3.72201 0
M  V30 4390 N 409.434 1.37368 -0.772513 0
M  V30 4391 C 410.659 2.0447 -0.347386 0
M  V30 4392 C 411.084 1.57882 1.0225 0
M  V30 4393 O 410.442 0.73941 1.65537 0
M  V30 4394 C 410.49 3.58369 -0.400479 0
M  V30 4395 O 409.594 4.0803 0.598789 0
M  V30 4396 H 408.935 0.646773 -0.15027 0
M  V30 4397 H 411.465 1.75667 -1.04892 0
M  V30 4398 H 411.475 4.07183 -0.258045 0
M  V30 4399 H 410.15 3.91633 -1.39986 0
M  V30 4400 H 408.727 3.70534 0.419411 0
M  V30 4401 N 410.912 0.523116 1.48665 0
M  V30 4402 C 412.152 -0.0115588 2.04397 0
M  V30 4403 C 412.516 -1.32225 1.39214 0
M  V30 4404 O 413.717 -1.94253 1.85793 0
M  V30 4405 C 411.988 -0.138119 3.57133 0
M  V30 4406 S 413.547 -0.623849 4.34343 0
M  V30 4407 H 410.365 0.00877706 0.710946 0
M  V30 4408 H 412.967 0.702116 1.82457 0
M  V30 4409 H 411.671 0.820748 4.02109 0
M  V30 4410 H 411.202 -0.876377 3.83514 0
M  V30 4411 H 413.217 -1.8895 4.58816 0
M  V30 4412 N 412.39 -1.55475 0.257931 0
M  V30 4413 C 413.801 -1.8511 -0.243135 0
M  V30 4414 C 414.152 -1.17986 -1.5676 0
M  V30 4415 O 413.277 -0.462102 -2.11409 0
M  V30 4416 C 413.872 -3.35826 -0.447929 0
M  V30 4417 C 412.431 -3.65647 -0.893245 0
M  V30 4418 C 411.578 -2.7729 0.0232965 0
M  V30 4419 H 414.529 -1.51261 0.480199 0
M  V30 4420 H 414.55 -3.58002 -1.28898 0
M  V30 4421 H 414.062 -3.84652 0.516196 0
M  V30 4422 H 412.163 -3.22308 -1.86945 0
M  V30 4423 H 412.276 -4.73312 -0.742469 0
M  V30 4424 H 410.64 -2.49942 -0.490021 0
M  V30 4425 H 411.423 -3.28926 0.982994 0
M  V30 4426 N 413.868 0.0150385 -1.57593 0
M  V30 4427 C 415.114 0.69849 -1.91031 0
M  V30 4428 C 415.469 1.72208 -0.85804 0
M  V30 4429 O 414.762 1.91147 0.131614 0
M  V30 4430 C 414.956 1.39686 -3.28972 0
M  V30 4431 C 414.785 0.442428 -4.47518 0
M  V30 4432 C 413.555 0.0583223 -5.05266 0
M  V30 4433 C 415.753 -0.285072 -5.13509 0
M  V30 4434 N 413.735 -0.895893 -6.07328 0
M  V30 4435 C 415.106 -1.09447 -6.10263 0
M  V30 4436 C 417.161 -0.350518 -4.96665 0
M  V30 4437 C 415.864 -1.96333 -6.91987 0
M  V30 4438 C 417.89 -1.20655 -5.78962 0
M  V30 4439 C 417.252 -2.00383 -6.75297 0
M  V30 4440 H 413.351 0.22926 -0.747639 0
M  V30 4441 H 415.935 -0.0417748 -1.94655 0
M  V30 4442 H 414.106 2.1075 -3.2625 0
M  V30 4443 H 415.838 2.03381 -3.49883 0
M  V30 4444 H 412.593 0.423506 -4.71703 0
M  V30 4445 H 413.017 -1.36792 -6.63036 0
M  V30 4446 H 417.659 0.251596 -4.22051 0
M  V30 4447 H 415.377 -2.57618 -7.65936 0
M  V30 4448 H 418.963 -1.2609 -5.67972 0
M  V30 4449 H 417.843 -2.65552 -7.3787 0
M  V30 4450 N 415.346 1.54954 0.287554 0
M  V30 4451 C 416.623 1.65569 1.04146 0
M  V30 4452 C 417.003 0.512672 2.0478 0
M  V30 4453 O 416.351 -0.489038 2.23205 0
M  V30 4454 C 416.561 3.04163 1.71131 0
M  V30 4455 C 417.909 3.61429 2.22832 0
M  V30 4456 O 418.933 3.06702 1.81141 0
M  V30 4457 O 417.792 4.57281 2.9926 0
M  V30 4458 H 414.886 0.671881 0.482188 0
M  V30 4459 H 417.432 1.67297 0.28457 0
M  V30 4460 H 416.204 3.78796 0.981303 0
M  V30 4461 H 415.827 3.06271 2.53543 0
M  V30 4462 N 416.824 -0.551391 1.4764 0
M  V30 4463 C 417.734 -1.68525 1.63207 0
M  V30 4464 C 418.75 -1.6621 0.514815 0
M  V30 4465 O 419.926 -1.85551 0.783113 0
M  V30 4466 C 416.991 -3.05025 1.64805 0
M  V30 4467 C 416.052 -3.18362 2.88 0
M  V30 4468 C 415.285 -4.4835 2.89513 0
M  V30 4469 O 415.508 -5.34163 2.00065 0
M  V30 4470 O 414.442 -4.65602 3.81443 0
M  V30 4471 H 418.268 -1.58333 2.59161 0
M  V30 4472 H 415.853 -0.722063 1.30792 0
M  V30 4473 H 417.735 -3.86245 1.68502 0
M  V30 4474 H 416.41 -3.15587 0.720197 0
M  V30 4475 H 415.317 -2.36518 2.89845 0
M  V30 4476 H 416.65 -3.12707 3.80099 0
M  V30 4477 N 418.302 -1.35869 -0.798587 0
M  V30 4478 C 419.53 -1.32722 -1.58722 0
M  V30 4479 C 419.945 0.0935631 -1.88568 0
M  V30 4480 O 419.302 1.04784 -1.49421 0
M  V30 4481 C 419.353 -2.13974 -2.91371 0
M  V30 4482 O 419.074 -3.50514 -2.62815 0
M  V30 4483 C 420.575 -2.18504 -3.85708 0
M  V30 4484 H 417.795 -0.45562 -0.492596 0
M  V30 4485 H 420.339 -1.78837 -0.991843 0
M  V30 4486 H 418.494 -1.71438 -3.47402 0
M  V30 4487 H 418.908 -3.92806 -3.47568 0
M  V30 4488 H 420.382 -2.79732 -4.75872 0
M  V30 4489 H 420.859 -1.18597 -4.22885 0
M  V30 4490 H 421.465 -2.61236 -3.35612 0
M  V30 4491 N 419.78 1.02168 -1.19998 0
M  V30 4492 C 421.008 1.79296 -1.03249 0
M  V30 4493 C 421.423 1.84103 0.418502 0
M  V30 4494 O 420.78 1.29031 1.29063 0
M  V30 4495 C 420.831 3.24007 -1.60319 0
M  V30 4496 O 420.552 3.19512 -2.99739 0
M  V30 4497 C 422.053 4.17704 -1.48453 0
M  V30 4498 H 419.273 0.564016 -0.363493 0
M  V30 4499 H 421.817 1.28639 -1.58973 0
M  V30 4500 H 419.972 3.7183 -1.08727 0
M  V30 4501 H 420.386 4.10306 -3.26725 0
M  V30 4502 H 421.86 5.17104 -1.93153 0
M  V30 4503 H 422.337 4.37029 -0.436193 0
M  V30 4504 H 422.943 3.7576 -1.99211 0
M  V30 4505 N 421.258 1.00505 1.21394 0
M  V30 4506 C 422.205 0.565496 2.23765 0
M  V30 4507 C 423.175 -0.408466 1.60999 0
M  V30 4508 O 424.36 -0.310503 1.88257 0
M  V30 4509 C 421.5 -0.101667 3.4495 0
M  V30 4510 C 420.613 0.915479 4.22188 0
M  V30 4511 C 419.748 0.220574 5.30742 0
M  V30 4512 C 418.787 1.22527 5.99711 0
M  V30 4513 N 417.924 0.557831 6.9988 0
M  V30 4514 H 422.764 1.44314 2.60725 0
M  V30 4515 H 420.301 0.722643 1.28126 0
M  V30 4516 H 422.259 -0.505504 4.14126 0
M  V30 4517 H 420.889 -0.94303 3.08718 0
M  V30 4518 H 419.941 1.43756 3.52191 0
M  V30 4519 H 421.253 1.68005 4.69655 0
M  V30 4520 H 420.407 -0.239368 6.06228 0
M  V30 4521 H 419.146 -0.576401 4.84282 0
M  V30 4522 H 418.151 1.69571 5.22997 0
M  V30 4523 H 419.376 2.02332 6.48258 0
M  V30 4524 H 417.322 -0.219486 6.55633 0
M  V30 4525 H 417.239 1.26065 7.45415 0
M  V30 4526 H 418.507 0.121095 7.79406 0
M  V30 4527 N 422.737 -1.36956 0.779787 0
M  V30 4528 C 423.684 -2.30175 0.169697 0
M  V30 4529 C 424.654 -1.51501 -0.68094 0
M  V30 4530 O 425.839 -1.80042 -0.631629 0
M  V30 4531 C 422.979 -3.37985 -0.697131 0
M  V30 4532 C 422.092 -4.31661 0.170992 0
M  V30 4533 C 421.227 -5.2655 -0.701298 0
M  V30 4534 C 420.266 -6.11867 0.168869 0
M  V30 4535 N 419.403 -6.98973 -0.661855 0
M  V30 4536 H 424.243 -2.81767 0.970135 0
M  V30 4537 H 421.78 -1.38699 0.489994 0
M  V30 4538 H 423.738 -3.99128 -1.2146 0
M  V30 4539 H 422.368 -2.87739 -1.46309 0
M  V30 4540 H 421.42 -3.71756 0.80634 0
M  V30 4541 H 422.732 -4.91644 0.841875 0
M  V30 4542 H 421.886 -5.92937 -1.28494 0
M  V30 4543 H 420.625 -4.66998 -1.40584 0
M  V30 4544 H 419.63 -5.44452 0.764986 0
M  V30 4545 H 420.855 -6.73493 0.870863 0
M  V30 4546 H 418.801 -6.41941 -1.35086 0
M  V30 4547 H 418.718 -7.55984 -0.0484447 0
M  V30 4548 H 419.986 -7.6974 -1.22963 0
M  V30 4549 N 424.215 -0.530993 -1.48385 0
M  V30 4550 C 425.145 0.219985 -2.32461 0
M  V30 4551 C 426.126 0.934111 -1.42156 0
M  V30 4552 O 427.311 0.919694 -1.71042 0
M  V30 4553 C 424.441 1.26674 -3.23375 0
M  V30 4554 C 423.395 0.67069 -4.22712 0
M  V30 4555 C 422.721 1.82017 -5.02766 0
M  V30 4556 C 424.021 -0.358268 -5.2107 0
M  V30 4557 H 425.715 -0.48187 -2.95497 0
M  V30 4558 H 423.261 -0.233182 -1.42099 0
M  V30 4559 H 425.214 1.80006 -3.81019 0
M  V30 4560 H 423.938 1.99818 -2.58341 0
M  V30 4561 H 422.597 0.158878 -3.66256 0
M  V30 4562 H 422.245 2.54002 -4.34157 0
M  V30 4563 H 421.945 1.42727 -5.70003 0
M  V30 4564 H 423.469 2.35725 -5.63264 0
M  V30 4565 H 424.883 0.0880081 -5.73232 0
M  V30 4566 H 423.28 -0.66861 -5.96364 0
M  V30 4567 H 424.35 -1.26367 -4.68145 0
M  V30 4568 N 425.693 1.55336 -0.266172 0
M  V30 4569 C 426.625 2.19544 0.658247 0
M  V30 4570 C 427.638 1.17746 1.12427 0
M  V30 4571 O 428.827 1.44517 1.04772 0
M  V30 4572 C 425.927 2.80032 1.9088 0
M  V30 4573 C 425.1 4.07436 1.59106 0
M  V30 4574 C 424.159 4.52056 2.69317 0
M  V30 4575 O 423.185 5.18023 2.35883 0
M  V30 4576 N 424.387 4.21448 3.99201 0
M  V30 4577 H 427.152 2.99503 0.108754 0
M  V30 4578 H 424.713 1.61667 -0.0869059 0
M  V30 4579 H 426.705 3.06831 2.63888 0
M  V30 4580 H 425.275 2.04119 2.36758 0
M  V30 4581 H 424.495 3.88021 0.695243 0
M  V30 4582 H 425.783 4.90462 1.35367 0
M  V30 4583 H 425.181 3.68528 4.29189 0
M  V30 4584 H 423.738 4.53039 4.68614 0
M  V30 4585 N 427.171 -0.0066808 1.57599 0
M  V30 4586 C 428.411 -0.697501 1.92131 0
M  V30 4587 C 428.775 -1.71306 0.867071 0
M  V30 4588 O 429.976 -2.45377 1.09743 0
M  V30 4589 C 428.247 -1.32978 3.3174 0
M  V30 4590 S 429.806 -2.04665 3.88146 0
M  V30 4591 H 426.624 -0.230555 0.672581 0
M  V30 4592 H 429.226 0.0484026 1.9544 0
M  V30 4593 H 427.93 -0.57772 4.06313 0
M  V30 4594 H 427.461 -2.11376 3.31789 0
M  V30 4595 H 429.476 -3.32097 3.68682 0
M  V30 4596 N 428.649 -1.55105 -0.279332 0
M  V30 4597 C 429.581 -1.83952 -1.36727 0
M  V30 4598 C 430.594 -0.723642 -1.45833 0
M  V30 4599 O 431.783 -1.00141 -1.47763 0
M  V30 4600 C 428.883 -1.98183 -2.74912 0
M  V30 4601 C 428.056 -3.28787 -2.88475 0
M  V30 4602 C 427.115 -3.33162 -4.07295 0
M  V30 4603 O 426.141 -4.06576 -3.98353 0
M  V30 4604 N 427.343 -2.60109 -5.18964 0
M  V30 4605 H 430.108 -2.77853 -1.12328 0
M  V30 4606 H 427.669 -1.54945 -0.469442 0
M  V30 4607 H 429.661 -1.98488 -3.52682 0
M  V30 4608 H 428.231 -1.11177 -2.92162 0
M  V30 4609 H 427.451 -3.41075 -1.97641 0
M  V30 4610 H 428.739 -4.14933 -2.94463 0
M  V30 4611 H 428.137 -2.00136 -5.29115 0
M  V30 4612 H 426.694 -2.66143 -5.94988 0
M  V30 4613 N 430.127 0.543554 -1.4793 0
M  V30 4614 C 431.367 1.31072 -1.56843 0
M  V30 4615 C 431.731 1.90604 -0.231124 0
M  V30 4616 O 432.932 2.68091 -0.195165 0
M  V30 4617 C 431.203 2.38106 -2.66533 0
M  V30 4618 S 432.762 3.24729 -2.95122 0
M  V30 4619 H 429.58 0.446035 -0.553691 0
M  V30 4620 H 432.182 0.620777 -1.85382 0
M  V30 4621 H 430.886 1.92828 -3.62278 0
M  V30 4622 H 430.417 3.11824 -2.39852 0
M  V30 4623 H 432.432 4.37891 -2.3338 0
M  V30 4624 N 431.605 1.3629 0.791371 0
M  V30 4625 C 432.515 1.32606 1.93527 0
M  V30 4626 C 433.531 0.228541 1.72493 0
M  V30 4627 O 434.707 0.460571 1.96063 0
M  V30 4628 C 431.772 1.11271 3.28359 0
M  V30 4629 C 430.833 2.3048 3.62185 0
M  V30 4630 C 430.066 2.10154 4.90583 0
M  V30 4631 O 430.289 1.07572 5.60165 0
M  V30 4632 O 429.223 2.97884 5.23019 0
M  V30 4633 H 433.049 2.28909 1.99585 0
M  V30 4634 H 430.634 1.16818 0.931344 0
M  V30 4635 H 432.516 1.01283 4.09047 0
M  V30 4636 H 431.191 0.180292 3.23198 0
M  V30 4637 H 430.098 2.46036 2.81811 0
M  V30 4638 H 431.431 3.22221 3.72068 0
M  V30 4639 N 433.083 -1.0153 1.20538 0
M  V30 4640 C 434.033 -2.08482 0.922991 0
M  V30 4641 C 435.017 -1.60469 -0.117702 0
M  V30 4642 O 436.209 -1.76772 0.0898465 0
M  V30 4643 C 433.338 -3.39952 0.478312 0
M  V30 4644 C 432.424 -3.94662 1.5525 0
M  V30 4645 N 432.815 -4.22866 2.77521 0
M  V30 4646 C 431.113 -4.22825 1.41897 0
M  V30 4647 C 431.814 -4.67002 3.4682 0
M  V30 4648 N 430.79 -4.69356 2.74237 0
M  V30 4649 H 434.592 -2.28199 1.85209 0
M  V30 4650 H 432.106 -1.19512 1.09957 0
M  V30 4651 H 434.103 -4.16105 0.257408 0
M  V30 4652 H 432.763 -3.21648 -0.444148 0
M  V30 4653 H 433.774 -4.11732 3.1416 0
M  V30 4654 H 430.451 -4.13714 0.561015 0
M  V30 4655 H 431.841 -4.97632 4.51455 0
M  V30 4656 N 434.561 -1.01147 -1.20859 0
M  V30 4657 C 435.509 -0.57059 -2.25493 0
M  V30 4658 C 436.503 0.388109 -1.64894 0
M  V30 4659 O 437.709 0.258592 -1.78133 0
M  V30 4660 H 434.084 -0.166191 -0.733406 0
M  V30 4661 H 436.055 -1.46411 -2.60012 0
M  V30 4662 C 434.804 0.0805241 -3.47607 0
M  V30 4663 H 434.127 -0.648156 -3.94511 0
M  V30 4664 H 435.567 0.352197 -4.22535 0
M  V30 4665 C 434.026 1.32175 -3.09889 0
M  V30 4666 O 434.556 2.41553 -3.20959 0
M  V30 4667 N 432.762 1.20392 -2.64488 0
M  V30 4668 H 432.309 0.313905 -2.5568 0
M  V30 4669 H 432.267 2.03541 -2.39621 0
M  V30 4670 N 436.039 1.36541 -0.78704 0
M  V30 4671 C 437.267 2.03561 -0.370199 0
M  V30 4672 C 437.682 1.59347 1.01263 0
M  V30 4673 O 437.039 0.781781 1.64907 0
M  V30 4674 C 437.09 3.59033 -0.421614 0
M  V30 4675 O 436.811 4.01634 -1.7499 0
M  V30 4676 C 438.312 4.433 0.00489763 0
M  V30 4677 H 435.532 0.653346 -0.152904 0
M  V30 4678 H 438.076 1.74566 -1.06522 0
M  V30 4679 H 436.231 3.86746 0.224971 0
M  V30 4680 H 436.645 4.96217 -1.69909 0
M  V30 4681 H 438.119 5.51939 -0.0822184 0
M  V30 4682 H 438.596 4.26285 1.05723 0
M  V30 4683 H 439.202 4.20843 -0.614085 0
M  V30 4684 N 437.518 0.538854 1.48102 0
M  V30 4685 C 438.758 0.0101209 2.04397 0
M  V30 4686 C 439.122 -1.30741 1.40609 0
M  V30 4687 O 440.323 -1.92272 1.87843 0
M  V30 4688 C 438.594 -0.100232 3.57259 0
M  V30 4689 S 440.153 -0.577746 4.3498 0
M  V30 4690 H 436.971 0.0163171 0.710813 0
M  V30 4691 H 439.573 0.721429 1.81702 0
M  V30 4692 H 438.277 0.863351 4.01216 0
M  V30 4693 H 437.808 -0.835651 3.84422 0
M  V30 4694 H 439.823 -1.84073 4.60794 0
M  V30 4695 N 438.996 -1.55193 0.274407 0
M  V30 4696 C 440.244 -1.99187 -0.341902 0
M  V30 4697 C 440.565 -1.16422 -1.56431 0
M  V30 4698 O 439.835 -0.253573 -1.94252 0
M  V30 4699 H 438.415 -0.735721 -0.129317 0
M  V30 4700 H 441.077 -1.91168 0.379578 0
M  V30 4701 H 440.173 -3.05629 -0.632253 0
M  V30 4702 N 440.474 -0.00167713 -1.576 0
M  V30 4703 C 441.384 1.00548 -2.1196 0
M  V30 4704 C 442.4 1.3758 -1.06526 0
M  V30 4705 O 443.576 1.46278 -1.38436 0
M  V30 4706 C 440.641 2.27809 -2.6135 0
M  V30 4707 C 439.702 1.97074 -3.81393 0
M  V30 4708 C 438.935 3.18267 -4.28417 0
M  V30 4709 O 439.158 4.30009 -3.74765 0
M  V30 4710 O 438.092 3.02167 -5.20556 0
M  V30 4711 H 441.918 0.573373 -2.98238 0
M  V30 4712 H 439.503 0.217255 -1.47812 0
M  V30 4713 H 441.385 3.02568 -2.93309 0
M  V30 4714 H 440.06 2.70254 -1.78169 0
M  V30 4715 H 438.967 1.19785 -3.54404 0
M  V30 4716 H 440.3 1.59464 -4.65652 0
M  V30 4717 N 441.952 1.55251 0.271103 0
M  V30 4718 C 443.177 1.80306 1.02491 0
M  V30 4719 C 443.602 0.575457 1.79081 0
M  V30 4720 O 442.96 -0.474987 1.74967 0
M  V30 4721 C 443.008 3.02832 1.95768 0
M  V30 4722 O 442.112 2.78051 3.04568 0
M  V30 4723 H 441.453 0.595896 0.292923 0
M  V30 4724 H 443.983 2.02397 0.299436 0
M  V30 4725 H 443.993 3.31616 2.37686 0
M  V30 4726 H 442.668 3.9183 1.39434 0
M  V30 4727 H 441.245 2.60369 2.66951 0
M  V30 4728 N 443.43 -0.535701 1.48216 0
M  V30 4729 C 444.67 -1.30238 1.57536 0
M  V30 4730 C 445.034 -1.90479 0.241229 0
M  V30 4731 O 446.235 -2.67983 0.20938 0
M  V30 4732 C 444.506 -2.3669 2.67792 0
M  V30 4733 S 446.065 -3.23159 2.9684 0
M  V30 4734 H 442.883 -0.443093 0.556048 0
M  V30 4735 H 445.485 -0.610937 1.85709 0
M  V30 4736 H 444.189 -1.90905 3.63296 0
M  V30 4737 H 443.72 -3.10548 2.41502 0
M  V30 4738 H 445.735 -4.36647 2.35699 0
M  V30 4739 N 444.908 -1.36708 -0.784132 0
M  V30 4740 C 445.856 -1.31533 -1.91838 0
M  V30 4741 C 446.85 -0.206205 -1.6814 0
M  V30 4742 O 448.056 -0.373519 -1.76082 0
M  V30 4743 H 444.431 -0.409613 -0.630651 0
M  V30 4744 H 446.402 -2.2731 -1.9332 0
M  V30 4745 C 445.151 -1.12679 -3.28936 0
M  V30 4746 H 444.474 -1.97274 -3.4774 0
M  V30 4747 H 445.914 -1.13106 -4.08636 0
M  V30 4748 C 444.373 0.168281 -3.36479 0
M  V30 4749 O 444.903 1.15625 -3.84699 0
M  V30 4750 N 443.109 0.214762 -2.89805 0
M  V30 4751 H 442.656 -0.589852 -2.50756 0
M  V30 4752 H 442.614 1.08094 -2.95234 0
M  V30 4753 N 446.386 1.0089 -1.21074 0
M  V30 4754 C 447.802 1.2695 -0.967257 0
M  V30 4755 C 448.002 1.9846 0.348673 0
M  V30 4756 O 447.058 2.28459 1.0753 0
M  V30 4757 C 448.371 2.09697 -2.15517 0
M  V30 4758 C 449.919 2.22937 -2.197 0
M  V30 4759 C 450.394 3.09064 -3.37999 0
M  V30 4760 N 451.885 3.16653 -3.38061 0
M  V30 4761 C 452.62 3.8354 -4.26245 0
M  V30 4762 N 452.116 4.52488 -5.2462 0
M  V30 4763 N 453.909 3.80141 -4.14064 0
M  V30 4764 H 446.06 0.529005 -2.05707 0
M  V30 4765 H 448.323 0.296148 -0.900556 0
M  V30 4766 H 448.029 1.64497 -3.10859 0
M  V30 4767 H 447.903 3.10444 -2.14253 0
M  V30 4768 H 450.29 2.67357 -1.24916 0
M  V30 4769 H 450.371 1.21673 -2.2501 0
M  V30 4770 H 450.015 2.65347 -4.33074 0
M  V30 4771 H 449.945 4.10433 -3.29928 0
M  V30 4772 H 452.436 2.67566 -2.66865 0
M  V30 4773 H 452.749 5.01219 -5.88217 0
M  V30 4774 H 451.094 4.51288 -5.28549 0
M  V30 4775 H 454.285 3.25427 -3.36474 0
M  V30 4776 H 454.458 4.31992 -4.82998 0
M  V30 4777 N 447.864 1.01787 1.20321 0
M  V30 4778 C 449.104 0.716493 1.91431 0
M  V30 4779 C 449.468 -0.740352 1.77152 0
M  V30 4780 O 450.669 -1.1543 2.42754 0
M  V30 4781 C 448.94 1.14169 3.38674 0
M  V30 4782 S 450.499 0.962482 4.28114 0
M  V30 4783 H 447.317 0.261175 0.661293 0
M  V30 4784 H 449.919 1.30539 1.45533 0
M  V30 4785 H 448.623 2.19784 3.46588 0
M  V30 4786 H 448.154 0.545621 3.89598 0
M  V30 4787 H 450.169 -0.133253 4.96021 0
M  V30 4788 N 449.342 -1.36122 0.79427 0
M  V30 4789 C 450.582 -2.00942 0.374376 0
M  V30 4790 C 450.946 -1.61666 -1.03577 0
M  V30 4791 O 452.147 -2.19113 -1.55701 0
M  V30 4792 C 450.418 -3.53323 0.538327 0
M  V30 4793 S 451.977 -4.38311 0.20703 0
M  V30 4794 H 448.795 -0.696515 0.142785 0
M  V30 4795 H 451.397 -1.65929 1.03382 0
M  V30 4796 H 450.101 -3.79395 1.56484 0
M  V30 4797 H 449.632 -3.93162 -0.136882 0
M  V30 4798 H 451.647 -4.8623 -0.989695 0
M  V30 4799 N 450.82 -0.546701 -1.47814 0
M  V30 4800 C 452.231 -0.110564 -1.86372 0
M  V30 4801 C 452.582 1.31678 -1.45449 0
M  V30 4802 O 451.707 1.98889 -0.852758 0
M  V30 4803 C 452.302 -0.193873 -3.38245 0
M  V30 4804 C 450.861 0.187164 -3.75934 0
M  V30 4805 C 450.008 -0.546166 -2.71868 0
M  V30 4806 H 452.959 -0.757022 -1.39481 0
M  V30 4807 H 452.98 0.590218 -3.75895 0
M  V30 4808 H 452.492 -1.23282 -3.67999 0
M  V30 4809 H 450.593 1.22762 -3.51796 0
M  V30 4810 H 450.706 -0.164083 -4.78819 0
M  V30 4811 H 449.07 0.00953904 -2.54698 0
M  V30 4812 H 449.853 -1.58606 -3.04465 0
M  V30 4813 N 452.299 1.55045 -0.282633 0
M  V30 4814 C 453.547 1.99365 0.331334 0
M  V30 4815 C 453.868 1.1725 1.55812 0
M  V30 4816 O 453.138 0.263871 1.94115 0
M  V30 4817 H 451.718 0.736397 0.125414 0
M  V30 4818 H 454.38 1.90964 -0.389711 0
M  V30 4819 H 453.476 3.0596 0.616036 0
M  V30 4820 N 453.777 0.010035 1.57597 0
M  V30 4821 C 455.007 -0.682422 1.95004 0
M  V30 4822 C 455.415 -1.67278 0.884014 0
M  V30 4823 O 454.758 -1.83129 -0.144672 0
M  V30 4824 C 454.82 -1.46141 3.28456 0
M  V30 4825 C 454.484 -0.631523 4.52615 0
M  V30 4826 C 455.481 0.0850905 5.1983 0
M  V30 4827 C 453.166 -0.574539 4.99003 0
M  V30 4828 C 455.16 0.847566 6.3174 0
M  V30 4829 C 452.847 0.191655 6.10799 0
M  V30 4830 C 453.845 0.901432 6.77025 0
M  V30 4831 O 453.533 1.65511 7.86677 0
M  V30 4832 H 453.265 -0.194361 0.647456 0
M  V30 4833 H 455.819 0.060312 2.05311 0
M  V30 4834 H 454.049 -2.24885 3.14585 0
M  V30 4835 H 455.738 -2.04016 3.50902 0
M  V30 4836 H 456.504 0.0502812 4.84974 0
M  V30 4837 H 452.383 -1.11654 4.47274 0
M  V30 4838 H 455.927 1.4021 6.83364 0
M  V30 4839 H 451.824 0.228249 6.45096 0
M  V30 4840 H 452.592 1.57287 8.03245 0
M  V30 4841 N 455.255 -1.55392 -0.262866 0
M  V30 4842 C 456.205 -1.85355 -1.32768 0
M  V30 4843 C 457.189 -0.713188 -1.44231 0
M  V30 4844 O 458.381 -0.974765 -1.47741 0
M  V30 4845 C 455.51 -2.13781 -2.68612 0
M  V30 4846 C 454.596 -3.34104 -2.61219 0
M  V30 4847 N 454.987 -4.53766 -2.2345 0
M  V30 4848 C 453.285 -3.36895 -2.92263 0
M  V30 4849 C 453.986 -5.35877 -2.26298 0
M  V30 4850 N 452.962 -4.74536 -2.65172 0
M  V30 4851 H 456.764 -2.75413 -1.02591 0
M  V30 4852 H 454.278 -1.55405 -0.471503 0
M  V30 4853 H 456.275 -2.33407 -3.45437 0
M  V30 4854 H 454.935 -1.25013 -2.99669 0
M  V30 4855 H 455.946 -4.79682 -1.95258 0
M  V30 4856 H 452.623 -2.58351 -3.27965 0
M  V30 4857 H 454.013 -6.41577 -1.99572 0
M  V30 4858 N 456.733 0.527833 -1.48498 0
M  V30 4859 C 457.665 1.6482 -1.5927 0
M  V30 4860 C 458.678 1.55659 -0.476869 0
M  V30 4861 O 459.867 1.62081 -0.747806 0
M  V30 4862 C 456.967 3.0348 -1.50842 0
M  V30 4863 C 456.14 3.381 -2.77502 0
M  V30 4864 C 455.199 4.5605 -2.62497 0
M  V30 4865 O 454.225 4.59165 -3.36387 0
M  V30 4866 N 455.427 5.54353 -1.72257 0
M  V30 4867 H 458.192 1.56015 -2.55889 0
M  V30 4868 H 455.753 0.715152 -1.45249 0
M  V30 4869 H 457.745 3.80264 -1.38496 0
M  V30 4870 H 456.315 3.06352 -0.621887 0
M  V30 4871 H 455.535 2.50473 -3.04396 0
M  V30 4872 H 456.823 3.58017 -3.61527 0
M  V30 4873 H 456.221 5.54617 -1.11431 0
M  V30 4874 H 454.778 6.30347 -1.65849 0
M  V30 4875 N 458.211 1.37122 0.776871 0
M  V30 4876 C 459.143 1.28342 1.89897 0
M  V30 4877 C 460.156 0.200277 1.61563 0
M  V30 4878 O 461.345 0.456012 1.72577 0
M  V30 4879 C 458.445 0.960427 3.25006 0
M  V30 4880 C 457.618 2.148 3.81025 0
M  V30 4881 C 456.677 1.79608 4.94598 0
M  V30 4882 O 455.703 2.51845 5.10454 0
M  V30 4883 N 456.905 0.737171 5.758 0
M  V30 4884 H 459.67 2.25027 1.97947 0
M  V30 4885 H 457.231 1.3068 0.955739 0
M  V30 4886 H 459.223 0.705942 3.98495 0
M  V30 4887 H 457.793 0.0823066 3.12492 0
M  V30 4888 H 457.013 2.56454 2.99374 0
M  V30 4889 H 458.301 2.9411 4.15183 0
M  V30 4890 H 457.699 0.137637 5.65533 0
M  V30 4891 H 456.256 0.542534 6.49538 0
M  V30 4892 N 459.689 -1.00246 1.21608 0
M  V30 4893 C 461.1 -1.55511 1.03312 0
M  V30 4894 C 461.451 -1.91946 -0.406332 0
M  V30 4895 O 460.576 -1.73753 -1.28992 0
M  V30 4896 C 461.171 -2.82576 1.86913 0
M  V30 4897 C 459.73 -3.34318 1.72941 0
M  V30 4898 C 458.877 -2.07487 1.83968 0
M  V30 4899 H 461.828 -0.824638 1.35593 0
M  V30 4900 H 461.849 -3.54559 1.38087 0
M  V30 4901 H 461.361 -2.56026 2.91672 0
M  V30 4902 H 459.462 -3.65797 0.70877 0
M  V30 4903 H 459.575 -4.05566 2.55055 0
M  V30 4904 H 457.939 -2.20603 1.27304 0
M  V30 4905 H 458.722 -1.83346 2.9024 0
M  V30 4906 N 461.167 -1.02423 -1.1978 0
M  V30 4907 C 462.413 -0.72878 -1.89896 0
M  V30 4908 C 462.768 0.734248 -1.77839 0
M  V30 4909 O 462.061 1.52733 -1.15685 0
M  V30 4910 C 462.255 -1.1088 -3.39765 0
M  V30 4911 C 462.084 -2.60722 -3.66407 0
M  V30 4912 C 460.854 -3.27623 -3.84696 0
M  V30 4913 C 463.052 -3.58924 -3.68345 0
M  V30 4914 N 461.034 -4.66617 -3.98926 0
M  V30 4915 C 462.405 -4.83514 -3.8809 0
M  V30 4916 C 464.46 -3.52788 -3.51347 0
M  V30 4917 C 463.163 -6.0271 -3.92598 0
M  V30 4918 C 465.189 -4.71394 -3.5713 0
M  V30 4919 C 464.551 -5.94796 -3.77356 0
M  V30 4920 H 460.65 -0.318473 -0.714212 0
M  V30 4921 H 463.234 -1.3106 -1.43984 0
M  V30 4922 H 461.405 -0.555233 -3.84411 0
M  V30 4923 H 463.137 -0.766082 -3.97383 0
M  V30 4924 H 459.892 -2.7804 -3.83393 0
M  V30 4925 H 460.316 -5.38805 -4.099 0
M  V30 4926 H 464.958 -2.58372 -3.3467 0
M  V30 4927 H 462.676 -6.97499 -4.08069 0
M  V30 4928 H 466.262 -4.6827 -3.45275 0
M  V30 4929 H 465.142 -6.85037 -3.81699 0
M  V30 4930 N 462.645 1.35699 -0.801477 0
M  V30 4931 C 464.061 1.52065 -0.484596 0
M  V30 4932 C 464.261 1.75215 0.995084 0
M  V30 4933 O 463.317 1.79061 1.78026 0
M  V30 4934 C 464.63 2.69908 -1.32552 0
M  V30 4935 C 466.178 2.83784 -1.32044 0
M  V30 4936 C 466.653 4.04646 -2.14536 0
M  V30 4937 N 468.144 4.11814 -2.12046 0
M  V30 4938 C 468.879 5.04437 -2.72636 0
M  V30 4939 N 468.375 6.02426 -3.42133 0
M  V30 4940 N 470.168 4.97144 -2.62305 0
M  V30 4941 H 462.319 1.18928 -1.75983 0
M  V30 4942 H 464.582 0.581455 -0.748741 0
M  V30 4943 H 464.288 2.59363 -2.37537 0
M  V30 4944 H 464.162 3.64376 -0.975181 0
M  V30 4945 H 466.549 2.93783 -0.27846 0
M  V30 4946 H 466.63 1.90188 -1.71062 0
M  V30 4947 H 466.274 3.95407 -3.18772 0
M  V30 4948 H 466.204 4.97413 -1.72882 0
M  V30 4949 H 468.695 3.41664 -1.61476 0
M  V30 4950 H 469.008 6.69688 -3.85666 0
M  V30 4951 H 467.353 6.02615 -3.46237 0
M  V30 4952 H 470.544 4.19546 -2.07603 0
M  V30 4953 H 470.717 5.69138 -3.09815 0
M  V30 4954 N 464.123 0.554532 1.47522 0
M  V30 4955 C 465.534 0.120446 1.86311 0
M  V30 4956 C 465.885 -1.30904 1.46145 0
M  V30 4957 O 465.01 -1.98434 0.863294 0
M  V30 4958 C 465.605 0.211808 3.38137 0
M  V30 4959 C 464.164 -0.167224 3.76028 0
M  V30 4960 C 463.311 0.560576 2.71575 0
M  V30 4961 H 466.262 0.764408 1.39077 0
M  V30 4962 H 466.283 -0.570275 3.76202 0
M  V30 4963 H 465.795 1.25232 3.6734 0
M  V30 4964 H 463.896 -1.20894 3.52442 0
M  V30 4965 H 464.009 0.189473 4.78725 0
M  V30 4966 H 462.373 0.00396836 2.547 0
M  V30 4967 H 463.156 1.60219 3.0362 0
M  V30 4968 N 465.601 -1.54893 0.290851 0
M  V30 4969 C 466.849 -1.99538 -0.320756 0
M  V30 4970 C 467.17 -1.18075 -1.55188 0
M  V30 4971 O 466.44 -0.274162 -1.93972 0
M  V30 4972 H 465.02 -0.737052 -0.121507 0
M  V30 4973 H 467.682 -1.90755 0.399832 0
M  V30 4974 H 466.778 -3.06282 -0.599802 0
M  V30 4975 N 467.08 -0.0183926 -1.57589 0
M  V30 4976 C 468.308 0.673046 -1.95647 0
M  V30 4977 C 468.723 1.66275 -0.894312 0
M  V30 4978 O 468.08 1.82072 0.124975 0
M  V30 4979 C 468.131 1.38884 -3.33756 0
M  V30 4980 O 467.852 0.438806 -4.35897 0
M  V30 4981 C 469.353 2.1731 -3.86383 0
M  V30 4982 H 466.573 0.186292 -0.644621 0
M  V30 4983 H 469.117 -0.0749748 -2.04363 0
M  V30 4984 H 467.272 2.08835 -3.26293 0
M  V30 4985 H 467.686 0.945869 -5.15901 0
M  V30 4986 H 469.16 2.62863 -4.85394 0
M  V30 4987 H 469.637 3.00764 -3.20059 0
M  V30 4988 H 470.243 1.52339 -3.97081 0
M  V30 4989 N 468.558 1.5553 0.254621 0
M  V30 4990 C 469.804 1.77262 0.985193 0
M  V30 4991 C 470.137 0.582286 1.85265 0
M  V30 4992 O 469.412 -0.419666 1.89919 0
M  V30 4993 C 469.695 3.0881 1.85225 0
M  V30 4994 C 469.548 4.38233 1.0135 0
M  V30 4995 C 470.867 3.3653 2.83612 0
M  V30 4996 H 467.986 0.644906 0.356742 0
M  V30 4997 H 470.628 1.88264 0.256236 0
M  V30 4998 H 468.778 2.99562 2.47376 0
M  V30 4999 H 470.45 4.59463 0.411269 0
M  V30 5000 H 468.693 4.32636 0.317574 0
M  V30 5001 H 469.364 5.26644 1.65379 0
M  V30 5002 H 471.84 3.45691 2.31596 0
M  V30 5003 H 470.716 4.29805 3.41407 0
M  V30 5004 H 470.977 2.57064 3.59681 0
M  V30 5005 N 470.036 -0.519951 1.48776 0
M  V30 5006 C 471.261 -1.30447 1.6124 0
M  V30 5007 C 471.686 -1.86055 0.276591 0
M  V30 5008 O 471.044 -1.64915 -0.753183 0
M  V30 5009 C 471.092 -2.42406 2.66967 0
M  V30 5010 O 470.196 -3.45728 2.24824 0
M  V30 5011 H 469.537 -0.385924 0.540332 0
M  V30 5012 H 472.067 -0.624572 1.94834 0
M  V30 5013 H 472.077 -2.88447 2.88552 0
M  V30 5014 H 470.752 -2.01294 3.63941 0
M  V30 5015 H 469.329 -3.05737 2.13494 0
M  V30 5016 N 471.514 -1.37532 -0.769588 0
M  V30 5017 C 472.739 -1.36231 -1.56384 0
M  V30 5018 C 473.164 0.0495849 -1.88035 0
M  V30 5019 O 472.522 1.02723 -1.49391 0
M  V30 5020 C 472.57 -2.20986 -2.84952 0
M  V30 5021 O 471.674 -1.61597 -3.79421 0
M  V30 5022 H 471.015 -0.465387 -0.473615 0
M  V30 5023 H 473.545 -1.81085 -0.952342 0
M  V30 5024 H 473.555 -2.34277 -3.34034 0
M  V30 5025 H 472.23 -3.23612 -2.61243 0
M  V30 5026 H 470.807 -1.57359 -3.38072 0
M  V30 5027 N 472.992 0.995999 -1.22138 0
M  V30 5028 C 474.24 1.73167 -1.042 0
M  V30 5029 C 474.561 1.90329 0.42423 0
M  V30 5030 O 473.831 1.4607 1.30539 0
M  V30 5031 H 472.411 0.641593 -0.38258 0
M  V30 5032 H 475.073 1.19974 -1.53598 0
M  V30 5033 H 474.169 2.72734 -1.51731 0
M  V30 5034 N 474.47 1.03057 1.19235 0
M  V30 5035 C 475.418 0.606391 2.24557 0
M  V30 5036 C 476.412 -0.361826 1.65491 0
M  V30 5037 O 477.618 -0.23022 1.78522 0
M  V30 5038 H 473.993 0.177838 0.730669 0
M  V30 5039 H 475.964 1.50529 2.5765 0
M  V30 5040 C 474.713 -0.0252127 3.47691 0
M  V30 5041 H 474.036 0.710838 3.9343 0
M  V30 5042 H 475.476 -0.284931 4.23042 0
M  V30 5043 C 473.935 -1.27229 3.11953 0
M  V30 5044 O 474.465 -2.36416 3.24762 0
M  V30 5045 N 472.671 -1.16169 2.6637 0
M  V30 5046 H 472.218 -0.273189 2.56147 0
M  V30 5047 H 472.176 -1.99703 2.42829 0
M  V30 5048 N 475.948 -1.35272 0.808662 0
M  V30 5049 C 477.176 -2.02946 0.402537 0
M  V30 5050 C 477.591 -1.60937 -0.987147 0
M  V30 5051 O 476.948 -0.807917 -1.63643 0
M  V30 5052 C 476.999 -3.58317 0.47868 0
M  V30 5053 O 476.72 -3.98799 1.81358 0
M  V30 5054 C 478.221 -4.43251 0.0656281 0
M  V30 5055 H 475.441 -0.650831 0.163279 0
M  V30 5056 H 477.985 -1.72849 1.09286 0
M  V30 5057 H 476.14 -3.87055 -0.163415 0
M  V30 5058 H 476.554 -4.93451 1.77781 0
M  V30 5059 H 478.028 -5.51738 0.170017 0
M  V30 5060 H 478.505 -4.27913 -0.989278 0
M  V30 5061 H 479.111 -4.19813 0.68096 0
M  V30 5062 N 477.426 -0.562348 -1.47226 0
M  V30 5063 C 478.666 -0.0426374 -2.04356 0
M  V30 5064 C 479.03 1.28487 -1.42671 0
M  V30 5065 O 480.231 1.89259 -1.90878 0
M  V30 5066 C 478.502 0.0433826 -3.57374 0
M  V30 5067 S 480.061 0.508472 -4.35844 0
M  V30 5068 H 476.879 -0.0276234 -0.710463 0
M  V30 5069 H 479.481 -0.750245 -1.80531 0
M  V30 5070 H 478.185 -0.927072 -3.99792 0
M  V30 5071 H 477.716 0.774387 -3.85703 0
M  V30 5072 H 479.731 1.76719 -4.63665 0
M  V30 5073 N 478.904 1.54736 -0.299062 0
M  V30 5074 C 479.814 2.27127 0.587413 0
M  V30 5075 C 480.83 1.30575 1.15005 0
M  V30 5076 O 482.006 1.63554 1.17525 0
M  V30 5077 C 479.071 2.99645 1.74395 0
M  V30 5078 C 478.132 4.11731 1.21559 0
M  V30 5079 C 477.365 4.80781 2.317 0
M  V30 5080 O 477.588 4.4918 3.51558 0
M  V30 5081 O 476.522 5.68226 1.98501 0
M  V30 5082 H 480.348 3.037 0.000250109 0
M  V30 5083 H 477.933 1.49256 -0.0655919 0
M  V30 5084 H 479.815 3.45138 2.4178 0
M  V30 5085 H 478.49 2.25969 2.31775 0
M  V30 5086 H 477.397 3.70641 0.507514 0
M  V30 5087 H 478.73 4.87379 0.687233 0
M  V30 5088 N 480.382 0.0267497 1.57577 0
M  V30 5089 C 481.345 -0.940916 2.08996 0
M  V30 5090 C 482.345 -1.25561 1.00455 0
M  V30 5091 O 483.535 -1.19634 1.26623 0
M  V30 5092 C 480.667 -2.25814 2.55384 0
M  V30 5093 H 481.86 -0.495628 2.95776 0
M  V30 5094 H 479.413 -0.221241 1.54726 0
M  V30 5095 H 480.148 -2.74976 1.71926 0
M  V30 5096 H 479.933 -2.04285 3.34679 0
M  V30 5097 H 481.423 -2.95178 2.95398 0
M  V30 5098 N 481.861 -1.55662 -0.24637 0
M  V30 5099 C 483.101 -1.79283 -0.981685 0
M  V30 5100 C 483.465 -0.596356 -1.82504 0
M  V30 5101 O 484.666 -0.711342 -2.59217 0
M  V30 5102 C 482.937 -3.07648 -1.819 0
M  V30 5103 S 484.496 -3.52491 -2.61334 0
M  V30 5104 H 481.314 -0.629676 -0.330196 0
M  V30 5105 H 483.916 -1.93901 -0.249498 0
M  V30 5106 H 482.62 -3.92794 -1.18915 0
M  V30 5107 H 482.151 -2.95768 -2.59393 0
M  V30 5108 H 484.166 -3.13866 -3.84321 0
M  V30 5109 N 483.339 0.512053 -1.4905 0
M  V30 5110 C 484.287 1.63568 -1.65373 0
M  V30 5111 C 485.281 1.61228 -0.519806 0
M  V30 5112 O 486.487 1.65869 -0.699101 0
M  V30 5113 H 482.862 0.542019 -0.521267 0
M  V30 5114 H 484.833 1.4695 -2.59708 0
M  V30 5115 C 483.582 3.01761 -1.7273 0
M  V30 5116 H 482.905 3.04263 -2.59353 0
M  V30 5117 H 484.345 3.79948 -1.8819 0
M  V30 5118 C 482.804 3.33609 -0.46973 0
M  V30 5119 O 483.334 3.99607 0.409492 0
M  V30 5120 N 481.54 2.88651 -0.336003 0
M  V30 5121 H 481.087 2.35119 -1.05247 0
M  V30 5122 H 481.045 3.10328 0.504363 0
M  V30 5123 N 484.817 1.37938 0.762283 0
M  V30 5124 C 486.057 1.35076 1.53407 0
M  V30 5125 C 486.421 -0.061546 1.91901 0
M  V30 5126 O 487.622 -0.214973 2.67939 0
M  V30 5127 C 485.893 2.27206 2.75884 0
M  V30 5128 S 487.452 2.42283 3.65848 0
M  V30 5129 H 484.27 0.479387 0.52508 0
M  V30 5130 H 486.872 1.7378 0.895586 0
M  V30 5131 H 485.576 3.28724 2.457 0
M  V30 5132 H 485.107 1.8962 3.44685 0
M  V30 5133 H 487.122 1.64044 4.68299 0
M  V30 5134 N 486.295 -0.989507 1.22664 0
M  V30 5135 C 487.245 -2.06478 0.967005 0
M  V30 5136 C 488.229 -1.60682 -0.0836374 0
M  V30 5137 O 489.421 -1.76541 0.127322 0
M  V30 5138 C 486.55 -3.38861 0.550313 0
M  V30 5139 C 485.636 -3.9128 1.63587 0
M  V30 5140 N 486.027 -4.16884 2.86429 0
M  V30 5141 C 484.325 -4.1972 1.50834 0
M  V30 5142 C 485.026 -4.5954 3.56648 0
M  V30 5143 N 484.002 -4.63434 2.84131 0
M  V30 5144 H 487.804 -2.24219 1.90008 0
M  V30 5145 H 485.318 -1.17153 1.12467 0
M  V30 5146 H 487.315 -4.15465 0.345612 0
M  V30 5147 H 485.975 -3.22518 -0.375822 0
M  V30 5148 H 486.986 -4.04976 3.22823 0
M  V30 5149 H 483.663 -4.1243 0.648643 0
M  V30 5150 H 485.053 -4.87944 4.61909 0
M  V30 5151 N 487.773 -1.03688 -1.18687 0
M  V30 5152 C 488.721 -0.618292 -2.24232 0
M  V30 5153 C 489.715 0.353045 -1.6568 0
M  V30 5154 O 490.921 0.220749 -1.78641 0
M  V30 5155 H 487.296 -0.181711 -0.729716 0
M  V30 5156 H 489.267 -1.51893 -2.56848 0
M  V30 5157 C 488.016 0.00677342 -3.47699 0
M  V30 5158 H 487.339 -0.731692 -3.93047 0
M  V30 5159 H 488.779 0.262492 -4.23187 0
M  V30 5160 C 487.238 1.25572 -3.12623 0
M  V30 5161 O 487.768 2.34691 -3.26011 0
M  V30 5162 N 485.974 1.14755 -2.66982 0
M  V30 5163 H 485.521 0.259601 -2.56289 0
M  V30 5164 H 485.479 1.98412 -2.43885 0
M  V30 5165 N 489.251 1.34841 -0.815825 0
M  V30 5166 C 490.198 2.29644 -0.230664 0
M  V30 5167 C 491.168 1.53253 0.640533 0
M  V30 5168 O 492.353 1.81653 0.583672 0
M  V30 5169 C 489.493 3.39715 0.607275 0
M  V30 5170 C 488.606 4.31056 -0.28538 0
M  V30 5171 C 487.741 5.28225 0.561446 0
M  V30 5172 C 486.78 6.11204 -0.331035 0
M  V30 5173 N 485.917 7.00483 0.476302 0
M  V30 5174 H 490.757 2.79095 -1.0445 0
M  V30 5175 H 488.294 1.37351 -0.526595 0
M  V30 5176 H 490.252 4.02208 1.10835 0
M  V30 5177 H 488.882 2.91517 1.38629 0
M  V30 5178 H 487.934 3.69487 -0.904621 0
M  V30 5179 H 489.246 4.89239 -0.97193 0
M  V30 5180 H 488.4 5.96135 1.12728 0
M  V30 5181 H 487.139 4.70562 1.28153 0
M  V30 5182 H 486.144 5.42232 -0.909069 0
M  V30 5183 H 487.369 6.70947 -1.04912 0
M  V30 5184 H 485.315 6.45296 1.18019 0
M  V30 5185 H 485.232 7.55847 -0.152008 0
M  V30 5186 H 486.5 7.7273 1.02512 0
M  V30 5187 N 490.729 0.570148 1.46925 0
M  V30 5188 C 491.692 -0.159933 2.28641 0
M  V30 5189 C 492.692 -0.830638 1.37685 0
M  V30 5190 O 493.882 -0.684516 1.60187 0
M  V30 5191 C 491.014 -1.2354 3.17727 0
M  V30 5192 H 492.207 0.558035 2.94662 0
M  V30 5193 H 489.76 0.327603 1.52828 0
M  V30 5194 H 490.495 -1.98535 2.56426 0
M  V30 5195 H 490.28 -0.759125 3.84681 0
M  V30 5196 H 491.77 -1.74782 3.79264 0
M  V30 5197 N 492.207 -1.54576 0.307264 0
M  V30 5198 C 493.154 -2.23751 -0.56604 0
M  V30 5199 C 494.124 -1.22235 -1.12462 0
M  V30 5200 O 495.309 -1.50873 -1.16799 0
M  V30 5201 C 492.449 -2.98661 -1.72903 0
M  V30 5202 C 491.562 -4.14963 -1.20124 0
M  V30 5203 C 490.697 -4.77441 -2.3286 0
M  V30 5204 C 489.736 -5.85875 -1.77247 0
M  V30 5205 N 488.873 -6.42282 -2.8358 0
M  V30 5206 H 493.713 -2.97984 0.0304578 0
M  V30 5207 H 491.25 -1.47076 0.0268015 0
M  V30 5208 H 493.208 -3.40329 -2.41313 0
M  V30 5209 H 491.838 -2.26793 -2.29706 0
M  V30 5210 H 490.89 -3.78193 -0.409198 0
M  V30 5211 H 492.202 -4.93066 -0.754171 0
M  V30 5212 H 491.356 -5.21993 -3.09205 0
M  V30 5213 H 490.095 -3.98684 -2.80896 0
M  V30 5214 H 489.1 -5.40741 -0.993926 0
M  V30 5215 H 490.325 -6.6652 -1.30107 0
M  V30 5216 H 488.271 -5.66406 -3.30939 0
M  V30 5217 H 488.188 -7.1575 -2.43388 0
M  V30 5218 H 489.456 -6.91492 -3.59804 0
M  V30 5219 N 493.685 -0.035106 -1.57561 0
M  V30 5220 C 494.962 0.681212 -1.83354 0
M  V30 5221 C 495.342 1.89986 -0.920252 0
M  V30 5222 O 494.69 2.28489 0.0226815 0
M  V30 5223 C 494.9 1.05376 -3.32712 0
M  V30 5224 C 496.248 1.44286 -3.99333 0
M  V30 5225 O 497.272 1.14656 -3.37242 0
M  V30 5226 O 496.131 1.99518 -5.08778 0
M  V30 5227 H 493.225 0.334741 -0.756226 0
M  V30 5228 H 495.771 -0.0632448 -1.69582 0
M  V30 5229 H 494.543 0.186668 -3.90854 0
M  V30 5230 H 494.166 1.85619 -3.51613 0
M  V30 5231 N 495.163 1.55791 0.238111 0
M  V30 5232 C 496.403 1.79801 0.972163 0
M  V30 5233 C 496.767 0.606027 1.82185 0
M  V30 5234 O 497.968 0.725079 2.58836 0
M  V30 5235 C 496.239 3.08608 1.80266 0
M  V30 5236 S 497.798 3.53872 2.59461 0
M  V30 5237 H 494.616 0.631418 0.326852 0
M  V30 5238 H 497.218 1.94031 0.239212 0
M  V30 5239 H 495.922 3.93419 1.1683 0
M  V30 5240 H 495.453 2.9714 2.57821 0
M  V30 5241 H 497.468 3.15899 3.82651 0
M  V30 5242 N 496.642 -0.504142 1.49319 0
M  V30 5243 C 497.872 -1.28071 1.62116 0
M  V30 5244 C 498.28 -1.86955 0.290566 0
M  V30 5245 O 497.623 -1.68415 -0.733616 0
M  V30 5246 C 497.685 -2.4521 2.62893 0
M  V30 5247 C 497.349 -2.07218 4.0732 0
M  V30 5248 C 498.346 -1.61375 4.94221 0
M  V30 5249 C 496.031 -2.16949 4.53033 0
M  V30 5250 C 498.025 -1.25763 6.2487 0
M  V30 5251 C 495.712 -1.80949 5.83696 0
M  V30 5252 C 496.71 -1.3543 6.69438 0
M  V30 5253 O 496.398 -0.99915 7.97667 0
M  V30 5254 H 496.13 -0.394763 0.54876 0
M  V30 5255 H 498.684 -0.612118 1.96067 0
M  V30 5256 H 496.914 -3.15134 2.24115 0
M  V30 5257 H 498.603 -3.0724 2.65252 0
M  V30 5258 H 499.369 -1.53306 4.60133 0
M  V30 5259 H 495.248 -2.5133 3.86463 0
M  V30 5260 H 498.792 -0.901631 6.91749 0
M  V30 5261 H 494.689 -1.88667 6.17313 0
M  V30 5262 H 495.457 -1.13089 8.1065 0
M  V30 5263 N 498.12 -1.38341 -0.754957 0
M  V30 5264 C 499.35 -1.37504 -1.54195 0
M  V30 5265 C 499.758 0.0373787 -1.89163 0
M  V30 5266 O 499.101 1.01402 -1.53178 0
M  V30 5267 C 499.163 -2.16488 -2.87008 0
M  V30 5268 C 498.827 -3.65311 -2.74585 0
M  V30 5269 C 499.824 -4.58834 -2.44474 0
M  V30 5270 C 497.509 -4.08649 -2.9208 0
M  V30 5271 C 499.503 -5.93675 -2.32011 0
M  V30 5272 C 497.19 -5.43571 -2.79237 0
M  V30 5273 C 498.188 -6.35898 -2.49245 0
M  V30 5274 O 497.876 -7.68338 -2.36458 0
M  V30 5275 H 497.608 -0.472159 -0.483779 0
M  V30 5276 H 500.162 -1.82515 -0.94221 0
M  V30 5277 H 498.392 -1.66194 -3.49166 0
M  V30 5278 H 500.081 -2.08076 -3.4851 0
M  V30 5279 H 500.847 -4.26657 -2.30627 0
M  V30 5280 H 496.726 -3.37134 -3.14422 0
M  V30 5281 H 500.27 -6.65706 -2.08522 0
M  V30 5282 H 496.167 -5.75345 -2.92657 0
M  V30 5283 H 496.935 -7.78845 -2.5168 0
M  V30 5284 N 499.598 0.982988 -1.23187 0
M  V30 5285 C 500.875 1.69814 -0.970707 0
M  V30 5286 C 501.255 2.04811 0.511424 0
M  V30 5287 O 500.603 1.73924 1.48198 0
M  V30 5288 C 500.813 2.94143 -1.87831 0
M  V30 5289 C 502.161 3.66712 -2.14026 0
M  V30 5290 O 503.185 3.04171 -1.8536 0
M  V30 5291 O 502.044 4.79258 -2.62629 0
M  V30 5292 H 499.138 0.741659 -0.365884 0
M  V30 5293 H 501.684 1.03844 -1.34218 0
M  V30 5294 H 500.456 2.64858 -2.88038 0
M  V30 5295 H 500.079 3.6785 -1.50905 0
M  V30 5296 N 501.076 1.04316 1.18135 0
M  V30 5297 C 501.986 0.646876 2.25505 0
M  V30 5298 C 503.002 -0.328008 1.7088 0
M  V30 5299 O 504.178 -0.182309 2.00573 0
M  V30 5300 C 501.243 0.0185664 3.46695 0
M  V30 5301 C 500.304 1.04277 4.16443 0
M  V30 5302 C 499.537 0.444352 5.31847 0
M  V30 5303 O 499.76 -0.748735 5.65465 0
M  V30 5304 O 498.694 1.17428 5.90334 0
M  V30 5305 H 502.52 1.54147 2.61672 0
M  V30 5306 H 500.105 0.814188 1.25265 0
M  V30 5307 H 501.987 -0.331068 4.20097 0
M  V30 5308 H 500.662 -0.849814 3.12346 0
M  V30 5309 H 499.569 1.44425 3.45098 0
M  V30 5310 H 500.902 1.882 4.54798 0
M  V30 5311 N 502.554 -1.34406 0.822964 0
M  V30 5312 C 503.779 -2.0304 0.423034 0
M  V30 5313 C 504.204 -1.61568 -0.963196 0
M  V30 5314 O 503.562 -0.800339 -1.62678 0
M  V30 5315 C 503.61 -3.56636 0.53321 0
M  V30 5316 O 502.714 -4.09971 -0.446939 0
M  V30 5317 H 502.055 -0.64075 0.174171 0
M  V30 5318 H 504.585 -1.71653 1.11339 0
M  V30 5319 H 504.595 -4.05945 0.408991 0
M  V30 5320 H 503.27 -3.86168 1.54425 0
M  V30 5321 H 501.847 -3.71835 -0.281601 0
M  V30 5322 N 504.032 -0.577932 -1.46621 0
M  V30 5323 C 505.278 -0.0617793 -2.02706 0
M  V30 5324 C 505.611 1.29294 -1.44903 0
M  V30 5325 O 504.886 1.8461 -0.61232 0
M  V30 5326 C 505.169 0.00911824 -3.60099 0
M  V30 5327 C 505.022 -1.37416 -4.28295 0
M  V30 5328 C 506.341 0.712159 -4.343 0
M  V30 5329 H 503.46 -0.0239246 -0.736612 0
M  V30 5330 H 506.102 -0.744211 -1.74818 0
M  V30 5331 H 504.252 0.590292 -3.83989 0
M  V30 5332 H 505.924 -2.00013 -4.15683 0
M  V30 5333 H 504.167 -1.94319 -3.87843 0
M  V30 5334 H 504.838 -1.27707 -5.37024 0
M  V30 5335 H 507.314 0.218486 -4.15526 0
M  V30 5336 H 506.19 0.730782 -5.44014 0
M  V30 5337 H 506.451 1.77251 -4.05012 0
M  V30 5338 N 505.51 1.54411 -0.315457 0
M  V30 5339 C 506.473 2.22713 0.54142 0
M  V30 5340 C 507.473 1.2179 1.04995 0
M  V30 5341 O 508.663 1.46426 0.943667 0
M  V30 5342 C 505.795 2.92485 1.75116 0
M  V30 5343 H 506.988 2.99849 -0.0555508 0
M  V30 5344 H 504.541 1.56159 -0.0664453 0
M  V30 5345 H 505.276 2.19466 2.38758 0
M  V30 5346 H 505.061 3.66483 1.39401 0
M  V30 5347 H 506.551 3.44548 2.35959 0
M  V30 5348 N 506.988 0.0434614 1.5754 0
M  V30 5349 C 507.935 -0.93356 2.11077 0
M  V30 5350 C 508.905 -1.31383 1.01626 0
M  V30 5351 O 510.09 -1.40465 1.29129 0
M  V30 5352 C 507.23 -2.20578 2.65404 0
M  V30 5353 C 506.343 -1.88068 3.88914 0
M  V30 5354 C 505.478 -3.09691 4.31584 0
M  V30 5355 C 504.517 -2.73067 5.47815 0
M  V30 5356 N 503.654 -3.87359 5.85574 0
M  V30 5357 H 508.494 -0.470118 2.94268 0
M  V30 5358 H 506.031 -0.220434 1.45439 0
M  V30 5359 H 507.989 -2.95011 2.94999 0
M  V30 5360 H 506.619 -2.64513 1.85021 0
M  V30 5361 H 505.671 -1.03816 3.6596 0
M  V30 5362 H 506.983 -1.57104 4.73413 0
M  V30 5363 H 506.137 -3.92431 4.62691 0
M  V30 5364 H 504.876 -3.43827 3.45882 0
M  V30 5365 H 503.881 -1.88742 5.16388 0
M  V30 5366 H 505.106 -2.40131 6.35227 0
M  V30 5367 H 503.052 -4.21311 5.02825 0
M  V30 5368 H 502.969 -3.60068 6.64746 0
M  V30 5369 H 504.237 -4.70761 6.21292 0
M  V30 5370 N 508.466 -1.55915 -0.229846 0
M  V30 5371 C 509.398 -1.88209 -1.30805 0
M  V30 5372 C 510.411 -0.769672 -1.43457 0
M  V30 5373 O 511.6 -1.04792 -1.44502 0
M  V30 5374 C 508.7 -2.06829 -2.68468 0
M  V30 5375 C 507.873 -3.37798 -2.77869 0
M  V30 5376 C 506.932 -3.45952 -3.96489 0
M  V30 5377 O 505.958 -4.19043 -3.85216 0
M  V30 5378 N 507.16 -2.76488 -5.10426 0
M  V30 5379 H 509.925 -2.81286 -1.03431 0
M  V30 5380 H 507.486 -1.5636 -0.41991 0
M  V30 5381 H 509.478 -2.09608 -3.46189 0
M  V30 5382 H 508.048 -1.20416 -2.88477 0
M  V30 5383 H 507.268 -3.4719 -1.86689 0
M  V30 5384 H 508.556 -4.24091 -2.81113 0
M  V30 5385 H 507.954 -2.16868 -5.2248 0
M  V30 5386 H 506.511 -2.84938 -5.8622 0
M  V30 5387 N 509.944 0.496216 -1.49584 0
M  V30 5388 C 510.891 1.59722 -1.66606 0
M  V30 5389 C 511.861 1.58158 -0.507477 0
M  V30 5390 O 513.046 1.76072 -0.735076 0
M  V30 5391 C 510.186 2.97844 -1.74308 0
M  V30 5392 C 509.299 3.09388 -3.01502 0
M  V30 5393 C 508.434 4.38271 -3.00153 0
M  V30 5394 C 507.473 4.43466 -4.21906 0
M  V30 5395 N 506.61 5.63784 -4.1844 0
M  V30 5396 H 511.45 1.44515 -2.60613 0
M  V30 5397 H 508.987 0.703048 -1.29212 0
M  V30 5398 H 510.945 3.77907 -1.76754 0
M  V30 5399 H 509.575 3.11743 -0.837619 0
M  V30 5400 H 508.627 2.22357 -3.08645 0
M  V30 5401 H 509.939 3.09085 -3.91494 0
M  V30 5402 H 509.093 5.2666 -3.01188 0
M  V30 5403 H 507.832 4.41146 -2.07947 0
M  V30 5404 H 506.837 3.53478 -4.21109 0
M  V30 5405 H 508.062 4.42303 -5.1531 0
M  V30 5406 H 506.008 5.67491 -3.29074 0
M  V30 5407 H 505.925 5.65118 -5.02173 0
M  V30 5408 H 507.193 6.54367 -4.23585 0
M  V30 5409 N 511.423 1.38739 0.74761 0
M  V30 5410 C 512.37 1.36449 1.86146 0
M  V30 5411 C 513.34 0.226098 1.64554 0
M  V30 5412 O 514.525 0.41926 1.86137 0
M  V30 5413 C 511.665 1.2013 3.23516 0
M  V30 5414 C 510.778 2.43407 3.56899 0
M  V30 5415 C 509.913 2.19773 4.83605 0
M  V30 5416 C 508.952 3.3879 5.09792 0
M  V30 5417 N 508.089 3.14553 6.27695 0
M  V30 5418 H 512.929 2.3167 1.87438 0
M  V30 5419 H 510.466 1.15094 0.916063 0
M  V30 5420 H 512.424 1.08683 4.02795 0
M  V30 5421 H 511.054 0.285453 3.21535 0
M  V30 5422 H 510.106 2.65504 2.72418 0
M  V30 5423 H 511.418 3.32094 3.72176 0
M  V30 5424 H 510.572 2.05496 5.70838 0
M  V30 5425 H 509.311 1.28461 4.70478 0
M  V30 5426 H 508.316 3.53579 4.21025 0
M  V30 5427 H 509.541 4.30986 5.24812 0
M  V30 5428 H 507.487 2.25893 6.1588 0
M  V30 5429 H 507.404 3.96791 6.435 0
M  V30 5430 H 508.672 3.03943 7.17801 0
M  V30 5431 N 512.901 -0.976442 1.23707 0
M  V30 5432 C 514.126 -1.75875 1.09922 0
M  V30 5433 C 514.551 -1.84911 -0.34489 0
M  V30 5434 O 513.909 -1.31363 -1.24954 0
M  V30 5435 C 513.957 -3.16179 1.73388 0
M  V30 5436 O 513.061 -4.00124 0.99871 0
M  V30 5437 H 512.402 -0.540954 0.385052 0
M  V30 5438 H 514.932 -1.22546 1.6384 0
M  V30 5439 H 514.942 -3.66741 1.78788 0
M  V30 5440 H 513.617 -3.08917 2.78466 0
M  V30 5441 H 512.194 -3.58624 1.02193 0
M  V30 5442 N 514.379 -1.04941 -1.1758 0
M  V30 5443 C 515.309 -0.669172 -2.23706 0
M  V30 5444 C 516.29 0.331835 -1.66832 0
M  V30 5445 O 517.475 0.209988 -1.93061 0
M  V30 5446 C 514.605 -0.0404889 -3.47276 0
M  V30 5447 C 513.559 -0.965983 -4.16957 0
M  V30 5448 C 512.885 -0.201312 -5.34321 0
M  V30 5449 C 514.185 -2.28902 -4.69469 0
M  V30 5450 H 515.879 -1.55639 -2.55767 0
M  V30 5451 H 513.425 -0.749793 -1.22939 0
M  V30 5452 H 515.378 0.237298 -4.20731 0
M  V30 5453 H 514.102 0.881658 -3.14475 0
M  V30 5454 H 512.761 -1.22829 -3.45411 0
M  V30 5455 H 512.409 0.723519 -4.97769 0
M  V30 5456 H 512.109 -0.817968 -5.81879 0
M  V30 5457 H 513.633 0.0692499 -6.10561 0
M  V30 5458 H 515.047 -2.07132 -5.34574 0
M  V30 5459 H 513.444 -2.85942 -5.27596 0
M  V30 5460 H 514.514 -2.92937 -3.86414 0
M  V30 5461 N 515.857 1.33968 -0.830081 0
M  V30 5462 C 516.805 2.31301 -0.245435 0
M  V30 5463 C 517.799 1.57734 0.617762 0
M  V30 5464 O 519.005 1.72674 0.508303 0
M  V30 5465 H 515.38 0.749552 -0.0606316 0
M  V30 5466 H 517.351 2.78129 -1.08105 0
M  V30 5467 C 516.1 3.42961 0.572084 0
M  V30 5468 H 515.423 3.99714 -0.0828118 0
M  V30 5469 H 516.863 4.13286 0.94715 0
M  V30 5470 C 515.322 2.88043 1.74737 0
M  V30 5471 O 515.852 2.83508 2.8458 0
M  V30 5472 N 514.058 2.44768 1.56642 0
M  V30 5473 H 513.605 2.48656 0.672901 0
M  V30 5474 H 513.563 2.08375 2.3543 0
M  V30 5475 N 517.335 0.585699 1.46312 0
M  V30 5476 C 518.563 0.0781299 2.06752 0
M  V30 5477 C 518.978 -1.22812 1.43396 0
M  V30 5478 O 518.335 -1.74318 0.540314 0
M  V30 5479 C 518.386 -0.0911927 3.61385 0
M  V30 5480 O 518.107 1.16336 4.22371 0
M  V30 5481 C 519.608 -0.632765 4.38761 0
M  V30 5482 H 516.828 0.0588188 0.668417 0
M  V30 5483 H 519.372 0.807218 1.87894 0
M  V30 5484 H 517.527 -0.770514 3.7966 0
M  V30 5485 H 517.941 0.979082 5.15281 0
M  V30 5486 H 519.415 -0.70041 5.47538 0
M  V30 5487 H 519.892 -1.65039 4.07012 0
M  V30 5488 H 520.498 0.0117856 4.25298 0
M  V30 5489 N 518.813 -1.54241 0.323641 0
M  V30 5490 C 519.776 -2.22997 -0.529602 0
M  V30 5491 C 520.776 -1.22345 -1.04347 0
M  V30 5492 O 521.966 -1.46924 -0.935889 0
M  V30 5493 C 519.098 -2.93409 -1.73562 0
M  V30 5494 H 520.291 -2.99815 0.0714518 0
M  V30 5495 H 517.844 -1.56121 0.0747258 0
M  V30 5496 H 518.579 -2.20729 -2.37591 0
M  V30 5497 H 518.364 -3.67217 -1.37456 0
M  V30 5498 H 519.854 -3.45794 -2.34128 0
M  V30 5499 N 520.291 -0.0518155 -1.57515 0
M  V30 5500 C 521.539 0.620595 -1.92336 0
M  V30 5501 C 521.86 1.71345 -0.930907 0
M  V30 5502 O 521.13 1.95885 0.0241341 0
M  V30 5503 H 519.71 0.232226 -0.709986 0
M  V30 5504 H 522.372 -0.104969 -1.94617 0
M  V30 5505 H 521.468 1.05879 -2.93592 0
M  V30 5506 N 521.769 1.56035 0.221574 0
M  V30 5507 C 522.701 1.889 1.29805 0
M  V30 5508 C 523.714 0.777269 1.43047 0
M  V30 5509 O 524.903 1.05557 1.43945 0
M  V30 5510 C 522.003 2.0825 2.67367 0
M  V30 5511 C 521.176 3.39267 2.76073 0
M  V30 5512 C 520.235 3.48049 3.94649 0
M  V30 5513 O 519.261 4.2108 3.82988 0
M  V30 5514 N 520.463 2.79191 5.08953 0
M  V30 5515 H 523.228 2.81831 1.01938 0
M  V30 5516 H 520.789 1.5658 0.411612 0
M  V30 5517 H 522.781 2.11441 3.45072 0
M  V30 5518 H 521.351 1.21944 2.87834 0
M  V30 5519 H 520.571 3.48175 1.84846 0
M  V30 5520 H 521.859 4.25575 2.7886 0
M  V30 5521 H 521.257 2.19635 5.21322 0
M  V30 5522 H 519.814 2.88043 5.84701 0
M  V30 5523 N 523.247 -0.488276 1.49845 0
M  V30 5524 C 524.494 -1.24157 1.59973 0
M  V30 5525 C 524.822 -1.92293 0.292182 0
M  V30 5526 O 524.077 -1.81942 -0.720813 0
M  V30 5527 C 524.376 -2.32152 2.71735 0
M  V30 5528 C 524.042 -1.81387 4.12807 0
M  V30 5529 C 522.704 -1.67262 4.51195 0
M  V30 5530 C 525.056 -1.43537 5.01045 0
M  V30 5531 C 522.384 -1.13685 5.7558 0
M  V30 5532 C 524.736 -0.914081 6.25961 0
M  V30 5533 C 523.4 -0.759327 6.63167 0
M  V30 5534 H 522.67 -0.454322 0.585383 0
M  V30 5535 H 525.317 -0.540261 1.83721 0
M  V30 5536 H 523.622 -3.08122 2.42008 0
M  V30 5537 H 525.319 -2.90164 2.76778 0
M  V30 5538 H 521.909 -1.93344 3.82513 0
M  V30 5539 H 526.093 -1.53292 4.72033 0
M  V30 5540 H 521.349 -1.00426 6.03096 0
M  V30 5541 H 525.523 -0.612066 6.93705 0
M  V30 5542 H 523.15 -0.342002 7.5943 0
M  V30 5543 N 524.725 -1.39134 -0.740242 0
M  V30 5544 C 526.141 -1.20623 -1.0451 0
M  V30 5545 C 526.341 -0.0641651 -2.01398 0
M  V30 5546 O 525.397 0.585843 -2.4561 0
M  V30 5547 C 526.71 -2.53815 -1.6124 0
M  V30 5548 C 528.258 -2.60615 -1.73346 0
M  V30 5549 C 528.733 -3.94015 -2.33486 0
M  V30 5550 N 530.224 -3.95627 -2.40902 0
M  V30 5551 C 530.959 -4.95616 -2.88361 0
M  V30 5552 N 530.455 -6.06003 -3.35756 0
M  V30 5553 N 532.248 -4.82998 -2.87523 0
M  V30 5554 H 524.399 -2.12176 -0.0975576 0
M  V30 5555 H 526.662 -0.942066 -0.105904 0
M  V30 5556 H 526.368 -3.37911 -0.975144 0
M  V30 5557 H 526.242 -2.73162 -2.6012 0
M  V30 5558 H 528.629 -1.76906 -2.36195 0
M  V30 5559 H 528.71 -2.45123 -0.731336 0
M  V30 5560 H 528.354 -4.78153 -1.71267 0
M  V30 5561 H 528.284 -4.06825 -3.34366 0
M  V30 5562 H 530.775 -3.15903 -2.07398 0
M  V30 5563 H 531.088 -6.78215 -3.70464 0
M  V30 5564 H 529.433 -6.09604 -3.33778 0
M  V30 5565 H 532.624 -3.95866 -2.49816 0
M  V30 5566 H 532.797 -5.61072 -3.24196 0
M  V30 5567 N 526.204 0.969867 -1.24223 0
M  V30 5568 C 527.452 1.70918 -1.0785 0
M  V30 5569 C 527.773 1.91186 0.383763 0
M  V30 5570 O 527.043 1.48806 1.27411 0
M  V30 5571 H 525.623 0.633334 -0.396103 0
M  V30 5572 H 528.285 1.16689 -1.56108 0
M  V30 5573 H 527.381 2.69455 -1.57482 0
M  V30 5574 N 527.682 1.05563 1.17022 0
M  V30 5575 C 528.93 0.76642 1.87004 0
M  V30 5576 C 529.251 -0.708854 1.8166 0
M  V30 5577 O 528.521 -1.51242 1.2451 0
M  V30 5578 H 527.101 0.280516 0.692329 0
M  V30 5579 H 529.763 1.33557 1.41945 0
M  V30 5580 H 528.859 1.08472 2.92644 0
M  V30 5581 N 529.16 -1.33526 0.837174 0
M  V30 5582 C 530.408 -1.97446 0.431211 0
M  V30 5583 C 530.729 -1.6665 -1.01255 0
M  V30 5584 O 529.999 -0.964559 -1.70508 0
M  V30 5585 H 528.579 -0.73043 0.156463 0
M  V30 5586 H 531.241 -1.62918 1.06976 0
M  V30 5587 H 530.337 -3.07001 0.561877 0
M  V30 5588 N 530.638 -0.59345 -1.46 0
M  V30 5589 C 531.884 -0.0832754 -2.02629 0
M  V30 5590 C 532.217 1.27749 -1.46266 0
M  V30 5591 O 531.492 1.8395 -0.631866 0
M  V30 5592 C 531.775 -0.0290756 -3.60088 0
M  V30 5593 C 531.628 -1.41951 -4.26814 0
M  V30 5594 C 532.947 0.666055 -4.35031 0
M  V30 5595 H 530.066 -0.031736 -0.736316 0
M  V30 5596 H 532.708 -0.762711 -1.74019 0
M  V30 5597 H 530.858 0.549532 -3.84594 0
M  V30 5598 H 532.53 -2.04411 -4.13538 0
M  V30 5599 H 530.773 -1.98422 -3.8576 0
M  V30 5600 H 531.444 -1.33395 -5.3564 0
M  V30 5601 H 533.92 0.174401 -4.15734 0
M  V30 5602 H 532.796 0.673041 -5.44758 0
M  V30 5603 H 533.057 1.72946 -4.06869 0
M  V30 5604 N 532.116 1.54067 -0.331816 0
M  V30 5605 C 533.356 2.02625 0.26876 0
M  V30 5606 C 533.72 1.21462 1.48697 0
M  V30 5607 O 534.921 1.59863 2.16096 0
M  V30 5608 C 533.192 3.52554 0.586577 0
M  V30 5609 S 534.751 4.23035 1.16563 0
M  V30 5610 H 531.569 0.706395 0.0807862 0
M  V30 5611 H 534.171 1.89844 -0.466856 0
M  V30 5612 H 532.875 4.09242 -0.308046 0
M  V30 5613 H 532.406 3.69432 1.35217 0
M  V30 5614 H 534.421 4.31382 2.45203 0
M  V30 5615 N 533.594 0.0601682 1.57485 0
M  V30 5616 C 534.843 -0.611101 1.9222 0
M  V30 5617 C 535.156 -1.71469 0.941159 0
M  V30 5618 O 536.362 -2.44473 1.18089 0
M  V30 5619 C 534.818 -1.13832 3.41424 0
M  V30 5620 C 534.426 -0.0663596 4.47951 0
M  V30 5621 C 536.17 -1.78432 3.85178 0
M  V30 5622 C 534.077 -0.606965 5.88277 0
M  V30 5623 H 533.007 -0.232033 0.71741 0
M  V30 5624 H 535.658 0.130518 1.83035 0
M  V30 5625 H 534.04 -1.93254 3.45643 0
M  V30 5626 H 535.214 0.707682 4.55333 0
M  V30 5627 H 533.529 0.482715 4.13593 0
M  V30 5628 H 536.126 -2.1989 4.87394 0
M  V30 5629 H 536.469 -2.63966 3.21913 0
M  V30 5630 H 537.002 -1.05651 3.83514 0
M  V30 5631 H 533.741 0.21095 6.5516 0
M  V30 5632 H 533.261 -1.34879 5.84438 0
M  V30 5633 H 534.94 -1.08704 6.37803 0
M  V30 5634 N 535.072 -1.5615 -0.213296 0
M  V30 5635 C 536.02 -1.93953 -1.28394 0
M  V30 5636 C 537.014 -0.822592 -1.48087 0
M  V30 5637 O 538.22 -1.00748 -1.49164 0
M  V30 5638 H 534.595 -0.61648 -0.430646 0
M  V30 5639 H 536.566 -2.83275 -0.937977 0
M  V30 5640 C 535.315 -2.27969 -2.62537 0
M  V30 5641 H 534.638 -3.13432 -2.48194 0
M  V30 5642 H 536.078 -2.58297 -3.36242 0
M  V30 5643 C 534.537 -1.10775 -3.18167 0
M  V30 5644 O 535.067 -0.373201 -3.99963 0
M  V30 5645 N 533.273 -0.889377 -2.76656 0
M  V30 5646 H 532.82 -1.48843 -2.10246 0
M  V30 5647 H 532.778 -0.107 -3.14218 0
M  V30 5648 N 536.55 0.480323 -1.50102 0
M  V30 5649 C 537.79 1.24301 -1.62261 0
M  V30 5650 C 538.154 1.89452 -0.311758 0
M  V30 5651 O 539.355 2.67022 -0.308696 0
M  V30 5652 C 537.626 2.26588 -2.76392 0
M  V30 5653 S 539.185 3.11919 -3.08629 0
M  V30 5654 H 536.003 0.42215 -0.57211 0
M  V30 5655 H 538.605 0.541591 -1.87848 0
M  V30 5656 H 537.309 1.7729 -3.70131 0
M  V30 5657 H 536.84 3.01371 -2.52862 0
M  V30 5658 H 538.855 4.27598 -2.51742 0
M  V30 5659 N 538.028 1.39524 0.732853 0
M  V30 5660 C 538.958 1.41153 1.86005 0
M  V30 5661 C 539.939 0.274614 1.67869 0
M  V30 5662 O 541.124 0.480745 1.88155 0
M  V30 5663 C 538.254 1.25638 3.23778 0
M  V30 5664 C 537.208 2.36752 3.56556 0
M  V30 5665 C 536.534 2.06326 4.93289 0
M  V30 5666 C 537.834 3.79069 3.5931 0
M  V30 5667 H 539.528 2.35484 1.84899 0
M  V30 5668 H 537.074 1.13348 0.888162 0
M  V30 5669 H 539.027 1.25398 4.0231 0
M  V30 5670 H 537.751 0.277772 3.25417 0
M  V30 5671 H 536.41 2.36213 2.80355 0
M  V30 5672 H 536.058 1.06897 4.9151 0
M  V30 5673 H 535.758 2.80757 5.16187 0
M  V30 5674 H 537.282 2.07739 5.74175 0
M  V30 5675 H 538.696 3.81526 4.27914 0
M  V30 5676 H 537.093 4.52878 3.93728 0
M  V30 5677 H 538.163 4.09893 2.59068 0
M  V30 5678 N 539.506 -0.963266 1.24736 0
M  V30 5679 C 540.438 -2.06162 1.0015 0
M  V30 5680 C 541.451 -1.62771 -0.0305905 0
M  V30 5681 O 542.64 -1.77296 0.206966 0
M  V30 5682 C 539.74 -3.35333 0.490385 0
M  V30 5683 C 538.913 -4.07609 1.58663 0
M  V30 5684 C 537.972 -5.15052 1.0774 0
M  V30 5685 O 536.998 -5.4098 1.77002 0
M  V30 5686 N 538.2 -5.80436 -0.0858605 0
M  V30 5687 H 540.965 -2.27825 1.94719 0
M  V30 5688 H 538.526 -1.13121 1.15825 0
M  V30 5689 H 540.518 -4.04477 0.134371 0
M  V30 5690 H 539.088 -3.10507 -0.361155 0
M  V30 5691 H 538.308 -3.32681 2.11463 0
M  V30 5692 H 539.596 -4.52656 2.32336 0
M  V30 5693 H 538.994 -5.6178 -0.664806 0
M  V30 5694 H 537.551 -6.50674 -0.382981 0
M  V30 5695 N 540.985 -1.06182 -1.16461 0
M  V30 5696 C 541.933 -0.665716 -2.2287 0
M  V30 5697 C 542.927 0.317822 -1.66392 0
M  V30 5698 O 544.133 0.182807 -1.79069 0
M  V30 5699 H 540.508 -0.197148 -0.725697 0
M  V30 5700 H 542.479 -1.57307 -2.53569 0
M  V30 5701 C 541.228 -0.0669803 -3.47635 0
M  V30 5702 H 540.551 -0.814899 -3.91407 0
M  V30 5703 H 541.991 0.172669 -4.23648 0
M  V30 5704 C 540.45 1.18913 -3.15216 0
M  V30 5705 O 540.98 2.27723 -3.30916 0
M  V30 5706 N 539.186 1.09066 -2.69357 0
M  V30 5707 H 538.733 0.20518 -2.56782 0
M  V30 5708 H 538.691 1.93195 -2.48039 0
M  V30 5709 N 542.463 1.3308 -0.844243 0
M  V30 5710 C 543.691 2.01808 -0.456203 0
M  V30 5711 C 544.106 1.63498 0.944131 0
M  V30 5712 O 543.463 0.85102 1.61443 0
M  V30 5713 C 543.514 3.56922 -0.573513 0
M  V30 5714 O 543.235 3.93851 -1.91868 0
M  V30 5715 C 544.736 4.42922 -0.183125 0
M  V30 5716 H 541.956 0.646273 -0.180477 0
M  V30 5717 H 544.5 1.69891 -1.1383 0
M  V30 5718 H 542.655 3.87352 0.0607367 0
M  V30 5719 H 543.069 4.88564 -1.90802 0
M  V30 5720 H 544.543 5.51093 -0.316241 0
M  V30 5721 H 545.02 4.30386 0.875477 0
M  V30 5722 H 545.626 4.1786 -0.792027 0
M  V30 5723 N 543.941 0.601185 1.45683 0
M  V30 5724 C 544.874 -0.17013 2.27565 0
M  V30 5725 C 545.852 -0.879661 1.36751 0
M  V30 5726 O 547.036 -0.889827 1.66176 0
M  V30 5727 C 544.163 -1.24568 3.14961 0
M  V30 5728 C 543.209 -0.639978 4.21671 0
M  V30 5729 S 544.042 0.547275 5.32696 0
M  V30 5730 C 545.198 -0.529019 6.2366 0
M  V30 5731 H 545.431 0.524583 2.92635 0
M  V30 5732 H 542.964 0.388537 1.49431 0
M  V30 5733 H 544.922 -1.86138 3.65873 0
M  V30 5734 H 543.583 -1.91243 2.49169 0
M  V30 5735 H 542.776 -1.44903 4.8272 0
M  V30 5736 H 542.378 -0.0995558 3.73867 0
M  V30 5737 H 544.67 -1.40981 6.62669 0
M  V30 5738 H 545.613 0.0451599 7.08086 0
M  V30 5739 H 546.021 -0.84147 5.58193 0
M  V30 5740 N 545.419 -1.53889 0.339982 0
M  V30 5741 C 546.667 -2.00458 -0.257112 0
M  V30 5742 C 546.988 -1.22953 -1.51353 0
M  V30 5743 O 546.258 -0.335734 -1.93002 0
M  V30 5744 H 544.838 -0.740544 -0.0979965 0
M  V30 5745 H 547.5 -1.89386 0.460317 0
M  V30 5746 H 546.596 -3.08035 -0.502057 0
M  V30 5747 N 546.897 -0.0685191 -1.57451 0
M  V30 5748 C 548.146 0.600898 -1.92541 0
M  V30 5749 C 548.459 1.70967 -0.950239 0
M  V30 5750 O 549.665 2.43844 -1.19384 0
M  V30 5751 C 548.121 1.12019 -3.42023 0
M  V30 5752 C 547.729 0.0426028 -4.4798 0
M  V30 5753 C 549.473 1.76386 -3.86119 0
M  V30 5754 C 547.38 0.575759 -5.88591 0
M  V30 5755 H 546.31 0.228225 -0.71863 0
M  V30 5756 H 548.961 -0.140223 -1.82963 0
M  V30 5757 H 547.343 1.91418 -3.46663 0
M  V30 5758 H 548.517 -0.73182 -4.54952 0
M  V30 5759 H 546.832 -0.504642 -4.13331 0
M  V30 5760 H 549.429 2.17302 -4.88553 0
M  V30 5761 H 549.772 2.62255 -3.23308 0
M  V30 5762 H 550.305 1.03615 -3.84069 0
M  V30 5763 H 547.044 -0.245691 -6.55039 0
M  V30 5764 H 546.564 1.31778 -5.85145 0
M  V30 5765 H 548.243 1.0532 -6.3837 0
M  V30 5766 N 548.375 1.56261 0.205012 0
M  V30 5767 C 549.323 1.94631 1.27364 0
M  V30 5768 C 550.317 0.830434 1.47649 0
M  V30 5769 O 551.523 1.01538 1.48627 0
M  V30 5770 H 547.898 0.618755 0.427371 0
M  V30 5771 H 549.869 2.83768 0.922941 0
M  V30 5772 C 548.618 2.29358 2.61324 0
M  V30 5773 H 547.941 3.14744 2.46528 0
M  V30 5774 H 549.381 2.60076 3.34868 0
M  V30 5775 C 547.84 1.12461 3.17575 0
M  V30 5776 O 548.37 0.394407 3.99759 0
M  V30 5777 N 546.576 0.904036 2.7618 0
M  V30 5778 H 546.123 1.49956 2.09454 0
M  V30 5779 H 546.081 0.123662 3.14157 0
M  V30 5780 N 549.853 -0.472356 1.50355 0
M  V30 5781 C 551.093 -1.23439 1.62918 0
M  V30 5782 C 551.457 -1.89284 0.321801 0
M  V30 5783 O 552.658 -2.66854 0.322852 0
M  V30 5784 C 550.929 -2.25119 2.7759 0
M  V30 5785 S 552.488 -3.10278 3.10279 0
M  V30 5786 H 549.306 -0.41911 0.574341 0
M  V30 5787 H 551.908 -0.531621 1.88133 0
M  V30 5788 H 550.612 -1.75324 3.71066 0
M  V30 5789 H 550.143 -3.00026 2.54457 0
M  V30 5790 H 552.158 -4.26257 2.54007 0
M  V30 5791 N 551.331 -1.39911 -0.725443 0
M  V30 5792 C 552.241 -1.41688 -1.8698 0
M  V30 5793 C 553.257 -0.310579 -1.71206 0
M  V30 5794 O 554.433 -0.55359 -1.93642 0
M  V30 5795 C 551.498 -1.26811 -3.22676 0
M  V30 5796 C 550.559 -2.47497 -3.50776 0
M  V30 5797 C 549.792 -2.3332 -4.79997 0
M  V30 5798 O 550.015 -1.34175 -5.54394 0
M  V30 5799 O 548.949 -3.22498 -5.08211 0
M  V30 5800 H 552.775 -2.38171 -1.88436 0
M  V30 5801 H 550.36 -1.21128 -0.874548 0
M  V30 5802 H 552.242 -1.20684 -4.03749 0
M  V30 5803 H 550.917 -0.334289 -3.21969 0
M  V30 5804 H 549.824 -2.59201 -2.69751 0
M  V30 5805 H 551.157 -3.39606 -3.5627 0
M  V30 5806 N 552.809 0.956637 -1.25245 0
M  V30 5807 C 554.037 1.73571 -1.12608 0
M  V30 5808 C 554.452 1.86063 0.320324 0
M  V30 5809 O 553.809 1.35691 1.22042 0
M  V30 5810 C 553.86 3.15053 -1.77268 0
M  V30 5811 O 553.581 3.03174 -3.16255 0
M  V30 5812 C 555.082 4.09248 -1.70386 0
M  V30 5813 H 552.302 0.543955 -0.392879 0
M  V30 5814 H 554.846 1.20031 -1.65568 0
M  V30 5815 H 553.001 3.65543 -1.28284 0
M  V30 5816 H 553.415 3.9241 -3.48015 0
M  V30 5817 H 554.889 5.06138 -2.20291 0
M  V30 5818 H 555.366 4.34102 -0.667239 0
M  V30 5819 H 555.972 3.64672 -2.18849 0
M  V30 5820 N 554.287 1.06798 1.15896 0
M  V30 5821 C 555.527 0.797041 1.8822 0
M  V30 5822 C 555.891 -0.664549 1.80133 0
M  V30 5823 O 557.092 -1.0503 2.47431 0
M  V30 5824 C 555.363 1.28431 3.33527 0
M  V30 5825 S 556.922 1.14319 4.23647 0
M  V30 5826 H 553.74 0.288988 0.649621 0
M  V30 5827 H 556.342 1.36594 1.39865 0
M  V30 5828 H 555.046 2.34286 3.36954 0
M  V30 5829 H 554.577 0.710371 3.86933 0
M  V30 5830 H 556.592 0.0772467 4.9614 0
M  V30 5831 N 555.766 -1.3263 0.851289 0
M  V30 5832 C 557.015 -1.96633 0.449267 0
M  V30 5833 C 557.328 -1.68131 -0.999562 0
M  V30 5834 O 558.534 -2.25845 -1.50685 0
M  V30 5835 C 556.99 -3.51946 0.752446 0
M  V30 5836 C 556.598 -3.89311 2.21678 0
M  V30 5837 C 558.342 -4.22437 0.417983 0
M  V30 5838 C 556.249 -5.37655 2.46336 0
M  V30 5839 H 555.179 -0.735888 0.164269 0
M  V30 5840 H 557.83 -1.51073 1.0416 0
M  V30 5841 H 556.212 -3.95899 0.0895858 0
M  V30 5842 H 557.386 -3.56378 2.92115 0
M  V30 5843 H 555.701 -3.31836 2.51543 0
M  V30 5844 H 558.298 -5.31549 0.579674 0
M  V30 5845 H 558.641 -4.11349 -0.640115 0
M  V30 5846 H 559.174 -3.84057 1.03659 0
M  V30 5847 H 555.913 -5.5376 3.50757 0
M  V30 5848 H 555.433 -5.72005 1.80473 0
M  V30 5849 H 557.112 -6.04695 2.30115 0
M  V30 5850 N 557.244 -0.608902 -1.45362 0
M  V30 5851 C 558.521 -0.0365378 -1.95566 0
M  V30 5852 C 558.901 1.43169 -1.55131 0
M  V30 5853 O 558.249 2.1349 -0.814513 0
M  V30 5854 C 558.459 -0.236026 -3.48201 0
M  V30 5855 C 559.807 -0.117518 -4.24437 0
M  V30 5856 O 560.831 -0.166217 -3.55812 0
M  V30 5857 O 559.69 -0.00372127 -5.465 0
M  V30 5858 H 556.784 0.0349874 -0.82626 0
M  V30 5859 H 559.33 -0.679055 -1.55521 0
M  V30 5860 H 558.102 -1.25569 -3.70605 0
M  V30 5861 H 557.725 0.441691 -3.95139 0
M  V30 5862 N 558.722 1.53707 -0.348139 0
M  V30 5863 C 559.97 2.00591 0.246478 0
M  V30 5864 C 560.291 1.23753 1.50699 0
M  V30 5865 O 559.561 0.345964 1.92821 0
M  V30 5866 H 558.141 0.741053 0.0940679 0
M  V30 5867 H 560.803 1.89139 -0.470354 0
M  V30 5868 H 559.899 3.08297 0.485714 0
M  V30 5869 N 560.2 0.0768682 1.57412 0
M  V30 5870 C 561.43 -0.5991 1.97723 0
M  V30 5871 C 561.838 -1.63378 0.954166 0
M  V30 5872 O 561.181 -1.83578 -0.0668706 0
M  V30 5873 C 561.243 -1.32078 3.34358 0
M  V30 5874 C 560.907 -0.438985 4.54887 0
M  V30 5875 C 561.904 0.305492 5.19002 0
M  V30 5876 C 559.589 -0.362378 5.00991 0
M  V30 5877 C 561.583 1.11475 6.27576 0
M  V30 5878 C 559.27 0.450543 6.09437 0
M  V30 5879 C 560.268 1.18777 6.72593 0
M  V30 5880 O 559.956 1.98727 7.7895 0
M  V30 5881 H 559.688 -0.166725 0.655117 0
M  V30 5882 H 562.242 0.147337 2.04871 0
M  V30 5883 H 560.472 -2.1134 3.2384 0
M  V30 5884 H 562.161 -1.88949 3.5924 0
M  V30 5885 H 562.927 0.25593 4.84324 0
M  V30 5886 H 558.806 -0.925832 4.51608 0
M  V30 5887 H 562.35 1.69068 6.76803 0
M  V30 5888 H 558.247 0.501651 6.43548 0
M  V30 5889 H 559.015 1.91214 7.95851 0
M  V30 5890 N 561.678 -1.56367 -0.196722 0
M  V30 5891 C 562.908 -1.84371 -0.932254 0
M  V30 5892 C 563.316 -0.657013 -1.77426 0
M  V30 5893 O 562.659 0.383576 -1.79651 0
M  V30 5894 C 562.721 -3.06454 -1.87952 0
M  V30 5895 C 562.385 -4.40425 -1.21962 0
M  V30 5896 C 563.382 -5.16457 -0.597343 0
M  V30 5897 C 561.067 -4.8716 -1.22396 0
M  V30 5898 C 563.061 -6.37399 0.0117913 0
M  V30 5899 C 560.748 -6.08038 -0.610995 0
M  V30 5900 C 561.746 -6.83 0.00580487 0
M  V30 5901 O 561.434 -8.01589 0.609173 0
M  V30 5902 H 561.166 -0.616377 -0.277589 0
M  V30 5903 H 563.72 -2.04329 -0.209452 0
M  V30 5904 H 561.95 -2.82377 -2.64197 0
M  V30 5905 H 563.639 -3.21118 -2.48271 0
M  V30 5906 H 564.405 -4.81445 -0.586142 0
M  V30 5907 H 560.284 -4.2877 -1.69345 0
M  V30 5908 H 563.828 -6.9585 0.493836 0
M  V30 5909 H 559.725 -6.42519 -0.619693 0
M  V30 5910 H 560.493 -8.16935 0.505919 0
M  V30 5911 N 563.156 0.464375 -1.50603 0
M  V30 5912 C 564.572 0.798684 -1.38178 0
M  V30 5913 C 564.772 1.96568 -0.44308 0
M  V30 5914 O 563.828 2.52252 0.111814 0
M  V30 5915 C 565.141 1.10444 -2.79683 0
M  V30 5916 C 566.689 1.2105 -2.88645 0
M  V30 5917 C 567.164 1.54934 -4.30998 0
M  V30 5918 N 568.655 1.61913 -4.3398 0
M  V30 5919 C 569.39 1.8965 -5.41129 0
M  V30 5920 N 568.886 2.15361 -6.58477 0
M  V30 5921 N 570.679 1.91207 -5.28579 0
M  V30 5922 H 562.83 -0.304603 -2.10204 0
M  V30 5923 H 565.093 -0.0737804 -0.945125 0
M  V30 5924 H 564.799 0.319934 -3.50242 0
M  V30 5925 H 564.673 2.03896 -3.17342 0
M  V30 5926 H 567.06 1.98567 -2.18301 0
M  V30 5927 H 567.141 0.255613 -2.5452 0
M  V30 5928 H 566.785 0.779549 -5.01882 0
M  V30 5929 H 566.715 2.51584 -4.62615 0
M  V30 5930 H 569.206 1.44055 -3.49366 0
M  V30 5931 H 569.519 2.35818 -7.35941 0
M  V30 5932 H 567.864 2.1274 -6.6164 0
M  V30 5933 H 571.055 1.70622 -4.35897 0
M  V30 5934 H 571.228 2.12488 -6.12171 0
M  V30 5935 N 564.634 1.40294 0.718013 0
M  V30 5936 C 566.045 1.34289 1.29705 0
M  V30 5937 C 566.396 0.0152228 1.96194 0
M  V30 5938 O 565.521 -0.88682 1.97394 0
M  V30 5939 C 566.116 2.43219 2.3586 0
M  V30 5940 C 564.675 2.40682 2.89394 0
M  V30 5941 C 563.822 2.24223 1.63154 0
M  V30 5942 H 566.773 1.50135 0.514312 0
M  V30 5943 H 566.794 2.10986 3.16647 0
M  V30 5944 H 566.306 3.39836 1.87439 0
M  V30 5945 H 564.407 1.47756 3.42051 0
M  V30 5946 H 564.52 3.36177 3.41353 0
M  V30 5947 H 562.884 1.71696 1.88129 0
M  V30 5948 H 563.667 3.22834 1.16761 0
M  V30 5949 N 566.112 -0.949982 1.2575 0
M  V30 5950 C 567.062 -2.03297 1.03221 0
M  V30 5951 C 568.046 -1.60867 -0.0324751 0
M  V30 5952 O 569.238 -1.76047 0.183423 0
M  V30 5953 C 566.367 -3.36938 0.657841 0
M  V30 5954 C 565.453 -3.85878 1.75952 0
M  V30 5955 N 565.844 -4.0756 2.99547 0
M  V30 5956 C 564.142 -4.14709 1.64111 0
M  V30 5957 C 564.843 -4.47961 3.71087 0
M  V30 5958 N 563.819 -4.5416 2.98731 0
M  V30 5959 H 567.621 -2.1806 1.97045 0
M  V30 5960 H 565.135 -1.13516 1.16138 0
M  V30 5961 H 567.132 -4.14155 0.477614 0
M  V30 5962 H 565.792 -3.2355 -0.273025 0
M  V30 5963 H 566.803 -3.94501 3.35544 0
M  V30 5964 H 563.48 -4.10158 0.779527 0
M  V30 5965 H 564.87 -4.73002 4.77199 0
M  V30 5966 N 567.59 -1.07411 -1.15328 0
M  V30 5967 C 568.537 -0.694995 -2.20087 0
M  V30 5968 C 569.507 0.313904 -1.63107 0
M  V30 5969 O 570.692 0.200216 -1.89747 0
M  V30 5970 C 567.832 -0.0996218 -3.44956 0
M  V30 5971 C 566.945 -1.16007 -4.16133 0
M  V30 5972 C 566.08 -0.529636 -5.28553 0
M  V30 5973 C 565.119 -1.57283 -5.91548 0
M  V30 5974 N 564.256 -0.964932 -6.95438 0
M  V30 5975 H 569.096 -1.5927 -2.51867 0
M  V30 5976 H 566.633 -0.796115 -1.23695 0
M  V30 5977 H 568.591 0.263197 -4.16369 0
M  V30 5978 H 567.221 0.761435 -3.13691 0
M  V30 5979 H 566.273 -1.64045 -3.4321 0
M  V30 5980 H 567.585 -1.95101 -4.59061 0
M  V30 5981 H 566.739 -0.114487 -6.06592 0
M  V30 5982 H 565.478 0.29307 -4.86819 0
M  V30 5983 H 564.483 -1.99775 -5.12221 0
M  V30 5984 H 565.708 -2.39783 -6.35359 0
M  V30 5985 H 563.654 -0.16314 -6.55797 0
M  V30 5986 H 563.571 -1.69311 -7.36797 0
M  V30 5987 H 564.839 -0.575305 -7.77374 0
M  V30 5988 N 569.068 1.32177 -0.85831 0
M  V30 5989 C 570.314 1.97417 -0.46417 0
M  V30 5990 C 570.647 1.67746 0.978514 0
M  V30 5991 O 569.922 0.967654 1.68721 0
M  V30 5992 C 570.205 3.53069 -0.708094 0
M  V30 5993 C 570.058 3.92357 -2.19946 0
M  V30 5994 C 571.377 4.39783 -0.166881 0
M  V30 5995 H 568.496 0.717097 -0.17012 0
M  V30 5996 H 571.138 1.56499 -1.07741 0
M  V30 5997 H 569.288 3.88054 -0.186128 0
M  V30 5998 H 570.96 3.67533 -2.78779 0
M  V30 5999 H 569.203 3.41384 -2.67656 0
M  V30 6000 H 569.874 5.00841 -2.32082 0
M  V30 6001 H 572.35 4.11556 -0.613285 0
M  V30 6002 H 571.226 5.47671 -0.367093 0
M  V30 6003 H 571.487 4.32196 0.930559 0
M  V30 6004 N 570.547 0.616602 1.45037 0
M  V30 6005 C 571.772 0.120192 2.07051 0
M  V30 6006 C 572.197 -1.19008 1.45666 0
M  V30 6007 O 571.555 -1.7267 0.552692 0
M  V30 6008 C 571.603 0.00354901 3.606 0
M  V30 6009 O 570.707 -1.04431 3.98958 0
M  V30 6010 H 570.048 0.0781599 0.659384 0
M  V30 6011 H 572.578 0.849167 1.86146 0
M  V30 6012 H 572.588 -0.191754 4.07549 0
M  V30 6013 H 571.263 0.960239 4.04663 0
M  V30 6014 H 569.84 -0.824749 3.63665 0
M  V30 6015 N 572.025 -1.5352 0.356285 0
M  V30 6016 C 573.436 -1.86282 -0.12492 0
M  V30 6017 C 573.787 -1.27717 -1.48939 0
M  V30 6018 O 572.912 -0.595614 -2.08042 0
M  V30 6019 C 573.507 -3.37995 -0.23345 0
M  V30 6020 C 572.066 -3.70588 -0.658899 0
M  V30 6021 C 571.213 -2.76581 0.199596 0
M  V30 6022 H 574.164 -1.47901 0.575423 0
M  V30 6023 H 574.185 -3.65475 -1.0587 0
M  V30 6024 H 573.697 -3.8059 0.759776 0
M  V30 6025 H 571.798 -3.33544 -1.66069 0
M  V30 6026 H 571.911 -4.77076 -0.439957 0
M  V30 6027 H 570.275 -2.52552 -0.330076 0
M  V30 6028 H 571.058 -3.22008 1.19019 0
M  V30 6029 N 573.503 -0.0852151 -1.57369 0
M  V30 6030 C 574.733 0.588605 -1.98038 0
M  V30 6031 C 575.141 1.62869 -0.962817 0
M  V30 6032 O 574.484 1.83611 0.057134 0
M  V30 6033 C 574.546 1.30303 -3.35054 0
M  V30 6034 C 574.21 0.414855 -4.55113 0
M  V30 6035 C 575.207 -0.333011 -5.18832 0
M  V30 6036 C 572.892 0.335804 -5.01176 0
M  V30 6037 C 574.886 -1.14801 -6.26976 0
M  V30 6038 C 572.573 -0.482857 -6.09189 0
M  V30 6039 C 573.571 -1.22342 -6.71953 0
M  V30 6040 O 573.259 -2.02855 -7.77885 0
M  V30 6041 H 572.991 0.163249 -0.655992 0
M  V30 6042 H 575.545 -0.1582 -2.0479 0
M  V30 6043 H 573.775 2.0962 -3.24956 0
M  V30 6044 H 575.464 1.87041 -3.60237 0
M  V30 6045 H 576.23 -0.281611 -4.84182 0
M  V30 6046 H 572.109 0.901869 -4.52092 0
M  V30 6047 H 575.653 -1.72654 -6.75897 0
M  V30 6048 H 571.55 -0.535773 -6.43273 0
M  V30 6049 H 572.318 -1.95432 -7.94826 0
M  V30 6050 N 574.981 1.5647 0.188427 0
M  V30 6051 C 575.891 1.98285 1.2538 0
M  V30 6052 C 576.907 0.891535 1.49424 0
M  V30 6053 O 578.083 1.19782 1.61908 0
M  V30 6054 C 575.148 2.31965 2.57669 0
M  V30 6055 C 574.209 3.54838 2.41638 0
M  V30 6056 C 573.442 3.86901 3.67618 0
M  V30 6057 O 573.665 3.20163 4.72072 0
M  V30 6058 O 572.599 4.80309 3.62749 0
M  V30 6059 H 576.425 2.89145 0.928912 0
M  V30 6060 H 574.01 1.44112 0.393955 0
M  V30 6061 H 575.892 2.54673 3.35737 0
M  V30 6062 H 574.567 1.44271 2.89771 0
M  V30 6063 H 573.474 3.37369 1.61658 0
M  V30 6064 H 574.807 4.43019 2.14465 0
M  V30 6065 N 576.459 -0.456382 1.50847 0
M  V30 6066 C 577.736 -1.21739 1.53098 0
M  V30 6067 C 578.116 -2.09179 0.284132 0
M  V30 6068 O 577.464 -2.16466 -0.731773 0
M  V30 6069 C 577.674 -2.03573 2.83477 0
M  V30 6070 C 579.022 -2.61264 3.34703 0
M  V30 6071 O 580.046 -2.13802 2.84898 0
M  V30 6072 O 578.905 -3.47779 4.21559 0
M  V30 6073 H 575.999 -0.553219 0.614718 0
M  V30 6074 H 578.545 -0.467003 1.63148 0
M  V30 6075 H 577.317 -1.39232 3.65691 0
M  V30 6076 H 576.94 -2.85716 2.76499 0
M  V30 6077 N 577.937 -1.40673 -0.710563 0
M  V30 6078 C 578.847 -1.43663 -1.85467 0
M  V30 6079 C 579.863 -0.328721 -1.70867 0
M  V30 6080 O 581.039 -0.574098 -1.93044 0
M  V30 6081 C 578.104 -1.30226 -3.21313 0
M  V30 6082 C 577.165 -2.51204 -3.48131 0
M  V30 6083 C 576.398 -2.38398 -4.77495 0
M  V30 6084 O 576.621 -1.40048 -5.5294 0
M  V30 6085 O 575.555 -3.2787 -5.04762 0
M  V30 6086 H 579.381 -2.40156 -1.859 0
M  V30 6087 H 576.966 -1.22049 -0.861652 0
M  V30 6088 H 578.848 -1.2496 -4.02446 0
M  V30 6089 H 577.523 -0.368419 -3.21597 0
M  V30 6090 H 576.43 -2.62048 -2.66987 0
M  V30 6091 H 577.763 -3.43366 -3.52648 0
M  V30 6092 N 579.415 0.9433 -1.26252 0
M  V30 6093 C 580.826 1.50404 -1.10614 0
M  V30 6094 C 581.177 1.93666 0.31429 0
M  V30 6095 O 580.302 1.79709 1.20555 0
M  V30 6096 C 580.897 2.73336 -2.00182 0
M  V30 6097 C 579.456 3.25686 -1.88695 0
M  V30 6098 C 578.603 1.98474 -1.93658 0
M  V30 6099 H 581.554 0.759006 -1.39373 0
M  V30 6100 H 581.575 3.47567 -1.54847 0
M  V30 6101 H 581.087 2.41818 -3.03555 0
M  V30 6102 H 579.188 3.61998 -0.882489 0
M  V30 6103 H 579.301 3.92935 -2.74115 0
M  V30 6104 H 577.665 2.14278 -1.37684 0
M  V30 6105 H 578.448 1.6929 -2.98657 0
M  V30 6106 N 580.893 1.08022 1.14757 0
M  V30 6107 C 582.133 0.816959 1.87364 0
M  V30 6108 C 582.497 -0.645407 1.80827 0
M  V30 6109 O 583.698 -1.024 2.48531 0
M  V30 6110 C 581.969 1.31961 3.32146 0
M  V30 6111 S 583.528 1.18806 4.2241 0
M  V30 6112 H 580.346 0.295862 0.646519 0
M  V30 6113 H 582.948 1.3807 1.38408 0
M  V30 6114 H 581.652 2.37847 3.3445 0
M  V30 6115 H 581.183 0.751371 3.86158 0
M  V30 6116 H 583.198 0.129865 4.9603 0
M  V30 6117 N 582.371 -1.3172 0.865308 0
M  V30 6118 C 583.787 -1.4958 0.556596 0
M  V30 6119 C 583.987 -1.79763 -0.910353 0
M  V30 6120 O 583.043 -1.87351 -1.6928 0
M  V30 6121 C 584.356 -2.63277 1.45279 0
M  V30 6122 C 585.904 -2.77161 1.45433 0
M  V30 6123 C 586.379 -3.93949 2.33598 0
M  V30 6124 N 587.87 -4.01228 2.31453 0
M  V30 6125 C 588.605 -4.90855 2.96393 0
M  V30 6126 N 588.101 -5.85416 3.70486 0
M  V30 6127 N 589.894 -4.84063 2.85726 0
M  V30 6128 H 582.045 -1.10396 1.81456 0
M  V30 6129 H 584.308 -0.54507 0.775631 0
M  V30 6130 H 584.014 -2.47734 2.49641 0
M  V30 6131 H 583.888 -3.59309 1.14792 0
M  V30 6132 H 586.275 -2.9212 0.41831 0
M  V30 6133 H 586.356 -1.8181 1.79941 0
M  V30 6134 H 586 -3.79748 3.37274 0
M  V30 6135 H 585.93 -4.88598 1.96417 0
M  V30 6136 H 588.421 -3.3357 1.77593 0
M  V30 6137 H 588.734 -6.50525 4.17178 0
M  V30 6138 H 587.079 -5.85409 3.74594 0
M  V30 6139 H 590.27 -4.09163 2.27384 0
M  V30 6140 H 590.443 -5.53708 3.36617 0
M  V30 6141 N 583.85 -0.624285 -1.44708 0
M  V30 6142 C 585.26 -0.2092 -1.85524 0
M  V30 6143 C 585.611 1.23783 -1.52225 0
M  V30 6144 O 584.736 1.94089 -0.956986 0
M  V30 6145 C 585.332 -0.372897 -3.36742 0
M  V30 6146 C 583.891 -0.012374 -3.76398 0
M  V30 6147 C 583.038 -0.68951 -2.68591 0
M  V30 6148 H 585.989 -0.829894 -1.35272 0
M  V30 6149 H 586.01 0.390134 -3.78495 0
M  V30 6150 H 585.522 -1.42615 -3.60947 0
M  V30 6151 H 583.623 1.03941 -3.57809 0
M  V30 6152 H 583.736 -0.417663 -4.77276 0
M  V30 6153 H 582.1 -0.125484 -2.54391 0
M  V30 6154 H 582.883 -1.74522 -2.9563 0
M  V30 6155 N 585.328 1.53329 -0.364422 0
M  V30 6156 C 586.568 2.0315 0.22572 0
M  V30 6157 C 586.932 1.24589 1.46087 0
M  V30 6158 O 588.133 1.64411 2.12656 0
M  V30 6159 C 586.404 3.53718 0.511663 0
M  V30 6160 S 587.963 4.25412 1.07564 0
M  V30 6161 H 584.781 0.70795 0.0657843 0
M  V30 6162 H 587.383 1.88811 -0.507019 0
M  V30 6163 H 586.087 4.08497 -0.394784 0
M  V30 6164 H 585.618 3.72217 1.27351 0
M  V30 6165 H 587.633 4.36486 2.35997 0
M  V30 6166 N 586.806 0.0935595 1.57322 0
M  V30 6167 C 587.754 -0.883457 2.15169 0
M  V30 6168 C 588.748 -1.29324 1.09415 0
M  V30 6169 O 589.954 -1.26795 1.27762 0
M  V30 6170 H 586.329 -0.302923 0.688289 0
M  V30 6171 H 588.3 -0.370845 2.96087 0
M  V30 6172 C 587.049 -2.13345 2.74552 0
M  V30 6173 H 586.372 -1.82702 3.55612 0
M  V30 6174 H 587.812 -2.7977 3.18598 0
M  V30 6175 C 586.271 -2.90646 1.70371 0
M  V30 6176 O 586.801 -3.85133 1.14173 0
M  V30 6177 N 585.007 -2.54157 1.40899 0
M  V30 6178 H 584.554 -1.77391 1.86789 0
M  V30 6179 H 584.512 -3.06178 0.714301 0
M  V30 6180 N 588.284 -1.56567 -0.180126 0
M  V30 6181 C 589.524 -1.83285 -0.904761 0
M  V30 6182 C 589.888 -0.673226 -1.7981 0
M  V30 6183 O 591.089 -0.820645 -2.55967 0
M  V30 6184 C 589.36 -3.15086 -1.68688 0
M  V30 6185 S 590.919 -3.63258 -2.46149 0
M  V30 6186 H 587.737 -0.643114 -0.303193 0
M  V30 6187 H 590.339 -1.94785 -0.167034 0
M  V30 6188 H 589.043 -3.97484 -1.02148 0
M  V30 6189 H 588.574 -3.06504 -2.46615 0
M  V30 6190 H 590.589 -3.29884 -3.70663 0
M  V30 6191 N 589.762 0.448376 -1.51087 0
M  V30 6192 C 591.039 1.20926 -1.53741 0
M  V30 6193 C 591.419 2.09025 -0.295222 0
M  V30 6194 O 590.767 2.16851 0.720283 0
M  V30 6195 C 590.977 2.02067 -2.84552 0
M  V30 6196 C 592.325 2.59486 -3.36084 0
M  V30 6197 O 593.349 2.12289 -2.86028 0
M  V30 6198 O 592.208 3.45539 -4.23397 0
M  V30 6199 H 589.302 0.549951 -0.617643 0
M  V30 6200 H 591.848 0.458344 -1.63393 0
M  V30 6201 H 590.62 1.37291 -3.66425 0
M  V30 6202 H 590.243 2.84246 -2.78011 0
M  V30 6203 N 591.24 1.41047 0.703093 0
M  V30 6204 C 592.651 1.35657 1.28274 0
M  V30 6205 C 593.002 0.0360309 1.96167 0
M  V30 6206 O 592.127 -0.865833 1.98324 0
M  V30 6207 C 592.722 2.45707 2.33267 0
M  V30 6208 C 591.281 2.43738 2.86825 0
M  V30 6209 C 590.428 2.25941 1.60767 0
M  V30 6210 H 593.379 1.50672 0.49836 0
M  V30 6211 H 593.4 2.14333 3.14391 0
M  V30 6212 H 592.912 3.41805 1.83824 0
M  V30 6213 H 591.013 1.51375 3.40465 0
M  V30 6214 H 591.126 3.39779 3.37768 0
M  V30 6215 H 589.49 1.73681 1.86298 0
M  V30 6216 H 590.273 3.24054 1.1333 0
M  V30 6217 N 592.718 -0.936591 1.26751 0
M  V30 6218 C 593.964 -1.6858 1.12733 0
M  V30 6219 C 594.297 -1.91414 -0.327745 0
M  V30 6220 O 593.572 -1.49812 -1.24043 0
M  V30 6221 C 593.855 -3.05779 1.90187 0
M  V30 6222 C 593.708 -2.90242 3.43627 0
M  V30 6223 C 595.027 -4.0597 1.69931 0
M  V30 6224 H 592.146 -0.61182 0.410908 0
M  V30 6225 H 594.788 -1.08747 1.55801 0
M  V30 6226 H 592.938 -3.56853 1.53584 0
M  V30 6227 H 594.61 -2.46354 3.9001 0
M  V30 6228 H 592.853 -2.2577 3.70419 0
M  V30 6229 H 593.524 -3.87572 3.93055 0
M  V30 6230 H 596 -3.63874 2.0183 0
M  V30 6231 H 594.876 -4.99974 2.26534 0
M  V30 6232 H 595.137 -4.37369 0.64502 0
M  V30 6233 N 594.196 -1.08629 -1.14182 0
M  V30 6234 C 595.444 -0.815731 -1.84906 0
M  V30 6235 C 595.765 0.660441 -1.83475 0
M  V30 6236 O 595.035 1.47888 -1.28476 0
M  V30 6237 H 593.615 -0.298773 -0.684648 0
M  V30 6238 H 596.277 -1.37274 -1.38354 0
M  V30 6239 H 595.373 -1.16193 -2.89665 0
M  V30 6240 N 595.674 1.31259 -0.872281 0
M  V30 6241 C 596.899 2.0133 -0.498099 0
M  V30 6242 C 597.324 1.65031 0.902568 0
M  V30 6243 O 596.682 0.860164 1.59596 0
M  V30 6244 C 596.73 3.54411 -0.665205 0
M  V30 6245 O 595.834 4.11347 0.294473 0
M  V30 6246 H 595.175 0.633844 -0.197832 0
M  V30 6247 H 597.705 1.67402 -1.17633 0
M  V30 6248 H 597.715 4.04147 -0.559373 0
M  V30 6249 H 596.39 3.80171 -1.68651 0
M  V30 6250 H 594.967 3.72624 0.143403 0
M  V30 6251 N 597.152 0.631951 1.44375 0
M  V30 6252 C 598.082 -0.0593243 2.33425 0
M  V30 6253 C 599.063 -0.833964 1.48253 0
M  V30 6254 O 600.248 -0.799682 1.76971 0
M  V30 6255 C 597.378 -1.04096 3.31333 0
M  V30 6256 C 596.332 -0.377899 4.26328 0
M  V30 6257 C 595.658 -1.4695 5.14111 0
M  V30 6258 C 596.958 0.716371 5.17364 0
M  V30 6259 H 598.652 0.684287 2.91475 0
M  V30 6260 H 596.198 0.330518 1.40156 0
M  V30 6261 H 598.151 -1.53331 3.92514 0
M  V30 6262 H 596.875 -1.81547 2.71493 0
M  V30 6263 H 595.534 0.0938054 3.6648 0
M  V30 6264 H 595.182 -2.2349 4.50623 0
M  V30 6265 H 594.882 -1.03121 5.78481 0
M  V30 6266 H 596.406 -1.96363 5.78164 0
M  V30 6267 H 597.82 0.307089 5.72477 0
M  V30 6268 H 596.217 1.07784 5.90341 0
M  V30 6269 H 597.287 1.58316 4.58327 0
M  V30 6270 N 598.631 -1.53133 0.372548 0
M  V30 6271 C 599.856 -2.0625 -0.218098 0
M  V30 6272 C 600.281 -1.24375 -1.41111 0
M  V30 6273 O 599.639 -0.264554 -1.79359 0
M  V30 6274 C 599.687 -3.55858 -0.582876 0
M  V30 6275 O 598.791 -3.76667 -1.67917 0
M  V30 6276 H 598.132 -0.663317 -0.030104 0
M  V30 6277 H 600.662 -1.97477 0.535169 0
M  V30 6278 H 600.672 -3.99007 -0.851925 0
M  V30 6279 H 599.347 -4.14892 0.289428 0
M  V30 6280 H 597.924 -3.45413 -1.40513 0
M  V30 6281 N 600.109 -0.101901 -1.5727 0
M  V30 6282 C 601.334 0.571759 -1.99363 0
M  V30 6283 C 601.759 1.60507 -0.980768 0
M  V30 6284 O 601.117 1.81231 0.0498517 0
M  V30 6285 C 601.165 1.18996 -3.404 0
M  V30 6286 O 600.269 2.30572 -3.41922 0
M  V30 6287 H 599.61 0.144449 -0.648098 0
M  V30 6288 H 602.14 -0.185325 -2.03759 0
M  V30 6289 H 602.15 1.52962 -3.78241 0
M  V30 6290 H 600.825 0.432984 -4.1364 0
M  V30 6291 H 599.402 1.98173 -3.15883 0
M  V30 6292 N 601.587 1.56661 0.17182 0
M  V30 6293 C 602.833 1.82235 0.889845 0
M  V30 6294 C 603.166 0.679673 1.81918 0
M  V30 6295 O 602.441 -0.318404 1.91876 0
M  V30 6296 C 602.724 3.18195 1.68595 0
M  V30 6297 C 602.577 4.42989 0.779773 0
M  V30 6298 C 603.896 3.5109 2.65375 0
M  V30 6299 H 601.015 0.66291 0.322056 0
M  V30 6300 H 603.657 1.89358 0.15608 0
M  V30 6301 H 601.807 3.12253 2.3115 0
M  V30 6302 H 603.479 4.60997 0.16714 0
M  V30 6303 H 601.722 4.33711 0.0877964 0
M  V30 6304 H 602.393 5.3467 1.3723 0
M  V30 6305 H 604.869 3.57482 2.12946 0
M  V30 6306 H 603.745 4.47298 3.18144 0
M  V30 6307 H 604.006 2.75768 3.45549 0
M  V30 6308 N 603.065 -0.440357 1.51323 0
M  V30 6309 C 604.305 -1.19956 1.65499 0
M  V30 6310 C 604.669 -1.88559 0.361878 0
M  V30 6311 O 605.87 -2.66109 0.379383 0
M  V30 6312 C 604.141 -2.1918 2.82303 0
M  V30 6313 S 605.7 -3.03627 3.1679 0
M  V30 6314 H 602.518 -0.406833 0.583102 0
M  V30 6315 H 605.12 -0.491596 1.89218 0
M  V30 6316 H 603.824 -1.67414 3.74701 0
M  V30 6317 H 603.355 -2.94561 2.60763 0
M  V30 6318 H 605.37 -4.20773 2.62991 0
M  V30 6319 N 604.543 -1.41418 -0.695603 0
M  V30 6320 C 605.792 -1.40073 -1.4513 0
M  V30 6321 C 606.105 -0.0130439 -1.95596 0
M  V30 6322 O 607.311 0.123032 -2.71221 0
M  V30 6323 C 605.767 -2.46286 -2.62433 0
M  V30 6324 C 605.375 -3.90962 -2.18753 0
M  V30 6325 C 607.119 -2.54077 -3.40066 0
M  V30 6326 C 605.026 -4.88728 -3.33015 0
M  V30 6327 H 603.956 -0.520903 -0.545138 0
M  V30 6328 H 606.607 -1.67242 -0.75515 0
M  V30 6329 H 604.989 -2.12248 -3.34315 0
M  V30 6330 H 606.163 -4.34248 -1.54161 0
M  V30 6331 H 604.478 -3.86831 -1.54114 0
M  V30 6332 H 607.075 -3.24303 -4.25125 0
M  V30 6333 H 607.418 -1.5776 -3.8525 0
M  V30 6334 H 607.951 -2.87206 -2.75241 0
M  V30 6335 H 604.69 -5.86449 -2.92844 0
M  V30 6336 H 604.21 -4.50091 -3.96457 0
M  V30 6337 H 605.889 -5.09483 -3.98793 0
M  V30 6338 N 606.021 0.929856 -1.27246 0
M  V30 6339 C 606.968 2.03017 -1.09785 0
M  V30 6340 C 607.938 1.661 0.000456744 0
M  V30 6341 O 609.123 1.90116 -0.161462 0
M  V30 6342 C 606.263 3.36878 -0.748816 0
M  V30 6343 C 605.376 3.86763 -1.92453 0
M  V30 6344 C 604.511 5.09061 -1.51758 0
M  V30 6345 C 603.55 5.51237 -2.66091 0
M  V30 6346 N 602.687 6.64732 -2.25999 0
M  V30 6347 H 607.527 2.17285 -2.03939 0
M  V30 6348 H 605.064 1.06448 -1.01524 0
M  V30 6349 H 607.022 4.13855 -0.527283 0
M  V30 6350 H 605.652 3.22424 0.155771 0
M  V30 6351 H 604.704 3.06086 -2.25867 0
M  V30 6352 H 606.016 4.13994 -2.78227 0
M  V30 6353 H 605.17 5.93532 -1.25716 0
M  V30 6354 H 603.909 4.83602 -0.630896 0
M  V30 6355 H 602.914 4.65316 -2.92849 0
M  V30 6356 H 604.139 5.78692 -3.55377 0
M  V30 6357 H 602.085 6.40935 -1.3978 0
M  V30 6358 H 602.002 6.91607 -3.05313 0
M  V30 6359 H 603.27 7.52549 -2.03199 0
M  V30 6360 N 607.499 1.09233 1.13605 0
M  V30 6361 C 608.776 0.739633 1.81077 0
M  V30 6362 C 609.156 -0.775595 1.96336 0
M  V30 6363 O 608.504 -1.69726 1.52988 0
M  V30 6364 C 608.714 1.47636 3.16235 0
M  V30 6365 C 610.062 1.64087 3.91613 0
M  V30 6366 O 611.086 1.43871 3.25852 0
M  V30 6367 O 609.945 1.97511 5.0956 0
M  V30 6368 H 607.039 0.265464 0.783236 0
M  V30 6369 H 609.585 1.19441 1.20549 0
M  V30 6370 H 608.357 2.50818 3.00344 0
M  V30 6371 H 607.98 1.01362 3.84462 0
M  V30 6372 N 608.977 -1.30795 0.87923 0
M  V30 6373 C 610.254 -1.91145 0.415086 0
M  V30 6374 C 610.634 -1.7995 -1.10368 0
M  V30 6375 O 609.982 -1.21305 -1.93642 0
M  V30 6376 C 610.192 -3.37014 0.906778 0
M  V30 6377 C 611.54 -4.14101 0.938358 0
M  V30 6378 O 612.564 -3.45834 0.853053 0
M  V30 6379 O 611.423 -5.36054 1.06342 0
M  V30 6380 H 608.517 -0.81736 0.125905 0
M  V30 6381 H 611.063 -1.39401 0.967753 0
M  V30 6382 H 609.835 -3.3922 1.95053 0
M  V30 6383 H 609.458 -3.96204 0.332948 0
M  V30 6384 N 610.455 -0.639598 -1.44038 0
M  V30 6385 C 611.385 0.0469443 -2.33453 0
M  V30 6386 C 612.366 0.82609 -1.48694 0
M  V30 6387 O 613.551 0.790285 -1.77393 0
M  V30 6388 C 610.681 1.02338 -3.3188 0
M  V30 6389 C 609.635 0.355284 -4.26523 0
M  V30 6390 C 608.961 1.44221 -5.14883 0
M  V30 6391 C 610.261 -0.743798 -5.16977 0
M  V30 6392 H 611.955 -0.699735 -2.91108 0
M  V30 6393 H 609.501 -0.337946 -1.39978 0
M  V30 6394 H 611.454 1.51247 -3.93322 0
M  V30 6395 H 610.178 1.80105 -2.72451 0
M  V30 6396 H 608.837 -0.113239 -3.66425 0
M  V30 6397 H 608.485 2.21097 -4.51802 0
M  V30 6398 H 608.185 1.00052 -5.79019 0
M  V30 6399 H 609.709 1.93295 -5.79197 0
M  V30 6400 H 611.123 -0.337444 -5.72306 0
M  V30 6401 H 609.52 -1.10914 -5.89761 0
M  V30 6402 H 610.59 -1.60745 -4.57481 0
M  V30 6403 N 611.933 1.52934 -0.380664 0
M  V30 6404 C 612.883 2.22989 0.475399 0
M  V30 6405 C 613.867 1.23058 1.03661 0
M  V30 6406 O 615.059 1.48436 0.964146 0
M  V30 6407 C 612.188 3.0338 1.60671 0
M  V30 6408 C 611.274 4.107 1.05766 0
M  V30 6409 N 611.665 5.05264 0.232837 0
M  V30 6410 C 609.963 4.25676 1.33101 0
M  V30 6411 C 610.664 5.81658 -0.0695134 0
M  V30 6412 N 609.64 5.40989 0.532144 0
M  V30 6413 H 613.442 2.93456 -0.161418 0
M  V30 6414 H 610.956 1.61291 -0.189495 0
M  V30 6415 H 612.953 3.52098 2.23232 0
M  V30 6416 H 611.613 2.34446 2.24644 0
M  V30 6417 H 612.624 5.17739 -0.129204 0
M  V30 6418 H 609.301 3.6797 1.97241 0
M  V30 6419 H 610.691 6.67843 -0.737269 0
M  V30 6420 N 613.412 0.11024 1.57214 0
M  V30 6421 C 614.637 -0.561179 1.99664 0
M  V30 6422 C 615.062 -1.59985 0.989266 0
M  V30 6423 O 614.42 -1.81255 -0.0402399 0
M  V30 6424 C 614.468 -1.17189 3.41027 0
M  V30 6425 O 613.572 -2.28755 3.4314 0
M  V30 6426 H 612.913 -0.14101 0.648855 0
M  V30 6427 H 615.443 0.196128 2.03658 0
M  V30 6428 H 615.453 -1.50954 3.79047 0
M  V30 6429 H 614.128 -0.411041 4.13864 0
M  V30 6430 H 612.705 -1.96495 3.16929 0
M  V30 6431 N 614.89 -1.56749 -0.16351 0
M  V30 6432 C 616.167 -1.73321 -0.906599 0
M  V30 6433 C 616.547 -0.673779 -2.00059 0
M  V30 6434 O 615.895 0.310121 -2.26386 0
M  V30 6435 C 616.105 -3.168 -1.46419 0
M  V30 6436 C 617.453 -3.77993 -1.93407 0
M  V30 6437 O 618.477 -3.20127 -1.56196 0
M  V30 6438 O 617.336 -4.79615 -2.61976 0
M  V30 6439 H 614.43 -0.708073 -0.427272 0
M  V30 6440 H 616.976 -1.69029 -0.150727 0
M  V30 6441 H 615.748 -3.85396 -0.677189 0
M  V30 6442 H 615.371 -3.2545 -2.28403 0
M  V30 6443 N 616.368 0.432326 -1.51554 0
M  V30 6444 C 617.298 1.53242 -1.76179 0
M  V30 6445 C 618.279 1.58717 -0.611801 0
M  V30 6446 O 619.464 1.74364 -0.855033 0
M  V30 6447 C 616.594 2.91278 -1.89141 0
M  V30 6448 C 615.548 3.00663 -3.04608 0
M  V30 6449 C 614.874 4.40728 -3.02759 0
M  V30 6450 C 616.174 2.74281 -4.44485 0
M  V30 6451 H 617.868 1.32886 -2.68294 0
M  V30 6452 H 615.414 0.637841 -1.29103 0
M  V30 6453 H 617.367 3.68203 -2.04951 0
M  V30 6454 H 616.091 3.12877 -0.936785 0
M  V30 6455 H 614.75 2.26179 -2.88511 0
M  V30 6456 H 614.398 4.59301 -2.05065 0
M  V30 6457 H 614.098 4.47936 -3.80299 0
M  V30 6458 H 615.622 5.19619 -3.20669 0
M  V30 6459 H 617.036 3.40936 -4.60907 0
M  V30 6460 H 615.433 2.92893 -5.23769 0
M  V30 6461 H 616.503 1.69856 -4.54177 0
M  V30 6462 N 617.846 1.41785 0.688094 0
M  V30 6463 C 618.796 1.40684 1.79421 0
M  V30 6464 C 619.78 0.280096 1.58443 0
M  V30 6465 O 620.972 0.521332 1.69148 0
M  V30 6466 C 618.101 1.29874 3.17785 0
M  V30 6467 C 617.187 2.47442 3.44432 0
M  V30 6468 N 617.578 3.72895 3.41736 0
M  V30 6469 C 615.876 2.41416 3.75013 0
M  V30 6470 C 616.577 4.50912 3.67496 0
M  V30 6471 N 615.553 3.81131 3.87608 0
M  V30 6472 H 619.355 2.35591 1.7571 0
M  V30 6473 H 616.869 1.35946 0.888393 0
M  V30 6474 H 618.866 1.27168 3.97031 0
M  V30 6475 H 617.526 0.359587 3.22703 0
M  V30 6476 H 618.537 4.05676 3.21943 0
M  V30 6477 H 615.214 1.56011 3.87256 0
M  V30 6478 H 616.604 5.59865 3.71484 0
M  V30 6479 N 619.324 -0.923095 1.27737 0
M  V30 6480 C 620.272 -2.04567 1.10703 0
M  V30 6481 C 621.266 -1.69375 0.0288445 0
M  V30 6482 O 622.472 -1.79027 0.186913 0
M  V30 6483 H 618.847 -0.670109 0.34126 0
M  V30 6484 H 620.818 -2.1608 2.05796 0
M  V30 6485 C 619.567 -3.38934 0.775837 0
M  V30 6486 H 618.89 -3.66501 1.59741 0
M  V30 6487 H 620.33 -4.18239 0.696548 0
M  V30 6488 C 618.789 -3.32863 -0.520012 0
M  V30 6489 O 619.319 -3.70462 -1.55308 0
M  V30 6490 N 617.525 -2.85958 -0.51732 0
M  V30 6491 H 617.072 -2.55557 0.32379 0
M  V30 6492 H 617.03 -2.82279 -1.38441 0
M  V30 6493 N 620.802 -1.09834 -1.13024 0
M  V30 6494 C 622.05 -0.835297 -1.8403 0
M  V30 6495 C 622.371 0.640944 -1.84165 0
M  V30 6496 O 621.641 1.46517 -1.30037 0
M  V30 6497 H 620.221 -0.306018 -0.681441 0
M  V30 6498 H 622.883 -1.38734 -1.36891 0
M  V30 6499 H 621.979 -1.19258 -2.88416 0
M  V30 6500 N 622.28 1.30327 -0.886154 0
M  V30 6501 C 623.227 2.28099 -0.352069 0
M  V30 6502 C 624.197 1.56433 0.558397 0
M  V30 6503 O 625.382 1.84492 0.486561 0
M  V30 6504 C 622.522 3.42456 0.426346 0
M  V30 6505 C 621.635 4.28938 -0.513472 0
M  V30 6506 C 620.77 5.30458 0.280657 0
M  V30 6507 C 619.809 6.0859 -0.654556 0
M  V30 6508 N 618.946 7.02022 0.104322 0
M  V30 6509 H 623.786 2.73166 -1.19097 0
M  V30 6510 H 621.323 1.34367 -0.598662 0
M  V30 6511 H 623.281 4.07518 0.893587 0
M  V30 6512 H 621.911 2.98455 1.22981 0
M  V30 6513 H 620.963 3.64173 -1.09921 0
M  V30 6514 H 622.275 4.83399 -1.2299 0
M  V30 6515 H 621.429 6.01273 0.8097 0
M  V30 6516 H 620.168 4.76693 1.03029 0
M  V30 6517 H 619.173 5.36651 -1.19522 0
M  V30 6518 H 620.398 6.64443 -1.4033 0
M  V30 6519 H 618.344 6.50645 0.836472 0
M  V30 6520 H 618.261 7.53979 -0.552453 0
M  V30 6521 H 619.529 7.77077 0.614069 0
M  V30 6522 N 623.758 0.647228 1.43697 0
M  V30 6523 C 624.69 -0.0866232 2.29036 0
M  V30 6524 C 625.703 -0.793051 1.42178 0
M  V30 6525 O 626.892 -0.651807 1.66174 0
M  V30 6526 C 623.992 -1.14552 3.18953 0
M  V30 6527 C 623.165 -0.518422 4.34317 0
M  V30 6528 C 622.224 -1.4734 5.05151 0
M  V30 6529 O 621.25 -0.984312 5.60625 0
M  V30 6530 N 622.452 -2.8075 5.08094 0
M  V30 6531 H 625.217 0.645834 2.92659 0
M  V30 6532 H 622.778 0.489567 1.54321 0
M  V30 6533 H 624.77 -1.78505 3.63205 0
M  V30 6534 H 623.34 -1.78001 2.56971 0
M  V30 6535 H 622.56 0.300079 3.93056 0
M  V30 6536 H 623.848 -0.080401 5.08736 0
M  V30 6537 H 623.246 -3.23052 4.64386 0
M  V30 6538 H 621.803 -3.40022 5.56083 0
M  V30 6539 N 625.236 -1.5273 0.388769 0
M  V30 6540 C 626.647 -1.86505 -0.0853788 0
M  V30 6541 C 626.998 -1.30847 -1.46197 0
M  V30 6542 O 626.123 -0.639609 -2.06732 0
M  V30 6543 C 626.718 -3.38414 -0.161703 0
M  V30 6544 C 625.277 -3.71902 -0.580144 0
M  V30 6545 C 624.424 -2.76095 0.258218 0
M  V30 6546 H 627.375 -1.46647 0.606665 0
M  V30 6547 H 627.396 -3.67638 -0.980936 0
M  V30 6548 H 626.908 -3.78893 0.840333 0
M  V30 6549 H 625.009 -3.36992 -1.58957 0
M  V30 6550 H 625.122 -4.77902 -0.338663 0
M  V30 6551 H 623.486 -2.53195 -0.276432 0
M  V30 6552 H 624.269 -3.19411 1.25822 0
M  V30 6553 N 626.714 -0.118576 -1.57153 0
M  V30 6554 C 627.962 0.538461 -1.94795 0
M  V30 6555 C 628.283 1.67243 -1.00274 0
M  V30 6556 O 627.553 1.95811 -0.0589692 0
M  V30 6557 H 626.133 0.201904 -0.719197 0
M  V30 6558 H 628.795 -0.187418 -1.93997 0
M  V30 6559 H 627.891 0.933315 -2.97818 0
M  V30 6560 N 628.193 1.56834 0.155195 0
M  V30 6561 C 629.125 1.94235 1.21677 0
M  V30 6562 C 630.138 0.83724 1.39621 0
M  V30 6563 O 631.327 1.11567 1.39338 0
M  V30 6564 C 628.427 2.19402 2.58294 0
M  V30 6565 C 627.6 3.50671 2.61436 0
M  V30 6566 C 626.659 3.64475 3.79532 0
M  V30 6567 O 625.685 4.36945 3.64784 0
M  V30 6568 N 626.887 3.00526 4.96653 0
M  V30 6569 H 629.652 2.85901 0.898932 0
M  V30 6570 H 627.213 1.58185 0.34483 0
M  V30 6571 H 629.205 2.25886 3.35794 0
M  V30 6572 H 627.775 1.34042 2.82403 0
M  V30 6573 H 626.995 3.55702 1.69912 0
M  V30 6574 H 628.283 4.3702 2.60559 0
M  V30 6575 H 627.681 2.41549 5.11538 0
M  V30 6576 H 626.238 3.12583 5.71958 0
M  V30 6577 N 629.671 -0.424282 1.51781 0
M  V30 6578 C 630.911 -1.18194 1.66762 0
M  V30 6579 C 631.275 -1.88164 0.381857 0
M  V30 6580 O 632.476 -2.65692 0.407586 0
M  V30 6581 C 630.747 -2.16173 2.84612 0
M  V30 6582 S 632.306 -3.0025 3.19993 0
M  V30 6583 H 629.124 -0.400626 0.587384 0
M  V30 6584 H 631.726 -0.471499 1.89729 0
M  V30 6585 H 630.43 -1.6343 3.76455 0
M  V30 6586 H 629.961 -2.91778 2.63873 0
M  V30 6587 H 631.976 -4.1796 2.67439 0
M  V30 6588 N 631.149 -1.42148 -0.680565 0
M  V30 6589 C 632.56 -1.3768 -1.26099 0
M  V30 6590 C 632.911 -0.0672348 -1.96085 0
M  V30 6591 O 632.036 0.834172 -1.99676 0
M  V30 6592 C 632.631 -2.49387 -2.29328 0
M  V30 6593 C 631.19 -2.4827 -2.82911 0
M  V30 6594 C 630.337 -2.2847 -1.57152 0
M  V30 6595 H 633.288 -1.51446 -0.474326 0
M  V30 6596 H 633.309 -2.19307 -3.10941 0
M  V30 6597 H 632.821 -3.44686 -1.78363 0
M  V30 6598 H 630.922 -1.56773 -3.38013 0
M  V30 6599 H 631.035 -3.45109 -3.3232 0
M  V30 6600 H 629.399 -1.76623 -1.83511 0
M  V30 6601 H 630.182 -3.25816 -1.0816 0
M  V30 6602 N 632.627 0.916307 -1.28225 0
M  V30 6603 C 633.867 1.67964 -1.16479 0
M  V30 6604 C 634.231 1.8991 0.282494 0
M  V30 6605 O 635.432 2.63671 0.522607 0
M  V30 6606 C 633.703 3.00251 -1.93866 0
M  V30 6607 S 635.262 3.91353 -1.98465 0
M  V30 6608 H 632.08 0.576873 -0.415619 0
M  V30 6609 H 634.682 1.09006 -1.62289 0
M  V30 6610 H 633.386 2.81978 -2.98189 0
M  V30 6611 H 632.917 3.64257 -1.48595 0
M  V30 6612 H 634.932 4.84096 -1.0893 0
M  V30 6613 N 634.105 1.10431 1.1244 0
M  V30 6614 C 635.052 0.753103 2.18167 0
M  V30 6615 C 636.022 -0.270549 1.63882 0
M  V30 6616 O 637.207 -0.149837 1.90211 0
M  V30 6617 C 634.347 0.191046 3.44571 0
M  V30 6618 C 633.46 1.26999 4.12911 0
M  V30 6619 C 632.595 0.669586 5.26963 0
M  V30 6620 C 631.634 1.72912 5.87169 0
M  V30 6621 N 630.771 1.14898 6.92635 0
M  V30 6622 H 635.611 1.65892 2.47556 0
M  V30 6623 H 633.148 0.828631 1.21541 0
M  V30 6624 H 635.106 -0.152712 4.1692 0
M  V30 6625 H 633.736 -0.677997 3.15599 0
M  V30 6626 H 632.788 1.73087 3.3874 0
M  V30 6627 H 634.1 2.07204 4.53727 0
M  V30 6628 H 633.254 0.275274 6.06075 0
M  V30 6629 H 631.993 -0.163895 4.87425 0
M  V30 6630 H 630.998 2.13286 5.06744 0
M  V30 6631 H 632.223 2.56544 6.28778 0
M  V30 6632 H 630.169 0.336956 6.55134 0
M  V30 6633 H 630.086 1.88786 7.32049 0
M  V30 6634 H 631.354 0.78121 7.75576 0
M  V30 6635 N 635.583 -1.29855 0.893053 0
M  V30 6636 C 636.493 -2.31661 0.370157 0
M  V30 6637 C 637.509 -1.65677 -0.531723 0
M  V30 6638 O 638.685 -1.9691 -0.422902 0
M  V30 6639 C 635.75 -3.44388 -0.399741 0
M  V30 6640 C 634.811 -4.2598 0.532861 0
M  V30 6641 C 634.044 -5.33324 -0.200388 0
M  V30 6642 O 634.267 -5.52305 -1.42531 0
M  V30 6643 O 633.201 -6.00188 0.453668 0
M  V30 6644 H 637.027 -2.78354 1.2146 0
M  V30 6645 H 634.612 -1.34171 0.657153 0
M  V30 6646 H 636.494 -4.13037 -0.835358 0
M  V30 6647 H 635.169 -2.99815 -1.22035 0
M  V30 6648 H 634.076 -3.59998 1.01746 0
M  V30 6649 H 635.409 -4.74178 1.3197 0
M  V30 6650 N 637.061 -0.65484 -1.43351 0
M  V30 6651 C 638.309 -0.168559 -2.01396 0
M  V30 6652 C 638.63 1.22235 -1.51933 0
M  V30 6653 O 637.9 1.81685 -0.732627 0
M  V30 6654 H 636.48 -0.0593244 -0.744641 0
M  V30 6655 H 639.142 -0.846871 -1.75539 0
M  V30 6656 H 638.238 -0.154428 -3.11718 0
M  V30 6657 N 638.539 1.52521 -0.396863 0
M  V30 6658 C 639.769 2.05792 0.182485 0
M  V30 6659 C 640.177 1.26784 1.40436 0
M  V30 6660 O 639.52 0.309617 1.81072 0
M  V30 6661 C 639.582 3.54291 0.609781 0
M  V30 6662 C 639.246 4.5426 -0.499674 0
M  V30 6663 C 640.243 5.01812 -1.35944 0
M  V30 6664 C 637.928 4.97827 -0.668864 0
M  V30 6665 C 639.922 5.91562 -2.37346 0
M  V30 6666 C 637.609 5.87376 -1.68621 0
M  V30 6667 C 638.607 6.34137 -2.53692 0
M  V30 6668 O 638.295 7.21915 -3.53686 0
M  V30 6669 H 638.027 0.675362 0.0293583 0
M  V30 6670 H 640.581 1.97539 -0.56281 0
M  V30 6671 H 638.811 3.60188 1.40717 0
M  V30 6672 H 640.5 3.90267 1.11565 0
M  V30 6673 H 641.266 4.68879 -1.24008 0
M  V30 6674 H 637.145 4.60997 -0.0163971 0
M  V30 6675 H 640.689 6.27983 -3.03782 0
M  V30 6676 H 636.586 6.19723 -1.80593 0
M  V30 6677 H 637.354 7.39996 -3.49784 0
M  V30 6678 N 640.017 0.126909 1.57088 0
M  V30 6679 C 641.245 -0.53667 1.99819 0
M  V30 6680 C 641.66 -1.5972 1.00673 0
M  V30 6681 O 641.017 -1.825 0.000747365 0
M  V30 6682 C 641.068 -1.15563 3.42531 0
M  V30 6683 O 640.789 -0.137483 4.37884 0
M  V30 6684 C 642.29 -1.90176 4.00435 0
M  V30 6685 H 639.51 -0.141443 0.655923 0
M  V30 6686 H 642.054 0.215578 2.03361 0
M  V30 6687 H 640.209 -1.85861 3.39904 0
M  V30 6688 H 640.623 -0.588229 5.21191 0
M  V30 6689 H 642.097 -2.28801 5.02349 0
M  V30 6690 H 642.574 -2.78002 3.40017 0
M  V30 6691 H 643.18 -1.24623 4.06632 0
M  V30 6692 N 641.495 -1.56914 -0.146875 0
M  V30 6693 C 642.743 -1.82994 -0.85777 0
M  V30 6694 C 643.064 -0.707814 -1.817 0
M  V30 6695 O 642.334 0.270521 -1.94023 0
M  V30 6696 H 640.914 -0.675106 -0.319751 0
M  V30 6697 H 643.576 -1.9439 -0.140849 0
M  V30 6698 H 642.672 -2.77928 -1.41994 0
M  V30 6699 N 642.974 0.416227 -1.52004 0
M  V30 6700 C 643.884 1.53147 -1.77717 0
M  V30 6701 C 644.9 1.609 -0.662368 0
M  V30 6702 O 646.076 1.77747 -0.946991 0
M  V30 6703 C 643.141 2.88948 -1.91598 0
M  V30 6704 C 642.202 2.9114 -3.15493 0
M  V30 6705 C 641.435 4.20464 -3.28703 0
M  V30 6706 O 641.658 5.13981 -2.47345 0
M  V30 6707 O 640.592 4.29368 -4.21813 0
M  V30 6708 H 644.418 1.34357 -2.72363 0
M  V30 6709 H 642.003 0.601373 -1.36762 0
M  V30 6710 H 643.885 3.69505 -2.02593 0
M  V30 6711 H 642.56 3.07821 -1.00141 0
M  V30 6712 H 641.467 2.09461 -3.09962 0
M  V30 6713 H 642.8 2.77216 -4.06709 0
M  V30 6714 N 644.452 1.42507 0.673017 0
M  V30 6715 C 645.399 1.46124 1.78651 0
M  V30 6716 C 646.369 0.313007 1.63124 0
M  V30 6717 O 647.554 0.517337 1.83653 0
M  V30 6718 C 644.694 1.3711 3.16694 0
M  V30 6719 C 643.807 2.61983 3.43495 0
M  V30 6720 C 642.942 2.45098 4.71275 0
M  V30 6721 C 641.981 3.65336 4.91117 0
M  V30 6722 N 641.118 3.47383 6.10139 0
M  V30 6723 H 645.958 2.4128 1.74895 0
M  V30 6724 H 643.495 1.19788 0.853766 0
M  V30 6725 H 645.453 1.29881 3.96468 0
M  V30 6726 H 644.083 0.45549 3.1957 0
M  V30 6727 H 643.135 2.79571 2.57961 0
M  V30 6728 H 644.447 3.51355 3.5405 0
M  V30 6729 H 643.601 2.35466 5.59143 0
M  V30 6730 H 642.34 1.53219 4.63007 0
M  V30 6731 H 641.345 3.754 4.0169 0
M  V30 6732 H 642.57 4.58199 5.01229 0
M  V30 6733 H 640.516 2.58222 6.0304 0
M  V30 6734 H 640.433 4.30344 6.21563 0
M  V30 6735 H 641.701 3.41565 7.00681 0
M  V30 6736 N 645.93 -0.909495 1.28709 0
M  V30 6737 C 647.17 -1.67344 1.17368 0
M  V30 6738 C 647.534 -1.90058 -0.272419 0
M  V30 6739 O 648.735 -2.63944 -0.508617 0
M  V30 6740 C 647.006 -2.99219 1.95455 0
M  V30 6741 S 648.565 -3.90295 2.00538 0
M  V30 6742 H 645.383 -0.57466 0.418672 0
M  V30 6743 H 647.985 -1.08144 1.62865 0
M  V30 6744 H 646.689 -2.80393 2.9968 0
M  V30 6745 H 646.22 -3.63464 1.50524 0
M  V30 6746 H 648.235 -4.83511 1.11496 0
M  V30 6747 N 647.408 -1.11026 -1.11852 0
M  V30 6748 C 648.685 -0.768347 -1.79877 0
M  V30 6749 C 649.065 0.744261 -1.97545 0
M  V30 6750 O 648.413 1.67271 -1.55669 0
M  V30 6751 C 648.623 -1.52648 -3.13846 0
M  V30 6752 C 649.971 -1.70297 -3.88953 0
M  V30 6753 O 650.995 -1.49037 -3.23522 0
M  V30 6754 O 649.854 -2.05593 -5.06353 0
M  V30 6755 H 646.948 -0.277891 -0.778913 0
M  V30 6756 H 649.494 -1.21343 -1.18633 0
M  V30 6757 H 648.266 -2.55564 -2.96315 0
M  V30 6758 H 647.889 -1.07466 -3.82801 0
M  V30 6759 N 648.886 1.2938 -0.899927 0
M  V30 6760 C 650.302 1.48052 -0.596059 0
M  V30 6761 C 650.502 1.82114 0.862372 0
M  V30 6762 O 649.558 1.91774 1.64253 0
M  V30 6763 C 650.871 2.59332 -1.52208 0
M  V30 6764 C 652.419 2.73208 -1.5273 0
M  V30 6765 C 652.894 3.87617 -2.43961 0
M  V30 6766 N 654.385 3.9495 -2.42009 0
M  V30 6767 C 655.12 4.82824 -3.09303 0
M  V30 6768 N 654.616 5.75387 -3.85877 0
M  V30 6769 N 656.409 4.76317 -2.98459 0
M  V30 6770 H 648.56 1.05546 -1.8432 0
M  V30 6771 H 650.823 0.524314 -0.78981 0
M  V30 6772 H 650.529 2.41029 -2.56121 0
M  V30 6773 H 650.403 3.56139 -1.24278 0
M  V30 6774 H 652.79 2.90908 -0.495614 0
M  V30 6775 H 652.871 1.76975 -1.84698 0
M  V30 6776 H 652.515 3.70672 -3.47224 0
M  V30 6777 H 652.445 4.83218 -2.09303 0
M  V30 6778 H 654.936 3.28744 -1.86375 0
M  V30 6779 H 655.249 6.39235 -4.34279 0
M  V30 6780 H 653.594 5.75272 -3.89984 0
M  V30 6781 H 656.785 4.0299 -2.38152 0
M  V30 6782 H 656.958 5.44589 -3.51179 0
M  V30 6783 N 650.364 0.662433 1.43002 0
M  V30 6784 C 651.604 0.183312 2.03576 0
M  V30 6785 C 651.968 -1.18354 1.51183 0
M  V30 6786 O 653.169 -1.7566 2.03462 0
M  V30 6787 C 651.44 0.202908 3.56824 0
M  V30 6788 S 652.999 -0.20702 4.38311 0
M  V30 6789 H 649.817 0.0765001 0.706872 0
M  V30 6790 H 652.419 0.872827 1.74934 0
M  V30 6791 H 651.123 1.20028 3.92456 0
M  V30 6792 H 650.654 -0.506845 3.90121 0
M  V30 6793 H 652.669 -1.44358 4.74737 0
M  V30 6794 N 651.842 -1.52309 0.404946 0
M  V30 6795 C 652.774 -2.24579 -0.45791 0
M  V30 6796 C 653.787 -1.2739 -1.01369 0
M  V30 6797 O 654.976 -1.53363 -0.91335 0
M  V30 6798 C 652.076 -2.9608 -1.64893 0
M  V30 6799 C 651.249 -4.20106 -1.21777 0
M  V30 6800 C 650.308 -4.74468 -2.27523 0
M  V30 6801 O 649.334 -5.37157 -1.88285 0
M  V30 6802 N 650.536 -4.55678 -3.59635 0
M  V30 6803 H 653.301 -2.99265 0.161341 0
M  V30 6804 H 650.862 -1.60228 0.232107 0
M  V30 6805 H 652.854 -3.29344 -2.35191 0
M  V30 6806 H 651.424 -2.24606 -2.17419 0
M  V30 6807 H 650.644 -3.92704 -0.343071 0
M  V30 6808 H 651.932 -5.00658 -0.906596 0
M  V30 6809 H 651.33 -4.05673 -3.94266 0
M  V30 6810 H 649.887 -4.9339 -4.25922 0
M  V30 6811 N 653.32 -0.135238 -1.57019 0
M  V30 6812 C 654.25 0.805235 -2.19176 0
M  V30 6813 C 655.231 1.2656 -1.13651 0
M  V30 6814 O 656.416 1.32528 -1.4195 0
M  V30 6815 C 653.546 2.04914 -2.80406 0
M  V30 6816 C 652.5 1.72598 -3.91655 0
M  V30 6817 C 651.826 3.04154 -4.39766 0
M  V30 6818 C 653.126 0.981709 -5.12991 0
M  V30 6819 H 654.82 0.287232 -2.98019 0
M  V30 6820 H 652.366 0.136714 -1.4335 0
M  V30 6821 H 654.319 2.71178 -3.22553 0
M  V30 6822 H 653.043 2.59067 -1.98877 0
M  V30 6823 H 651.702 1.08717 -3.50109 0
M  V30 6824 H 651.35 3.56274 -3.55075 0
M  V30 6825 H 651.05 2.83299 -5.14796 0
M  V30 6826 H 652.574 3.71509 -4.84576 0
M  V30 6827 H 653.988 1.5462 -5.52056 0
M  V30 6828 H 652.385 0.873533 -5.93708 0
M  V30 6829 H 653.455 -0.0286887 -4.84892 0
M  V30 6830 N 654.798 1.5699 0.138552 0
M  V30 6831 C 656.046 1.83446 0.848053 0
M  V30 6832 C 656.367 0.71744 1.81322 0
M  V30 6833 O 655.637 -0.260228 1.94164 0
M  V30 6834 H 654.217 0.676792 0.316166 0
M  V30 6835 H 656.879 1.94462 0.130538 0
M  V30 6836 H 655.975 2.78677 1.40518 0
M  V30 6837 N 656.276 -0.40816 1.52223 0
M  V30 6838 C 657.506 -1.17501 1.69932 0
M  V30 6839 C 657.914 -1.84729 0.408874 0
M  V30 6840 O 657.257 -1.7274 -0.625025 0
M  V30 6841 C 657.319 -2.27994 2.77955 0
M  V30 6842 C 656.983 -1.80894 4.19674 0
M  V30 6843 C 657.98 -1.29618 5.03483 0
M  V30 6844 C 655.665 -1.87698 4.65913 0
M  V30 6845 C 657.659 -0.857695 6.31603 0
M  V30 6846 C 655.346 -1.43461 5.94022 0
M  V30 6847 C 656.344 -0.925822 6.76696 0
M  V30 6848 O 656.032 -0.489841 8.02406 0
M  V30 6849 H 655.764 -0.359065 0.572755 0
M  V30 6850 H 658.318 -0.486188 1.99563 0
M  V30 6851 H 656.548 -3.00243 2.43703 0
M  V30 6852 H 658.237 -2.89749 2.84254 0
M  V30 6853 H 659.003 -1.23733 4.68951 0
M  V30 6854 H 654.882 -2.26244 4.01665 0
M  V30 6855 H 658.426 -0.459879 6.96083 0
M  V30 6856 H 654.323 -1.49026 6.28062 0
M  V30 6857 H 655.091 -0.613062 8.16201 0
M  V30 6858 N 657.755 -1.42862 -0.66545 0
M  V30 6859 C 658.702 -1.4707 -1.77874 0
M  V30 6860 C 659.672 -0.321654 -1.62956 0
M  V30 6861 O 660.857 -0.52707 -1.83376 0
M  V30 6862 C 657.997 -1.38788 -3.15962 0
M  V30 6863 C 657.11 -2.63801 -3.42101 0
M  V30 6864 C 656.245 -2.47594 -4.69969 0
M  V30 6865 C 655.284 -3.67936 -4.89172 0
M  V30 6866 N 654.421 -3.50614 -6.08288 0
M  V30 6867 H 659.261 -2.42204 -1.73613 0
M  V30 6868 H 656.798 -1.20239 -0.847401 0
M  V30 6869 H 658.756 -1.31982 -3.95773 0
M  V30 6870 H 657.386 -0.472431 -3.19324 0
M  V30 6871 H 656.438 -2.80935 -2.56475 0
M  V30 6872 H 657.75 -3.53228 -3.52181 0
M  V30 6873 H 656.904 -2.38427 -5.57886 0
M  V30 6874 H 655.643 -1.55672 -4.62188 0
M  V30 6875 H 654.648 -3.77525 -3.99694 0
M  V30 6876 H 655.873 -4.60851 -4.98792 0
M  V30 6877 H 653.819 -2.61417 -6.01662 0
M  V30 6878 H 653.736 -4.33634 -6.19272 0
M  V30 6879 H 655.004 -3.45276 -6.98859 0
M  V30 6880 N 659.233 0.902656 -1.29189 0
M  V30 6881 C 660.51 1.63296 -1.07674 0
M  V30 6882 C 660.89 2.07649 0.380137 0
M  V30 6883 O 660.238 1.82997 1.36837 0
M  V30 6884 C 660.448 2.81603 -2.06158 0
M  V30 6885 C 661.796 3.52359 -2.36914 0
M  V30 6886 O 662.82 2.91767 -2.04329 0
M  V30 6887 O 661.679 4.61586 -2.92576 0
M  V30 6888 H 658.773 0.716889 -0.41231 0
M  V30 6889 H 661.319 0.950984 -1.4055 0
M  V30 6890 H 660.091 2.46004 -3.04299 0
M  V30 6891 H 659.714 3.57508 -1.73993 0
M  V30 6892 N 660.711 1.11618 1.11262 0
M  V30 6893 C 661.941 0.88745 1.86569 0
M  V30 6894 C 662.349 -0.56636 1.80524 0
M  V30 6895 O 661.692 -1.40289 1.18594 0
M  V30 6896 C 661.754 1.27313 3.36202 0
M  V30 6897 C 661.418 2.73649 3.66013 0
M  V30 6898 C 662.415 3.71863 3.63337 0
M  V30 6899 C 660.1 3.10342 3.9496 0
M  V30 6900 C 662.094 5.04788 3.89188 0
M  V30 6901 C 659.781 4.43451 4.20469 0
M  V30 6902 C 660.779 5.40484 4.17572 0
M  V30 6903 O 660.467 6.71195 4.42439 0
M  V30 6904 H 660.199 0.317543 0.596777 0
M  V30 6905 H 662.753 1.48768 1.41624 0
M  V30 6906 H 660.983 0.616062 3.81761 0
M  V30 6907 H 662.672 1.01991 3.92877 0
M  V30 6908 H 663.438 3.44861 3.41022 0
M  V30 6909 H 659.317 2.35431 3.9635 0
M  V30 6910 H 662.861 5.80516 3.86842 0
M  V30 6911 H 658.758 4.70187 4.42261 0
M  V30 6912 H 659.526 6.77012 4.59997 0
M  V30 6913 N 662.189 -1.289 0.906776 0
M  V30 6914 C 663.6 -1.77336 0.58384 0
M  V30 6915 C 663.951 -1.74304 -0.900697 0
M  V30 6916 O 663.076 -1.33335 -1.70443 0
M  V30 6917 C 663.671 -3.22019 1.05304 0
M  V30 6918 C 662.23 -3.68205 0.781148 0
M  V30 6919 C 661.377 -2.48837 1.22373 0
M  V30 6920 H 664.328 -1.15462 1.08877 0
M  V30 6921 H 664.349 -3.78481 0.391414 0
M  V30 6922 H 663.861 -3.24194 2.13353 0
M  V30 6923 H 661.962 -3.71497 -0.28643 0
M  V30 6924 H 662.075 -4.58675 1.384 0
M  V30 6925 H 660.439 -2.46461 0.642594 0
M  V30 6926 H 661.222 -2.53736 2.31242 0
M  V30 6927 N 663.667 -0.670007 -1.42649 0
M  V30 6928 C 664.895 -0.19854 -2.05945 0
M  V30 6929 C 665.31 1.14243 -1.50313 0
M  V30 6930 O 664.667 1.70872 -0.641027 0
M  V30 6931 C 664.718 -0.11966 -3.61302 0
M  V30 6932 O 664.439 -1.40764 -4.1487 0
M  V30 6933 C 665.94 0.375878 -4.41704 0
M  V30 6934 H 663.16 -0.0976894 -0.663851 0
M  V30 6935 H 665.704 -0.915392 -1.82868 0
M  V30 6936 H 663.859 0.547851 -3.83507 0
M  V30 6937 H 664.273 -1.27784 -5.08696 0
M  V30 6938 H 665.747 0.379988 -5.50691 0
M  V30 6939 H 666.224 1.41028 -4.15942 0
M  V30 6940 H 666.83 -0.259727 -4.24506 0
M  V30 6941 N 665.145 1.52092 -0.413018 0
M  V30 6942 C 666.385 2.03765 0.160975 0
M  V30 6943 C 666.749 1.29174 1.4205 0
M  V30 6944 O 667.95 1.71093 2.07318 0
M  V30 6945 C 666.221 3.55167 0.398871 0
M  V30 6946 S 667.78 4.28619 0.939755 0
M  V30 6947 H 664.598 0.709685 0.0432281 0
M  V30 6948 H 667.2 1.87102 -0.566831 0
M  V30 6949 H 665.904 4.07034 -0.524544 0
M  V30 6950 H 665.435 3.7608 1.15444 0
M  V30 6951 H 667.45 4.43773 2.21991 0
M  V30 6952 N 666.623 0.143563 1.56945 0
M  V30 6953 C 667.869 -0.50916 1.96304 0
M  V30 6954 C 668.202 -1.64741 1.0283 0
M  V30 6955 O 667.477 -1.94374 0.0700361 0
M  V30 6956 C 667.76 -1.0186 3.45393 0
M  V30 6957 C 667.613 0.117923 4.49645 0
M  V30 6958 C 668.932 -1.90151 3.96901 0
M  V30 6959 H 666.051 -0.183608 0.713763 0
M  V30 6960 H 668.693 0.224095 1.88674 0
M  V30 6961 H 666.843 -1.64345 3.52027 0
M  V30 6962 H 668.515 0.754145 4.55094 0
M  V30 6963 H 666.758 0.777568 4.26774 0
M  V30 6964 H 667.429 -0.280187 5.51288 0
M  V30 6965 H 669.905 -1.375 3.92725 0
M  V30 6966 H 668.781 -2.22707 5.0169 0
M  V30 6967 H 669.042 -2.83718 3.39052 0
M  V30 6968 N 668.101 -1.57061 -0.130224 0
M  V30 6969 C 669.326 -1.88802 -0.858409 0
M  V30 6970 C 669.751 -0.734353 -1.73173 0
M  V30 6971 O 669.109 0.315529 -1.78533 0
M  V30 6972 C 669.157 -3.19228 -1.67708 0
M  V30 6973 O 668.261 -3.04343 -2.78297 0
M  V30 6974 H 667.602 -0.619849 -0.238083 0
M  V30 6975 H 670.132 -2.04271 -0.115995 0
M  V30 6976 H 670.142 -3.51669 -2.06864 0
M  V30 6977 H 668.817 -4.02793 -1.0359 0
M  V30 6978 H 667.394 -2.83346 -2.42425 0
M  V30 6979 N 669.579 0.400081 -1.52437 0
M  V30 6980 C 670.819 1.15526 -1.68622 0
M  V30 6981 C 671.183 1.87533 -0.411744 0
M  V30 6982 O 672.384 2.6501 -0.449804 0
M  V30 6983 C 670.655 2.11618 -2.88015 0
M  V30 6984 S 672.214 2.95121 -3.24729 0
M  V30 6985 H 669.032 0.39123 -0.593683 0
M  V30 6986 H 671.634 0.441255 -1.90455 0
M  V30 6987 H 670.338 1.5742 -3.79008 0
M  V30 6988 H 669.869 2.87544 -2.68481 0
M  V30 6989 H 671.884 4.13653 -2.74055 0
M  V30 6990 N 671.057 1.43213 0.657864 0
M  V30 6991 C 672.305 1.44298 1.41501 0
M  V30 6992 C 672.626 0.0666478 1.94886 0
M  V30 6993 O 671.896 -0.897345 1.74139 0
M  V30 6994 H 670.476 0.531257 0.525143 0
M  V30 6995 H 673.138 1.78777 0.776195 0
M  V30 6996 H 672.234 2.1528 2.25966 0
M  V30 6997 N 672.536 -0.895792 1.29666 0
M  V30 6998 C 673.776 -1.6609 1.19136 0
M  V30 6999 C 674.14 -1.90336 -0.252245 0
M  V30 7000 O 675.341 -2.64469 -0.480593 0
M  V30 7001 C 673.612 -2.97129 1.98618 0
M  V30 7002 S 675.171 -3.88146 2.04666 0
M  V30 7003 H 671.989 -0.570188 0.424744 0
M  V30 7004 H 674.591 -1.06411 1.64003 0
M  V30 7005 H 673.295 -2.77199 3.02637 0
M  V30 7006 H 672.826 -3.61847 1.54371 0
M  V30 7007 H 674.841 -4.82301 1.16618 0
M  V30 7008 N 674.014 -1.12206 -1.10668 0
M  V30 7009 C 674.962 -0.782918 -2.19028 0
M  V30 7010 C 675.956 0.229175 -1.67843 0
M  V30 7011 O 677.162 0.0876295 -1.79787 0
M  V30 7012 H 673.537 -0.235339 -0.714227 0
M  V30 7013 H 675.508 -1.70527 -2.44874 0
M  V30 7014 C 674.257 -0.25116 -3.46792 0
M  V30 7015 H 673.58 -1.02123 -3.86537 0
M  V30 7016 H 675.02 -0.0521409 -4.23968 0
M  V30 7017 C 673.479 1.02037 -3.21076 0
M  V30 7018 O 674.009 2.09862 -3.42522 0
M  V30 7019 N 672.215 0.946348 -2.74759 0
M  V30 7020 H 671.762 0.068777 -2.57508 0
M  V30 7021 H 671.72 1.79775 -2.57931 0
M  V30 7022 N 675.492 1.28418 -0.913599 0
M  V30 7023 C 676.903 1.77024 -0.593237 0
M  V30 7024 C 677.254 1.74779 0.891441 0
M  V30 7025 O 676.379 1.34237 1.69733 0
M  V30 7026 C 676.974 3.21456 -1.07011 0
M  V30 7027 C 675.533 3.67786 -0.800664 0
M  V30 7028 C 674.68 2.48185 -1.23691 0
M  V30 7029 H 677.631 1.14883 -1.09487 0
M  V30 7030 H 677.652 3.78269 -0.411481 0
M  V30 7031 H 677.164 3.23058 -2.1507 0
M  V30 7032 H 675.265 3.71644 0.266725 0
M  V30 7033 H 675.378 4.57934 -1.4083 0
M  V30 7034 H 673.742 2.46116 -0.655655 0
M  V30 7035 H 674.525 2.52506 -2.32585 0
M  V30 7036 N 676.97 0.677563 1.42291 0
M  V30 7037 C 678.216 0.201272 2.01799 0
M  V30 7038 C 678.549 -1.19004 1.53465 0
M  V30 7039 O 677.824 -1.79953 0.738039 0
M  V30 7040 C 678.107 0.238968 3.59306 0
M  V30 7041 C 677.96 1.66594 4.17812 0
M  V30 7042 C 679.279 -0.411287 4.38174 0
M  V30 7043 H 676.398 0.0746114 0.733214 0
M  V30 7044 H 679.04 0.862872 1.69276 0
M  V30 7045 H 677.19 -0.324368 3.87144 0
M  V30 7046 H 678.862 2.28173 4.00917 0
M  V30 7047 H 677.105 2.20576 3.73536 0
M  V30 7048 H 677.776 1.64398 5.26951 0
M  V30 7049 H 680.252 0.0682804 4.16044 0
M  V30 7050 H 679.128 -0.354286 5.47755 0
M  V30 7051 H 679.389 -1.4893 4.1626 0
M  V30 7052 N 678.448 -1.51871 0.421078 0
M  V30 7053 C 679.696 -2.01539 -0.150492 0
M  V30 7054 C 680.017 -1.30803 -1.44623 0
M  V30 7055 O 679.287 -0.437568 -1.90951 0
M  V30 7056 H 677.867 -0.744698 -0.0586041 0
M  V30 7057 H 680.529 -1.8668 0.560059 0
M  V30 7058 H 679.625 -3.10264 -0.338068 0
M  V30 7059 N 679.926 -0.151884 -1.56866 0
M  V30 7060 C 681.151 0.508044 -2.01081 0
M  V30 7061 C 681.576 1.57306 -1.03134 0
M  V30 7062 O 680.934 1.81298 -0.0078309 0
M  V30 7063 C 680.982 1.08106 -3.44014 0
M  V30 7064 O 680.086 2.19577 -3.49084 0
M  V30 7065 H 679.427 0.123757 -0.652365 0
M  V30 7066 H 681.957 -0.250055 -2.03066 0
M  V30 7067 H 681.967 1.40851 -3.82916 0
M  V30 7068 H 680.642 0.301168 -4.14808 0
M  V30 7069 H 679.219 1.88023 -3.22027 0
M  V30 7070 N 681.404 1.57128 0.121893 0
M  V30 7071 C 682.367 1.99197 1.13372 0
M  V30 7072 C 683.367 0.881728 1.3447 0
M  V30 7073 O 684.557 1.14783 1.31036 0
M  V30 7074 C 681.689 2.32963 2.4888 0
M  V30 7075 H 682.882 2.89788 0.772204 0
M  V30 7076 H 680.435 1.51952 0.366093 0
M  V30 7077 H 681.17 1.45243 2.89957 0
M  V30 7078 H 680.955 3.13934 2.34921 0
M  V30 7079 H 682.445 2.66261 3.21706 0
M  V30 7080 N 682.882 -0.391992 1.52647 0
M  V30 7081 C 684.107 -1.16312 1.71716 0
M  V30 7082 C 684.532 -1.83042 0.433279 0
M  V30 7083 O 683.89 -1.70705 -0.610707 0
M  V30 7084 C 683.938 -2.18908 2.86551 0
M  V30 7085 O 683.042 -3.2543 2.53316 0
M  V30 7086 H 682.383 -0.338743 0.571095 0
M  V30 7087 H 684.913 -0.457202 1.99426 0
M  V30 7088 H 684.923 -2.62954 3.1196 0
M  V30 7089 H 683.598 -1.69726 3.79692 0
M  V30 7090 H 682.175 -2.86543 2.38637 0
M  V30 7091 N 684.36 -1.4356 -0.65026 0
M  V30 7092 C 685.637 -1.35811 -1.40765 0
M  V30 7093 C 686.017 -0.00736379 -2.11099 0
M  V30 7094 O 685.365 1.00932 -2.05 0
M  V30 7095 C 685.575 -2.54332 -2.3899 0
M  V30 7096 C 686.923 -2.97551 -3.02901 0
M  V30 7097 O 687.947 -2.544 -2.49317 0
M  V30 7098 O 686.806 -3.72311 -4.00059 0
M  V30 7099 H 683.9 -0.536861 -0.629054 0
M  V30 7100 H 686.446 -1.55615 -0.676919 0
M  V30 7101 H 685.218 -3.44274 -1.85986 0
M  V30 7102 H 684.841 -2.36643 -3.19509 0
M  V30 7103 N 685.838 0.888903 -1.30139 0
M  V30 7104 C 686.748 2.02705 -1.18101 0
M  V30 7105 C 687.764 1.73702 -0.101809 0
M  V30 7106 O 688.94 1.98906 -0.315984 0
M  V30 7107 C 686.005 3.35616 -0.869651 0
M  V30 7108 C 685.066 3.78067 -2.03381 0
M  V30 7109 C 684.299 5.04635 -1.73721 0
M  V30 7110 O 684.522 5.66531 -0.663267 0
M  V30 7111 O 683.456 5.43399 -2.58845 0
M  V30 7112 H 687.282 2.15788 -2.13704 0
M  V30 7113 H 684.867 1.01426 -1.09695 0
M  V30 7114 H 686.749 4.15358 -0.711043 0
M  V30 7115 H 685.424 3.23651 0.0565002 0
M  V30 7116 H 684.331 2.99046 -2.24772 0
M  V30 7117 H 685.664 3.94631 -2.94155 0
M  V30 7118 N 687.317 1.12792 1.10072 0
M  V30 7119 C 688.728 0.899346 1.63611 0
M  V30 7120 C 689.079 -0.565547 1.87872 0
M  V30 7121 O 688.204 -1.43081 1.62348 0
M  V30 7122 C 688.799 1.62608 2.97227 0
M  V30 7123 C 687.358 1.44356 3.47618 0
M  V30 7124 C 686.505 1.65958 2.22156 0
M  V30 7125 H 689.456 1.28216 0.935223 0
M  V30 7126 H 689.477 1.0793 3.64872 0
M  V30 7127 H 688.989 2.69221 2.79538 0
M  V30 7128 H 687.09 0.400148 3.70445 0
M  V30 7129 H 687.203 2.20218 4.25489 0
M  V30 7130 H 685.567 1.08395 2.30484 0
M  V30 7131 H 686.35 2.73877 2.06993 0
M  V30 7132 N 688.795 -1.27931 0.920396 0
M  V30 7133 C 690.035 -1.96459 0.564198 0
M  V30 7134 C 690.399 -1.70802 -0.876967 0
M  V30 7135 O 691.6 -2.32956 -1.34107 0
M  V30 7136 C 689.871 -3.46583 0.872641 0
M  V30 7137 S 691.43 -4.34343 0.623859 0
M  V30 7138 H 688.248 -0.679735 0.208523 0
M  V30 7139 H 690.85 -1.55319 1.18727 0
M  V30 7140 H 689.554 -3.62753 1.91933 0
M  V30 7141 H 689.085 -3.92677 0.238479 0
M  V30 7142 H 691.1 -4.93449 -0.521744 0
M  V30 7143 N 690.273 -0.685099 -1.4193 0
M  V30 7144 C 691.501 -0.220372 -2.05723 0
M  V30 7145 C 691.916 1.12642 -1.51516 0
M  V30 7146 O 691.273 1.70182 -0.659114 0
M  V30 7147 C 691.324 -0.157974 -3.61155 0
M  V30 7148 O 691.045 -1.45156 -4.13354 0
M  V30 7149 C 692.546 0.329009 -4.42077 0
M  V30 7150 H 689.766 -0.104725 -0.662777 0
M  V30 7151 H 692.31 -0.934736 -1.81887 0
M  V30 7152 H 690.465 0.507144 -3.84066 0
M  V30 7153 H 690.879 -1.33172 -5.07312 0
M  V30 7154 H 692.353 0.321559 -5.51063 0
M  V30 7155 H 692.83 1.36608 -4.17414 0
M  V30 7156 H 693.436 -0.304737 -4.24207 0
M  V30 7157 N 691.751 1.51645 -0.429126 0
M  V30 7158 C 692.999 2.01616 0.139802 0
M  V30 7159 C 693.32 1.31568 1.43927 0
M  V30 7160 O 692.59 0.447688 1.90716 0
M  V30 7161 H 691.17 0.744998 0.054654 0
M  V30 7162 H 693.832 1.8638 -0.569952 0
M  V30 7163 H 692.928 3.10439 0.321609 0
M  V30 7164 N 693.229 0.160201 1.56784 0
M  V30 7165 C 694.64 -0.358417 1.83227 0
M  V30 7166 C 694.991 -1.63831 1.07952 0
M  V30 7167 O 694.116 -2.13885 0.328995 0
M  V30 7168 C 694.711 -0.657058 3.32368 0
M  V30 7169 C 693.27 -1.12015 3.59346 0
M  V30 7170 C 692.417 -0.15015 2.76893 0
M  V30 7171 H 695.368 0.384669 1.53967 0
M  V30 7172 H 695.389 -1.51033 3.49241 0
M  V30 7173 H 694.901 0.274647 3.87127 0
M  V30 7174 H 693.002 -2.06734 3.09987 0
M  V30 7175 H 693.115 -1.037 4.67743 0
M  V30 7176 H 691.479 -0.645361 2.46388 0
M  V30 7177 H 692.262 0.775379 3.34429 0
M  V30 7178 N 694.707 -1.5719 -0.113559 0
M  V30 7179 C 695.947 -1.86958 -0.82621 0
M  V30 7180 C 696.311 -0.748884 -1.76793 0
M  V30 7181 O 697.512 -0.92847 -2.52256 0
M  V30 7182 C 695.783 -3.21957 -1.55173 0
M  V30 7183 S 697.342 -3.73371 -2.3052 0
M  V30 7184 H 694.16 -0.655394 -0.275643 0
M  V30 7185 H 696.762 -1.95318 -0.0842684 0
M  V30 7186 H 695.466 -4.01459 -0.851977 0
M  V30 7187 H 694.997 -3.16688 -2.33393 0
M  V30 7188 H 697.012 -3.45308 -3.56338 0
M  V30 7189 N 696.185 0.383891 -1.52853 0
M  V30 7190 C 697.431 1.13009 -1.68395 0
M  V30 7191 C 697.764 1.89488 -0.425195 0
M  V30 7192 O 697.039 1.8574 0.577136 0
M  V30 7193 C 697.322 2.10419 -2.92226 0
M  V30 7194 C 697.175 1.3767 -4.28214 0
M  V30 7195 C 698.494 3.10781 -3.11614 0
M  V30 7196 H 695.613 0.409463 -0.612788 0
M  V30 7197 H 698.255 0.412895 -1.85459 0
M  V30 7198 H 696.405 2.71579 -2.77808 0
M  V30 7199 H 698.077 0.794352 -4.54409 0
M  V30 7200 H 696.32 0.678533 -4.2846 0
M  V30 7201 H 696.991 2.08874 -5.10956 0
M  V30 7202 H 699.467 2.59715 -3.25096 0
M  V30 7203 H 698.343 3.76179 -3.99725 0
M  V30 7204 H 698.604 3.79933 -2.2606 0
M  V30 7205 N 697.663 1.43903 0.642637 0
M  V30 7206 C 698.903 1.47591 1.41408 0
M  V30 7207 C 699.267 0.101313 1.91733 0
M  V30 7208 O 700.468 0.0128797 2.68797 0
M  V30 7209 C 698.739 2.4977 2.55636 0
M  V30 7210 S 700.298 2.72417 3.43998 0
M  V30 7211 H 697.116 0.522163 0.482563 0
M  V30 7212 H 699.718 1.80745 0.745085 0
M  V30 7213 H 698.422 3.48365 2.16956 0
M  V30 7214 H 697.953 2.1815 3.27375 0
M  V30 7215 H 699.968 2.03142 4.52712 0
M  V30 7216 N 699.141 -0.881989 1.30609 0
M  V30 7217 C 700.088 -1.98803 1.17244 0
M  V30 7218 C 701.058 -1.65987 0.0611905 0
M  V30 7219 O 702.243 -1.89385 0.231911 0
M  V30 7220 C 699.383 -3.33867 0.87333 0
M  V30 7221 C 698.496 -3.79354 2.06675 0
M  V30 7222 C 697.631 -5.03078 1.70547 0
M  V30 7223 C 696.67 -5.40981 2.86366 0
M  V30 7224 N 695.807 -6.55886 2.50514 0
M  V30 7225 H 700.647 -2.09566 2.11863 0
M  V30 7226 H 698.184 -1.02607 1.05405 0
M  V30 7227 H 700.142 -4.11612 0.680519 0
M  V30 7228 H 698.772 -3.2278 -0.0359983 0
M  V30 7229 H 697.824 -2.97492 2.37071 0
M  V30 7230 H 699.136 -4.03382 2.93401 0
M  V30 7231 H 698.29 -5.88457 1.47658 0
M  V30 7232 H 697.029 -4.80927 0.809947 0
M  V30 7233 H 696.034 -4.54127 3.09917 0
M  V30 7234 H 697.259 -5.65104 3.76609 0
M  V30 7235 H 695.205 -6.35306 1.63471 0
M  V30 7236 H 695.122 -6.79799 3.30771 0
M  V30 7237 H 696.39 -7.44489 2.30989 0
M  V30 7238 N 700.619 -1.13374 -1.09472 0
M  V30 7239 C 701.529 -0.824029 -2.19652 0
M  V30 7240 C 702.545 0.19118 -1.72947 0
M  V30 7241 O 703.721 0.0223464 -2.01388 0
M  V30 7242 C 700.786 -0.294009 -3.45451 0
M  V30 7243 C 699.847 -1.3704 -4.0684 0
M  V30 7244 C 699.08 -0.86558 -5.26634 0
M  V30 7245 O 699.303 0.29702 -5.69626 0
M  V30 7246 O 698.237 -1.63968 -5.79136 0
M  V30 7247 H 702.063 -1.74454 -2.48595 0
M  V30 7248 H 699.648 -0.911155 -1.18399 0
M  V30 7249 H 701.53 -0.00381039 -4.214 0
M  V30 7250 H 700.205 0.598921 -3.18111 0
M  V30 7251 H 699.112 -1.71391 -3.3253 0
M  V30 7252 H 700.445 -2.23746 -4.38405 0
M  V30 7253 N 702.098 1.27442 -0.927168 0
M  V30 7254 C 703.046 2.28844 -0.416333 0
M  V30 7255 C 704.04 1.61882 0.499057 0
M  V30 7256 O 705.246 1.75969 0.378817 0
M  V30 7257 H 701.621 0.742989 -0.116065 0
M  V30 7258 H 703.592 2.69344 -1.28438 0
M  V30 7259 C 702.341 3.4626 0.316107 0
M  V30 7260 H 701.664 3.97999 -0.379082 0
M  V30 7261 H 703.104 4.19173 0.637975 0
M  V30 7262 C 701.563 3.00211 1.5289 0
M  V30 7263 O 702.093 3.03837 2.62766 0
M  V30 7264 N 700.299 2.55713 1.38054 0
M  V30 7265 H 699.846 2.52962 0.4866 0
M  V30 7266 H 699.804 2.25264 2.19325 0
M  V30 7267 N 703.576 0.692616 1.41565 0
M  V30 7268 C 704.822 0.222664 2.01574 0
M  V30 7269 C 705.155 -1.1737 1.54719 0
M  V30 7270 O 704.43 -1.79161 0.757084 0
M  V30 7271 C 704.713 0.277064 3.59033 0
M  V30 7272 C 704.566 1.71016 4.16021 0
M  V30 7273 C 705.885 -0.36479 4.38586 0
M  V30 7274 H 703.004 0.0823839 0.732381 0
M  V30 7275 H 705.646 0.880778 1.68352 0
M  V30 7276 H 703.796 -0.283288 3.87466 0
M  V30 7277 H 705.468 2.32413 3.98475 0
M  V30 7278 H 703.711 2.24525 3.71175 0
M  V30 7279 H 704.382 1.69978 5.25178 0
M  V30 7280 H 706.858 0.112404 4.15948 0
M  V30 7281 H 705.734 -0.296169 5.481 0
M  V30 7282 H 705.995 -1.44506 4.17816 0
M  V30 7283 N 705.054 -1.51416 0.437162 0
M  V30 7284 C 705.964 -2.31493 -0.380537 0
M  V30 7285 C 706.98 -1.40399 -1.02782 0
M  V30 7286 O 708.156 -1.73471 -1.02323 0
M  V30 7287 C 705.221 -3.1413 -1.46709 0
M  V30 7288 C 704.282 -4.21003 -0.839953 0
M  V30 7289 C 703.515 -4.9969 -1.87473 0
M  V30 7290 O 703.738 -4.79008 -3.09689 0
M  V30 7291 O 702.672 -5.8379 -1.46536 0
M  V30 7292 H 706.498 -3.02469 0.273183 0
M  V30 7293 H 704.083 -1.48059 0.199706 0
M  V30 7294 H 705.965 -3.65505 -2.09724 0
M  V30 7295 H 704.64 -2.45919 -2.10489 0
M  V30 7296 H 703.547 -3.73706 -0.171752 0
M  V30 7297 H 704.88 -4.91587 -0.245638 0
M  V30 7298 N 706.532 -0.168513 -1.56696 0
M  V30 7299 C 707.78 0.476216 -1.96409 0
M  V30 7300 C 708.101 1.63968 -1.05544 0
M  V30 7301 O 707.371 1.95525 -0.121235 0
M  V30 7302 H 705.951 0.178921 -0.725256 0
M  V30 7303 H 708.613 -0.249042 -1.93302 0
M  V30 7304 H 707.709 0.838094 -3.00637 0
M  V30 7305 N 708.01 1.57248 0.105221 0
M  V30 7306 C 708.957 2.01338 1.12835 0
M  V30 7307 C 709.927 0.887897 1.40377 0
M  V30 7308 O 711.112 1.15315 1.5201 0
M  V30 7309 C 708.252 2.43432 2.44611 0
M  V30 7310 C 707.365 3.69457 2.23888 0
M  V30 7311 C 706.5 4.00473 3.48991 0
M  V30 7312 C 705.539 5.19638 3.23485 0
M  V30 7313 N 704.676 5.46457 4.40828 0
M  V30 7314 H 709.516 2.88527 0.745386 0
M  V30 7315 H 707.053 1.42714 0.356535 0
M  V30 7316 H 709.011 2.65879 3.21503 0
M  V30 7317 H 707.641 1.59266 2.80774 0
M  V30 7318 H 706.693 3.54545 1.37847 0
M  V30 7319 H 708.005 4.56497 2.01026 0
M  V30 7320 H 707.159 4.23642 4.34295 0
M  V30 7321 H 705.898 3.11935 3.74897 0
M  V30 7322 H 704.903 4.96299 2.36574 0
M  V30 7323 H 706.128 6.09766 2.98935 0
M  V30 7324 H 704.074 4.60876 4.66829 0
M  V30 7325 H 703.991 6.27849 4.2112 0
M  V30 7326 H 705.259 5.74155 5.27225 0
M  V30 7327 N 709.488 -0.375779 1.53054 0
M  V30 7328 C 710.451 -1.44254 1.7811 0
M  V30 7329 C 711.451 -1.47018 0.651328 0
M  V30 7330 O 712.641 -1.47957 0.919472 0
M  V30 7331 C 709.773 -2.8345 1.89391 0
M  V30 7332 H 710.966 -1.23316 2.73374 0
M  V30 7333 H 708.519 -0.608312 1.43977 0
M  V30 7334 H 709.254 -3.09716 0.961589 0
M  V30 7335 H 709.039 -2.82844 2.71555 0
M  V30 7336 H 710.529 -3.60722 2.10404 0
M  V30 7337 N 710.966 -1.44241 -0.634997 0
M  V30 7338 C 712.206 -1.48339 -1.40623 0
M  V30 7339 C 712.57 -0.111479 -1.91676 0
M  V30 7340 O 713.771 -0.0271345 -2.68786 0
M  V30 7341 C 712.042 -2.51122 -2.54308 0
M  V30 7342 S 713.601 -2.74237 -3.42548 0
M  V30 7343 H 710.419 -0.524715 -0.479787 0
M  V30 7344 H 713.021 -1.81138 -0.735489 0
M  V30 7345 H 711.725 -3.49511 -2.15106 0
M  V30 7346 H 711.256 -2.19883 -3.26213 0
M  V30 7347 H 713.271 -2.0554 -4.51628 0
M  V30 7348 N 712.444 0.87505 -1.31075 0
M  V30 7349 C 713.721 1.60976 -1.11113 0
M  V30 7350 C 714.101 2.08409 0.336006 0
M  V30 7351 O 713.449 1.85858 1.32924 0
M  V30 7352 C 713.659 2.77166 -2.12085 0
M  V30 7353 C 715.007 3.47254 -2.44335 0
M  V30 7354 O 716.031 2.87367 -2.10472 0
M  V30 7355 O 714.89 4.55276 -3.02301 0
M  V30 7356 H 711.984 0.707982 -0.427424 0
M  V30 7357 H 714.53 0.920957 -1.42536 0
M  V30 7358 H 713.302 2.39494 -3.09449 0
M  V30 7359 H 712.925 3.53737 -1.81538 0
M  V30 7360 N 713.922 1.13953 1.08869 0
M  V30 7361 C 715.338 0.878924 1.33218 0
M  V30 7362 C 715.538 -0.482478 1.95638 0
M  V30 7363 O 714.594 -1.22778 2.2064 0
M  V30 7364 C 715.907 2.00798 2.23832 0
M  V30 7365 C 717.455 2.04073 2.37325 0
M  V30 7366 C 717.93 3.16258 3.31278 0
M  V30 7367 N 719.421 3.15805 3.38853 0
M  V30 7368 C 720.156 3.99249 4.11567 0
M  V30 7369 N 719.652 4.92721 4.87029 0
M  V30 7370 N 721.445 3.87327 4.0735 0
M  V30 7371 H 713.596 2.01645 0.66731 0
M  V30 7372 H 715.859 0.878395 0.356547 0
M  V30 7373 H 715.565 2.98986 1.85203 0
M  V30 7374 H 715.439 1.92704 3.24261 0
M  V30 7375 H 717.826 1.06495 2.75214 0
M  V30 7376 H 717.907 2.16239 1.36654 0
M  V30 7377 H 717.551 4.14079 2.9411 0
M  V30 7378 H 717.481 3.0133 4.31866 0
M  V30 7379 H 719.972 2.48102 2.8505 0
M  V30 7380 H 720.285 5.52867 5.39961 0
M  V30 7381 H 718.63 4.96723 4.86098 0
M  V30 7382 H 721.821 3.13627 3.475 0
M  V30 7383 H 721.994 4.52585 4.63757 0
M  V30 7384 N 715.4 -1.26948 0.933913 0
M  V30 7385 C 716.64 -1.9585 0.585003 0
M  V30 7386 C 717.004 -1.71722 -0.858802 0
M  V30 7387 O 718.205 -2.34366 -1.31629 0
M  V30 7388 C 716.476 -3.45638 0.909352 0
M  V30 7389 S 718.035 -4.33656 0.669892 0
M  V30 7390 H 714.853 -0.677485 0.215721 0
M  V30 7391 H 717.455 -1.54051 1.20368 0
M  V30 7392 H 716.159 -3.60697 1.9577 0
M  V30 7393 H 715.69 -3.92401 0.280115 0
M  V30 7394 H 717.705 -4.93975 -0.469378 0
M  V30 7395 N 716.879 -0.700114 -1.41195 0
M  V30 7396 C 717.826 -0.0376652 -2.30769 0
M  V30 7397 C 718.796 0.766544 -1.47354 0
M  V30 7398 O 719.981 0.73365 -1.76131 0
M  V30 7399 C 717.121 0.889452 -3.33441 0
M  V30 7400 C 716.234 0.076373 -4.31932 0
M  V30 7401 C 715.369 1.00155 -5.21673 0
M  V30 7402 C 714.408 0.181644 -6.1183 0
M  V30 7403 N 713.545 1.06087 -6.94039 0
M  V30 7404 H 718.385 -0.80726 -2.86858 0
M  V30 7405 H 715.922 -0.409798 -1.41277 0
M  V30 7406 H 717.88 1.44107 -3.91522 0
M  V30 7407 H 716.51 1.6254 -2.78892 0
M  V30 7408 H 715.562 -0.592223 -3.75762 0
M  V30 7409 H 716.874 -0.559076 -4.95657 0
M  V30 7410 H 716.028 1.62223 -5.8461 0
M  V30 7411 H 714.767 1.67085 -4.58186 0
M  V30 7412 H 713.772 -0.452085 -5.47938 0
M  V30 7413 H 714.997 -0.483925 -6.77374 0
M  V30 7414 H 712.943 1.7161 -6.33156 0
M  V30 7415 H 712.86 0.481094 -7.54468 0
M  V30 7416 H 714.128 1.66822 -7.6144 0
M  V30 7417 N 718.357 1.51182 -0.445186 0
M  V30 7418 C 719.768 1.86693 0.0160999 0
M  V30 7419 C 720.119 1.36183 1.4124 0
M  V30 7420 O 719.244 0.715895 2.04215 0
M  V30 7421 C 719.839 3.38781 0.0359918 0
M  V30 7422 C 718.398 3.73799 0.441715 0
M  V30 7423 C 717.545 2.74947 -0.360511 0
M  V30 7424 H 720.496 1.44294 -0.660674 0
M  V30 7425 H 720.517 3.71026 0.843813 0
M  V30 7426 H 720.029 3.75513 -0.980378 0
M  V30 7427 H 718.13 3.42659 1.4634 0
M  V30 7428 H 718.243 4.78829 0.16106 0
M  V30 7429 H 716.607 2.54047 0.182269 0
M  V30 7430 H 717.39 3.14521 -1.3759 0
M  V30 7431 N 719.835 0.176821 1.56605 0
M  V30 7432 C 721.083 -0.465793 1.96659 0
M  V30 7433 C 721.404 -1.63406 1.06412 0
M  V30 7434 O 720.674 -1.95457 0.131603 0
M  V30 7435 H 719.254 -0.175072 0.726195 0
M  V30 7436 H 721.916 0.25929 1.93168 0
M  V30 7437 H 721.012 -0.822138 3.01077 0
M  V30 7438 N 721.313 -1.57302 -0.09688 0
M  V30 7439 C 722.56 -1.85997 -0.800699 0
M  V30 7440 C 722.888 -0.765089 -1.7882 0
M  V30 7441 O 722.143 0.241492 -1.94204 0
M  V30 7442 C 722.442 -3.21272 -1.56586 0
M  V30 7443 C 722.108 -4.45104 -0.72064 0
M  V30 7444 C 720.77 -4.78723 -0.487632 0
M  V30 7445 C 723.122 -5.2103 -0.132948 0
M  V30 7446 C 720.45 -5.85697 0.34296 0
M  V30 7447 C 722.802 -6.28881 0.684957 0
M  V30 7448 C 721.466 -6.61017 0.928073 0
M  V30 7449 H 720.736 -0.680613 -0.292997 0
M  V30 7450 H 723.383 -1.91399 -0.0622474 0
M  V30 7451 H 721.688 -3.11547 -2.37583 0
M  V30 7452 H 723.385 -3.40702 -2.11478 0
M  V30 7453 H 719.975 -4.18777 -0.912359 0
M  V30 7454 H 724.159 -4.95392 -0.300132 0
M  V30 7455 H 719.415 -6.09008 0.540317 0
M  V30 7456 H 723.589 -6.86886 1.14721 0
M  V30 7457 H 721.216 -7.43738 1.57348 0
M  V30 7458 N 722.791 0.367657 -1.53252 0
M  V30 7459 C 724.021 1.12955 -1.72988 0
M  V30 7460 C 724.429 1.8358 -0.457708 0
M  V30 7461 O 723.772 1.74336 0.579006 0
M  V30 7462 C 723.834 2.20545 -2.83902 0
M  V30 7463 C 723.498 1.69704 -4.24323 0
M  V30 7464 C 724.495 1.16223 -5.06743 0
M  V30 7465 C 722.18 1.7528 -4.70725 0
M  V30 7466 C 724.174 0.689935 -6.33655 0
M  V30 7467 C 721.861 1.27662 -5.97617 0
M  V30 7468 C 722.859 0.746083 -6.78913 0
M  V30 7469 O 722.547 0.276925 -8.03423 0
M  V30 7470 H 722.279 0.343753 -0.582074 0
M  V30 7471 H 724.833 0.433106 -2.00782 0
M  V30 7472 H 723.063 2.93676 -2.51577 0
M  V30 7473 H 724.752 2.82111 -2.91836 0
M  V30 7474 H 725.518 1.11256 -4.72067 0
M  V30 7475 H 721.397 2.15515 -4.07522 0
M  V30 7476 H 724.941 0.275164 -6.97057 0
M  V30 7477 H 720.838 1.32322 -6.31792 0
M  V30 7478 H 721.606 0.396445 -8.17539 0
M  V30 7479 N 724.269 1.44576 0.627338 0
M  V30 7480 C 725.217 1.52039 1.76031 0
M  V30 7481 C 726.211 0.391796 1.64807 0
M  V30 7482 O 727.417 0.5669 1.7084 0
M  V30 7483 H 723.792 0.477165 0.581221 0
M  V30 7484 H 725.763 2.47387 1.6686 0
M  V30 7485 C 724.512 1.48539 3.14375 0
M  V30 7486 H 723.835 2.34699 3.23661 0
M  V30 7487 H 725.275 1.57821 3.93534 0
M  V30 7488 C 723.734 0.20672 3.36265 0
M  V30 7489 O 724.264 -0.72154 3.95167 0
M  V30 7490 N 722.47 0.108654 2.90397 0
M  V30 7491 H 722.017 0.864884 2.42647 0
M  V30 7492 H 721.975 -0.746121 3.05418 0
M  V30 7493 N 725.747 -0.868086 1.31537 0
M  V30 7494 C 726.677 -1.99131 1.21939 0
M  V30 7495 C 727.658 -1.69768 0.106166 0
M  V30 7496 O 728.843 -1.92006 0.291081 0
M  V30 7497 C 725.973 -3.34676 0.927879 0
M  V30 7498 C 724.927 -3.7835 2.00088 0
M  V30 7499 C 724.253 -5.11375 1.56203 0
M  V30 7500 C 725.553 -3.95256 3.41424 0
M  V30 7501 H 727.247 -2.07419 2.15911 0
M  V30 7502 H 724.793 -0.996569 1.03945 0
M  V30 7503 H 726.746 -4.12793 0.847327 0
M  V30 7504 H 725.47 -3.26565 -0.0475042 0
M  V30 7505 H 724.129 -3.02474 2.07135 0
M  V30 7506 H 723.777 -4.99709 0.57445 0
M  V30 7507 H 723.477 -5.41568 2.27985 0
M  V30 7508 H 725.001 -5.92001 1.49558 0
M  V30 7509 H 726.415 -4.63764 3.3704 0
M  V30 7510 H 724.812 -4.36849 4.1144 0
M  V30 7511 H 725.882 -2.98579 3.82072 0
M  V30 7512 N 727.225 -1.14528 -1.08264 0
M  V30 7513 C 728.172 -0.833556 -2.15222 0
M  V30 7514 C 729.142 0.209539 -1.64773 0
M  V30 7515 O 730.327 0.0791388 -1.90636 0
M  V30 7516 C 727.467 -0.318799 -3.43624 0
M  V30 7517 C 726.58 -1.42237 -4.07913 0
M  V30 7518 C 725.715 -0.864704 -5.24115 0
M  V30 7519 C 724.754 -1.94585 -5.80347 0
M  V30 7520 N 723.891 -1.40525 -6.87893 0
M  V30 7521 H 728.731 -1.74965 -2.41228 0
M  V30 7522 H 726.268 -0.873169 -1.18381 0
M  V30 7523 H 728.226 -0.00213088 -4.172 0
M  V30 7524 H 726.856 0.560397 -3.17898 0
M  V30 7525 H 725.908 -1.8554 -3.32083 0
M  V30 7526 H 727.22 -2.23901 -4.45724 0
M  V30 7527 H 726.374 -0.500025 -6.04636 0
M  V30 7528 H 725.113 -0.0171219 -4.87697 0
M  V30 7529 H 724.118 -2.31946 -4.98479 0
M  V30 7530 H 725.343 -2.79704 -6.18823 0
M  V30 7531 H 723.289 -0.579873 -6.53432 0
M  V30 7532 H 723.206 -2.15825 -7.24538 0
M  V30 7533 H 724.474 -1.06852 -7.72142 0
M  V30 7534 N 728.703 1.26451 -0.940633 0
M  V30 7535 C 729.613 2.30128 -0.455881 0
M  V30 7536 C 730.629 1.67536 0.469867 0
M  V30 7537 O 731.805 1.98344 0.349529 0
M  V30 7538 C 728.87 3.45634 0.271648 0
M  V30 7539 C 727.931 4.23709 -0.690594 0
M  V30 7540 C 727.164 5.337 0.00231047 0
M  V30 7541 O 727.387 5.57215 1.21935 0
M  V30 7542 O 726.321 5.98091 -0.676111 0
M  V30 7543 H 730.147 2.73655 -1.31707 0
M  V30 7544 H 727.732 1.3164 -0.706497 0
M  V30 7545 H 729.614 4.15853 0.681486 0
M  V30 7546 H 728.289 3.04138 1.10824 0
M  V30 7547 H 727.196 3.55974 -1.15037 0
M  V30 7548 H 728.529 4.68953 -1.49478 0
M  V30 7549 N 730.181 0.707592 1.40822 0
M  V30 7550 C 731.128 0.0499029 2.30746 0
M  V30 7551 C 732.098 -0.758718 1.47759 0
M  V30 7552 O 733.283 -0.724299 1.76518 0
M  V30 7553 C 730.423 -0.871756 3.33908 0
M  V30 7554 C 729.536 -0.0534655 4.31967 0
M  V30 7555 C 728.671 -0.973869 5.22197 0
M  V30 7556 C 727.71 -0.149194 6.11918 0
M  V30 7557 N 726.847 -1.02404 6.94592 0
M  V30 7558 H 731.687 0.822461 2.86426 0
M  V30 7559 H 729.224 0.417285 1.41057 0
M  V30 7560 H 731.182 -1.42028 3.9228 0
M  V30 7561 H 729.812 -1.61058 2.7975 0
M  V30 7562 H 728.864 0.612142 3.75442 0
M  V30 7563 H 730.176 0.585354 4.95353 0
M  V30 7564 H 729.33 -1.59121 5.85462 0
M  V30 7565 H 728.069 -1.64652 4.59065 0
M  V30 7566 H 727.074 0.481137 5.47691 0
M  V30 7567 H 728.299 0.519841 6.77107 0
M  V30 7568 H 726.245 -1.6825 6.34057 0
M  V30 7569 H 726.162 -0.441076 7.54712 0
M  V30 7570 H 727.43 -1.62782 7.62314 0
M  V30 7571 N 731.66 -1.50943 0.453197 0
M  V30 7572 C 732.608 -2.29728 -0.364419 0
M  V30 7573 C 733.602 -1.36246 -1.00664 0
M  V30 7574 O 734.808 -1.53518 -0.939794 0
M  V30 7575 H 731.183 -0.739536 -0.136347 0
M  V30 7576 H 733.154 -2.96672 0.320696 0
M  V30 7577 C 731.903 -3.1629 -1.44415 0
M  V30 7578 H 731.226 -3.88119 -0.959343 0
M  V30 7579 H 732.666 -3.74444 -1.98917 0
M  V30 7580 C 731.125 -2.32702 -2.43622 0
M  V30 7581 O 731.655 -1.99763 -3.48508 0
M  V30 7582 N 729.861 -1.95621 -2.14897 0
M  V30 7583 H 729.408 -2.22607 -1.29629 0
M  V30 7584 H 729.366 -1.39993 -2.81513 0
M  V30 7585 N 733.138 -0.185124 -1.56509 0
M  V30 7586 C 734.549 0.329221 -1.83774 0
M  V30 7587 C 734.9 1.62093 -1.10545 0
M  V30 7588 O 734.025 2.13334 -0.36298 0
M  V30 7589 C 734.62 0.604099 -3.33371 0
M  V30 7590 C 733.179 1.06284 -3.61083 0
M  V30 7591 C 732.326 0.10608 -2.77097 0
M  V30 7592 H 735.277 -0.409116 -1.53336 0
M  V30 7593 H 735.298 1.45458 -3.51599 0
M  V30 7594 H 734.81 -0.336201 -3.86641 0
M  V30 7595 H 732.911 2.01777 -3.13236 0
M  V30 7596 H 733.024 0.962453 -4.69333 0
M  V30 7597 H 731.388 0.606082 -2.47384 0
M  V30 7598 H 732.171 -0.828486 -3.33153 0
M  V30 7599 N 734.616 1.57351 0.0885366 0
M  V30 7600 C 736.032 1.53331 0.442916 0
M  V30 7601 C 736.232 0.902831 1.80142 0
M  V30 7602 O 735.288 0.498147 2.47537 0
M  V30 7603 C 736.601 2.98036 0.399372 0
M  V30 7604 C 738.149 3.09286 0.480759 0
M  V30 7605 C 738.624 4.5561 0.467296 0
M  V30 7606 N 740.115 4.60182 0.52786 0
M  V30 7607 C 740.85 5.70857 0.539388 0
M  V30 7608 N 740.346 6.90944 0.506729 0
M  V30 7609 N 742.139 5.59051 0.584691 0
M  V30 7610 H 734.29 1.96709 -0.801215 0
M  V30 7611 H 736.553 0.899639 -0.298922 0
M  V30 7612 H 736.259 3.47656 -0.531806 0
M  V30 7613 H 736.133 3.57066 1.21589 0
M  V30 7614 H 738.52 2.5965 1.40236 0
M  V30 7615 H 738.601 2.53197 -0.364023 0
M  V30 7616 H 738.245 5.05899 -0.450384 0
M  V30 7617 H 738.175 5.09544 1.32938 0
M  V30 7618 H 740.666 3.73757 0.558028 0
M  V30 7619 H 740.979 7.71055 0.518989 0
M  V30 7620 H 739.324 6.93384 0.473675 0
M  V30 7621 H 742.515 4.64138 0.607781 0
M  V30 7622 H 742.688 6.45307 0.590206 0
M  V30 7623 N 736.094 -0.359525 1.53444 0
M  V30 7624 C 737.342 -1.09935 1.69584 0
M  V30 7625 C 737.663 -1.89656 0.453371 0
M  V30 7626 O 736.933 -1.8852 -0.53263 0
M  V30 7627 H 735.513 -0.408843 0.625185 0
M  V30 7628 H 738.175 -0.40467 1.90653 0
M  V30 7629 H 737.271 -1.78575 2.55964 0
M  V30 7630 N 737.572 -1.44907 -0.619662 0
M  V30 7631 C 738.812 -1.49822 -1.39042 0
M  V30 7632 C 739.176 -0.131803 -1.91547 0
M  V30 7633 O 740.377 -0.0556413 -2.68742 0
M  V30 7634 C 738.648 -2.53805 -2.5163 0
M  V30 7635 S 740.207 -2.77855 -3.3962 0
M  V30 7636 H 737.025 -0.529774 -0.474195 0
M  V30 7637 H 739.627 -1.81907 -0.716236 0
M  V30 7638 H 738.331 -3.51772 -2.11387 0
M  V30 7639 H 737.862 -2.23331 -3.23863 0
M  V30 7640 H 739.877 -2.10319 -4.49422 0
M  V30 7641 N 739.05 0.861098 -1.31996 0
M  V30 7642 C 740.275 1.65264 -1.2531 0
M  V30 7643 C 740.7 1.87265 0.177007 0
M  V30 7644 O 740.058 1.4208 1.12619 0
M  V30 7645 C 740.106 2.99284 -2.0115 0
M  V30 7646 O 739.21 3.89508 -1.3549 0
M  V30 7647 H 738.551 0.50409 -0.432192 0
M  V30 7648 H 741.081 1.07297 -1.74208 0
M  V30 7649 H 741.091 3.49154 -2.11081 0
M  V30 7650 H 739.766 2.82591 -3.05148 0
M  V30 7651 H 738.343 3.47966 -1.34066 0
M  V30 7652 N 740.528 1.15101 1.07655 0
M  V30 7653 C 741.438 0.858869 2.18313 0
M  V30 7654 C 742.454 -0.163641 1.73229 0
M  V30 7655 O 743.63 0.00969541 2.01398 0
M  V30 7656 C 740.695 0.34893 3.4494 0
M  V30 7657 C 739.756 1.43495 4.04608 0
M  V30 7658 C 738.989 0.949253 5.2519 0
M  V30 7659 O 739.212 -0.20636 5.70027 0
M  V30 7660 O 738.146 1.73161 5.76454 0
M  V30 7661 H 741.972 1.78386 2.45788 0
M  V30 7662 H 739.557 0.929876 1.16934 0
M  V30 7663 H 741.439 0.070851 4.2134 0
M  V30 7664 H 740.114 -0.548237 3.19024 0
M  V30 7665 H 739.021 1.7666 3.29761 0
M  V30 7666 H 740.354 2.30692 4.3479 0
M  V30 7667 N 742.006 -1.2595 0.947325 0
M  V30 7668 C 743.246 -1.95218 0.605743 0
M  V30 7669 C 743.61 -1.72624 -0.84054 0
M  V30 7670 O 744.811 -2.35748 -1.29136 0
M  V30 7671 C 743.082 -3.44654 0.94596 0
M  V30 7672 S 744.641 -4.32922 0.715849 0
M  V30 7673 H 741.459 -0.675159 0.222894 0
M  V30 7674 H 744.061 -1.52766 1.21995 0
M  V30 7675 H 742.765 -3.586 1.99585 0
M  V30 7676 H 742.296 -3.92082 0.321718 0
M  V30 7677 H 744.311 -4.94445 -0.416959 0
M  V30 7678 N 743.484 -0.715051 -1.40445 0
M  V30 7679 C 744.731 -0.254328 -2.00897 0
M  V30 7680 C 745.059 1.15228 -1.56693 0
M  V30 7681 O 744.314 1.7958 -0.777786 0
M  V30 7682 C 744.613 -0.281791 -3.56287 0
M  V30 7683 C 744.279 -1.63862 -4.20071 0
M  V30 7684 C 742.941 -2.01003 -4.37208 0
M  V30 7685 C 745.293 -2.53039 -4.55654 0
M  V30 7686 C 742.621 -3.26869 -4.8721 0
M  V30 7687 C 744.973 -3.78256 -5.07055 0
M  V30 7688 C 743.637 -4.15515 -5.22401 0
M  V30 7689 H 742.907 -0.0930652 -0.735133 0
M  V30 7690 H 745.554 -0.917977 -1.68064 0
M  V30 7691 H 743.859 0.465428 -3.89026 0
M  V30 7692 H 745.556 0.0925158 -4.00893 0
M  V30 7693 H 742.146 -1.33979 -4.07121 0
M  V30 7694 H 746.33 -2.2562 -4.42051 0
M  V30 7695 H 741.586 -3.55706 -4.97276 0
M  V30 7696 H 745.76 -4.47528 -5.33565 0
M  V30 7697 H 743.387 -5.13114 -5.60909 0
M  V30 7698 N 744.962 1.50701 -0.461195 0
M  V30 7699 C 746.202 2.04174 0.0960673 0
M  V30 7700 C 746.566 1.33628 1.37868 0
M  V30 7701 O 747.767 1.77602 2.0177 0
M  V30 7702 C 746.038 3.56256 0.285676 0
M  V30 7703 S 747.597 4.31392 0.802917 0
M  V30 7704 H 744.415 0.710701 0.0206282 0
M  V30 7705 H 747.017 1.85204 -0.62607 0
M  V30 7706 H 745.721 4.05159 -0.653773 0
M  V30 7707 H 745.252 3.79562 1.03421 0
M  V30 7708 H 747.267 4.50611 2.07761 0
M  V30 7709 N 746.441 0.193421 1.56409 0
M  V30 7710 C 747.688 -0.445789 1.97532 0
M  V30 7711 C 748.016 -1.61744 1.08024 0
M  V30 7712 O 747.271 -1.95338 0.118982 0
M  V30 7713 C 747.57 -0.949718 3.44551 0
M  V30 7714 C 747.236 0.108383 4.5077 0
M  V30 7715 C 745.898 0.399126 4.79542 0
M  V30 7716 C 748.25 0.825423 5.14622 0
M  V30 7717 C 745.578 1.41192 5.69457 0
M  V30 7718 C 747.93 1.82735 6.05632 0
M  V30 7719 C 746.594 2.12531 6.32761 0
M  V30 7720 H 745.864 -0.163126 0.722822 0
M  V30 7721 H 748.511 0.290035 1.89291 0
M  V30 7722 H 746.816 -1.76378 3.49854 0
M  V30 7723 H 748.513 -1.45367 3.73724 0
M  V30 7724 H 745.103 -0.128392 4.28408 0
M  V30 7725 H 749.287 0.61403 4.92487 0
M  V30 7726 H 744.543 1.6487 5.88751 0
M  V30 7727 H 748.717 2.3882 6.5417 0
M  V30 7728 H 746.344 2.91155 7.02234 0
M  V30 7729 N 747.919 -1.57396 -0.0801906 0
M  V30 7730 C 749.167 -1.86467 -0.779384 0
M  V30 7731 C 749.488 -0.784243 -1.78535 0
M  V30 7732 O 748.758 0.187986 -1.94996 0
M  V30 7733 H 747.338 -0.68806 -0.29083 0
M  V30 7734 H 750 -1.94813 -0.0582749 0
M  V30 7735 H 749.096 -2.83701 -1.30078 0
M  V30 7736 N 749.397 0.351382 -1.53633 0
M  V30 7737 C 750.643 1.09411 -1.70754 0
M  V30 7738 C 750.976 1.88544 -0.465293 0
M  V30 7739 O 750.251 1.86923 0.537608 0
M  V30 7740 C 750.534 2.04173 -2.96623 0
M  V30 7741 C 750.387 1.28556 -4.31038 0
M  V30 7742 C 751.706 3.04102 -3.18136 0
M  V30 7743 H 748.825 0.396373 -0.621335 0
M  V30 7744 H 751.467 0.373464 -1.86293 0
M  V30 7745 H 749.617 2.65625 -2.83506 0
M  V30 7746 H 751.289 0.697786 -4.55992 0
M  V30 7747 H 749.532 0.587498 -4.29803 0
M  V30 7748 H 750.203 1.97989 -5.15271 0
M  V30 7749 H 752.679 2.5276 -3.30532 0
M  V30 7750 H 751.555 3.67616 -4.07615 0
M  V30 7751 H 751.816 3.75053 -2.34068 0
M  V30 7752 N 750.875 1.45233 0.611969 0
M  V30 7753 C 752.1 1.52767 1.40274 0
M  V30 7754 C 752.525 0.159701 1.87421 0
M  V30 7755 O 751.883 -0.854837 1.59882 0
M  V30 7756 C 751.931 2.51286 2.58626 0
M  V30 7757 O 751.035 2.02764 3.59111 0
M  V30 7758 H 750.376 0.515141 0.418958 0
M  V30 7759 H 752.906 1.90547 0.745188 0
M  V30 7760 H 752.916 2.69949 3.05927 0
M  V30 7761 H 751.591 3.50641 2.23659 0
M  V30 7762 H 750.168 1.93957 3.18489 0
M  V30 7763 N 752.353 -0.854086 1.3245 0
M  V30 7764 C 753.63 -1.59188 1.1366 0
M  V30 7765 C 754.01 -2.08917 -0.302807 0
M  V30 7766 O 753.358 -1.8795 -1.29951 0
M  V30 7767 C 753.568 -2.73757 2.16467 0
M  V30 7768 C 754.916 -3.43323 2.49829 0
M  V30 7769 O 755.94 -2.83983 2.15017 0
M  V30 7770 O 754.799 -4.50409 3.09506 0
M  V30 7771 H 751.893 -0.701092 0.438633 0
M  V30 7772 H 754.439 -0.898165 1.43983 0
M  V30 7773 H 753.211 -2.3454 3.1322 0
M  V30 7774 H 752.834 -3.50804 1.87142 0
M  V30 7775 N 753.831 -1.1567 -1.07043 0
M  V30 7776 C 755.077 -0.9349 -1.79965 0
M  V30 7777 C 755.41 0.536464 -1.86643 0
M  V30 7778 O 754.685 1.39781 -1.35247 0
M  V30 7779 C 754.968 -1.55371 -3.24857 0
M  V30 7780 C 754.821 -3.09589 -3.26305 0
M  V30 7781 C 756.14 -1.24209 -4.22209 0
M  V30 7782 H 753.259 -0.341061 -0.653335 0
M  V30 7783 H 755.901 -1.42883 -1.25237 0
M  V30 7784 H 754.051 -1.13368 -3.71591 0
M  V30 7785 H 755.723 -3.60521 -2.87789 0
M  V30 7786 H 753.966 -3.43315 -2.65174 0
M  V30 7787 H 754.637 -3.48002 -4.28484 0
M  V30 7788 H 757.113 -1.60548 -3.8388 0
M  V30 7789 H 755.989 -1.70119 -5.21872 0
M  V30 7790 H 756.25 -0.15964 -4.41812 0
M  V30 7791 N 755.309 1.25446 -0.953992 0
M  V30 7792 C 756.549 1.94894 -0.616087 0
M  V30 7793 C 756.913 1.73067 0.831374 0
M  V30 7794 O 758.114 2.3643 1.27884 0
M  V30 7795 C 756.385 3.44147 -0.964225 0
M  V30 7796 S 757.944 4.32536 -0.738798 0
M  V30 7797 H 754.762 0.673967 -0.226472 0
M  V30 7798 H 757.364 1.52117 -1.22803 0
M  V30 7799 H 756.068 3.57537 -2.01484 0
M  V30 7800 H 755.599 3.91906 -0.342507 0
M  V30 7801 H 757.614 4.94659 0.390732 0
M  V30 7802 N 756.787 0.722489 1.40064 0
M  V30 7803 C 758.012 0.273446 2.05589 0
M  V30 7804 C 758.437 -1.07875 1.54093 0
M  V30 7805 O 757.795 -1.68095 0.679252 0
M  V30 7806 C 757.843 0.271023 3.5958 0
M  V30 7807 O 756.947 -0.745499 4.05606 0
M  V30 7808 H 756.288 0.126856 0.65177 0
M  V30 7809 H 758.818 0.984906 1.79334 0
M  V30 7810 H 758.828 0.111084 4.07849 0
M  V30 7811 H 757.503 1.25776 3.96425 0
M  V30 7812 H 756.08 -0.552719 3.68781 0
M  V30 7813 N 758.265 -1.50454 0.469181 0
M  V30 7814 C 759.49 -2.0722 -0.0864892 0
M  V30 7815 C 759.915 -1.33098 -1.32916 0
M  V30 7816 O 759.273 -0.378084 -1.77314 0
M  V30 7817 C 759.321 -3.58845 -0.355384 0
M  V30 7818 O 758.425 -3.86583 -1.43622 0
M  V30 7819 H 757.766 -0.663889 0.0121414 0
M  V30 7820 H 760.296 -1.93674 0.659674 0
M  V30 7821 H 760.306 -4.03617 -0.596447 0
M  V30 7822 H 758.981 -4.12211 0.552698 0
M  V30 7823 H 757.558 -3.5365 -1.18262 0
M  V30 7824 N 759.743 -0.201713 -1.56304 0
M  V30 7825 C 760.673 0.71155 -2.22394 0
M  V30 7826 C 761.654 1.21625 -1.18917 0
M  V30 7827 O 762.839 1.26388 -1.47444 0
M  V30 7828 C 759.969 1.92837 -2.88845 0
M  V30 7829 C 758.923 1.55831 -3.98623 0
M  V30 7830 C 758.249 2.85228 -4.52271 0
M  V30 7831 C 759.549 0.763249 -5.16693 0
M  V30 7832 H 761.243 0.160573 -2.98969 0
M  V30 7833 H 758.789 0.0757916 -1.438 0
M  V30 7834 H 760.742 2.57253 -3.33764 0
M  V30 7835 H 759.466 2.50398 -2.09686 0
M  V30 7836 H 758.125 0.9377 -3.54405 0
M  V30 7837 H 757.773 3.40893 -3.69866 0
M  V30 7838 H 757.473 2.6121 -5.26349 0
M  V30 7839 H 758.997 3.50622 -4.99897 0
M  V30 7840 H 760.411 1.31066 -5.58117 0
M  V30 7841 H 758.808 0.620935 -5.96879 0
M  V30 7842 H 759.878 -0.234322 -4.84334 0
M  V30 7843 N 761.222 1.57436 0.0718424 0
M  V30 7844 C 762.447 1.91858 0.787745 0
M  V30 7845 C 762.872 0.798119 1.70328 0
M  V30 7846 O 762.23 -0.24905 1.79581 0
M  V30 7847 C 762.278 3.25232 1.55744 0
M  V30 7848 O 761.382 3.14462 2.6681 0
M  V30 7849 H 760.723 0.628258 0.214914 0
M  V30 7850 H 763.253 2.04561 0.0401012 0
M  V30 7851 H 763.263 3.59105 1.9367 0
M  V30 7852 H 761.938 4.0636 0.885691 0
M  V30 7853 H 760.515 2.92148 2.31741 0
M  V30 7854 N 762.7 -0.34323 1.53817 0
M  V30 7855 C 763.946 -1.08137 1.72273 0
M  V30 7856 C 764.301 -1.86311 0.480201 0
M  V30 7857 O 763.594 -1.84204 -0.527192 0
M  V30 7858 C 763.788 -2.05195 2.92626 0
M  V30 7859 C 763.617 -1.36561 4.28464 0
M  V30 7860 C 762.387 -1.11033 4.9295 0
M  V30 7861 C 764.585 -0.791663 5.0817 0
M  V30 7862 N 762.567 -0.389839 6.12661 0
M  V30 7863 C 763.938 -0.201742 6.19672 0
M  V30 7864 C 765.993 -0.692541 4.9306 0
M  V30 7865 C 764.696 0.477661 7.17712 0
M  V30 7866 C 766.722 -0.0268775 5.91394 0
M  V30 7867 C 766.084 0.552072 7.02233 0
M  V30 7868 H 762.183 -0.380078 0.683421 0
M  V30 7869 H 764.767 -0.364925 1.9125 0
M  V30 7870 H 762.938 -2.74131 2.75149 0
M  V30 7871 H 764.67 -2.7185 2.99799 0
M  V30 7872 H 761.425 -1.39752 4.52511 0
M  V30 7873 H 761.849 -0.0443076 6.76986 0
M  V30 7874 H 766.491 -1.12589 4.07534 0
M  V30 7875 H 764.209 0.922895 8.02813 0
M  V30 7876 H 767.795 0.0491921 5.81779 0
M  V30 7877 H 766.675 1.05899 7.77017 0
M  V30 7878 N 764.178 -1.45556 -0.604258 0
M  V30 7879 C 765.589 -1.44171 -1.18624 0
M  V30 7880 C 765.94 -0.171081 -1.95453 0
M  V30 7881 O 765.065 0.727156 -2.03817 0
M  V30 7882 C 765.66 -2.61193 -2.15786 0
M  V30 7883 C 764.219 -2.62918 -2.69353 0
M  V30 7884 C 763.366 -2.36479 -1.4482 0
M  V30 7885 H 766.317 -1.53747 -0.393381 0
M  V30 7886 H 766.338 -2.35481 -2.98879 0
M  V30 7887 H 765.85 -3.53656 -1.59841 0
M  V30 7888 H 763.951 -1.7447 -3.29228 0
M  V30 7889 H 764.064 -3.6224 -3.13559 0
M  V30 7890 H 762.428 -1.86103 -1.73891 0
M  V30 7891 H 763.211 -3.31091 -0.907376 0
M  V30 7892 N 765.656 0.84705 -1.32902 0
M  V30 7893 C 766.902 1.60414 -1.24078 0
M  V30 7894 C 767.235 1.93217 0.195105 0
M  V30 7895 O 766.51 1.58001 1.13428 0
M  V30 7896 C 766.793 2.91951 -2.108 0
M  V30 7897 C 766.646 2.6588 -3.62805 0
M  V30 7898 C 767.965 3.93299 -1.97494 0
M  V30 7899 H 765.084 0.58206 -0.452079 0
M  V30 7900 H 767.726 0.977562 -1.62922 0
M  V30 7901 H 765.876 3.45425 -1.77802 0
M  V30 7902 H 767.548 2.18902 -4.06054 0
M  V30 7903 H 765.791 1.99716 -3.85092 0
M  V30 7904 H 766.462 3.59574 -4.1882 0
M  V30 7905 H 768.938 3.49105 -2.26417 0
M  V30 7906 H 767.814 4.8318 -2.60438 0
M  V30 7907 H 768.075 4.31887 -0.944782 0
M  V30 7908 N 767.134 1.16236 1.06428 0
M  V30 7909 C 768.382 0.941171 1.78847 0
M  V30 7910 C 768.703 -0.53248 1.87589 0
M  V30 7911 O 767.973 -1.38686 1.38358 0
M  V30 7912 H 766.553 0.345228 0.66244 0
M  V30 7913 H 769.215 1.46479 1.28569 0
M  V30 7914 H 768.311 1.35871 2.80972 0
M  V30 7915 N 768.612 -1.24939 0.960631 0
M  V30 7916 C 769.544 -2.24879 0.442937 0
M  V30 7917 C 770.557 -1.56615 -0.444464 0
M  V30 7918 O 771.746 -1.76715 -0.251776 0
M  V30 7919 C 768.846 -3.36757 -0.380537 0
M  V30 7920 C 768.019 -4.34587 0.495283 0
M  V30 7921 C 767.078 -5.25502 -0.270995 0
M  V30 7922 O 766.104 -5.68227 0.332661 0
M  V30 7923 N 767.306 -5.59077 -1.56249 0
M  V30 7924 H 770.071 -2.69932 1.30218 0
M  V30 7925 H 767.632 -1.38907 0.83166 0
M  V30 7926 H 769.624 -3.94542 -0.90103 0
M  V30 7927 H 768.194 -2.91045 -1.14067 0
M  V30 7928 H 767.414 -3.75593 1.19682 0
M  V30 7929 H 768.702 -4.96925 1.09285 0
M  V30 7930 H 768.1 -5.2628 -2.07476 0
M  V30 7931 H 766.657 -6.19421 -2.02882 0
M  V30 7932 N 770.09 -0.729906 -1.39679 0
M  V30 7933 C 771.336 -0.27603 -2.00913 0
M  V30 7934 C 771.669 1.13227 -1.57776 0
M  V30 7935 O 770.944 1.7709 -0.804319 0
M  V30 7936 C 771.227 -0.372157 -3.58172 0
M  V30 7937 C 771.08 -1.81986 -4.11341 0
M  V30 7938 C 772.399 0.248378 -4.39399 0
M  V30 7939 H 769.518 -0.101773 -0.729939 0
M  V30 7940 H 772.16 -0.925104 -1.65957 0
M  V30 7941 H 770.31 0.180459 -3.88081 0
M  V30 7942 H 771.982 -2.42896 -3.92172 0
M  V30 7943 H 770.225 -2.34287 -3.65092 0
M  V30 7944 H 770.896 -1.83842 -5.20486 0
M  V30 7945 H 773.372 -0.222645 -4.15504 0
M  V30 7946 H 772.248 0.150746 -5.48693 0
M  V30 7947 H 772.509 1.33378 -4.21501 0
M  V30 7948 N 771.568 1.50203 -0.477153 0
M  V30 7949 C 772.516 2.30278 0.327826 0
M  V30 7950 C 773.51 1.37831 0.984839 0
M  V30 7951 O 774.716 1.54994 0.915251 0
M  V30 7952 H 771.091 0.741612 0.124564 0
M  V30 7953 H 773.062 2.96124 -0.367853 0
M  V30 7954 C 771.811 3.18548 1.39365 0
M  V30 7955 H 771.134 3.89596 0.897475 0
M  V30 7956 H 772.574 3.77561 1.92934 0
M  V30 7957 C 771.033 2.36548 2.39889 0
M  V30 7958 O 771.563 2.05282 3.45286 0
M  V30 7959 N 769.769 1.99015 2.11758 0
M  V30 7960 H 769.316 2.24641 1.26071 0
M  V30 7961 H 769.274 1.44454 2.7925 0
M  V30 7962 N 773.046 0.209999 1.56195 0
M  V30 7963 C 774.271 -0.433064 2.02828 0
M  V30 7964 C 774.696 -1.5337 1.08901 0
M  V30 7965 O 774.054 -1.81144 0.0751132 0
M  V30 7966 C 774.102 -0.952635 3.47789 0
M  V30 7967 O 773.206 -2.0647 3.56993 0
M  V30 7968 H 772.547 -0.0994594 0.656509 0
M  V30 7969 H 775.077 0.32525 2.01998 0
M  V30 7970 H 775.087 -1.26542 3.8788 0
M  V30 7971 H 773.762 -0.147007 4.1564 0
M  V30 7972 H 772.339 -1.75942 3.28784 0
M  V30 7973 N 774.524 -1.57472 -0.0634922 0
M  V30 7974 C 775.457 -1.99571 -1.10664 0
M  V30 7975 C 776.435 -0.874015 -1.37112 0
M  V30 7976 O 777.619 -1.13702 -1.50347 0
M  V30 7977 C 774.746 -2.3395 -2.44918 0
M  V30 7978 C 773.792 -3.56213 -2.34551 0
M  V30 7979 S 774.625 -5.06727 -1.73169 0
M  V30 7980 C 775.781 -5.44316 -3.08984 0
M  V30 7981 H 776.014 -2.87739 -0.747905 0
M  V30 7982 H 773.547 -1.5198 -0.272316 0
M  V30 7983 H 775.505 -2.54431 -3.22141 0
M  V30 7984 H 774.166 -1.46297 -2.7795 0
M  V30 7985 H 773.359 -3.77812 -3.33578 0
M  V30 7986 H 772.961 -3.35406 -1.65466 0
M  V30 7987 H 775.253 -5.42894 -4.05305 0
M  V30 7988 H 776.196 -6.4502 -2.92156 0
M  V30 7989 H 776.604 -4.71781 -3.09972 0
M  V30 7990 N 776.003 0.335068 -1.53997 0
M  V30 7991 C 777.228 1.09859 -1.75914 0
M  V30 7992 C 777.653 1.81308 -0.500915 0
M  V30 7993 O 777.011 1.72854 0.54693 0
M  V30 7994 C 777.059 2.08122 -2.94478 0
M  V30 7995 O 776.163 3.15805 -2.65219 0
M  V30 7996 H 775.504 0.317313 -0.583274 0
M  V30 7997 H 778.034 0.382872 -2.00986 0
M  V30 7998 H 778.044 2.51195 -3.21504 0
M  V30 7999 H 776.719 1.55517 -3.8573 0
M  V30 8000 H 775.296 2.77489 -2.49107 0
M  V30 8001 N 777.481 1.45874 0.596531 0
M  V30 8002 C 778.729 1.5017 1.35253 0
M  V30 8003 C 779.05 0.149246 1.94428 0
M  V30 8004 O 778.32 -0.82268 1.77789 0
M  V30 8005 H 776.9 0.553052 0.502138 0
M  V30 8006 H 779.562 1.81908 0.699671 0
M  V30 8007 H 778.658 2.24671 2.16632 0
M  V30 8008 N 778.959 -0.83999 1.33349 0
M  V30 8009 C 780.205 -1.59724 1.25936 0
M  V30 8010 C 780.56 -1.91616 -0.173563 0
M  V30 8011 O 779.853 -1.55791 -1.11534 0
M  V30 8012 C 780.047 -2.91571 2.06691 0
M  V30 8013 C 779.876 -2.72556 3.57691 0
M  V30 8014 C 778.646 -2.70174 4.27006 0
M  V30 8015 C 780.844 -2.45272 4.52047 0
M  V30 8016 N 778.826 -2.42525 5.63964 0
M  V30 8017 C 780.197 -2.27163 5.76885 0
M  V30 8018 C 782.252 -2.30859 4.41144 0
M  V30 8019 C 780.955 -1.96105 6.92052 0
M  V30 8020 C 782.981 -2.01194 5.56125 0
M  V30 8021 C 782.343 -1.83897 6.79972 0
M  V30 8022 H 778.442 -0.587568 0.516031 0
M  V30 8023 H 781.026 -0.986169 1.67877 0
M  V30 8024 H 779.197 -3.5063 1.67073 0
M  V30 8025 H 780.929 -3.56762 1.91057 0
M  V30 8026 H 777.684 -2.8364 3.7927 0
M  V30 8027 H 778.108 -2.31588 6.36157 0
M  V30 8028 H 782.75 -2.42946 3.46031 0
M  V30 8029 H 780.468 -1.82756 7.87163 0
M  V30 8030 H 784.054 -1.90799 5.49624 0
M  V30 8031 H 782.934 -1.61271 7.67438 0
M  V30 8032 N 780.437 -1.16799 -1.0581 0
M  V30 8033 C 781.367 -0.902241 -2.15364 0
M  V30 8034 C 782.348 0.153351 -1.69407 0
M  V30 8035 O 783.533 0.00442032 -1.94199 0
M  V30 8036 C 780.663 -0.407911 -3.44896 0
M  V30 8037 C 779.617 -1.40197 -4.04387 0
M  V30 8038 C 778.943 -0.765848 -5.29187 0
M  V30 8039 C 780.243 -2.77316 -4.42598 0
M  V30 8040 H 781.937 -1.81841 -2.37853 0
M  V30 8041 H 779.483 -0.875731 -1.14311 0
M  V30 8042 H 781.436 -0.20945 -4.20879 0
M  V30 8043 H 780.16 0.54378 -3.22041 0
M  V30 8044 H 778.819 -1.58707 -3.30466 0
M  V30 8045 H 778.467 0.192482 -5.02632 0
M  V30 8046 H 778.167 -1.42939 -5.69949 0
M  V30 8047 H 779.691 -0.577519 -6.07863 0
M  V30 8048 H 781.105 -2.62561 -5.09642 0
M  V30 8049 H 779.502 -3.4019 -4.94359 0
M  V30 8050 H 780.572 -3.32199 -3.53231 0
M  V30 8051 N 781.915 1.24427 -0.967243 0
M  V30 8052 C 783.161 1.92772 -0.629812 0
M  V30 8053 C 783.494 1.75436 0.832827 0
M  V30 8054 O 782.769 1.10716 1.59913 0
M  V30 8055 C 783.052 3.45798 -1.00477 0
M  V30 8056 C 782.905 3.72304 -2.52407 0
M  V30 8057 C 784.224 4.36787 -0.538999 0
M  V30 8058 H 781.343 0.700099 -0.230282 0
M  V30 8059 H 783.985 1.46805 -1.20616 0
M  V30 8060 H 782.135 3.8508 -0.514336 0
M  V30 8061 H 783.807 3.42584 -3.08924 0
M  V30 8062 H 782.05 3.17472 -2.95625 0
M  V30 8063 H 782.721 4.7937 -2.73693 0
M  V30 8064 H 785.197 4.04877 -0.959874 0
M  V30 8065 H 784.073 5.4259 -0.829926 0
M  V30 8066 H 784.334 4.38527 0.560923 0
M  V30 8067 N 783.393 0.737304 1.3929 0
M  V30 8068 C 784.621 0.296573 2.04763 0
M  V30 8069 C 785.036 -1.06941 1.55592 0
M  V30 8070 O 784.393 -1.67619 0.721822 0
M  V30 8071 C 784.444 0.291906 3.6032 0
M  V30 8072 O 784.165 1.60397 4.07682 0
M  V30 8073 C 785.666 -0.164708 4.42994 0
M  V30 8074 H 782.886 0.129251 0.658434 0
M  V30 8075 H 785.43 1.0016 1.78293 0
M  V30 8076 H 783.585 -0.364251 3.85684 0
M  V30 8077 H 783.999 1.51909 5.0202 0
M  V30 8078 H 785.473 -0.116814 5.51876 0
M  V30 8079 H 785.95 -1.21022 4.22197 0
M  V30 8080 H 786.556 0.461968 4.22784 0
M  V30 8081 N 784.871 -1.49948 0.485112 0
M  V30 8082 C 786.148 -1.95186 -0.12726 0
M  V30 8083 C 786.528 -1.42605 -1.5565 0
M  V30 8084 O 785.876 -0.632986 -2.19558 0
M  V30 8085 C 786.086 -3.48955 -0.0562117 0
M  V30 8086 C 787.434 -4.23932 -0.238106 0
M  V30 8087 O 788.458 -3.55955 -0.132145 0
M  V30 8088 O 787.317 -5.44614 -0.453658 0
M  V30 8089 H 784.411 -0.820433 -0.104014 0
M  V30 8090 H 786.957 -1.60659 0.546517 0
M  V30 8091 H 785.729 -3.79814 0.941122 0
M  V30 8092 H 785.352 -3.90056 -0.770834 0
M  V30 8093 N 786.349 -0.21828 -1.56081 0
M  V30 8094 C 787.279 0.687922 -2.23136 0
M  V30 8095 C 788.26 1.20357 -1.202 0
M  V30 8096 O 789.445 1.24817 -1.48776 0
M  V30 8097 C 786.575 1.89762 -2.90874 0
M  V30 8098 C 785.529 1.51595 -4.00254 0
M  V30 8099 C 784.855 2.80415 -4.55271 0
M  V30 8100 C 786.155 0.708404 -5.17474 0
M  V30 8101 H 787.849 0.128854 -2.99123 0
M  V30 8102 H 785.395 0.0605354 -1.43873 0
M  V30 8103 H 787.348 2.53699 -3.36474 0
M  V30 8104 H 786.072 2.4816 -2.1233 0
M  V30 8105 H 784.731 0.900058 -3.55379 0
M  V30 8106 H 784.379 3.36951 -3.73461 0
M  V30 8107 H 784.079 2.55613 -5.2909 0
M  V30 8108 H 785.603 3.453 -5.03587 0
M  V30 8109 H 787.017 1.2514 -5.59476 0
M  V30 8110 H 785.414 0.557593 -5.97504 0
M  V30 8111 H 786.484 -0.285679 -4.84058 0
M  V30 8112 N 787.827 1.57504 0.0551401 0
M  V30 8113 C 789.076 1.87237 0.750009 0
M  V30 8114 C 789.389 0.813268 1.77891 0
M  V30 8115 O 790.595 0.99898 2.52453 0
M  V30 8116 C 789.051 3.32187 1.38491 0
M  V30 8117 C 788.659 4.46267 0.393707 0
M  V30 8118 C 790.403 3.71101 2.06117 0
M  V30 8119 C 788.31 5.82265 1.03547 0
M  V30 8120 H 787.24 0.698524 0.283866 0
M  V30 8121 H 789.891 1.835 0.00365997 0
M  V30 8122 H 788.273 3.30588 2.18008 0
M  V30 8123 H 789.447 4.59289 -0.372865 0
M  V30 8124 H 787.762 4.16015 -0.17902 0
M  V30 8125 H 790.359 4.70012 2.54937 0
M  V30 8126 H 790.702 3.01751 2.86796 0
M  V30 8127 H 791.235 3.74762 1.33409 0
M  V30 8128 H 787.974 6.54949 0.268644 0
M  V30 8129 H 787.494 5.73012 1.7725 0
M  V30 8130 H 789.173 6.28148 1.55047 0
M  V30 8131 N 789.305 -0.326896 1.54172 0
M  V30 8132 C 790.53 -1.08924 1.76494 0
M  V30 8133 C 790.955 -1.81039 0.510523 0
M  V30 8134 O 790.313 -1.73141 -0.537756 0
M  V30 8135 C 790.361 -2.06558 2.95578 0
M  V30 8136 O 789.465 -3.14394 2.6689 0
M  V30 8137 H 788.806 -0.314216 0.584948 0
M  V30 8138 H 791.336 -0.372207 2.01186 0
M  V30 8139 H 791.346 -2.49487 3.22832 0
M  V30 8140 H 790.021 -1.53469 3.86549 0
M  V30 8141 H 788.598 -2.76164 2.50576 0
M  V30 8142 N 790.784 -1.46188 -0.588786 0
M  V30 8143 C 792.195 -1.45421 -1.17088 0
M  V30 8144 C 792.546 -0.191801 -1.9526 0
M  V30 8145 O 791.671 0.705497 -2.04577 0
M  V30 8146 C 792.266 -2.63467 -2.13004 0
M  V30 8147 C 790.825 -2.6576 -2.6655 0
M  V30 8148 C 789.972 -2.38002 -1.42304 0
M  V30 8149 H 792.923 -1.54156 -0.377052 0
M  V30 8150 H 792.944 -2.38638 -2.96365 0
M  V30 8151 H 792.456 -3.55331 -1.56081 0
M  V30 8152 H 790.557 -1.77952 -3.27359 0
M  V30 8153 H 790.67 -3.65545 -3.09699 0
M  V30 8154 H 789.034 -1.87936 -1.71907 0
M  V30 8155 H 789.817 -3.32035 -0.872209 0
M  V30 8156 N 792.262 0.832906 -1.33792 0
M  V30 8157 C 793.678 1.1245 -1.13257 0
M  V30 8158 C 793.878 2.01369 0.0725832 0
M  V30 8159 O 792.934 2.41071 0.751082 0
M  V30 8160 C 794.247 1.78084 -2.42294 0
M  V30 8161 C 795.795 1.90624 -2.48257 0
M  V30 8162 C 796.27 2.59673 -3.77271 0
M  V30 8163 N 797.761 2.67181 -3.78376 0
M  V30 8164 C 798.496 3.21313 -4.74916 0
M  V30 8165 N 797.992 3.76086 -5.81835 0
M  V30 8166 N 799.785 3.19621 -4.62384 0
M  V30 8167 H 791.936 0.241244 -2.11026 0
M  V30 8168 H 794.199 0.169557 -0.932713 0
M  V30 8169 H 793.905 1.20209 -3.30519 0
M  V30 8170 H 793.779 2.78049 -2.5489 0
M  V30 8171 H 796.166 2.4765 -1.60478 0
M  V30 8172 H 796.247 0.89591 -2.39598 0
M  V30 8173 H 795.891 2.03304 -4.65435 0
M  V30 8174 H 795.821 3.61189 -3.8321 0
M  V30 8175 H 798.312 2.28346 -3.01108 0
M  V30 8176 H 798.625 4.15612 -6.51526 0
M  V30 8177 H 796.97 3.74357 -5.85561 0
M  V30 8178 H 800.161 2.76091 -3.7801 0
M  V30 8179 H 800.334 3.61504 -5.37791 0
M  V30 8180 N 793.74 1.17359 1.05189 0
M  V30 8181 C 794.687 0.890325 2.12936 0
M  V30 8182 C 795.657 -0.165779 1.65271 0
M  V30 8183 O 796.842 -0.0285672 1.90779 0
M  V30 8184 C 793.982 0.409793 3.42658 0
M  V30 8185 C 793.095 1.53002 4.03998 0
M  V30 8186 C 792.23 1.00336 5.21638 0
M  V30 8187 C 791.269 2.09903 5.74984 0
M  V30 8188 N 790.406 1.58714 6.83926 0
M  V30 8189 H 795.246 1.81299 2.36505 0
M  V30 8190 H 792.783 0.904249 1.16025 0
M  V30 8191 H 794.741 0.112743 4.17048 0
M  V30 8192 H 793.371 -0.475915 3.19272 0
M  V30 8193 H 792.423 1.9428 3.27047 0
M  V30 8194 H 793.735 2.3564 4.39631 0
M  V30 8195 H 792.889 0.660158 6.03098 0
M  V30 8196 H 791.628 0.14642 4.8748 0
M  V30 8197 H 790.633 2.45081 4.92154 0
M  V30 8198 H 791.858 2.96013 6.1119 0
M  V30 8199 H 789.804 0.752915 6.51665 0
M  V30 8200 H 789.721 2.34959 7.18561 0
M  V30 8201 H 790.989 1.27287 7.69037 0
M  V30 8202 N 795.218 -1.23913 0.973828 0
M  V30 8203 C 796.467 -1.91455 0.63464 0
M  V30 8204 C 796.78 -1.76893 -0.834759 0
M  V30 8205 O 797.986 -2.3918 -1.28473 0
M  V30 8206 C 796.442 -3.43172 1.08447 0
M  V30 8207 C 796.05 -3.66409 2.57776 0
M  V30 8208 C 797.794 -4.1653 0.818721 0
M  V30 8209 C 795.701 -5.11728 2.9646 0
M  V30 8210 H 794.631 -0.716881 0.233661 0
M  V30 8211 H 797.282 -1.40457 1.18085 0
M  V30 8212 H 795.664 -3.93242 0.466524 0
M  V30 8213 H 796.838 -3.26913 3.24753 0
M  V30 8214 H 795.153 -3.06349 2.82027 0
M  V30 8215 H 797.75 -5.23603 1.08367 0
M  V30 8216 H 798.093 -4.15578 -0.245128 0
M  V30 8217 H 798.626 -3.72428 1.39793 0
M  V30 8218 H 795.365 -5.17806 4.01941 0
M  V30 8219 H 794.885 -5.52199 2.34172 0
M  V30 8220 H 796.564 -5.80009 2.86703 0
M  V30 8221 N 796.696 -0.74468 -1.38897 0
M  V30 8222 C 798.107 -0.36568 -1.83084 0
M  V30 8223 C 798.458 1.10436 -1.62168 0
M  V30 8224 O 797.583 1.85281 -1.11804 0
M  V30 8225 C 798.178 -0.656946 -3.3237 0
M  V30 8226 C 796.737 -0.331329 -3.74939 0
M  V30 8227 C 795.884 -0.914661 -2.61781 0
M  V30 8228 H 798.835 -0.941551 -1.27752 0
M  V30 8229 H 798.856 0.0679546 -3.80439 0
M  V30 8230 H 798.368 -1.72693 -3.47561 0
M  V30 8231 H 796.469 0.732426 -3.6533 0
M  V30 8232 H 796.582 -0.820655 -4.72019 0
M  V30 8233 H 794.946 -0.34063 -2.52412 0
M  V30 8234 H 795.729 -1.98949 -2.79775 0
M  V30 8235 N 798.174 1.49689 -0.493057 0
M  V30 8236 C 799.399 2.07331 0.0535114 0
M  V30 8237 C 799.824 1.35196 1.30781 0
M  V30 8238 O 799.182 0.406246 1.7669 0
M  V30 8239 C 799.23 3.59364 0.29825 0
M  V30 8240 O 798.334 3.88819 1.37454 0
M  V30 8241 H 797.675 0.663612 -0.0227018 0
M  V30 8242 H 800.205 1.926 -0.690402 0
M  V30 8243 H 800.215 4.04515 0.532159 0
M  V30 8244 H 798.89 4.1128 -0.618207 0
M  V30 8245 H 797.467 3.55487 1.12621 0
M  V30 8246 N 799.652 0.226554 1.55963 0
M  V30 8247 C 800.584 -0.713907 2.17798 0
M  V30 8248 C 801.597 -1.15387 1.14846 0
M  V30 8249 O 802.786 -1.08416 1.41804 0
M  V30 8250 C 799.886 -1.97945 2.75084 0
M  V30 8251 C 799.059 -1.69424 4.03255 0
M  V30 8252 C 798.118 -2.80734 4.45056 0
M  V30 8253 O 797.144 -2.4899 5.11852 0
M  V30 8254 N 798.346 -4.09797 4.11152 0
M  V30 8255 H 801.111 -0.18494 2.99129 0
M  V30 8256 H 798.672 0.0457346 1.61835 0
M  V30 8257 H 800.664 -2.71611 3.00016 0
M  V30 8258 H 799.234 -2.41876 1.98027 0
M  V30 8259 H 798.454 -0.793767 3.86126 0
M  V30 8260 H 799.742 -1.47806 4.86858 0
M  V30 8261 H 799.14 -4.38429 3.57486 0
M  V30 8262 H 797.697 -4.79992 4.40966 0
M  V30 8263 N 801.13 -1.57531 -0.0467866 0
M  V30 8264 C 802.062 -2.02156 -1.08007 0
M  V30 8265 C 803.075 -0.931434 -1.33522 0
M  V30 8266 O 804.264 -1.209 -1.31321 0
M  V30 8267 C 801.364 -2.36675 -2.42566 0
M  V30 8268 C 800.537 -3.67848 -2.36658 0
M  V30 8269 C 799.596 -3.89754 -3.53523 0
M  V30 8270 O 798.622 -4.61036 -3.33818 0
M  V30 8271 N 799.824 -3.34025 -4.74771 0
M  V30 8272 H 802.589 -2.91414 -0.699845 0
M  V30 8273 H 800.15 -1.60185 -0.235041 0
M  V30 8274 H 802.142 -2.48482 -3.19435 0
M  V30 8275 H 800.712 -1.53178 -2.72498 0
M  V30 8276 H 799.932 -3.66561 -1.45005 0
M  V30 8277 H 801.22 -4.53931 -2.29835 0
M  V30 8278 H 800.618 -2.76214 -4.93683 0
M  V30 8279 H 799.175 -3.51241 -5.49066 0
M  V30 8280 N 802.608 0.318715 -1.54344 0
M  V30 8281 C 803.885 1.07461 -1.63437 0
M  V30 8282 C 804.265 2.05771 -0.47131 0
M  V30 8283 O 803.613 2.22175 0.53391 0
M  V30 8284 C 803.823 1.77224 -3.00654 0
M  V30 8285 C 805.171 2.30069 -3.56866 0
M  V30 8286 O 806.195 1.87284 -3.0299 0
M  V30 8287 O 805.054 3.08412 -4.51159 0
M  V30 8288 H 802.148 0.495627 -0.66203 0
M  V30 8289 H 804.694 0.318218 -1.6669 0
M  V30 8290 H 803.466 1.05742 -3.76742 0
M  V30 8291 H 803.089 2.59662 -3.01101 0
M  V30 8292 N 804.086 1.46499 0.581025 0
M  V30 8293 C 805.049 1.5677 1.672 0
M  V30 8294 C 806.049 0.444716 1.54528 0
M  V30 8295 O 807.239 0.709074 1.59116 0
M  V30 8296 C 804.371 1.4896 3.06633 0
M  V30 8297 H 805.564 2.54 1.5945 0
M  V30 8298 H 803.117 1.34334 0.799003 0
M  V30 8299 H 803.852 0.530168 3.19937 0
M  V30 8300 H 803.637 2.30439 3.17239 0
M  V30 8301 H 805.127 1.59237 3.86048 0
M  V30 8302 N 805.565 -0.825799 1.34232 0
M  V30 8303 C 806.495 -1.95151 1.28212 0
M  V30 8304 C 807.476 -1.69345 0.160123 0
M  V30 8305 O 808.661 -1.90983 0.352019 0
M  V30 8306 C 805.791 -3.31554 1.03388 0
M  V30 8307 C 804.745 -3.71793 2.12023 0
M  V30 8308 C 804.071 -5.06147 1.72392 0
M  V30 8309 C 805.371 -3.84193 3.53826 0
M  V30 8310 H 807.065 -2.00445 2.22401 0
M  V30 8311 H 804.611 -0.962996 1.07063 0
M  V30 8312 H 806.564 -4.09889 0.978225 0
M  V30 8313 H 805.288 -3.26551 0.0564142 0
M  V30 8314 H 803.947 -2.95731 2.16654 0
M  V30 8315 H 803.595 -4.97628 0.733137 0
M  V30 8316 H 803.295 -5.34041 2.451 0
M  V30 8317 H 804.819 -5.86943 1.68317 0
M  V30 8318 H 806.233 -4.52806 3.51624 0
M  V30 8319 H 804.63 -4.23538 4.2513 0
M  V30 8320 H 805.7 -2.86272 3.91377 0
M  V30 8321 N 807.043 -1.17915 -1.04565 0
M  V30 8322 C 808.291 -0.969505 -1.77327 0
M  V30 8323 C 808.612 0.502569 -1.88412 0
M  V30 8324 O 807.882 1.36467 -1.40547 0
M  V30 8325 H 806.462 -0.355723 -0.656864 0
M  V30 8326 H 809.124 -1.48506 -1.26223 0
M  V30 8327 H 808.22 -1.40324 -2.78775 0
M  V30 8328 N 808.521 1.23394 -0.980386 0
M  V30 8329 C 809.769 1.91431 -0.647978 0
M  V30 8330 C 810.09 1.76871 0.821066 0
M  V30 8331 O 809.36 1.14808 1.58732 0
M  V30 8332 H 807.94 0.708516 -0.236673 0
M  V30 8333 H 810.602 1.50019 -1.2442 0
M  V30 8334 H 809.698 2.98854 -0.899592 0
M  V30 8335 N 809.999 0.752036 1.385 0
M  V30 8336 C 811.415 0.42946 1.53713 0
M  V30 8337 C 811.615 -1.0576 1.71514 0
M  V30 8338 O 810.671 -1.84366 1.72527 0
M  V30 8339 C 811.984 1.22735 2.74511 0
M  V30 8340 C 813.532 1.21727 2.8836 0
M  V30 8341 C 814.007 1.99809 4.12117 0
M  V30 8342 N 815.498 1.97062 4.19191 0
M  V30 8343 C 816.233 2.54274 5.13938 0
M  V30 8344 N 815.729 3.20193 6.14368 0
M  V30 8345 N 817.522 2.44212 5.06277 0
M  V30 8346 H 809.673 1.71581 1.25195 0
M  V30 8347 H 811.936 0.727293 0.60807 0
M  V30 8348 H 811.642 2.28032 2.67758 0
M  V30 8349 H 811.516 0.843186 3.67655 0
M  V30 8350 H 813.903 0.172367 2.94596 0
M  V30 8351 H 813.984 1.64094 1.96232 0
M  V30 8352 H 813.628 3.0431 4.06642 0
M  V30 8353 H 813.558 1.54837 5.03322 0
M  V30 8354 H 816.049 1.49054 3.47263 0
M  V30 8355 H 816.362 3.61272 6.83156 0
M  V30 8356 H 814.707 3.24287 6.14705 0
M  V30 8357 H 817.898 1.92343 4.26757 0
M  V30 8358 H 818.071 2.89096 5.79937 0
M  V30 8359 N 811.477 -1.49425 0.500989 0
M  V30 8360 C 812.427 -2.26061 -0.296698 0
M  V30 8361 C 813.411 -1.30906 -0.935541 0
M  V30 8362 O 814.603 -1.55628 -0.843142 0
M  V30 8363 C 811.732 -3.15189 -1.36055 0
M  V30 8364 C 810.818 -4.17806 -0.727952 0
M  V30 8365 N 811.209 -5.05516 0.169408 0
M  V30 8366 C 809.507 -4.34907 -0.988535 0
M  V30 8367 C 810.208 -5.79267 0.531509 0
M  V30 8368 N 809.184 -5.43507 -0.100564 0
M  V30 8369 H 812.986 -2.91246 0.394103 0
M  V30 8370 H 810.5 -1.59275 0.317065 0
M  V30 8371 H 812.497 -3.68724 -1.94547 0
M  V30 8372 H 811.157 -2.51556 -2.05303 0
M  V30 8373 H 812.168 -5.15075 0.540218 0
M  V30 8374 H 808.845 -3.82481 -1.67376 0
M  V30 8375 H 810.235 -6.59872 1.26564 0
M  V30 8376 N 812.955 -0.234822 -1.55841 0
M  V30 8377 C 813.887 0.702346 -2.18174 0
M  V30 8378 C 814.9 1.14776 -1.15457 0
M  V30 8379 O 816.089 1.07662 -1.42377 0
M  V30 8380 C 813.189 1.96483 -2.76129 0
M  V30 8381 C 812.362 1.67283 -4.04148 0
M  V30 8382 C 811.421 2.7837 -4.46539 0
M  V30 8383 O 810.447 2.46272 -5.13166 0
M  V30 8384 N 811.649 4.07611 -4.1332 0
M  V30 8385 H 814.414 0.169074 -2.99223 0
M  V30 8386 H 811.975 -0.0543164 -1.61809 0
M  V30 8387 H 813.967 2.70016 -3.01452 0
M  V30 8388 H 812.537 2.40822 -1.99307 0
M  V30 8389 H 811.757 0.773278 -3.86541 0
M  V30 8390 H 813.045 1.45222 -4.87635 0
M  V30 8391 H 812.443 4.36527 -3.59806 0
M  V30 8392 H 811 4.77646 -4.43506 0
M  V30 8393 N 814.433 1.57553 0.0384317 0
M  V30 8394 C 815.679 1.89121 0.732199 0
M  V30 8395 C 816.012 0.831404 1.75503 0
M  V30 8396 O 815.287 -0.154642 1.93884 0
M  V30 8397 C 815.57 3.31338 1.41021 0
M  V30 8398 C 815.423 4.48004 0.401532 0
M  V30 8399 C 816.742 3.72318 2.34665 0
M  V30 8400 H 813.861 0.687819 0.264715 0
M  V30 8401 H 816.503 1.89999 -0.00496279 0
M  V30 8402 H 814.653 3.3072 2.03854 0
M  V30 8403 H 816.325 4.60755 -0.224159 0
M  V30 8404 H 814.568 4.32895 -0.280092 0
M  V30 8405 H 815.239 5.44377 0.91423 0
M  V30 8406 H 817.715 3.74243 1.81883 0
M  V30 8407 H 816.591 4.72652 2.7909 0
M  V30 8408 H 816.852 3.04062 3.20934 0
M  V30 8409 N 815.911 -0.310526 1.54511 0
M  V30 8410 C 817.136 -1.07046 1.7764 0
M  V30 8411 C 817.561 -1.80488 0.529696 0
M  V30 8412 O 816.919 -1.73702 -0.519361 0
M  V30 8413 C 816.967 -2.03411 2.97752 0
M  V30 8414 O 816.071 -3.11545 2.7021 0
M  V30 8415 H 815.412 -0.307994 0.588248 0
M  V30 8416 H 817.942 -0.350848 2.01569 0
M  V30 8417 H 817.952 -2.46048 3.2546 0
M  V30 8418 H 816.627 -1.49361 3.88155 0
M  V30 8419 H 815.204 -2.7349 2.53491 0
M  V30 8420 N 817.389 -1.46805 -0.573248 0
M  V30 8421 C 818.638 -1.51868 -1.32736 0
M  V30 8422 C 818.951 -0.178765 -1.94781 0
M  V30 8423 O 820.157 -0.107272 -2.71288 0
M  V30 8424 C 818.613 -2.67641 -2.40616 0
M  V30 8425 C 818.221 -4.08094 -1.84832 0
M  V30 8426 C 819.965 -2.81984 -3.17309 0
M  V30 8427 C 817.872 -5.15193 -2.90397 0
M  V30 8428 H 816.802 -0.56523 -0.49903 0
M  V30 8429 H 819.453 -1.7304 -0.610695 0
M  V30 8430 H 817.835 -2.39818 -3.15124 0
M  V30 8431 H 819.009 -4.45751 -1.16803 0
M  V30 8432 H 817.324 -3.985 -1.20775 0
M  V30 8433 H 819.921 -3.59166 -3.96111 0
M  V30 8434 H 820.264 -1.89842 -3.70494 0
M  V30 8435 H 820.797 -3.095 -2.4991 0
M  V30 8436 H 817.536 -6.09158 -2.42088 0
M  V30 8437 H 817.056 -4.82071 -3.56886 0
M  V30 8438 H 818.735 -5.41448 -3.54179 0
M  V30 8439 N 818.867 0.818669 -1.34668 0
M  V30 8440 C 819.815 1.95123 -1.26609 0
M  V30 8441 C 820.809 1.68611 -0.163348 0
M  V30 8442 O 822.015 1.76975 -0.328586 0
M  V30 8443 H 818.39 0.640871 -0.393431 0
M  V30 8444 H 820.361 1.99043 -2.22316 0
M  V30 8445 C 819.11 3.31697 -1.04272 0
M  V30 8446 H 818.433 3.52648 -1.8836 0
M  V30 8447 H 819.873 4.11382 -1.0267 0
M  V30 8448 C 818.332 3.35942 0.253858 0
M  V30 8449 O 818.862 3.81632 1.25378 0
M  V30 8450 N 817.068 2.89165 0.288447 0
M  V30 8451 H 816.615 2.52176 -0.525845 0
M  V30 8452 H 816.573 2.92387 1.15572 0
M  V30 8453 N 820.346 1.18468 1.03938 0
M  V30 8454 C 821.294 0.909286 2.14091 0
M  V30 8455 C 822.288 -0.130928 1.68893 0
M  V30 8456 O 823.494 0.0173403 1.79992 0
M  V30 8457 H 819.869 0.27658 0.699291 0
M  V30 8458 H 821.84 1.84514 2.34515 0
M  V30 8459 C 820.589 0.452922 3.44737 0
M  V30 8460 H 819.912 1.24485 3.79926 0
M  V30 8461 H 821.352 0.299238 4.22943 0
M  V30 8462 C 819.811 -0.831435 3.26479 0
M  V30 8463 O 820.341 -1.89535 3.54174 0
M  V30 8464 N 818.547 -0.784545 2.79809 0
M  V30 8465 H 818.094 0.0814746 2.57471 0
M  V30 8466 H 818.052 -1.64431 2.67973 0
M  V30 8467 N 821.824 -1.22873 0.986916 0
M  V30 8468 C 823.052 -1.95487 0.677663 0
M  V30 8469 C 823.467 -1.72978 -0.756572 0
M  V30 8470 O 822.824 -1.02517 -1.50985 0
M  V30 8471 C 822.875 -3.48337 0.966638 0
M  V30 8472 O 822.596 -3.70087 2.34451 0
M  V30 8473 C 824.097 -4.38142 0.674248 0
M  V30 8474 H 821.317 -0.622211 0.251185 0
M  V30 8475 H 823.861 -1.56187 1.32007 0
M  V30 8476 H 822.016 -3.85628 0.370137 0
M  V30 8477 H 822.43 -4.64332 2.43918 0
M  V30 8478 H 823.904 -5.44165 0.926759 0
M  V30 8479 H 824.381 -4.3745 -0.391728 0
M  V30 8480 H 824.987 -4.06469 1.25152 0
M  V30 8481 N 823.302 -0.75937 -1.38099 0
M  V30 8482 C 824.265 -0.14372 -2.28749 0
M  V30 8483 C 825.265 0.641338 -1.47457 0
M  V30 8484 O 826.455 0.466751 -1.67831 0
M  V30 8485 C 823.587 0.804545 -3.3127 0
M  V30 8486 H 824.78 -0.942663 -2.847 0
M  V30 8487 H 822.333 -0.526757 -1.47156 0
M  V30 8488 H 823.068 1.62895 -2.80421 0
M  V30 8489 H 822.853 0.243939 -3.9134 0
M  V30 8490 H 824.343 1.23111 -3.99041 0
M  V30 8491 N 824.78 1.49157 -0.508906 0
M  V30 8492 C 826.026 2.02773 0.0328469 0
M  V30 8493 C 826.359 1.38714 1.35912 0
M  V30 8494 O 825.634 0.525536 1.87266 0
M  V30 8495 C 825.917 3.59664 0.177088 0
M  V30 8496 C 825.77 4.34239 -1.17287 0
M  V30 8497 C 827.089 4.30505 0.913977 0
M  V30 8498 H 824.208 0.736926 0.0104631 0
M  V30 8499 H 826.85 1.781 -0.661851 0
M  V30 8500 H 825 3.80818 0.768774 0
M  V30 8501 H 826.672 4.24561 -1.80404 0
M  V30 8502 H 824.915 3.96486 -1.76016 0
M  V30 8503 H 825.586 5.42397 -1.02516 0
M  V30 8504 H 828.062 4.14054 0.412084 0
M  V30 8505 H 826.938 5.40012 0.983759 0
M  V30 8506 H 827.199 3.96302 1.95951 0
M  V30 8507 N 826.258 0.243083 1.55714 0
M  V30 8508 C 827.191 -0.698623 2.17243 0
M  V30 8509 C 828.169 -1.1756 1.12331 0
M  V30 8510 O 829.353 -1.25444 1.40699 0
M  V30 8511 C 826.48 -1.94901 2.77004 0
M  V30 8512 C 825.526 -1.61022 3.94936 0
M  V30 8513 S 826.359 -0.716173 5.30689 0
M  V30 8514 C 827.515 -1.97565 5.93901 0
M  V30 8515 H 827.748 -0.175724 2.9678 0
M  V30 8516 H 825.281 0.0275727 1.54375 0
M  V30 8517 H 827.239 -2.66687 3.12071 0
M  V30 8518 H 825.9 -2.44304 1.9742 0
M  V30 8519 H 825.093 -2.5398 4.35328 0
M  V30 8520 H 824.695 -0.972829 3.61126 0
M  V30 8521 H 826.987 -2.92333 6.11186 0
M  V30 8522 H 827.93 -1.61528 6.8943 0
M  V30 8523 H 828.338 -2.126 5.22935 0
M  V30 8524 N 827.736 -1.57571 -0.0300757 0
M  V30 8525 C 828.668 -2.0329 -1.05857 0
M  V30 8526 C 829.681 -0.945543 -1.32527 0
M  V30 8527 O 830.87 -1.22287 -1.30032 0
M  V30 8528 C 827.97 -2.39234 -2.40042 0
M  V30 8529 C 827.143 -3.70337 -2.32743 0
M  V30 8530 C 826.202 -3.93482 -3.49369 0
M  V30 8531 O 825.228 -4.64551 -3.28909 0
M  V30 8532 N 826.43 -3.39042 -4.71201 0
M  V30 8533 H 829.195 -2.9214 -0.668897 0
M  V30 8534 H 826.756 -1.60425 -0.218038 0
M  V30 8535 H 828.748 -2.51856 -3.16782 0
M  V30 8536 H 827.318 -1.5606 -2.70858 0
M  V30 8537 H 826.538 -3.68079 -1.41109 0
M  V30 8538 H 827.826 -4.56343 -2.25007 0
M  V30 8539 H 827.224 -2.81434 -4.90725 0
M  V30 8540 H 825.781 -3.57045 -5.45309 0
M  V30 8541 N 829.214 0.302327 -1.54673 0
M  V30 8542 C 830.63 0.647911 -1.45857 0
M  V30 8543 C 830.83 1.90773 -0.64869 0
M  V30 8544 O 829.886 2.52018 -0.155865 0
M  V30 8545 C 831.199 0.802144 -2.89804 0
M  V30 8546 C 832.747 0.898114 -2.99838 0
M  V30 8547 C 833.222 1.08436 -4.44978 0
M  V30 8548 N 834.713 1.15059 -4.48682 0
M  V30 8549 C 835.448 1.31296 -5.58166 0
M  V30 8550 N 834.944 1.4444 -6.77576 0
M  V30 8551 N 836.737 1.34174 -5.45851 0
M  V30 8552 H 828.888 -0.525428 -2.05798 0
M  V30 8553 H 831.151 -0.173423 -0.932002 0
M  V30 8554 H 830.857 -0.0526531 -3.51661 0
M  V30 8555 H 830.731 1.69155 -3.37145 0
M  V30 8556 H 833.118 1.7434 -2.38096 0
M  V30 8557 H 833.199 -0.0152752 -2.55795 0
M  V30 8558 H 832.843 0.243843 -5.07314 0
M  V30 8559 H 832.773 2.01195 -4.8665 0
M  V30 8560 H 835.264 1.0626 -3.62653 0
M  V30 8561 H 835.577 1.56582 -7.56771 0
M  V30 8562 H 833.922 1.41499 -6.80443 0
M  V30 8563 H 837.113 1.23516 -4.5151 0
M  V30 8564 H 837.286 1.46485 -6.31226 0
M  V30 8565 N 830.692 1.47107 0.565454 0
M  V30 8566 C 831.622 1.61846 1.68309 0
M  V30 8567 C 832.603 0.468159 1.63531 0
M  V30 8568 O 833.788 0.696504 1.8128 0
M  V30 8569 C 830.918 1.62474 3.06952 0
M  V30 8570 C 829.872 2.76649 3.26572 0
M  V30 8571 C 829.198 2.62345 4.65917 0
M  V30 8572 C 830.498 4.18319 3.12741 0
M  V30 8573 H 832.192 2.55407 1.5623 0
M  V30 8574 H 829.738 1.22916 0.750179 0
M  V30 8575 H 831.691 1.71378 3.84977 0
M  V30 8576 H 830.415 0.654692 3.19971 0
M  V30 8577 H 829.074 2.67242 2.50952 0
M  V30 8578 H 828.722 1.63386 4.75725 0
M  V30 8579 H 828.422 3.38936 4.79996 0
M  V30 8580 H 829.946 2.73165 5.46089 0
M  V30 8581 H 831.36 4.28745 3.80593 0
M  V30 8582 H 829.757 4.95632 3.38333 0
M  V30 8583 H 830.827 4.37263 2.09592 0
M  V30 8584 N 832.17 -0.811516 1.35101 0
M  V30 8585 C 833.133 -1.90467 1.27495 0
M  V30 8586 C 834.133 -1.59703 0.187516 0
M  V30 8587 O 835.323 -1.68528 0.440896 0
M  V30 8588 C 832.455 -3.26774 0.971154 0
M  V30 8589 H 833.648 -1.98631 2.2469 0
M  V30 8590 H 831.201 -1.00681 1.19553 0
M  V30 8591 H 831.936 -3.243 0.0028557 0
M  V30 8592 H 831.721 -3.50488 1.75785 0
M  V30 8593 H 833.211 -4.06804 0.943414 0
M  V30 8594 N 833.648 -1.19017 -1.03309 0
M  V30 8595 C 835.059 -0.993206 -1.5809 0
M  V30 8596 C 835.41 0.45505 -1.9085 0
M  V30 8597 O 834.535 1.33372 -1.70414 0
M  V30 8598 C 835.13 -1.79661 -2.87241 0
M  V30 8599 C 833.689 -1.64377 -3.38611 0
M  V30 8600 C 832.836 -1.78628 -2.12102 0
M  V30 8601 H 835.787 -1.3345 -0.858879 0
M  V30 8602 H 835.808 -1.29019 -3.57958 0
M  V30 8603 H 835.32 -2.85061 -2.63366 0
M  V30 8604 H 833.421 -0.615447 -3.67482 0
M  V30 8605 H 833.534 -2.44651 -4.11926 0
M  V30 8606 H 831.898 -1.21648 -2.23772 0
M  V30 8607 H 832.681 -2.8548 -1.90673 0
M  V30 8608 N 835.127 1.22348 -0.993418 0
M  V30 8609 C 836.074 2.24294 -0.544118 0
M  V30 8610 C 837.044 1.60602 0.42381 0
M  V30 8611 O 838.229 1.87952 0.328453 0
M  V30 8612 C 835.369 3.44837 0.134578 0
M  V30 8613 C 834.482 4.23043 -0.875151 0
M  V30 8614 C 833.617 5.30928 -0.169919 0
M  V30 8615 C 832.656 6.00853 -1.16798 0
M  V30 8616 N 831.793 7.00381 -0.491021 0
M  V30 8617 H 836.633 2.6209 -1.4182 0
M  V30 8618 H 834.17 1.2881 -0.710384 0
M  V30 8619 H 836.128 4.13625 0.544998 0
M  V30 8620 H 834.758 3.07804 0.972446 0
M  V30 8621 H 833.81 3.53546 -1.40389 0
M  V30 8622 H 835.122 4.71237 -1.63516 0
M  V30 8623 H 834.276 6.05972 0.297205 0
M  V30 8624 H 833.015 4.8371 0.622586 0
M  V30 8625 H 832.02 5.24591 -1.64573 0
M  V30 8626 H 833.245 6.50159 -1.96137 0
M  V30 8627 H 831.191 6.55393 0.282037 0
M  V30 8628 H 831.108 7.46584 -1.18947 0
M  V30 8629 H 832.376 7.79486 -0.0467169 0
M  V30 8630 N 836.605 0.766683 1.37694 0
M  V30 8631 C 837.835 0.339446 2.03792 0
M  V30 8632 C 838.243 -1.04153 1.57952 0
M  V30 8633 O 837.586 -1.67521 0.753826 0
M  V30 8634 C 837.648 0.29822 3.58261 0
M  V30 8635 C 837.312 1.62293 4.27212 0
M  V30 8636 C 838.309 2.57447 4.51682 0
M  V30 8637 C 835.994 1.89597 4.65143 0
M  V30 8638 C 837.988 3.78117 5.13134 0
M  V30 8639 C 835.675 3.10538 5.26317 0
M  V30 8640 C 836.673 4.04617 5.50249 0
M  V30 8641 O 836.361 5.23429 6.10145 0
M  V30 8642 H 836.093 0.140952 0.661142 0
M  V30 8643 H 838.647 1.04022 1.77111 0
M  V30 8644 H 836.877 -0.458897 3.83967 0
M  V30 8645 H 838.566 -0.101263 4.05774 0
M  V30 8646 H 839.332 2.37633 4.22795 0
M  V30 8647 H 835.211 1.17199 4.45854 0
M  V30 8648 H 838.755 4.51563 5.3173 0
M  V30 8649 H 834.652 3.3024 5.54628 0
M  V30 8650 H 835.42 5.24187 6.28626 0
M  V30 8651 N 838.083 -1.48885 0.516809 0
M  V30 8652 C 839.313 -2.06592 -0.018375 0
M  V30 8653 C 839.721 -1.37543 -1.29917 0
M  V30 8654 O 839.064 -0.452527 -1.78039 0
M  V30 8655 C 839.126 -3.58016 -0.326315 0
M  V30 8656 C 838.79 -4.48853 0.859072 0
M  V30 8657 C 839.787 -4.89422 1.75391 0
M  V30 8658 C 837.472 -4.90937 1.06235 0
M  V30 8659 C 839.466 -5.70831 2.83604 0
M  V30 8660 C 837.153 -5.72119 2.14763 0
M  V30 8661 C 838.151 -6.11972 3.03281 0
M  V30 8662 O 837.839 -6.91527 4.09934 0
M  V30 8663 H 837.571 -0.675559 0.0244023 0
M  V30 8664 H 840.125 -1.92442 0.718005 0
M  V30 8665 H 838.355 -3.70231 -1.1165 0
M  V30 8666 H 840.044 -3.97898 -0.801999 0
M  V30 8667 H 840.81 -4.57542 1.60875 0
M  V30 8668 H 836.689 -4.59409 0.382677 0
M  V30 8669 H 840.233 -6.01857 3.52724 0
M  V30 8670 H 836.13 -6.03412 2.29268 0
M  V30 8671 H 836.898 -7.0986 4.07482 0
M  V30 8672 N 839.561 -0.251338 -1.55583 0
M  V30 8673 C 840.807 0.365823 -2.00083 0
M  V30 8674 C 841.162 1.55242 -1.13656 0
M  V30 8675 O 840.455 1.90624 -0.193108 0
M  V30 8676 C 840.649 0.821186 -3.47838 0
M  V30 8677 C 840.478 -0.319746 -4.48562 0
M  V30 8678 C 839.248 -0.795866 -4.98993 0
M  V30 8679 C 841.446 -1.14825 -5.01318 0
M  V30 8680 N 839.428 -1.90875 -5.83472 0
M  V30 8681 C 840.799 -2.10943 -5.83012 0
M  V30 8682 C 842.854 -1.18431 -4.8361 0
M  V30 8683 C 841.557 -3.10383 -6.48888 0
M  V30 8684 C 843.583 -2.16703 -5.50267 0
M  V30 8685 C 842.945 -3.11557 -6.31753 0
M  V30 8686 H 839.044 0.0996971 -0.775619 0
M  V30 8687 H 841.628 -0.36993 -1.91153 0
M  V30 8688 H 839.799 1.52622 -3.57157 0
M  V30 8689 H 841.531 1.41367 -3.79206 0
M  V30 8690 H 838.286 -0.379242 -4.72079 0
M  V30 8691 H 838.71 -2.46808 -6.30408 0
M  V30 8692 H 843.352 -0.464824 -4.20237 0
M  V30 8693 H 841.07 -3.83277 -7.11424 0
M  V30 8694 H 844.656 -2.20204 -5.38518 0
M  V30 8695 H 843.536 -3.86357 -6.82421 0
M  V30 8696 N 841.039 1.57585 0.0217189 0
M  V30 8697 C 842.002 2.06004 1.00474 0
M  V30 8698 C 843.002 0.965461 1.2859 0
M  V30 8699 O 844.192 1.22884 1.23471 0
M  V30 8700 C 841.324 2.48319 2.33561 0
M  V30 8701 H 842.517 2.94112 0.586346 0
M  V30 8702 H 840.07 1.53973 0.268716 0
M  V30 8703 H 840.805 1.63389 2.80133 0
M  V30 8704 H 840.59 3.28239 2.1448 0
M  V30 8705 H 842.08 2.86181 3.04122 0
M  V30 8706 N 842.517 -0.29412 1.54831 0
M  V30 8707 C 843.48 -1.3461 1.85507 0
M  V30 8708 C 844.48 -1.43359 0.728343 0
M  V30 8709 O 845.67 -1.42875 0.996609 0
M  V30 8710 C 842.802 -2.73012 2.0415 0
M  V30 8711 H 843.995 -1.08651 2.79526 0
M  V30 8712 H 841.548 -0.531138 1.46999 0
M  V30 8713 H 842.283 -3.04183 1.12441 0
M  V30 8714 H 842.068 -2.68051 2.86166 0
M  V30 8715 H 843.558 -3.49061 2.29229 0
M  V30 8716 N 843.995 -1.47404 -0.557645 0
M  V30 8717 C 845.406 -1.47872 -1.13977 0
M  V30 8718 C 845.757 -0.233176 -1.94809 0
M  V30 8719 O 844.882 0.661945 -2.06027 0
M  V30 8720 C 845.477 -2.67926 -2.07368 0
M  V30 8721 C 844.036 -2.71354 -2.60852 0
M  V30 8722 C 843.183 -2.40967 -1.37223 0
M  V30 8723 H 846.134 -1.54921 -0.344268 0
M  V30 8724 H 846.155 -2.44871 -2.91236 0
M  V30 8725 H 845.667 -3.58562 -1.48509 0
M  V30 8726 H 843.768 -1.84855 -3.23511 0
M  V30 8727 H 843.881 -3.72032 -3.01876 0
M  V30 8728 H 842.245 -1.91541 -1.67882 0
M  V30 8729 H 843.028 -3.33811 -0.801583 0
M  V30 8730 N 845.473 0.80434 -1.35529 0
M  V30 8731 C 846.383 1.94784 -1.30753 0
M  V30 8732 C 847.399 1.72703 -0.212071 0
M  V30 8733 O 848.575 1.96494 -0.441841 0
M  V30 8734 C 845.64 3.29406 -1.08133 0
M  V30 8735 C 844.701 3.64367 -2.27013 0
M  V30 8736 C 843.934 4.92566 -2.05463 0
M  V30 8737 O 844.157 5.61166 -1.02222 0
M  V30 8738 O 843.091 5.25838 -2.92879 0
M  V30 8739 H 846.917 2.01761 -2.26994 0
M  V30 8740 H 844.502 0.942448 -1.15924 0
M  V30 8741 H 846.384 4.09995 -0.973756 0
M  V30 8742 H 845.059 3.23355 -0.149444 0
M  V30 8743 H 843.966 2.84146 -2.43335 0
M  V30 8744 H 845.299 3.75125 -3.18656 0
M  V30 8745 N 846.951 1.19563 1.02676 0
M  V30 8746 C 847.914 0.937182 2.09164 0
M  V30 8747 C 848.914 -0.0831927 1.60585 0
M  V30 8748 O 850.104 0.15178 1.73538 0
M  V30 8749 C 847.236 0.408912 3.38439 0
M  V30 8750 H 848.429 1.88164 2.33526 0
M  V30 8751 H 845.982 1.00959 1.19319 0
M  V30 8752 H 846.717 -0.541497 3.19747 0
M  V30 8753 H 846.502 1.14464 3.7502 0
M  V30 8754 H 847.992 0.247242 4.16867 0
M  V30 8755 N 848.429 -1.21819 0.999893 0
M  V30 8756 C 849.659 -1.94475 0.697346 0
M  V30 8757 C 850.067 -1.73991 -0.743228 0
M  V30 8758 O 849.41 -1.04042 -1.51397 0
M  V30 8759 C 849.472 -3.47204 0.932181 0
M  V30 8760 C 849.136 -3.91432 2.3586 0
M  V30 8761 C 850.133 -3.98545 3.33853 0
M  V30 8762 C 847.818 -4.23888 2.69489 0
M  V30 8763 C 849.812 -4.37499 4.63545 0
M  V30 8764 C 847.499 -4.62519 3.99399 0
M  V30 8765 C 848.497 -4.69294 4.96238 0
M  V30 8766 O 848.185 -5.07048 6.23825 0
M  V30 8767 H 847.917 -0.625419 0.256567 0
M  V30 8768 H 850.471 -1.55728 1.33933 0
M  V30 8769 H 848.701 -3.85997 0.233025 0
M  V30 8770 H 850.39 -4.01078 0.623807 0
M  V30 8771 H 851.156 -3.73654 3.09205 0
M  V30 8772 H 847.035 -4.17815 1.94812 0
M  V30 8773 H 850.579 -4.42702 5.3913 0
M  V30 8774 H 846.476 -4.86864 4.23833 0
M  V30 8775 H 847.244 -5.25098 6.27865 0
M  V30 8776 N 849.908 -0.773975 -1.37286 0
M  V30 8777 C 850.838 -0.175782 -2.32837 0
M  V30 8778 C 851.819 0.680603 -1.5589 0
M  V30 8779 O 853.004 0.617607 -1.84117 0
M  V30 8780 C 850.134 0.702388 -3.40123 0
M  V30 8781 C 849.088 -0.0528687 -4.27967 0
M  V30 8782 C 848.414 0.944891 -5.26285 0
M  V30 8783 C 849.714 -1.23316 -5.07534 0
M  V30 8784 H 851.408 -0.974016 -2.83114 0
M  V30 8785 H 848.954 -0.469826 -1.3612 0
M  V30 8786 H 850.907 1.13069 -4.05947 0
M  V30 8787 H 849.631 1.53316 -2.88378 0
M  V30 8788 H 848.29 -0.461978 -3.63678 0
M  V30 8789 H 847.938 1.77028 -4.70819 0
M  V30 8790 H 847.638 0.444079 -5.8592 0
M  V30 8791 H 849.162 1.37209 -5.94984 0
M  V30 8792 H 850.576 -0.881395 -5.66484 0
M  V30 8793 H 848.973 -1.66621 -5.76504 0
M  V30 8794 H 850.043 -2.03617 -4.40077 0
M  V30 8795 N 851.386 1.48609 -0.524698 0
M  V30 8796 C 852.634 2.02097 0.0112991 0
M  V30 8797 C 852.955 1.40455 1.35268 0
M  V30 8798 O 852.225 0.56807 1.87483 0
M  V30 8799 H 850.805 0.746966 0.00716426 0
M  V30 8800 H 853.467 1.82378 -0.687329 0
M  V30 8801 H 852.563 3.11855 0.123531 0
M  V30 8802 N 852.864 0.259585 1.55447 0
M  V30 8803 C 853.812 -0.6507 2.23313 0
M  V30 8804 C 854.806 -1.17014 1.22491 0
M  V30 8805 O 856.012 -1.12557 1.40467 0
M  V30 8806 H 852.387 -0.228354 0.71649 0
M  V30 8807 H 854.358 -0.0553039 2.98349 0
M  V30 8808 C 853.107 -1.83081 2.95596 0
M  V30 8809 H 852.43 -1.44027 3.72956 0
M  V30 8810 H 853.87 -2.44469 3.46426 0
M  V30 8811 C 852.329 -2.70976 2.00184 0
M  V30 8812 O 852.859 -3.70882 1.54304 0
M  V30 8813 N 851.065 -2.37813 1.67014 0
M  V30 8814 H 850.612 -1.5662 2.04519 0
M  V30 8815 H 850.57 -2.96896 1.03443 0
M  V30 8816 N 854.342 -1.57594 -0.0133615 0
M  V30 8817 C 855.289 -2.07574 -1.00905 0
M  V30 8818 C 856.259 -0.968231 -1.34961 0
M  V30 8819 O 857.444 -1.23981 -1.45028 0
M  V30 8820 C 854.584 -2.5728 -2.30002 0
M  V30 8821 C 853.697 -3.81881 -2.01967 0
M  V30 8822 C 852.832 -4.20139 -3.25049 0
M  V30 8823 C 851.871 -5.37614 -2.92639 0
M  V30 8824 N 851.008 -5.71229 -4.08218 0
M  V30 8825 H 855.848 -2.92382 -0.575899 0
M  V30 8826 H 853.385 -1.4455 -0.272722 0
M  V30 8827 H 855.343 -2.84171 -3.05454 0
M  V30 8828 H 853.973 -1.75365 -2.71011 0
M  V30 8829 H 853.025 -3.61979 -1.16942 0
M  V30 8830 H 854.337 -4.67441 -1.74069 0
M  V30 8831 H 853.491 -4.48242 -4.08857 0
M  V30 8832 H 852.23 -3.33262 -3.56073 0
M  V30 8833 H 851.235 -5.09248 -2.07235 0
M  V30 8834 H 852.46 -6.26157 -2.62876 0
M  V30 8835 H 850.406 -4.8731 -4.39164 0
M  V30 8836 H 850.323 -6.51333 -3.83799 0
M  V30 8837 H 851.591 -6.03917 -4.92854 0
M  V30 8838 N 855.82 0.285905 -1.54985 0
M  V30 8839 C 856.75 1.35752 -1.89983 0
M  V30 8840 C 857.731 1.52163 -0.760295 0
M  V30 8841 O 858.916 1.65421 -1.01733 0
M  V30 8842 C 856.046 2.71925 -2.16042 0
M  V30 8843 C 855 2.70261 -3.31878 0
M  V30 8844 C 854.326 4.09864 -3.43388 0
M  V30 8845 C 855.626 2.30667 -4.68604 0
M  V30 8846 H 857.32 1.06709 -2.79738 0
M  V30 8847 H 854.866 0.511884 -1.34595 0
M  V30 8848 H 856.819 3.46992 -2.39113 0
M  V30 8849 H 855.543 3.02523 -1.23074 0
M  V30 8850 H 854.202 1.97651 -3.08755 0
M  V30 8851 H 853.85 4.37664 -2.47909 0
M  V30 8852 H 853.55 4.09648 -4.21262 0
M  V30 8853 H 855.074 4.86689 -3.68736 0
M  V30 8854 H 856.488 2.95453 -4.91305 0
M  V30 8855 H 854.885 2.41637 -5.49301 0
M  V30 8856 H 855.955 1.25793 -4.68299 0
M  V30 8857 N 857.298 1.47698 0.54982 0
M  V30 8858 C 858.526 1.5833 1.33188 0
M  V30 8859 C 858.941 0.236193 1.87317 0
M  V30 8860 O 858.298 -0.77167 1.65383 0
M  V30 8861 C 858.349 2.61438 2.49664 0
M  V30 8862 O 858.07 3.9092 1.97771 0
M  V30 8863 C 859.571 2.82324 3.41772 0
M  V30 8864 H 856.791 0.53443 0.405741 0
M  V30 8865 H 859.335 1.93375 0.665309 0
M  V30 8866 H 857.49 2.29307 3.12245 0
M  V30 8867 H 857.904 4.47323 2.73866 0
M  V30 8868 H 859.378 3.58316 4.19897 0
M  V30 8869 H 859.855 1.90416 3.95776 0
M  V30 8870 H 860.461 3.15682 2.85 0
M  V30 8871 N 858.776 -0.797141 1.35954 0
M  V30 8872 C 859.739 -1.89104 1.29508 0
M  V30 8873 C 860.739 -1.59495 0.204444 0
M  V30 8874 O 861.929 -1.68051 0.458746 0
M  V30 8875 C 859.061 -3.25726 1.00576 0
M  V30 8876 H 860.254 -1.96237 2.26785 0
M  V30 8877 H 857.807 -0.994075 1.20614 0
M  V30 8878 H 858.542 -3.24279 0.0372519 0
M  V30 8879 H 858.327 -3.48604 1.79492 0
M  V30 8880 H 859.817 -4.0578 0.986508 0
M  V30 8881 N 860.254 -1.20106 -1.0204 0
M  V30 8882 C 861.501 -1.00889 -1.75578 0
M  V30 8883 C 861.829 0.459415 -1.88996 0
M  V30 8884 O 861.084 1.35735 -1.40977 0
M  V30 8885 C 861.383 -1.63308 -3.17908 0
M  V30 8886 C 861.049 -3.13091 -3.24476 0
M  V30 8887 C 859.711 -3.53968 -3.25976 0
M  V30 8888 C 862.063 -4.09093 -3.22944 0
M  V30 8889 C 859.391 -4.89381 -3.2361 0
M  V30 8890 C 861.743 -5.44447 -3.22119 0
M  V30 8891 C 860.407 -5.84742 -3.2192 0
M  V30 8892 H 859.677 -0.36918 -0.642485 0
M  V30 8893 H 862.324 -1.49475 -1.19706 0
M  V30 8894 H 860.629 -1.06974 -3.76914 0
M  V30 8895 H 862.326 -1.45958 -3.73493 0
M  V30 8896 H 858.916 -2.80526 -3.24042 0
M  V30 8897 H 863.1 -3.78549 -3.20958 0
M  V30 8898 H 858.356 -5.1987 -3.21785 0
M  V30 8899 H 862.53 -6.18584 -3.19885 0
M  V30 8900 H 860.157 -6.89642 -3.19841 0
M  V30 8901 N 861.732 1.21287 -1.00634 0
M  V30 8902 C 862.98 1.90013 -0.688438 0
M  V30 8903 C 863.301 1.78573 0.783365 0
M  V30 8904 O 862.571 1.1815 1.56261 0
M  V30 8905 H 861.151 0.703336 -0.251648 0
M  V30 8906 H 863.813 1.47346 -1.27574 0
M  V30 8907 H 862.909 2.96879 -0.962781 0
M  V30 8908 N 863.21 0.781244 1.36873 0
M  V30 8909 C 864.458 0.349198 1.9906 0
M  V30 8910 C 864.779 -1.0806 1.62321 0
M  V30 8911 O 864.049 -1.74351 0.893229 0
M  V30 8912 H 862.629 0.126126 0.736275 0
M  V30 8913 H 865.291 1.00148 1.67202 0
M  V30 8914 H 864.387 0.434451 3.09061 0
M  V30 8915 N 864.689 -1.48329 0.532571 0
M  V30 8916 C 865.936 -2.025 -0.000582356 0
M  V30 8917 C 866.264 -1.40942 -1.34036 0
M  V30 8918 O 865.519 -0.545545 -1.87942 0
M  V30 8919 C 865.818 -3.57 -0.168943 0
M  V30 8920 C 865.484 -4.37357 1.0968 0
M  V30 8921 C 864.146 -4.59033 1.44369 0
M  V30 8922 C 866.498 -4.83882 1.93669 0
M  V30 8923 C 863.826 -5.24481 2.62939 0
M  V30 8924 C 866.178 -5.50637 3.11419 0
M  V30 8925 C 864.842 -5.70551 3.46451 0
M  V30 8926 H 864.112 -0.741 -0.000213099 0
M  V30 8927 H 866.759 -1.78282 0.699117 0
M  V30 8928 H 865.064 -3.80072 -0.951429 0
M  V30 8929 H 866.761 -3.9654 -0.596422 0
M  V30 8930 H 863.351 -4.20748 0.816655 0
M  V30 8931 H 867.535 -4.66936 1.6818 0
M  V30 8932 H 862.791 -5.38096 2.9028 0
M  V30 8933 H 866.965 -5.85655 3.76803 0
M  V30 8934 H 864.592 -6.21037 4.38425 0
M  V30 8935 N 866.167 -0.267825 -1.55308 0
M  V30 8936 C 867.097 0.616585 -2.25212 0
M  V30 8937 C 868.078 1.16472 -1.23969 0
M  V30 8938 O 869.263 1.20021 -1.52672 0
M  V30 8939 C 866.393 1.80412 -2.96764 0
M  V30 8940 C 865.347 1.38784 -4.04874 0
M  V30 8941 C 864.673 2.65789 -4.63961 0
M  V30 8942 C 865.973 0.543415 -5.19465 0
M  V30 8943 H 867.667 0.0336257 -2.99381 0
M  V30 8944 H 865.213 0.0147328 -1.43992 0
M  V30 8945 H 867.166 2.42866 -3.44375 0
M  V30 8946 H 865.89 2.4128 -2.20118 0
M  V30 8947 H 864.549 0.786541 -3.58063 0
M  V30 8948 H 864.197 3.24899 -3.83992 0
M  V30 8949 H 863.897 2.38651 -5.36954 0
M  V30 8950 H 865.421 3.29104 -5.14318 0
M  V30 8951 H 866.835 1.07277 -5.63174 0
M  V30 8952 H 865.232 0.367219 -5.98975 0
M  V30 8953 H 866.302 -0.439534 -4.82904 0
M  V30 8954 N 867.645 1.57599 0.00500368 0
M  V30 8955 C 868.592 2.08106 0.998025 0
M  V30 8956 C 869.562 0.975374 1.34446 0
M  V30 8957 O 870.747 1.24749 1.44369 0
M  V30 8958 C 867.887 2.58496 2.28635 0
M  V30 8959 C 867 3.82947 1.99939 0
M  V30 8960 C 866.135 4.21857 3.22816 0
M  V30 8961 C 865.174 5.39159 2.89783 0
M  V30 8962 N 864.311 5.73386 4.05183 0
M  V30 8963 H 869.151 2.92684 0.560385 0
M  V30 8964 H 866.688 1.44692 0.265053 0
M  V30 8965 H 868.646 2.85787 3.03943 0
M  V30 8966 H 867.276 1.768 2.70077 0
M  V30 8967 H 866.328 3.62594 1.1502 0
M  V30 8968 H 867.64 4.68358 1.71588 0
M  V30 8969 H 866.794 4.50404 4.06474 0
M  V30 8970 H 865.533 3.35145 3.54301 0
M  V30 8971 H 864.538 5.1034 2.04532 0
M  V30 8972 H 865.763 6.27543 2.59551 0
M  V30 8973 H 863.709 4.89632 4.36574 0
M  V30 8974 H 863.626 6.53359 3.80339 0
M  V30 8975 H 864.894 6.06522 4.89644 0
M  V30 8976 N 869.123 -0.277682 1.55134 0
M  V30 8977 C 870.353 -1.02677 1.79279 0
M  V30 8978 C 870.761 -1.80599 0.563962 0
M  V30 8979 O 870.104 -1.77416 -0.476378 0
M  V30 8980 C 870.166 -2.03617 2.96277 0
M  V30 8981 C 869.83 -1.44676 4.33495 0
M  V30 8982 C 870.827 -0.864811 5.12657 0
M  V30 8983 C 868.512 -1.47537 4.80144 0
M  V30 8984 C 870.506 -0.319322 6.366 0
M  V30 8985 C 868.193 -0.926016 6.04043 0
M  V30 8986 C 869.191 -0.348988 6.82108 0
M  V30 8987 O 868.879 0.191964 8.03671 0
M  V30 8988 H 868.611 -0.309232 0.601125 0
M  V30 8989 H 871.165 -0.315308 2.02965 0
M  V30 8990 H 869.395 -2.78509 2.68272 0
M  V30 8991 H 871.084 -2.64616 3.07788 0
M  V30 8992 H 871.85 -0.835438 4.7775 0
M  V30 8993 H 867.729 -1.91389 4.19394 0
M  V30 8994 H 871.273 0.131709 6.97476 0
M  V30 8995 H 867.17 -0.952613 6.38432 0
M  V30 8996 H 867.938 0.0808779 8.1846 0
M  V30 8997 N 870.601 -1.47988 -0.541979 0
M  V30 8998 C 871.829 -1.59034 -1.32347 0
M  V30 8999 C 872.244 -0.246123 -1.87189 0
M  V30 9000 O 871.601 0.762889 -1.6579 0
M  V30 9001 C 871.652 -2.62759 -2.48274 0
M  V30 9002 O 871.373 -3.91963 -1.95695 0
M  V30 9003 C 872.874 -2.84133 -3.4027 0
M  V30 9004 H 870.094 -0.536574 -0.402901 0
M  V30 9005 H 872.638 -1.93725 -0.655045 0
M  V30 9006 H 870.793 -2.3096 -3.11025 0
M  V30 9007 H 871.207 -4.48769 -2.7149 0
M  V30 9008 H 872.681 -3.60538 -4.17991 0
M  V30 9009 H 873.158 -1.92512 -3.9476 0
M  V30 9010 H 873.764 -3.17188 -2.83322 0
M  V30 9011 N 872.079 0.78992 -1.36375 0
M  V30 9012 C 873.325 1.55007 -1.3077 0
M  V30 9013 C 873.658 1.93871 0.112979 0
M  V30 9014 O 872.933 1.6267 1.06625 0
M  V30 9015 C 873.216 2.82748 -2.22993 0
M  V30 9016 C 873.069 2.50253 -3.73756 0
M  V30 9017 C 874.388 3.84569 -2.13998 0
M  V30 9018 H 871.507 0.562362 -0.476359 0
M  V30 9019 H 874.149 0.907582 -1.66922 0
M  V30 9020 H 872.299 3.37573 -1.92292 0
M  V30 9021 H 873.971 2.01482 -4.14973 0
M  V30 9022 H 872.214 1.83203 -3.93216 0
M  V30 9023 H 872.885 3.41487 -4.33694 0
M  V30 9024 H 875.361 3.39188 -2.4102 0
M  V30 9025 H 874.237 4.717 -2.80697 0
M  V30 9026 H 874.498 4.27491 -1.12711 0
M  V30 9027 N 873.557 1.20646 1.01402 0
M  V30 9028 C 874.782 1.04462 1.79172 0
M  V30 9029 C 875.207 -0.401588 1.83763 0
M  V30 9030 O 874.565 -1.28934 1.27459 0
M  V30 9031 C 874.613 1.63583 3.21361 0
M  V30 9032 O 873.717 0.875198 4.03006 0
M  V30 9033 H 873.058 0.368235 0.552539 0
M  V30 9034 H 875.588 1.59994 1.27526 0
M  V30 9035 H 875.598 1.67426 3.72065 0
M  V30 9036 H 874.273 2.68835 3.17334 0
M  V30 9037 H 872.85 0.911172 3.61597 0
M  V30 9038 N 875.035 -1.20752 1.01276 0
M  V30 9039 C 876.265 -1.93725 0.717934 0
M  V30 9040 C 876.673 -1.74769 -0.724732 0
M  V30 9041 O 876.016 -1.05642 -1.50285 0
M  V30 9042 C 876.078 -3.46196 0.968954 0
M  V30 9043 C 875.742 -3.88909 2.39998 0
M  V30 9044 C 876.739 -3.94982 3.38061 0
M  V30 9045 C 874.424 -4.21006 2.7397 0
M  V30 9046 C 876.418 -4.32558 4.68159 0
M  V30 9047 C 874.105 -4.58257 4.04282 0
M  V30 9048 C 875.103 -4.64004 5.01187 0
M  V30 9049 O 874.791 -5.00403 6.29168 0
M  V30 9050 H 874.523 -0.622663 0.263186 0
M  V30 9051 H 877.077 -1.54299 1.35577 0
M  V30 9052 H 875.307 -3.85728 0.273952 0
M  V30 9053 H 876.996 -4.00394 0.666312 0
M  V30 9054 H 877.762 -3.70353 3.13151 0
M  V30 9055 H 873.641 -4.15725 1.99233 0
M  V30 9056 H 877.185 -4.36959 5.43795 0
M  V30 9057 H 873.082 -4.82341 4.28973 0
M  V30 9058 H 873.85 -5.18409 6.33399 0
M  V30 9059 N 876.513 -0.788492 -1.36457 0
M  V30 9060 C 877.79 -0.284484 -1.9352 0
M  V30 9061 C 878.17 1.2232 -1.7205 0
M  V30 9062 O 877.518 2.01424 -1.07892 0
M  V30 9063 C 877.728 -0.676106 -3.42388 0
M  V30 9064 C 879.076 -0.655327 -4.19512 0
M  V30 9065 O 880.1 -0.616523 -3.50824 0
M  V30 9066 O 878.959 -0.697391 -5.42032 0
M  V30 9067 H 876.053 -0.0701769 -0.824017 0
M  V30 9068 H 878.599 -0.870974 -1.45644 0
M  V30 9069 H 877.371 -1.71596 -3.51668 0
M  V30 9070 H 876.994 -0.0634517 -3.97549 0
M  V30 9071 N 877.991 1.48044 -0.54043 0
M  V30 9072 C 879.24 2.01698 -0.00809961 0
M  V30 9073 C 879.553 1.42184 1.34325 0
M  V30 9074 O 880.759 1.87398 1.96454 0
M  V30 9075 C 879.215 3.59882 0.035933 0
M  V30 9076 C 878.823 4.28384 -1.31115 0
M  V30 9077 C 880.567 4.21346 0.51654 0
M  V30 9078 C 878.474 5.78529 -1.22714 0
M  V30 9079 H 877.404 0.754 0.000742174 0
M  V30 9080 H 880.055 1.70204 -0.685775 0
M  V30 9081 H 878.437 3.88264 0.778906 0
M  V30 9082 H 879.611 4.11663 -2.07051 0
M  V30 9083 H 877.926 3.78837 -1.72834 0
M  V30 9084 H 880.523 5.31351 0.597529 0
M  V30 9085 H 880.866 3.87373 1.52473 0
M  V30 9086 H 881.399 3.97432 -0.171064 0
M  V30 9087 H 878.138 6.17093 -2.21081 0
M  V30 9088 H 877.658 5.97634 -0.50931 0
M  V30 9089 H 879.337 6.40395 -0.92216 0
M  V30 9090 N 879.47 0.276058 1.55163 0
M  V30 9091 C 880.881 -0.221516 1.85381 0
M  V30 9092 C 881.232 -1.55372 1.19808 0
M  V30 9093 O 880.357 -2.10855 0.486742 0
M  V30 9094 C 880.952 -0.408706 3.36326 0
M  V30 9095 C 879.511 -0.850512 3.66665 0
M  V30 9096 C 878.658 0.055656 2.77244 0
M  V30 9097 H 881.609 0.497819 1.5069 0
M  V30 9098 H 881.63 -1.24711 3.59482 0
M  V30 9099 H 881.142 0.561052 3.84023 0
M  V30 9100 H 879.243 -1.83171 3.24468 0
M  V30 9101 H 879.356 -0.687181 4.74146 0
M  V30 9102 H 877.72 -0.460819 2.50497 0
M  V30 9103 H 878.503 1.02131 3.27756 0
M  V30 9104 N 880.948 -1.576 0.00335426 0
M  V30 9105 C 882.194 -1.90996 -0.681799 0
M  V30 9106 C 882.527 -0.877643 -1.73237 0
M  V30 9107 O 881.802 0.103183 -1.94226 0
M  V30 9108 C 882.085 -3.34961 -1.32187 0
M  V30 9109 C 881.938 -4.48911 -0.28261 0
M  V30 9110 C 883.257 -3.78408 -2.24711 0
M  V30 9111 H 880.376 -0.694596 -0.246386 0
M  V30 9112 H 883.018 -1.89919 0.055336 0
M  V30 9113 H 881.168 -3.36008 -1.95014 0
M  V30 9114 H 882.84 -4.59999 0.346241 0
M  V30 9115 H 881.083 -4.32 0.394768 0
M  V30 9116 H 881.754 -5.46609 -0.769576 0
M  V30 9117 H 884.23 -3.78934 -1.71897 0
M  V30 9118 H 883.106 -4.79885 -2.66461 0
M  V30 9119 H 883.367 -3.12464 -3.1276 0
M  V30 9120 N 882.426 0.269451 -1.5528 0
M  V30 9121 C 883.336 1.35511 -1.91505 0
M  V30 9122 C 884.352 1.53854 -0.812712 0
M  V30 9123 O 885.528 1.67912 -1.1121 0
M  V30 9124 C 882.593 2.6937 -2.18267 0
M  V30 9125 C 881.654 2.59743 -3.41807 0
M  V30 9126 C 880.887 3.87219 -3.67283 0
M  V30 9127 O 881.11 4.88066 -2.95208 0
M  V30 9128 O 880.044 3.87209 -4.60818 0
M  V30 9129 H 883.87 1.07785 -2.8393 0
M  V30 9130 H 881.455 0.468282 -1.41871 0
M  V30 9131 H 883.337 3.48513 -2.36889 0
M  V30 9132 H 882.012 2.96874 -1.29024 0
M  V30 9133 H 880.919 1.78964 -3.28516 0
M  V30 9134 H 882.252 2.37188 -4.3128 0
M  V30 9135 N 883.904 1.48273 0.534124 0
M  V30 9136 C 885.132 1.59734 1.31501 0
M  V30 9137 C 885.547 0.256047 1.87056 0
M  V30 9138 O 884.904 -0.754086 1.66192 0
M  V30 9139 C 884.955 2.64072 2.46877 0
M  V30 9140 O 884.676 3.92995 1.93613 0
M  V30 9141 C 886.177 2.85933 3.38758 0
M  V30 9142 H 883.397 0.538703 0.40005 0
M  V30 9143 H 885.941 1.9407 0.644762 0
M  V30 9144 H 884.096 2.32606 3.09795 0
M  V30 9145 H 884.51 4.50203 2.69106 0
M  V30 9146 H 885.984 3.62749 4.16073 0
M  V30 9147 H 886.461 1.94603 3.93734 0
M  V30 9148 H 887.067 3.18687 2.81636 0
M  V30 9149 N 885.382 -0.782676 1.36792 0
M  V30 9150 C 886.628 -1.54311 1.3159 0
M  V30 9151 C 886.961 -1.93928 -0.102696 0
M  V30 9152 O 886.236 -1.63233 -1.05761 0
M  V30 9153 C 886.519 -2.81561 2.24489 0
M  V30 9154 C 886.372 -2.48268 3.75078 0
M  V30 9155 C 887.691 -3.83428 2.16034 0
M  V30 9156 H 884.81 -0.559828 0.479335 0
M  V30 9157 H 887.452 -0.898717 1.67401 0
M  V30 9158 H 885.602 -3.36549 1.9408 0
M  V30 9159 H 887.274 -1.99279 4.16036 0
M  V30 9160 H 885.517 -1.81116 3.94182 0
M  V30 9161 H 886.188 -3.39183 4.35499 0
M  V30 9162 H 888.664 -3.37905 2.42815 0
M  V30 9163 H 887.54 -4.70204 2.83194 0
M  V30 9164 H 887.801 -4.26887 1.14976 0
M  V30 9165 N 886.86 -1.21182 -1.00761 0
M  V30 9166 C 888.137 -0.936297 -1.71735 0
M  V30 9167 C 888.517 0.552585 -2.03739 0
M  V30 9168 O 887.865 1.51672 -1.70903 0
M  V30 9169 C 888.075 -1.81867 -2.97868 0
M  V30 9170 C 889.423 -2.06594 -3.7095 0
M  V30 9171 O 890.447 -1.79194 -3.07844 0
M  V30 9172 O 889.306 -2.5292 -4.84452 0
M  V30 9173 H 886.4 -0.350867 -0.74888 0
M  V30 9174 H 888.946 -1.32098 -1.06527 0
M  V30 9175 H 887.718 -2.82643 -2.70607 0
M  V30 9176 H 887.341 -1.43463 -3.70815 0
M  V30 9177 N 888.338 1.20213 -1.01915 0
M  V30 9178 C 889.563 1.94163 -0.729076 0
M  V30 9179 C 889.988 1.74416 0.704323 0
M  V30 9180 O 889.346 1.0401 1.48498 0
M  V30 9181 C 889.394 3.44258 -1.07324 0
M  V30 9182 O 888.498 4.11979 -0.186367 0
M  V30 9183 H 887.839 0.606506 -0.270272 0
M  V30 9184 H 890.369 1.52571 -1.3632 0
M  V30 9185 H 890.379 3.94888 -1.02603 0
M  V30 9186 H 889.054 3.57954 -2.11759 0
M  V30 9187 H 887.631 3.7176 -0.291334 0
M  V30 9188 N 889.816 0.795718 1.36037 0
M  V30 9189 C 890.764 0.18649 2.31851 0
M  V30 9190 C 891.758 -0.657704 1.56111 0
M  V30 9191 O 892.964 -0.552083 1.71324 0
M  V30 9192 H 889.339 0.0415363 0.750852 0
M  V30 9193 H 891.31 1.00992 2.8079 0
M  V30 9194 C 890.059 -0.65918 3.41394 0
M  V30 9195 H 889.382 -0.01894 3.99796 0
M  V30 9196 H 890.822 -1.05202 4.10741 0
M  V30 9197 C 889.281 -1.82011 2.83502 0
M  V30 9198 O 889.811 -2.91703 2.76174 0
M  V30 9199 N 888.017 -1.62821 2.40703 0
M  V30 9200 H 887.564 -0.735965 2.46863 0
M  V30 9201 H 887.522 -2.40657 2.02316 0
M  V30 9202 N 891.294 -1.47756 0.548274 0
M  V30 9203 C 892.224 -2.32702 -0.19284 0
M  V30 9204 C 893.205 -1.43237 -0.917457 0
M  V30 9205 O 894.39 -1.72103 -0.89967 0
M  V30 9206 C 891.52 -3.24831 -1.22891 0
M  V30 9207 C 890.474 -4.23466 -0.621312 0
M  V30 9208 C 889.8 -5.04856 -1.76137 0
M  V30 9209 C 891.1 -5.20616 0.419055 0
M  V30 9210 H 892.794 -2.94914 0.516323 0
M  V30 9211 H 890.34 -1.41818 0.24975 0
M  V30 9212 H 892.293 -3.83094 -1.75547 0
M  V30 9213 H 891.017 -2.60656 -1.9679 0
M  V30 9214 H 889.676 -3.66416 -0.116123 0
M  V30 9215 H 889.324 -4.37091 -2.48918 0
M  V30 9216 H 889.024 -5.71629 -1.36065 0
M  V30 9217 H 890.548 -5.65976 -2.29136 0
M  V30 9218 H 891.962 -5.73296 -0.0211034 0
M  V30 9219 H 890.359 -5.95543 0.738163 0
M  V30 9220 H 891.429 -4.66638 1.31822 0
M  V30 9221 N 892.772 -0.284283 -1.55015 0
M  V30 9222 C 893.705 0.640779 -2.19019 0
M  V30 9223 C 894.683 1.14541 -1.15409 0
M  V30 9224 O 895.867 1.21669 -1.43975 0
M  V30 9225 C 892.994 1.87488 -2.82074 0
M  V30 9226 C 892.04 1.50494 -3.99066 0
M  V30 9227 S 892.873 0.575218 -5.32402 0
M  V30 9228 C 894.029 1.81749 -5.98931 0
M  V30 9229 H 894.262 0.0969761 -2.97142 0
M  V30 9230 H 891.795 -0.0684929 -1.54248 0
M  V30 9231 H 893.753 2.58319 -3.19032 0
M  V30 9232 H 892.414 2.38984 -2.03828 0
M  V30 9233 H 891.607 2.42349 -4.41908 0
M  V30 9234 H 891.209 0.876741 -3.63578 0
M  V30 9235 H 893.501 2.76026 -6.18721 0
M  V30 9236 H 894.444 1.43192 -6.93471 0
M  V30 9237 H 894.852 1.98661 -5.28388 0
M  V30 9238 N 894.251 1.57596 -0.0117121 0
M  V30 9239 C 895.476 1.95764 0.684938 0
M  V30 9240 C 895.901 0.887285 1.65858 0
M  V30 9241 O 895.259 -0.153508 1.80649 0
M  V30 9242 C 895.307 3.33031 1.38285 0
M  V30 9243 O 894.411 3.28163 2.49765 0
M  V30 9244 H 893.752 0.638767 0.181309 0
M  V30 9245 H 896.282 2.04486 -0.0683883 0
M  V30 9246 H 896.292 3.68866 1.74362 0
M  V30 9247 H 894.967 4.10483 0.669043 0
M  V30 9248 H 893.544 3.04021 2.15929 0
M  V30 9249 N 895.729 -0.261212 1.5542 0
M  V30 9250 C 896.679 -1.32571 1.85496 0
M  V30 9251 C 897.663 -1.44155 0.714722 0
M  V30 9252 O 898.855 -1.47637 0.976336 0
M  V30 9253 C 895.984 -2.68384 2.14067 0
M  V30 9254 C 895.07 -2.60864 3.34381 0
M  V30 9255 N 895.461 -2.22967 4.54004 0
M  V30 9256 C 893.759 -2.91904 3.37206 0
M  V30 9257 C 894.46 -2.25727 5.36118 0
M  V30 9258 N 893.436 -2.64667 4.74818 0
M  V30 9259 H 897.238 -1.02298 2.75522 0
M  V30 9260 H 894.752 -0.469849 1.55455 0
M  V30 9261 H 896.749 -3.45189 2.33774 0
M  V30 9262 H 895.409 -2.99536 1.25332 0
M  V30 9263 H 896.42 -1.94748 4.79889 0
M  V30 9264 H 893.097 -3.2769 2.587 0
M  V30 9265 H 894.487 -1.98889 6.41789 0
M  V30 9266 N 897.207 -1.48554 -0.526253 0
M  V30 9267 C 898.17 -1.62868 -1.61266 0
M  V30 9268 C 899.17 -0.501762 -1.52771 0
M  V30 9269 O 900.36 -0.76764 -1.56374 0
M  V30 9270 C 897.492 -1.60238 -3.00893 0
M  V30 9271 H 898.685 -2.59742 -1.49913 0
M  V30 9272 H 896.238 -1.37207 -0.748595 0
M  V30 9273 H 896.973 -0.648545 -3.17749 0
M  V30 9274 H 896.758 -2.42054 -3.08468 0
M  V30 9275 H 898.248 -1.73455 -3.79872 0
M  V30 9276 N 898.685 0.775411 -1.37205 0
M  V30 9277 C 899.962 1.5229 -1.22748 0
M  V30 9278 C 900.342 2.10327 0.180487 0
M  V30 9279 O 899.69 1.95206 1.18772 0
M  V30 9280 C 899.9 2.60671 -2.3206 0
M  V30 9281 C 901.248 3.28173 -2.6942 0
M  V30 9282 O 902.272 2.70963 -2.31208 0
M  V30 9283 O 901.131 4.31598 -3.3524 0
M  V30 9284 H 898.225 0.674326 -0.478762 0
M  V30 9285 H 900.771 0.812691 -1.48975 0
M  V30 9286 H 899.543 2.1588 -3.26361 0
M  V30 9287 H 899.166 3.39296 -2.07277 0
M  V30 9288 N 900.163 1.21714 1.00117 0
M  V30 9289 C 901.409 1.03823 1.74208 0
M  V30 9290 C 901.742 -0.426733 1.89454 0
M  V30 9291 O 901.017 -1.31658 1.43166 0
M  V30 9292 C 901.3 1.74047 3.15246 0
M  V30 9293 C 901.153 3.28087 3.077 0
M  V30 9294 C 902.472 1.48614 4.14249 0
M  V30 9295 H 899.591 0.378573 0.632338 0
M  V30 9296 H 902.233 1.49942 1.16694 0
M  V30 9297 H 900.383 1.3484 3.64349 0
M  V30 9298 H 902.055 3.76686 2.6628 0
M  V30 9299 H 900.298 3.58191 2.44707 0
M  V30 9300 H 900.969 3.72392 4.07466 0
M  V30 9301 H 903.445 1.82656 3.73866 0
M  V30 9302 H 902.321 2.00257 5.11066 0
M  V30 9303 H 902.582 0.416957 4.40129 0
M  V30 9304 N 901.641 -1.19671 1.02551 0
M  V30 9305 C 902.89 -1.88591 0.715272 0
M  V30 9306 C 903.203 -1.80274 -0.758982 0
M  V30 9307 O 904.409 -2.44413 -1.18213 0
M  V30 9308 C 902.865 -3.38264 1.22905 0
M  V30 9309 C 902.473 -3.55146 2.73084 0
M  V30 9310 C 904.217 -4.12683 0.994649 0
M  V30 9311 C 902.124 -4.98693 3.17897 0
M  V30 9312 H 901.054 -0.706326 0.263857 0
M  V30 9313 H 903.705 -1.35322 1.23936 0
M  V30 9314 H 902.087 -3.9091 0.632892 0
M  V30 9315 H 903.261 -3.12845 3.38326 0
M  V30 9316 H 901.576 -2.94112 2.94766 0
M  V30 9317 H 904.173 -5.18536 1.30478 0
M  V30 9318 H 904.516 -4.16243 -0.0686466 0
M  V30 9319 H 905.049 -3.66164 1.55464 0
M  V30 9320 H 901.788 -5.00293 4.23542 0
M  V30 9321 H 901.308 -5.4177 2.57381 0
M  V30 9322 H 902.987 -5.67327 3.11045 0
M  V30 9323 N 903.119 -0.802921 -1.35613 0
M  V30 9324 C 904.368 -0.378087 -1.98125 0
M  V30 9325 C 904.681 1.05953 -1.64418 0
M  V30 9326 O 905.887 1.58729 -2.20266 0
M  V30 9327 C 904.343 -0.625077 -3.5443 0
M  V30 9328 C 903.951 -2.07499 -3.97049 0
M  V30 9329 C 905.695 -0.265419 -4.23669 0
M  V30 9330 C 903.602 -2.26793 -5.46186 0
M  V30 9331 H 902.532 -0.137633 -0.741332 0
M  V30 9332 H 905.183 -0.986461 -1.54729 0
M  V30 9333 H 903.565 0.0531975 -3.95964 0
M  V30 9334 H 904.739 -2.79077 -3.66678 0
M  V30 9335 H 903.054 -2.39417 -3.40688 0
M  V30 9336 H 905.651 -0.387669 -5.33293 0
M  V30 9337 H 905.994 0.787994 -4.08774 0
M  V30 9338 H 906.527 -0.897464 -3.87544 0
M  V30 9339 H 903.266 -3.30566 -5.66045 0
M  V30 9340 H 902.786 -1.59735 -5.78139 0
M  V30 9341 H 904.465 -2.08165 -6.12598 0
M  V30 9342 N 904.597 1.47463 -0.556102 0
M  V30 9343 C 905.544 2.29998 0.192213 0
M  V30 9344 C 906.514 1.38993 0.909403 0
M  V30 9345 O 907.699 1.67954 0.905316 0
M  V30 9346 C 904.839 3.22932 1.21692 0
M  V30 9347 C 903.952 4.29027 0.505908 0
M  V30 9348 C 903.087 5.09114 1.51581 0
M  V30 9349 C 902.126 6.06984 0.789714 0
M  V30 9350 N 901.263 6.80033 1.74639 0
M  V30 9351 H 906.103 2.93468 -0.517734 0
M  V30 9352 H 903.64 1.44654 -0.267147 0
M  V30 9353 H 905.598 3.75234 1.8236 0
M  V30 9354 H 904.228 2.61329 1.89491 0
M  V30 9355 H 903.28 3.7979 -0.215276 0
M  V30 9356 H 904.592 4.9876 -0.062958 0
M  V30 9357 H 903.746 5.6556 2.19606 0
M  V30 9358 H 902.485 4.3928 2.11859 0
M  V30 9359 H 901.49 5.49717 0.0955382 0
M  V30 9360 H 902.715 6.78827 0.192688 0
M  V30 9361 H 900.661 6.12931 2.33777 0
M  V30 9362 H 900.578 7.45933 1.22965 0
M  V30 9363 H 901.846 7.41054 2.41782 0
M  V30 9364 N 906.075 0.2925 1.54862 0
M  V30 9365 C 907.323 -0.318633 1.99572 0
M  V30 9366 C 907.644 -1.55062 1.1824 0
M  V30 9367 O 906.914 -1.93943 0.276226 0
M  V30 9368 H 905.494 -0.120722 0.737181 0
M  V30 9369 H 908.156 0.401862 1.90712 0
M  V30 9370 H 907.252 -0.596542 3.06346 0
M  V30 9371 N 907.553 -1.57587 0.0200696 0
M  V30 9372 C 908.501 -2.10814 -0.982868 0
M  V30 9373 C 909.495 -1.03263 -1.34287 0
M  V30 9374 O 910.701 -1.21708 -1.32617 0
M  V30 9375 H 907.076 -0.673409 -0.334701 0
M  V30 9376 H 909.047 -2.94034 -0.50856 0
M  V30 9377 C 907.796 -2.64301 -2.25921 0
M  V30 9378 H 907.119 -3.46703 -1.99091 0
M  V30 9379 H 908.559 -3.052 -2.94328 0
M  V30 9380 C 907.018 -1.56628 -2.98277 0
M  V30 9381 O 907.548 -0.960825 -3.9004 0
M  V30 9382 N 905.754 -1.28889 -2.60453 0
M  V30 9383 H 905.301 -1.7831 -1.85912 0
M  V30 9384 H 905.259 -0.570697 -3.09177 0
M  V30 9385 N 909.032 0.252966 -1.55557 0
M  V30 9386 C 910.28 0.979912 -1.76754 0
M  V30 9387 C 910.601 1.86083 -0.582944 0
M  V30 9388 O 909.871 1.91742 0.401497 0
M  V30 9389 H 908.451 0.364805 -0.651864 0
M  V30 9390 H 911.113 0.272372 -1.92987 0
M  V30 9391 H 910.209 1.60518 -2.67657 0
M  V30 9392 N 910.51 1.48831 0.518367 0
M  V30 9393 C 911.44 1.67119 1.63075 0
M  V30 9394 C 912.421 0.519948 1.61958 0
M  V30 9395 O 913.606 0.753824 1.78972 0
M  V30 9396 C 910.736 1.72158 3.01627 0
M  V30 9397 C 909.69 2.86898 3.17606 0
M  V30 9398 C 909.016 2.77035 4.57335 0
M  V30 9399 C 910.316 4.28057 2.99274 0
M  V30 9400 H 912.01 2.60248 1.48025 0
M  V30 9401 H 909.556 1.2524 0.710694 0
M  V30 9402 H 911.509 1.83539 3.7933 0
M  V30 9403 H 910.233 0.756157 3.17726 0
M  V30 9404 H 908.892 2.75091 2.42323 0
M  V30 9405 H 908.54 1.78438 4.70286 0
M  V30 9406 H 908.24 3.54036 4.6897 0
M  V30 9407 H 909.764 2.904 5.37122 0
M  V30 9408 H 911.178 4.40636 3.6676 0
M  V30 9409 H 909.575 5.06145 3.22393 0
M  V30 9410 H 910.645 4.4371 1.95574 0
M  V30 9411 N 911.988 -0.768124 1.37614 0
M  V30 9412 C 913.216 -1.55726 1.36224 0
M  V30 9413 C 913.631 -1.8873 -0.0515357 0
M  V30 9414 O 912.988 -1.51718 -1.0143 0
M  V30 9415 C 913.039 -2.86533 2.20412 0
M  V30 9416 O 912.76 -2.54942 3.56281 0
M  V30 9417 C 914.261 -3.80745 2.27041 0
M  V30 9418 H 911.481 -0.482325 0.46648 0
M  V30 9419 H 914.025 -0.95176 1.81002 0
M  V30 9420 H 912.18 -3.43496 1.79134 0
M  V30 9421 H 912.594 -3.38732 4.00451 0
M  V30 9422 H 914.068 -4.69523 2.90263 0
M  V30 9423 H 914.545 -4.20138 1.27987 0
M  V30 9424 H 915.151 -3.2971 2.68647 0
M  V30 9425 N 913.466 -1.22244 -0.994698 0
M  V30 9426 C 914.396 -1.01513 -2.10279 0
M  V30 9427 C 915.377 0.0633365 -1.69982 0
M  V30 9428 O 916.562 -0.0985268 -1.9395 0
M  V30 9429 C 913.692 -0.59016 -3.42249 0
M  V30 9430 C 912.646 -1.61436 -3.96387 0
M  V30 9431 C 911.972 -1.04528 -5.24383 0
M  V30 9432 C 913.272 -3.00388 -4.27276 0
M  V30 9433 H 914.966 -1.94194 -2.2788 0
M  V30 9434 H 912.512 -0.935094 -1.09508 0
M  V30 9435 H 914.465 -0.432254 -4.19177 0
M  V30 9436 H 913.189 0.372308 -3.24471 0
M  V30 9437 H 911.848 -1.76001 -3.21589 0
M  V30 9438 H 911.496 -0.0742225 -5.02945 0
M  V30 9439 H 911.196 -1.72949 -5.61571 0
M  V30 9440 H 912.72 -0.898922 -6.03947 0
M  V30 9441 H 914.134 -2.89207 -4.95007 0
M  V30 9442 H 912.531 -3.65916 -4.75631 0
M  V30 9443 H 913.601 -3.50456 -3.35125 0
M  V30 9444 N 914.944 1.19125 -1.03184 0
M  V30 9445 C 916.169 1.93379 -0.749628 0
M  V30 9446 C 916.594 1.75153 0.685785 0
M  V30 9447 O 915.952 1.05579 1.47386 0
M  V30 9448 C 916 3.43101 -1.1097 0
M  V30 9449 O 915.104 4.11758 -0.230053 0
M  V30 9450 H 914.445 0.603605 -0.276689 0
M  V30 9451 H 916.975 1.51116 -1.37931 0
M  V30 9452 H 916.985 3.93778 -1.06785 0
M  V30 9453 H 915.66 3.55688 -2.15544 0
M  V30 9454 H 914.237 3.7143 -0.330748 0
M  V30 9455 N 916.422 0.810101 1.35185 0
M  V30 9456 C 917.65 0.404696 2.02903 0
M  V30 9457 C 918.065 -0.985434 1.61042 0
M  V30 9458 O 917.422 -1.63557 0.809658 0
M  V30 9459 C 917.473 0.482493 3.58266 0
M  V30 9460 O 917.194 1.81782 3.98606 0
M  V30 9461 C 918.695 0.070345 4.43244 0
M  V30 9462 H 915.915 0.163972 0.650657 0
M  V30 9463 H 918.459 1.0947 1.72733 0
M  V30 9464 H 916.614 -0.159296 3.87072 0
M  V30 9465 H 917.028 1.78306 4.93262 0
M  V30 9466 H 918.502 0.175888 5.5172 0
M  V30 9467 H 918.979 -0.984724 4.28018 0
M  V30 9468 H 919.585 0.685427 4.1974 0
M  V30 9469 N 917.9 -1.47166 0.563914 0
M  V30 9470 C 918.832 -2.28165 -0.217583 0
M  V30 9471 C 919.845 -1.37405 -0.873134 0
M  V30 9472 O 921.034 -1.6217 -0.745857 0
M  V30 9473 C 918.134 -3.11873 -1.32621 0
M  V30 9474 C 917.307 -4.30637 -0.766177 0
M  V30 9475 C 916.366 -4.95889 -1.76014 0
M  V30 9476 O 915.392 -5.54071 -1.3036 0
M  V30 9477 N 916.594 -4.91191 -3.09373 0
M  V30 9478 H 919.359 -2.95876 0.477256 0
M  V30 9479 H 916.92 -1.5687 0.40043 0
M  V30 9480 H 918.912 -3.52392 -1.99003 0
M  V30 9481 H 917.482 -2.46361 -1.92419 0
M  V30 9482 H 916.702 -3.94129 0.0745998 0
M  V30 9483 H 917.99 -5.07442 -0.371472 0
M  V30 9484 H 917.388 -4.45133 -3.49104 0
M  V30 9485 H 915.945 -5.35708 -3.71295 0
M  V30 9486 N 919.378 -0.300708 -1.54705 0
M  V30 9487 C 920.341 0.562648 -2.22187 0
M  V30 9488 C 921.341 1.06152 -1.20782 0
M  V30 9489 O 922.531 0.957596 -1.45519 0
M  V30 9490 C 919.663 1.77899 -2.908 0
M  V30 9491 H 920.856 -0.0269361 -2.99888 0
M  V30 9492 H 918.409 -0.0515412 -1.56215 0
M  V30 9493 H 919.144 2.40841 -2.17177 0
M  V30 9494 H 918.929 1.42892 -3.65136 0
M  V30 9495 H 920.419 2.39236 -3.42281 0
M  V30 9496 N 920.856 1.57574 -0.0284266 0
M  V30 9497 C 921.766 2.13637 0.96936 0
M  V30 9498 C 922.782 1.08845 1.35752 0
M  V30 9499 O 923.958 1.40899 1.43908 0
M  V30 9500 C 921.023 2.65179 2.2334 0
M  V30 9501 C 920.084 3.84683 1.90572 0
M  V30 9502 C 919.317 4.33758 3.1095 0
M  V30 9503 O 919.54 3.82009 4.23586 0
M  V30 9504 O 918.474 5.2561 2.93288 0
M  V30 9505 H 922.3 2.99169 0.52267 0
M  V30 9506 H 919.885 1.48159 0.192135 0
M  V30 9507 H 921.767 2.98402 2.97547 0
M  V30 9508 H 920.442 1.82731 2.67191 0
M  V30 9509 H 919.349 3.56386 1.13753 0
M  V30 9510 H 920.682 4.68292 1.51538 0
M  V30 9511 N 922.334 -0.244713 1.55689 0
M  V30 9512 C 923.582 -0.970525 1.77272 0
M  V30 9513 C 923.903 -1.85771 0.592804 0
M  V30 9514 O 923.173 -1.91952 -0.391323 0
M  V30 9515 H 921.753 -0.361342 0.653789 0
M  V30 9516 H 924.415 -0.262134 1.93129 0
M  V30 9517 H 923.511 -1.59096 2.68505 0
M  V30 9518 N 923.813 -1.49104 -0.510467 0
M  V30 9519 C 924.743 -1.67981 -1.62187 0
M  V30 9520 C 925.724 -0.528529 -1.6168 0
M  V30 9521 O 926.909 -0.763305 -1.7857 0
M  V30 9522 C 924.039 -1.73755 -3.0071 0
M  V30 9523 C 922.993 -2.88579 -3.1608 0
M  V30 9524 C 922.319 -2.79457 -4.5586 0
M  V30 9525 C 923.619 -4.29638 -2.97 0
M  V30 9526 H 925.313 -2.61029 -1.46643 0
M  V30 9527 H 922.859 -1.25615 -0.704042 0
M  V30 9528 H 924.812 -1.85548 -3.78352 0
M  V30 9529 H 923.536 -0.772996 -3.17321 0
M  V30 9530 H 922.195 -2.76372 -2.40861 0
M  V30 9531 H 921.843 -1.80929 -4.69333 0
M  V30 9532 H 921.543 -3.56518 -4.67086 0
M  V30 9533 H 923.067 -2.93245 -5.35574 0
M  V30 9534 H 924.481 -4.42575 -3.64418 0
M  V30 9535 H 922.878 -5.07847 -3.19704 0
M  V30 9536 H 923.948 -4.44741 -1.93219 0
M  V30 9537 N 925.291 0.760815 -1.38019 0
M  V30 9538 C 926.516 1.55513 -1.37224 0
M  V30 9539 C 926.941 1.88062 0.037611 0
M  V30 9540 O 926.299 1.50042 1.0177 0
M  V30 9541 C 926.347 2.83539 -2.22796 0
M  V30 9542 O 925.451 3.78384 -1.64009 0
M  V30 9543 H 924.792 0.470642 -0.468393 0
M  V30 9544 H 927.322 0.940792 -1.81687 0
M  V30 9545 H 927.332 3.32535 -2.36399 0
M  V30 9546 H 926.007 2.59178 -3.25269 0
M  V30 9547 H 924.584 3.37063 -1.59508 0
M  V30 9548 N 926.769 1.22769 0.988202 0
M  V30 9549 C 927.699 1.02627 2.09738 0
M  V30 9550 C 928.68 -0.0543211 1.70013 0
M  V30 9551 O 929.865 0.108811 1.93895 0
M  V30 9552 C 926.995 0.608302 3.41931 0
M  V30 9553 C 925.949 1.63536 3.95525 0
M  V30 9554 C 925.275 1.07308 5.23822 0
M  V30 9555 C 926.575 3.02649 4.25677 0
M  V30 9556 H 928.269 1.954 2.26847 0
M  V30 9557 H 925.815 0.940888 1.09011 0
M  V30 9558 H 927.768 0.454478 4.18942 0
M  V30 9559 H 926.492 -0.355095 3.24664 0
M  V30 9560 H 925.151 1.77704 3.20651 0
M  V30 9561 H 924.799 0.100894 5.02899 0
M  V30 9562 H 924.499 1.75925 5.60646 0
M  V30 9563 H 926.023 0.930938 6.03462 0
M  V30 9564 H 927.437 2.91828 4.93467 0
M  V30 9565 H 925.834 3.68434 4.73684 0
M  V30 9566 H 926.904 3.52228 3.33262 0
M  V30 9567 N 928.247 -1.18576 1.03814 0
M  V30 9568 C 929.179 -2.21607 0.585055 0
M  V30 9569 C 930.192 -1.59125 -0.343963 0
M  V30 9570 O 931.381 -1.77959 -0.138882 0
M  V30 9571 C 928.481 -3.38495 -0.165602 0
M  V30 9572 C 927.654 -4.30557 0.770662 0
M  V30 9573 C 926.713 -5.26161 0.0637534 0
M  V30 9574 O 925.739 -5.64961 0.693359 0
M  V30 9575 N 926.941 -5.67882 -1.20377 0
M  V30 9576 H 929.706 -2.61104 1.47121 0
M  V30 9577 H 927.267 -1.33336 0.918316 0
M  V30 9578 H 929.259 -3.99474 -0.648292 0
M  V30 9579 H 927.829 -2.97711 -0.953268 0
M  V30 9580 H 927.049 -3.67221 1.43326 0
M  V30 9581 H 928.337 -4.88969 1.40667 0
M  V30 9582 H 927.735 -5.38409 -1.73586 0
M  V30 9583 H 926.292 -6.31069 -1.63079 0
M  V30 9584 N 929.725 -0.817259 -1.34754 0
M  V30 9585 C 931.136 -0.462215 -1.80888 0
M  V30 9586 C 931.487 1.01685 -1.67794 0
M  V30 9587 O 930.612 1.79094 -1.21468 0
M  V30 9588 C 931.207 -0.832204 -3.2842 0
M  V30 9589 C 929.766 -0.52961 -3.72655 0
M  V30 9590 C 928.913 -1.05214 -2.56564 0
M  V30 9591 H 931.864 -1.00795 -1.22581 0
M  V30 9592 H 931.885 -0.133804 -3.80265 0
M  V30 9593 H 931.397 -1.90873 -3.37919 0
M  V30 9594 H 929.498 0.537743 -3.68699 0
M  V30 9595 H 929.611 -1.06971 -4.67005 0
M  V30 9596 H 927.975 -0.473949 -2.50251 0
M  V30 9597 H 928.758 -2.135 -2.68836 0
M  V30 9598 N 931.203 1.46865 -0.571711 0
M  V30 9599 C 932.433 2.06518 -0.0583129 0
M  V30 9600 C 932.841 1.4227 1.24723 0
M  V30 9601 O 932.184 0.518293 1.76237 0
M  V30 9602 C 932.246 3.5898 0.193214 0
M  V30 9603 C 931.91 4.45355 -1.02507 0
M  V30 9604 C 932.907 4.82575 -1.93435 0
M  V30 9605 C 930.592 4.86656 -1.24382 0
M  V30 9606 C 932.586 5.59912 -3.04595 0
M  V30 9607 C 930.273 5.63754 -2.35849 0
M  V30 9608 C 931.271 6.00294 -3.25785 0
M  V30 9609 O 930.959 6.75836 -4.35318 0
M  V30 9610 H 930.691 0.674188 -0.0494584 0
M  V30 9611 H 933.245 1.89644 -0.788934 0
M  V30 9612 H 931.475 3.7412 0.978319 0
M  V30 9613 H 933.164 4.006 0.653769 0
M  V30 9614 H 933.93 4.51256 -1.77745 0
M  V30 9615 H 929.809 4.57672 -0.55292 0
M  V30 9616 H 933.353 5.88351 -3.74818 0
M  V30 9617 H 929.25 5.94487 -2.51506 0
M  V30 9618 H 930.018 6.94247 -4.33547 0
M  V30 9619 N 932.681 0.308908 1.54543 0
M  V30 9620 C 933.591 -0.572939 2.27496 0
M  V30 9621 C 934.607 -1.14171 1.31305 0
M  V30 9622 O 935.783 -1.16481 1.64299 0
M  V30 9623 C 932.848 -1.72483 3.0075 0
M  V30 9624 C 931.909 -1.18934 4.12496 0
M  V30 9625 C 931.142 -2.28634 4.82247 0
M  V30 9626 O 931.365 -3.48691 4.5141 0
M  V30 9627 O 930.299 -1.94879 5.69478 0
M  V30 9628 H 934.125 0.0190877 3.03694 0
M  V30 9629 H 931.71 0.0750943 1.49211 0
M  V30 9630 H 933.592 -2.39578 3.46671 0
M  V30 9631 H 932.267 -2.30332 2.2744 0
M  V30 9632 H 931.174 -0.483904 3.70957 0
M  V30 9633 H 932.507 -0.656185 4.87806 0
M  V30 9634 N 934.159 -1.57557 0.0367827 0
M  V30 9635 C 935.069 -2.14148 -0.958017 0
M  V30 9636 C 936.085 -1.09564 -1.35173 0
M  V30 9637 O 937.261 -1.4166 -1.43158 0
M  V30 9638 C 934.326 -2.6636 -2.21931 0
M  V30 9639 C 933.387 -3.85688 -1.8853 0
M  V30 9640 C 932.62 -4.35401 -3.08645 0
M  V30 9641 O 932.843 -3.8425 -4.21554 0
M  V30 9642 O 931.777 -5.27158 -2.90497 0
M  V30 9643 H 935.603 -2.99442 -0.506797 0
M  V30 9644 H 933.188 -1.48259 -0.184275 0
M  V30 9645 H 935.07 -2.99976 -2.9596 0
M  V30 9646 H 933.745 -1.84145 -2.66219 0
M  V30 9647 H 932.652 -3.56985 -1.11861 0
M  V30 9648 H 933.985 -4.69089 -1.49052 0
M  V30 9649 N 935.637 0.236453 -1.55816 0
M  V30 9650 C 936.867 0.978873 -1.81939 0
M  V30 9651 C 937.275 1.79041 -0.611647 0
M  V30 9652 O 936.618 1.78616 0.429172 0
M  V30 9653 C 936.68 1.9569 -3.01572 0
M  V30 9654 C 936.344 1.33131 -4.37178 0
M  V30 9655 C 937.341 0.728585 -5.1477 0
M  V30 9656 C 935.026 1.34755 -4.83887 0
M  V30 9657 C 937.02 0.150427 -6.37222 0
M  V30 9658 C 934.707 0.765539 -6.06286 0
M  V30 9659 C 935.705 0.168017 -6.82793 0
M  V30 9660 O 935.393 -0.404976 -8.02879 0
M  V30 9661 H 935.125 0.293186 -0.609113 0
M  V30 9662 H 937.679 0.261384 -2.0373 0
M  V30 9663 H 935.909 2.71298 -2.75562 0
M  V30 9664 H 937.598 2.56362 -3.14695 0
M  V30 9665 H 938.364 0.708477 -4.79797 0
M  V30 9666 H 934.243 1.80202 -4.24321 0
M  V30 9667 H 937.787 -0.316586 -6.96881 0
M  V30 9668 H 933.684 0.78301 -6.40733 0
M  V30 9669 H 934.452 -0.29785 -8.17958 0
M  V30 9670 N 937.115 1.49373 0.502552 0
M  V30 9671 C 938.045 1.68839 1.61294 0
M  V30 9672 C 939.026 0.537096 1.61398 0
M  V30 9673 O 940.211 0.772764 1.78163 0
M  V30 9674 C 937.341 1.75347 2.99784 0
M  V30 9675 C 936.295 2.90251 3.14545 0
M  V30 9676 C 935.621 2.8187 4.54371 0
M  V30 9677 C 936.921 4.31207 2.94717 0
M  V30 9678 H 938.615 2.61803 1.45257 0
M  V30 9679 H 936.161 1.25987 0.697371 0
M  V30 9680 H 938.114 1.87552 3.77362 0
M  V30 9681 H 936.838 0.789814 3.16906 0
M  V30 9682 H 935.497 2.77646 2.39392 0
M  V30 9683 H 935.145 1.83416 4.68367 0
M  V30 9684 H 934.845 3.5899 4.65188 0
M  V30 9685 H 936.369 2.96081 5.34012 0
M  V30 9686 H 937.783 4.44501 3.62065 0
M  V30 9687 H 936.18 5.09536 3.17007 0
M  V30 9688 H 937.25 4.45759 1.90857 0
M  V30 9689 N 938.594 -0.753485 1.38421 0
M  V30 9690 C 939.542 -1.8886 1.35774 0
M  V30 9691 C 940.536 -1.67639 0.243608 0
M  V30 9692 O 941.742 -1.75206 0.412649 0
M  V30 9693 H 938.117 -0.62137 0.42356 0
M  V30 9694 H 940.088 -1.88209 2.3156 0
M  V30 9695 C 938.837 -3.26344 1.19979 0
M  V30 9696 H 938.16 -3.43259 2.04971 0
M  V30 9697 H 939.6 -4.06015 1.22181 0
M  V30 9698 C 938.059 -3.36771 -0.0932867 0
M  V30 9699 O 938.589 -3.8718 -1.07027 0
M  V30 9700 N 936.795 -2.90212 -0.150154 0
M  V30 9701 H 936.342 -2.4938 0.645562 0
M  V30 9702 H 936.3 -2.97569 -1.0149 0
M  V30 9703 N 940.072 -1.23292 -0.981677 0
M  V30 9704 C 941.318 -1.06582 -1.72535 0
M  V30 9705 C 941.651 0.396538 -1.90108 0
M  V30 9706 O 940.926 1.29363 -1.45243 0
M  V30 9707 C 941.209 -1.7904 -3.12437 0
M  V30 9708 C 941.062 -3.32941 -3.02441 0
M  V30 9709 C 942.381 -1.55185 -4.11832 0
M  V30 9710 H 939.5 -0.388585 -0.626236 0
M  V30 9711 H 942.142 -1.51779 -1.14293 0
M  V30 9712 H 940.292 -1.40619 -3.62158 0
M  V30 9713 H 941.964 -3.80875 -2.60254 0
M  V30 9714 H 940.207 -3.62039 -2.38977 0
M  V30 9715 H 940.878 -3.78827 -4.0149 0
M  V30 9716 H 943.354 -1.88581 -3.70913 0
M  V30 9717 H 942.23 -2.08362 -5.07815 0
M  V30 9718 H 942.491 -0.486925 -4.3941 0
M  V30 9719 N 941.55 1.18024 -1.04442 0
M  V30 9720 C 942.796 1.88377 -0.751133 0
M  V30 9721 C 943.129 1.80377 0.719571 0
M  V30 9722 O 942.404 1.20662 1.52548 0
M  V30 9723 C 942.687 3.38708 -1.22265 0
M  V30 9724 C 942.54 3.55499 -2.75574 0
M  V30 9725 C 943.859 4.32475 -0.815688 0
M  V30 9726 H 940.978 0.684037 -0.27434 0
M  V30 9727 H 943.62 1.38837 -1.29709 0
M  V30 9728 H 941.77 3.8103 -0.758192 0
M  V30 9729 H 943.442 3.22244 -3.30086 0
M  V30 9730 H 941.685 2.98028 -3.15217 0
M  V30 9731 H 942.356 4.60994 -3.03625 0
M  V30 9732 H 944.832 3.97953 -1.21542 0
M  V30 9733 H 943.708 5.36213 -1.17331 0
M  V30 9734 H 943.969 4.41207 0.280901 0
M  V30 9735 N 943.028 0.824394 1.34319 0
M  V30 9736 C 944.444 0.510336 1.51221 0
M  V30 9737 C 944.644 -0.965201 1.76879 0
M  V30 9738 O 943.7 -1.74961 1.82057 0
M  V30 9739 C 945.013 1.37114 2.6762 0
M  V30 9740 C 946.561 1.36842 2.81502 0
M  V30 9741 C 947.036 2.21374 4.00946 0
M  V30 9742 N 948.527 2.19005 4.08156 0
M  V30 9743 C 949.262 2.81159 4.99737 0
M  V30 9744 N 948.758 3.52309 5.96532 0
M  V30 9745 N 950.551 2.70706 4.9262 0
M  V30 9746 H 942.702 1.77976 1.15924 0
M  V30 9747 H 944.965 0.758503 0.568663 0
M  V30 9748 H 944.671 2.41905 2.55294 0
M  V30 9749 H 944.545 1.03689 3.62669 0
M  V30 9750 H 946.932 0.328284 2.93268 0
M  V30 9751 H 947.013 1.74265 1.87257 0
M  V30 9752 H 946.657 3.25437 3.8994 0
M  V30 9753 H 946.587 1.813 4.94407 0
M  V30 9754 H 949.078 1.67252 3.38874 0
M  V30 9755 H 949.391 3.96977 6.63045 0
M  V30 9756 H 947.736 3.56415 5.96652 0
M  V30 9757 H 950.927 2.14694 4.15962 0
M  V30 9758 H 951.1 3.19431 5.63798 0
M  V30 9759 N 944.506 -1.46559 0.579492 0
M  V30 9760 C 945.436 -2.33059 -0.143437 0
M  V30 9761 C 946.417 -1.4515 -0.886868 0
M  V30 9762 O 947.602 -1.73973 -0.862961 0
M  V30 9763 C 944.732 -3.27364 -1.15973 0
M  V30 9764 C 943.686 -4.24689 -0.531348 0
M  V30 9765 C 943.012 -5.08479 -1.65388 0
M  V30 9766 C 944.312 -5.1961 0.529391 0
M  V30 9767 H 946.006 -2.93753 0.578762 0
M  V30 9768 H 943.552 -1.41256 0.279775 0
M  V30 9769 H 945.505 -3.86732 -1.67382 0
M  V30 9770 H 944.229 -2.64771 -1.91217 0
M  V30 9771 H 942.888 -3.6658 -0.0383749 0
M  V30 9772 H 942.536 -4.42273 -2.3959 0
M  V30 9773 H 942.236 -5.74387 -1.23909 0
M  V30 9774 H 943.76 -5.70709 -2.17079 0
M  V30 9775 H 945.174 -5.73212 0.100506 0
M  V30 9776 H 943.571 -5.93843 0.86432 0
M  V30 9777 H 944.641 -4.63737 1.4169 0
M  V30 9778 N 945.984 -0.3171 -1.54377 0
M  V30 9779 C 947.23 0.287836 -2.00747 0
M  V30 9780 C 947.563 1.52292 -1.20502 0
M  V30 9781 O 946.838 1.92391 -0.285626 0
M  V30 9782 C 947.121 0.628423 -3.54574 0
M  V30 9783 C 946.974 -0.616922 -4.45549 0
M  V30 9784 C 948.293 1.44862 -4.15575 0
M  V30 9785 H 945.412 0.103144 -0.729747 0
M  V30 9786 H 948.054 -0.432396 -1.85014 0
M  V30 9787 H 946.204 1.24203 -3.68111 0
M  V30 9788 H 947.876 -1.25526 -4.43893 0
M  V30 9789 H 946.119 -1.24706 -4.15489 0
M  V30 9790 H 946.79 -0.334243 -5.50987 0
M  V30 9791 H 949.266 0.930015 -4.05574 0
M  V30 9792 H 948.142 1.6557 -5.23333 0
M  V30 9793 H 948.403 2.44279 -3.68484 0
M  V30 9794 N 947.462 1.57535 -0.0451378 0
M  V30 9795 C 948.873 1.80116 0.491426 0
M  V30 9796 C 949.224 0.956846 1.71286 0
M  V30 9797 O 948.349 0.17173 2.15718 0
M  V30 9798 C 948.944 3.26674 0.898315 0
M  V30 9799 C 947.503 3.50194 1.37989 0
M  V30 9800 C 946.65 2.75054 0.352202 0
M  V30 9801 H 949.601 1.56368 -0.271065 0
M  V30 9802 H 949.622 3.37263 1.76164 0
M  V30 9803 H 949.134 3.88099 0.009141 0
M  V30 9804 H 947.235 2.94041 2.28846 0
M  V30 9805 H 947.348 4.58909 1.37622 0
M  V30 9806 H 945.712 2.4101 0.823784 0
M  V30 9807 H 946.495 3.39203 -0.528782 0
M  V30 9808 N 948.94 -0.228186 1.55939 0
M  V30 9809 C 949.85 -1.30386 1.9503 0
M  V30 9810 C 950.866 -1.51645 0.853218 0
M  V30 9811 O 952.042 -1.64904 1.15623 0
M  V30 9812 C 949.107 -2.63489 2.25332 0
M  V30 9813 C 948.168 -2.5059 3.48573 0
M  V30 9814 C 947.401 -3.77345 3.7742 0
M  V30 9815 O 947.624 -4.80067 3.08045 0
M  V30 9816 O 946.558 -3.74855 4.70922 0
M  V30 9817 H 950.384 -1.0022 2.86687 0
M  V30 9818 H 947.969 -0.430503 1.43063 0
M  V30 9819 H 949.851 -3.4211 2.46046 0
M  V30 9820 H 948.526 -2.93349 1.3685 0
M  V30 9821 H 947.433 -1.70191 3.33145 0
M  V30 9822 H 948.766 -2.2567 4.37417 0
M  V30 9823 N 950.418 -1.49637 -0.494624 0
M  V30 9824 C 951.366 -1.6727 -1.61627 0
M  V30 9825 C 952.36 -0.538587 -1.6061 0
M  V30 9826 O 953.566 -0.718411 -1.65042 0
M  V30 9827 H 949.941 -0.527557 -0.535899 0
M  V30 9828 H 951.912 -2.61405 -1.43909 0
M  V30 9829 C 950.661 -1.7624 -2.99725 0
M  V30 9830 H 949.984 -2.62886 -3.01216 0
M  V30 9831 H 951.424 -1.92611 -3.77726 0
M  V30 9832 C 949.883 -0.508632 -3.33038 0
M  V30 9833 O 950.413 0.362828 -4.00058 0
M  V30 9834 N 948.619 -0.369667 -2.88239 0
M  V30 9835 H 948.166 -1.07984 -2.33875 0
M  V30 9836 H 948.124 0.468112 -3.10896 0
M  V30 9837 N 951.896 0.746133 -1.38819 0
M  V30 9838 C 953.143 1.50545 -1.35434 0
M  V30 9839 C 953.471 1.94427 0.0532669 0
M  V30 9840 O 952.726 1.66285 1.03188 0
M  V30 9841 C 953.025 2.76639 -2.26286 0
M  V30 9842 C 952.691 2.51682 -3.74122 0
M  V30 9843 C 951.353 2.44584 -4.14406 0
M  V30 9844 C 953.705 2.30071 -4.67672 0
M  V30 9845 C 951.033 2.13902 -5.46318 0
M  V30 9846 C 953.385 2.00907 -5.99849 0
M  V30 9847 C 952.049 1.92271 -6.39209 0
M  V30 9848 H 951.319 0.550883 -0.49559 0
M  V30 9849 H 953.966 0.857337 -1.71237 0
M  V30 9850 H 952.271 3.46138 -1.83564 0
M  V30 9851 H 953.968 3.34626 -2.20967 0
M  V30 9852 H 950.558 2.5808 -3.42188 0
M  V30 9853 H 954.742 2.34528 -4.3739 0
M  V30 9854 H 949.998 2.0573 -5.75748 0
M  V30 9855 H 954.172 1.83191 -6.71874 0
M  V30 9856 H 951.799 1.68261 -7.41345 0
M  V30 9857 N 953.375 1.23811 0.975125 0
M  V30 9858 C 954.307 0.981779 2.07108 0
M  V30 9859 C 955.32 -0.0461211 1.62735 0
M  V30 9860 O 956.509 0.190039 1.77486 0
M  V30 9861 C 953.609 0.458364 3.35786 0
M  V30 9862 C 952.782 1.54767 4.09104 0
M  V30 9863 C 951.841 1.0282 5.16057 0
M  V30 9864 O 950.867 1.71831 5.42644 0
M  V30 9865 N 952.069 -0.141243 5.80328 0
M  V30 9866 H 954.834 1.92537 2.29673 0
M  V30 9867 H 952.395 1.1474 1.14221 0
M  V30 9868 H 954.387 0.0957686 4.04587 0
M  V30 9869 H 952.957 -0.390768 3.10148 0
M  V30 9870 H 952.177 2.08279 3.34684 0
M  V30 9871 H 953.465 2.28006 4.54853 0
M  V30 9872 H 952.863 -0.718382 5.6112 0
M  V30 9873 H 951.42 -0.445052 6.50279 0
M  V30 9874 N 954.853 -1.17469 1.05066 0
M  V30 9875 C 956.13 -1.83625 0.673872 0
M  V30 9876 C 956.51 -1.93412 -0.845871 0
M  V30 9877 O 955.858 -1.4677 -1.75131 0
M  V30 9878 C 956.068 -3.21352 1.36139 0
M  V30 9879 C 957.416 -3.97274 1.49863 0
M  V30 9880 O 958.44 -3.30827 1.3203 0
M  V30 9881 O 957.299 -5.16349 1.79013 0
M  V30 9882 H 954.393 -0.792297 0.237055 0
M  V30 9883 H 956.939 -1.24776 1.15017 0
M  V30 9884 H 955.711 -3.0919 2.39827 0
M  V30 9885 H 955.334 -3.87867 0.874364 0
M  V30 9886 N 956.331 -0.831506 -1.3388 0
M  V30 9887 C 957.578 -0.423674 -1.98018 0
M  V30 9888 C 957.906 1.01533 -1.65895 0
M  V30 9889 O 957.161 1.72342 -0.927183 0
M  V30 9890 C 957.46 -0.582733 -3.52617 0
M  V30 9891 C 957.126 -1.98874 -4.04673 0
M  V30 9892 C 955.788 -2.37334 -4.186 0
M  V30 9893 C 958.14 -2.90745 -4.3257 0
M  V30 9894 C 955.468 -3.66984 -4.57755 0
M  V30 9895 C 957.82 -4.19868 -4.73174 0
M  V30 9896 C 956.484 -4.58294 -4.85307 0
M  V30 9897 H 955.754 -0.155033 -0.7246 0
M  V30 9898 H 958.401 -1.05711 -1.59679 0
M  V30 9899 H 956.706 0.134052 -3.91571 0
M  V30 9900 H 958.403 -0.247576 -4.00235 0
M  V30 9901 H 954.993 -1.68001 -3.94301 0
M  V30 9902 H 959.177 -2.62272 -4.2134 0
M  V30 9903 H 954.433 -3.9657 -4.65341 0
M  V30 9904 H 958.607 -4.91138 -4.93717 0
M  V30 9905 H 956.234 -5.58805 -5.15404 0
M  V30 9906 N 957.809 1.4625 -0.587256 0
M  V30 9907 C 958.759 2.27407 0.164393 0
M  V30 9908 C 959.743 1.36138 0.857628 0
M  V30 9909 O 960.935 1.60279 0.750973 0
M  V30 9910 C 958.064 3.22585 1.17447 0
M  V30 9911 C 957.15 4.21339 0.483121 0
M  V30 9912 N 957.541 5.03669 -0.46385 0
M  V30 9913 C 955.839 4.39931 0.73329 0
M  V30 9914 C 956.54 5.75182 -0.868334 0
M  V30 9915 N 955.516 5.43169 -0.216487 0
M  V30 9916 H 959.318 2.88453 -0.563237 0
M  V30 9917 H 956.832 1.57155 -0.409388 0
M  V30 9918 H 958.829 3.79439 1.72718 0
M  V30 9919 H 957.489 2.63098 1.90288 0
M  V30 9920 H 958.5 5.11049 -0.839602 0
M  V30 9921 H 955.177 3.91588 1.44792 0
M  V30 9922 H 956.567 6.51371 -1.64821 0
M  V30 9923 N 959.287 0.325282 1.54207 0
M  V30 9924 C 960.512 -0.281418 2.05482 0
M  V30 9925 C 960.937 -1.44869 1.19977 0
M  V30 9926 O 960.295 -1.80088 0.209275 0
M  V30 9927 C 960.343 -0.692029 3.53897 0
M  V30 9928 O 959.447 -1.7942 3.71325 0
M  V30 9929 H 958.788 -0.0504872 0.662078 0
M  V30 9930 H 961.318 0.474191 1.99029 0
M  V30 9931 H 961.328 -0.974219 3.96198 0
M  V30 9932 H 960.003 0.161709 4.15586 0
M  V30 9933 H 958.58 -1.51069 3.40929 0
M  V30 9934 N 960.765 -1.57509 0.0534917 0
M  V30 9935 C 961.712 -2.11667 -0.920101 0
M  V30 9936 C 962.682 -1.0246 -1.30733 0
M  V30 9937 O 963.867 -1.30021 -1.39639 0
M  V30 9938 C 961.007 -2.66803 -2.18883 0
M  V30 9939 C 960.12 -3.90104 -1.85588 0
M  V30 9940 C 959.255 -4.33547 -3.06937 0
M  V30 9941 C 958.294 -5.49542 -2.69573 0
M  V30 9942 N 957.431 -5.88029 -3.83623 0
M  V30 9943 H 962.271 -2.94562 -0.451371 0
M  V30 9944 H 959.808 -1.45576 -0.211168 0
M  V30 9945 H 961.766 -2.96871 -2.93127 0
M  V30 9946 H 960.396 -1.86702 -2.63329 0
M  V30 9947 H 959.448 -3.66613 -1.01484 0
M  V30 9948 H 960.76 -4.74404 -1.54087 0
M  V30 9949 H 959.914 -4.6518 -3.89477 0
M  V30 9950 H 958.653 -3.48064 -3.41618 0
M  V30 9951 H 957.658 -5.17579 -1.8545 0
M  V30 9952 H 958.883 -6.36743 -2.36082 0
M  V30 9953 H 956.829 -5.05498 -4.181 0
M  V30 9954 H 956.746 -6.67025 -3.55828 0
M  V30 9955 H 958.014 -6.24277 -4.66796 0
M  V30 9956 N 962.243 0.219913 -1.56058 0
M  V30 9957 C 963.659 0.569685 -1.49086 0
M  V30 9958 C 963.859 1.87066 -0.748903 0
M  V30 9959 O 962.915 2.50838 -0.289235 0
M  V30 9960 C 964.228 0.647397 -2.93648 0
M  V30 9961 C 965.776 0.737914 -3.04177 0
M  V30 9962 C 966.251 0.846957 -4.50101 0
M  V30 9963 N 967.742 0.911136 -4.5415 0
M  V30 9964 C 968.477 1.01525 -5.64341 0
M  V30 9965 N 967.973 1.0832 -6.8428 0
M  V30 9966 N 969.766 1.05051 -5.52196 0
M  V30 9967 H 961.917 -0.633778 -2.02724 0
M  V30 9968 H 964.18 -0.222583 -0.921499 0
M  V30 9969 H 963.886 -0.238987 -3.50887 0
M  V30 9970 H 963.76 1.51046 -3.45637 0
M  V30 9971 H 966.147 1.61474 -2.47002 0
M  V30 9972 H 966.228 -0.150845 -2.55355 0
M  V30 9973 H 965.872 -0.0254166 -5.07894 0
M  V30 9974 H 965.802 1.75116 -4.96631 0
M  V30 9975 H 968.293 0.868869 -3.67776 0
M  V30 9976 H 968.606 1.16247 -7.64007 0
M  V30 9977 H 966.951 1.05231 -6.86987 0
M  V30 9978 H 970.142 0.994086 -4.57423 0
M  V30 9979 H 970.315 1.12819 -6.38103 0
M  V30 9980 N 963.721 1.49897 0.486681 0
M  V30 9981 C 964.653 1.63755 1.60365 0
M  V30 9982 C 965.666 0.519614 1.54285 0
M  V30 9983 O 966.855 0.792219 1.59957 0
M  V30 9984 C 963.955 1.59153 2.99205 0
M  V30 9985 C 963.128 2.8672 3.30319 0
M  V30 9986 C 962.187 2.74974 4.48638 0
M  V30 9987 O 961.213 3.48922 4.49714 0
M  V30 9988 N 962.415 1.87479 5.49392 0
M  V30 9989 H 965.18 2.60094 1.48899 0
M  V30 9990 H 962.741 1.47166 0.674825 0
M  V30 9991 H 964.733 1.4893 3.76301 0
M  V30 9992 H 963.303 0.706133 3.0452 0
M  V30 9993 H 962.523 3.11188 2.41983 0
M  V30 9994 H 963.811 3.71262 3.47911 0
M  V30 9995 H 963.209 1.26684 5.51333 0
M  V30 9996 H 961.766 1.83169 6.25534 0
M  V30 9997 N 965.199 -0.738761 1.39212 0
M  V30 9998 C 966.448 -1.49368 1.35543 0
M  V30 9999 C 966.761 -1.95543 -0.0471091 0
M  V30 10000 O 967.967 -2.70714 -0.206376 0
M  V30 10001 C 966.423 -2.69882 2.381 0
M  V30 10002 C 966.031 -2.30672 3.8405 0
M  V30 10003 C 967.775 -3.47718 2.435 0
M  V30 10004 C 965.682 -3.47886 4.78256 0
M  V30 10005 H 964.612 -0.560898 0.503894 0
M  V30 10006 H 967.263 -0.806221 1.6484 0
M  V30 10007 H 965.645 -3.40684 2.01867 0
M  V30 10008 H 966.819 -1.67441 4.29302 0
M  V30 10009 H 965.134 -1.65936 3.81909 0
M  V30 10010 H 967.731 -4.34897 3.11077 0
M  V30 10011 H 968.074 -3.89919 1.45838 0
M  V30 10012 H 968.607 -2.83942 2.78606 0
M  V30 10013 H 965.346 -3.10739 5.77167 0
M  V30 10014 H 964.866 -4.10111 4.37686 0
M  V30 10015 H 966.545 -4.14271 4.96979 0
M  V30 10016 N 966.677 -1.24326 -0.968545 0
M  V30 10017 C 967.954 -0.990459 -1.68669 0
M  V30 10018 C 968.334 0.487487 -2.05394 0
M  V30 10019 O 967.682 1.46158 -1.75642 0
M  V30 10020 C 967.892 -1.91251 -2.91931 0
M  V30 10021 C 969.24 -2.18291 -3.6419 0
M  V30 10022 O 970.264 -1.88897 -3.01987 0
M  V30 10023 O 969.123 -2.68204 -4.76161 0
M  V30 10024 H 966.217 -0.374515 -0.737338 0
M  V30 10025 H 968.763 -1.35421 -1.02271 0
M  V30 10026 H 967.535 -2.9111 -2.61478 0
M  V30 10027 H 967.158 -1.55188 -3.66064 0
M  V30 10028 N 968.156 1.1691 -1.05688 0
M  V30 10029 C 969.572 1.39288 -0.779167 0
M  V30 10030 C 969.772 1.91587 0.624231 0
M  V30 10031 O 968.828 2.11072 1.38582 0
M  V30 10032 C 970.141 2.37914 -1.83895 0
M  V30 10033 C 971.689 2.51611 -1.86175 0
M  V30 10034 C 972.164 3.53514 -2.9119 0
M  V30 10035 N 973.655 3.61036 -2.90184 0
M  V30 10036 C 974.39 4.39657 -3.68088 0
M  V30 10037 N 973.886 5.21752 -4.55793 0
M  V30 10038 N 975.679 4.3458 -3.56507 0
M  V30 10039 H 967.83 0.81296 -1.96226 0
M  V30 10040 H 970.093 0.419818 -0.849975 0
M  V30 10041 H 969.799 2.06568 -2.84645 0
M  V30 10042 H 969.673 3.37483 -1.68479 0
M  V30 10043 H 972.06 2.82264 -0.86087 0
M  V30 10044 H 972.141 1.52099 -2.05668 0
M  V30 10045 H 971.785 3.23599 -3.91467 0
M  V30 10046 H 971.715 4.52742 -2.68947 0
M  V30 10047 H 974.206 3.02428 -2.26596 0
M  V30 10048 H 974.519 5.78939 -5.11907 0
M  V30 10049 H 972.864 5.21116 -4.59851 0
M  V30 10050 H 976.055 3.69501 -2.87379 0
M  V30 10051 H 976.228 4.95607 -4.17466 0
M  V30 10052 N 969.634 0.838594 1.33437 0
M  V30 10053 C 970.911 0.356112 1.92331 0
M  V30 10054 C 971.291 -1.1585 1.76471 0
M  V30 10055 O 970.639 -1.97281 1.15293 0
M  V30 10056 C 970.849 0.802715 3.39643 0
M  V30 10057 C 972.197 0.810575 4.16791 0
M  V30 10058 O 973.221 0.746304 3.48294 0
M  V30 10059 O 972.08 0.898082 5.3907 0
M  V30 10060 H 969.174 0.100711 0.820845 0
M  V30 10061 H 971.72 0.924428 1.42311 0
M  V30 10062 H 970.492 1.84529 3.45057 0
M  V30 10063 H 970.115 0.210956 3.9704 0
M  V30 10064 N 971.112 -1.45937 0.595003 0
M  V30 10065 C 972.044 -2.28575 -0.169137 0
M  V30 10066 C 973.057 -1.39226 -0.843792 0
M  V30 10067 O 974.246 -1.63716 -0.711291 0
M  V30 10068 C 971.346 -3.14616 -1.25976 0
M  V30 10069 C 970.519 -4.32166 -0.67466 0
M  V30 10070 C 969.578 -4.99511 -1.65456 0
M  V30 10071 O 968.604 -5.56712 -1.18578 0
M  V30 10072 N 969.806 -4.97643 -2.98885 0
M  V30 10073 H 972.571 -2.94797 0.539908 0
M  V30 10074 H 970.132 -1.55985 0.433614 0
M  V30 10075 H 972.124 -3.56534 -1.91483 0
M  V30 10076 H 970.694 -2.50387 -1.8715 0
M  V30 10077 H 969.914 -3.93882 0.158184 0
M  V30 10078 H 971.202 -5.08116 -0.263753 0
M  V30 10079 H 970.6 -4.52438 -3.39583 0
M  V30 10080 H 969.157 -5.43463 -3.59848 0
M  V30 10081 N 972.59 -0.333456 -1.54032 0
M  V30 10082 C 973.52 0.52051 -2.27625 0
M  V30 10083 C 974.501 1.1111 -1.28797 0
M  V30 10084 O 975.686 1.13438 -1.57625 0
M  V30 10085 C 972.816 1.67663 -3.04149 0
M  V30 10086 C 971.77 1.21487 -4.10396 0
M  V30 10087 C 971.096 2.45872 -4.74817 0
M  V30 10088 C 972.396 0.322603 -5.21303 0
M  V30 10089 H 974.09 -0.0933823 -2.99254 0
M  V30 10090 H 971.636 -0.0463526 -1.43925 0
M  V30 10091 H 973.589 2.28041 -3.54366 0
M  V30 10092 H 972.313 2.31727 -2.30153 0
M  V30 10093 H 970.972 0.633966 -3.61077 0
M  V30 10094 H 970.62 3.0832 -3.97426 0
M  V30 10095 H 970.32 2.15662 -5.46593 0
M  V30 10096 H 971.844 3.06994 -5.27814 0
M  V30 10097 H 973.258 0.832942 -5.67217 0
M  V30 10098 H 971.655 0.112843 -5.99994 0
M  V30 10099 H 972.725 -0.643954 -4.80605 0
M  V30 10100 N 974.068 1.57479 -0.061844 0
M  V30 10101 C 975.001 2.07734 0.94455 0
M  V30 10102 C 975.979 0.980207 1.29733 0
M  V30 10103 O 977.163 1.2529 1.40836 0
M  V30 10104 C 974.29 2.52673 2.25553 0
M  V30 10105 C 973.336 3.73725 2.05503 0
M  V30 10106 S 974.169 5.18886 1.32354 0
M  V30 10107 C 975.325 5.67148 2.64753 0
M  V30 10108 H 975.558 2.92772 0.516888 0
M  V30 10109 H 973.091 1.53663 0.150684 0
M  V30 10110 H 975.049 2.79226 3.00904 0
M  V30 10111 H 973.71 1.67921 2.65445 0
M  V30 10112 H 972.903 4.03125 3.025 0
M  V30 10113 H 972.505 3.47494 1.3829 0
M  V30 10114 H 974.797 5.73385 3.60882 0
M  V30 10115 H 975.74 6.66196 2.39976 0
M  V30 10116 H 976.148 4.94921 2.71502 0
M  V30 10117 N 975.546 -0.211634 1.56173 0
M  V30 10118 C 976.774 -0.951184 1.83739 0
M  V30 10119 C 977.189 -1.7754 0.642252 0
M  V30 10120 O 976.546 -1.78302 -0.389174 0
M  V30 10121 C 976.597 -1.86075 3.09933 0
M  V30 10122 O 976.318 -1.06983 4.24837 0
M  V30 10123 C 977.819 -2.71337 3.50559 0
M  V30 10124 H 975.039 -0.278312 0.61056 0
M  V30 10125 H 977.583 -0.223871 2.03271 0
M  V30 10126 H 975.738 -2.54189 2.92347 0
M  V30 10127 H 976.152 -1.68815 4.9659 0
M  V30 10128 H 977.626 -3.30843 4.41868 0
M  V30 10129 H 978.103 -3.44226 2.72773 0
M  V30 10130 H 978.709 -2.0862 3.70618 0
M  V30 10131 N 977.024 -1.50153 -0.478725 0
M  V30 10132 C 978.27 -1.60998 -1.23318 0
M  V30 10133 C 978.603 -0.305868 -1.91776 0
M  V30 10134 O 977.878 0.692158 -1.81767 0
M  V30 10135 C 978.161 -2.78495 -2.28282 0
M  V30 10136 C 978.014 -4.18767 -1.64178 0
M  V30 10137 C 979.333 -2.91569 -3.2966 0
M  V30 10138 H 976.452 -0.585983 -0.446982 0
M  V30 10139 H 979.094 -1.82514 -0.528063 0
M  V30 10140 H 977.244 -2.60281 -2.8842 0
M  V30 10141 H 978.916 -4.48552 -1.07696 0
M  V30 10142 H 977.159 -4.23379 -0.94514 0
M  V30 10143 H 977.83 -4.96894 -2.40417 0
M  V30 10144 H 980.306 -3.08219 -2.79536 0
M  V30 10145 H 979.182 -3.75419 -4.0044 0
M  V30 10146 H 979.443 -2.01859 -3.93326 0
M  V30 10147 N 978.502 0.731368 -1.39602 0
M  V30 10148 C 979.432 1.85855 -1.41351 0
M  V30 10149 C 980.413 1.67839 -0.2764 0
M  V30 10150 O 981.598 1.88104 -0.482747 0
M  V30 10151 C 978.728 3.23644 -1.25983 0
M  V30 10152 C 977.682 3.56304 -2.37132 0
M  V30 10153 C 977.008 4.93069 -2.0685 0
M  V30 10154 C 978.308 3.58906 -3.79452 0
M  V30 10155 H 980.002 1.84648 -2.3568 0
M  V30 10156 H 977.548 0.886955 -1.13442 0
M  V30 10157 H 979.501 4.02176 -1.25826 0
M  V30 10158 H 978.225 3.25387 -0.281234 0
M  V30 10159 H 976.884 2.80104 -2.36511 0
M  V30 10160 H 976.532 4.91396 -1.0742 0
M  V30 10161 H 976.232 5.15888 -2.81306 0
M  V30 10162 H 977.756 5.73953 -2.0835 0
M  V30 10163 H 979.17 4.27508 -3.81982 0
M  V30 10164 H 977.567 3.93246 -4.53297 0
M  V30 10165 H 978.637 2.58631 -4.10168 0
M  V30 10166 N 979.98 1.24838 0.961938 0
M  V30 10167 C 980.943 1.04674 2.03902 0
M  V30 10168 C 981.943 0.00204674 1.608 0
M  V30 10169 O 983.133 0.243555 1.72489 0
M  V30 10170 C 980.265 0.587736 3.35795 0
M  V30 10171 H 981.458 2.00278 2.23223 0
M  V30 10172 H 979.011 1.07142 1.138 0
M  V30 10173 H 979.746 -0.371244 3.22168 0
M  V30 10174 H 979.531 1.34182 3.68426 0
M  V30 10175 H 981.021 0.467867 4.14971 0
M  V30 10176 N 981.458 -1.16348 1.06306 0
M  V30 10177 C 982.406 -2.22799 0.668087 0
M  V30 10178 C 983.4 -1.66426 -0.316051 0
M  V30 10179 O 984.606 -1.79089 -0.180902 0
M  V30 10180 H 980.981 -0.725487 0.19792 0
M  V30 10181 H 982.952 -2.53401 1.57577 0
M  V30 10182 C 981.701 -3.47628 0.0706797 0
M  V30 10183 H 981.024 -3.9132 0.819064 0
M  V30 10184 H 982.464 -4.23666 -0.16816 0
M  V30 10185 C 980.923 -3.15343 -1.18577 0
M  V30 10186 O 981.453 -3.31158 -2.27371 0
M  V30 10187 N 979.659 -2.69472 -1.08779 0
M  V30 10188 H 979.206 -2.56803 -0.202447 0
M  V30 10189 H 979.164 -2.48244 -1.92931 0
M  V30 10190 N 982.937 -0.845659 -1.3299 0
M  V30 10191 C 984.183 -0.445311 -1.9785 0
M  V30 10192 C 984.516 0.994476 -1.66805 0
M  V30 10193 O 983.791 1.69636 -0.95151 0
M  V30 10194 C 984.074 -0.674371 -3.53729 0
M  V30 10195 C 983.927 -2.16192 -3.94437 0
M  V30 10196 C 985.246 -0.124908 -4.39923 0
M  V30 10197 H 982.365 -0.163269 -0.718688 0
M  V30 10198 H 985.007 -1.06242 -1.5752 0
M  V30 10199 H 983.157 -0.149091 -3.88214 0
M  V30 10200 H 984.829 -2.75259 -3.70176 0
M  V30 10201 H 983.072 -2.64386 -3.43922 0
M  V30 10202 H 983.743 -2.27292 -5.03033 0
M  V30 10203 H 986.219 -0.573986 -4.12122 0
M  V30 10204 H 985.095 -0.314816 -5.47996 0
M  V30 10205 H 985.356 0.971758 -4.31288 0
M  V30 10206 N 984.415 1.45619 -0.602734 0
M  V30 10207 C 985.643 2.06647 -0.102253 0
M  V30 10208 C 986.058 1.4482 1.21131 0
M  V30 10209 O 985.415 0.560621 1.73676 0
M  V30 10210 C 985.466 3.61467 0.0490113 0
M  V30 10211 O 985.187 4.20985 -1.21257 0
M  V30 10212 C 986.688 4.39469 0.581517 0
M  V30 10213 H 983.908 0.667685 -0.0666155 0
M  V30 10214 H 986.452 1.86939 -0.829091 0
M  V30 10215 H 984.607 3.80534 0.726153 0
M  V30 10216 H 985.021 5.14103 -1.03915 0
M  V30 10217 H 986.495 5.48318 0.636462 0
M  V30 10218 H 986.972 4.0891 1.60277 0
M  V30 10219 H 987.578 4.25256 -0.061419 0
M  V30 10220 N 985.893 0.34162 1.53853 0
M  V30 10221 C 986.843 -0.531995 2.21707 0
M  V30 10222 C 987.827 -1.06759 1.2038 0
M  V30 10223 O 989.019 -1.00161 1.45934 0
M  V30 10224 C 986.148 -1.6834 2.99193 0
M  V30 10225 C 985.234 -1.16184 4.07875 0
M  V30 10226 N 985.625 -0.361348 5.04508 0
M  V30 10227 C 983.923 -1.43891 4.22151 0
M  V30 10228 C 984.624 -0.0785378 5.81647 0
M  V30 10229 N 983.6 -0.669651 5.3946 0
M  V30 10230 H 987.402 0.0866825 2.93772 0
M  V30 10231 H 984.916 0.148386 1.61721 0
M  V30 10232 H 986.913 -2.32121 3.46303 0
M  V30 10233 H 985.573 -2.30538 2.28653 0
M  V30 10234 H 986.584 -0.00259906 5.179 0
M  V30 10235 H 983.261 -2.06542 3.62832 0
M  V30 10236 H 984.651 0.567068 6.69503 0
M  V30 10237 N 987.371 -1.57444 0.0701946 0
M  V30 10238 C 988.301 -2.15659 -0.895176 0
M  V30 10239 C 989.282 -1.08321 -1.31151 0
M  V30 10240 O 990.467 -1.36349 -1.38284 0
M  V30 10241 C 987.597 -2.71693 -2.16334 0
M  V30 10242 C 986.551 -3.84183 -1.88645 0
M  V30 10243 C 985.877 -4.26814 -3.22078 0
M  V30 10244 C 987.177 -5.08493 -1.19299 0
M  V30 10245 H 988.871 -2.96576 -0.410217 0
M  V30 10246 H 986.417 -1.42662 -0.195872 0
M  V30 10247 H 988.37 -3.11064 -2.84284 0
M  V30 10248 H 987.094 -1.87994 -2.67069 0
M  V30 10249 H 985.753 -3.45314 -1.23101 0
M  V30 10250 H 985.401 -3.40039 -3.70651 0
M  V30 10251 H 985.101 -5.02642 -3.04344 0
M  V30 10252 H 986.625 -4.68799 -3.91228 0
M  V30 10253 H 988.039 -5.4519 -1.77316 0
M  V30 10254 H 986.436 -5.89588 -1.11828 0
M  V30 10255 H 987.506 -4.84595 -0.171839 0
M  V30 10256 N 988.849 0.203349 -1.56283 0
M  V30 10257 C 989.779 1.2549 -1.96912 0
M  V30 10258 C 990.76 1.47919 -0.839884 0
M  V30 10259 O 991.945 1.59795 -1.10359 0
M  V30 10260 C 989.075 2.6009 -2.30153 0
M  V30 10261 C 988.029 2.52289 -3.45738 0
M  V30 10262 C 987.355 3.91086 -3.64632 0
M  V30 10263 C 988.655 2.05503 -4.80173 0
M  V30 10264 H 990.349 0.917306 -2.85002 0
M  V30 10265 H 987.895 0.439818 -1.37119 0
M  V30 10266 H 989.848 3.33829 -2.5717 0
M  V30 10267 H 988.572 2.95574 -1.38937 0
M  V30 10268 H 987.231 1.81006 -3.18798 0
M  V30 10269 H 986.879 4.23908 -2.7076 0
M  V30 10270 H 986.579 3.86742 -4.42385 0
M  V30 10271 H 988.103 4.66459 -3.94016 0
M  V30 10272 H 989.517 2.68995 -5.06275 0
M  V30 10273 H 987.914 2.1218 -5.61337 0
M  V30 10274 H 988.984 1.00793 -4.74309 0
M  V30 10275 N 990.327 1.50405 0.470755 0
M  V30 10276 C 991.576 1.60652 1.21959 0
M  V30 10277 C 991.889 0.312521 1.93087 0
M  V30 10278 O 993.095 0.293901 2.69905 0
M  V30 10279 C 991.551 2.83581 2.21607 0
M  V30 10280 C 991.159 4.19858 1.5628 0
M  V30 10281 C 992.903 3.03173 2.9713 0
M  V30 10282 C 990.81 5.33974 2.54217 0
M  V30 10283 H 989.74 0.598264 0.458907 0
M  V30 10284 H 992.391 1.76836 0.490041 0
M  V30 10285 H 990.773 2.60957 2.97855 0
M  V30 10286 H 991.947 4.52738 0.85819 0
M  V30 10287 H 990.262 4.05873 0.930366 0
M  V30 10288 H 992.859 3.856 3.70428 0
M  V30 10289 H 993.202 2.14914 3.56536 0
M  V30 10290 H 993.735 3.2598 2.27995 0
M  V30 10291 H 990.474 6.24388 1.99549 0
M  V30 10292 H 989.994 5.05511 3.22829 0
M  V30 10293 H 991.673 5.64561 3.16039 0
M  V30 10294 N 991.805 -0.723954 1.39988 0
M  V30 10295 C 993.221 -1.03095 1.21834 0
M  V30 10296 C 993.421 -2.01309 0.0876647 0
M  V30 10297 O 992.477 -2.46277 -0.55714 0
M  V30 10298 C 993.79 -1.58267 2.5568 0
M  V30 10299 C 995.338 -1.70293 2.6262 0
M  V30 10300 C 995.813 -2.28872 3.96713 0
M  V30 10301 N 997.304 -2.36269 3.98411 0
M  V30 10302 C 998.039 -2.82557 4.98948 0
M  V30 10303 N 997.535 -3.28661 6.0988 0
M  V30 10304 N 999.328 -2.81866 4.86321 0
M  V30 10305 H 991.479 -0.0727891 2.12275 0
M  V30 10306 H 993.742 -0.0949029 0.943238 0
M  V30 10307 H 993.448 -0.935642 3.39026 0
M  V30 10308 H 993.322 -2.56914 2.76179 0
M  V30 10309 H 995.709 -2.34115 1.7965 0
M  V30 10310 H 995.79 -0.70268 2.45959 0
M  V30 10311 H 995.434 -1.65675 4.80119 0
M  V30 10312 H 995.364 -3.29595 4.107 0
M  V30 10313 H 997.855 -2.03697 3.18302 0
M  V30 10314 H 998.168 -3.62524 6.82493 0
M  V30 10315 H 996.513 -3.26641 6.13458 0
M  V30 10316 H 999.704 -2.45179 3.98754 0
M  V30 10317 H 999.877 -3.17626 5.64817 0
M  V30 10318 N 993.283 -1.25346 -0.955304 0
M  V30 10319 C 994.246 -1.05754 -2.03344 0
M  V30 10320 C 995.246 -0.0105743 -1.60797 0
M  V30 10321 O 996.436 -0.252699 -1.72357 0
M  V30 10322 C 993.568 -0.605536 -3.35479 0
M  V30 10323 H 994.761 -2.01459 -2.22158 0
M  V30 10324 H 992.314 -1.07744 -1.1323 0
M  V30 10325 H 993.049 0.354154 -3.2236 0
M  V30 10326 H 992.834 -1.36134 -3.67709 0
M  V30 10327 H 994.324 -0.489867 -4.14717 0
M  V30 10328 N 994.761 1.15782 -1.06922 0
M  V30 10329 C 995.709 2.22441 -0.679893 0
M  V30 10330 C 996.703 1.66591 0.307221 0
M  V30 10331 O 997.909 1.79182 0.171402 0
M  V30 10332 H 994.284 0.724427 -0.201765 0
M  V30 10333 H 996.255 2.52562 -1.58918 0
M  V30 10334 C 995.004 3.47586 -0.0891142 0
M  V30 10335 H 994.327 3.9088 -0.839805 0
M  V30 10336 H 995.767 4.2375 0.14569 0
M  V30 10337 C 994.226 3.15967 1.16903 0
M  V30 10338 O 994.756 3.32359 2.25611 0
M  V30 10339 N 992.962 2.70046 1.07349 0
M  V30 10340 H 992.509 2.56907 0.188825 0
M  V30 10341 H 992.467 2.49264 1.91611 0
M  V30 10342 N 996.239 0.8527 1.3254 0
M  V30 10343 C 997.469 0.468363 2.01221 0
M  V30 10344 C 997.877 -0.938966 1.64256 0
M  V30 10345 O 997.22 -1.62387 0.858837 0
M  V30 10346 C 997.282 0.525457 3.55639 0
M  V30 10347 C 996.946 1.89133 4.16026 0
M  V30 10348 C 997.943 2.85652 4.34395 0
M  V30 10349 C 995.628 2.18795 4.52144 0
M  V30 10350 C 997.622 4.09985 4.88048 0
M  V30 10351 C 995.309 3.43381 5.05502 0
M  V30 10352 C 996.307 4.38792 5.23403 0
M  V30 10353 O 995.995 5.61173 5.75622 0
M  V30 10354 H 995.727 0.182712 0.65084 0
M  V30 10355 H 998.281 1.15076 1.70138 0
M  V30 10356 H 996.511 -0.213779 3.86109 0
M  V30 10357 H 998.2 0.156999 4.05596 0
M  V30 10358 H 998.966 2.6404 4.06827 0
M  V30 10359 H 994.845 1.45317 4.37498 0
M  V30 10360 H 998.389 4.84465 5.01936 0
M  V30 10361 H 994.286 3.64844 5.32503 0
M  V30 10362 H 995.054 5.63104 5.94017 0
M  V30 10363 N 997.718 -1.45297 0.610449 0
M  V30 10364 C 998.666 -2.32295 -0.119167 0
M  V30 10365 C 999.66 -1.46138 -0.856746 0
M  V30 10366 O 1000.87 -1.62605 -0.771988 0
M  V30 10367 H 997.241 -0.749815 -0.0572881 0
M  V30 10368 H 999.212 -2.91609 0.63297 0
M  V30 10369 C 997.961 -3.29802 -1.10119 0
M  V30 10370 H 997.284 -3.96095 -0.543063 0
M  V30 10371 H 998.724 -3.93398 -1.58158 0
M  V30 10372 C 997.183 -2.57185 -2.17617 0
M  V30 10373 O 997.713 -2.35535 -3.25401 0
M  V30 10374 N 995.919 -2.17272 -1.9298 0
M  V30 10375 H 995.466 -2.3508 -1.05334 0
M  V30 10376 H 995.424 -1.69009 -2.6511 0
M  V30 10377 N 999.196 -0.349774 -1.5367 0
M  V30 10378 C 1000.42 0.248692 -2.05904 0
M  V30 10379 C 1000.85 1.42942 -1.22267 0
M  V30 10380 O 1000.2 1.79732 -0.237899 0
M  V30 10381 C 1000.25 0.635639 -3.54953 0
M  V30 10382 O 999.356 1.7349 -3.74132 0
M  V30 10383 H 998.697 0.0399477 -0.662797 0
M  V30 10384 H 1001.23 -0.505795 -1.9825 0
M  V30 10385 H 1001.24 0.911064 -3.97698 0
M  V30 10386 H 999.912 -0.227805 -4.15276 0
M  V30 10387 H 998.489 1.45626 -3.43289 0
M  V30 10388 N 1000.67 1.57404 -0.0785433 0
M  V30 10389 C 1001.64 2.11977 0.871693 0
M  V30 10390 C 1002.64 1.04529 1.2219 0
M  V30 10391 O 1003.83 1.30488 1.15406 0
M  V30 10392 C 1000.96 2.6267 2.17296 0
M  V30 10393 H 1002.15 2.97246 0.398115 0
M  V30 10394 H 999.705 1.5537 0.170251 0
M  V30 10395 H 1000.44 1.80873 2.69175 0
M  V30 10396 H 1000.22 3.41214 1.93171 0
M  V30 10397 H 1001.71 3.04943 2.85306 0
M  V30 10398 N 1002.15 -0.195058 1.56388 0
M  V30 10399 C 1003.1 -1.24175 1.94549 0
M  V30 10400 C 1004.07 -1.45229 0.806089 0
M  V30 10401 O 1005.25 -1.58362 1.06425 0
M  V30 10402 C 1002.39 -2.58145 2.29031 0
M  V30 10403 C 1001.51 -2.44669 3.56035 0
M  V30 10404 C 1000.64 -3.71342 3.7984 0
M  V30 10405 C 999.681 -3.52699 5.0027 0
M  V30 10406 N 998.818 -4.71385 5.20328 0
M  V30 10407 H 1003.66 -0.909319 2.83788 0
M  V30 10408 H 1001.19 -0.437641 1.40439 0
M  V30 10409 H 1003.15 -3.36195 2.4704 0
M  V30 10410 H 1001.78 -2.8943 1.42933 0
M  V30 10411 H 1000.83 -1.57916 3.46073 0
M  V30 10412 H 1002.15 -2.26827 4.44242 0
M  V30 10413 H 1001.3 -4.57832 3.98088 0
M  V30 10414 H 1000.04 -3.92138 2.89964 0
M  V30 10415 H 999.045 -2.64594 4.81944 0
M  V30 10416 H 1000.27 -3.33349 5.91655 0
M  V30 10417 H 998.216 -4.92444 4.33399 0
M  V30 10418 H 998.133 -4.56368 6.02714 0
M  V30 10419 H 999.401 -5.59226 5.43035 0
M  V30 10420 N 1003.63 -1.50653 -0.462772 0
M  V30 10421 C 1004.56 -1.64773 -1.57877 0
M  V30 10422 C 1005.54 -0.495664 -1.54861 0
M  V30 10423 O 1006.72 -0.716248 -1.74362 0
M  V30 10424 C 1003.85 -1.63796 -2.9646 0
M  V30 10425 C 1002.9 -2.84663 -3.17599 0
M  V30 10426 S 1003.73 -4.45852 -2.96608 0
M  V30 10427 C 1004.89 -4.47581 -4.37518 0
M  V30 10428 H 1005.12 -2.59172 -1.45661 0
M  V30 10429 H 1002.65 -1.40019 -0.650699 0
M  V30 10430 H 1004.61 -1.63918 -3.76353 0
M  V30 10431 H 1003.27 -0.706185 -3.06059 0
M  V30 10432 H 1002.46 -2.80308 -4.1886 0
M  V30 10433 H 1002.07 -2.82152 -2.45492 0
M  V30 10434 H 1004.36 -4.21656 -5.30295 0
M  V30 10435 H 1005.3 -5.49248 -4.46914 0
M  V30 10436 H 1005.71 -3.7719 -4.19985 0
M  V30 10437 N 1005.11 0.71652 -1.4037 0
M  V30 10438 C 1006.07 1.81231 -1.40313 0
M  V30 10439 C 1007.07 1.58032 -0.297087 0
M  V30 10440 O 1008.26 1.65091 -0.555944 0
M  V30 10441 C 1005.39 3.19308 -1.19395 0
M  V30 10442 H 1006.59 1.8268 -2.3784 0
M  V30 10443 H 1004.14 0.922062 -1.26205 0
M  V30 10444 H 1004.87 3.2351 -0.226252 0
M  V30 10445 H 1004.66 3.37546 -1.99512 0
M  V30 10446 H 1006.15 3.99339 -1.22141 0
M  V30 10447 N 1006.59 1.25851 0.948643 0
M  V30 10448 C 1007.52 1.09248 2.06367 0
M  V30 10449 C 1008.5 -0.000205168 1.701 0
M  V30 10450 O 1009.68 0.170442 1.93451 0
M  V30 10451 C 1006.81 0.716777 3.39823 0
M  V30 10452 C 1005.77 1.76036 3.90122 0
M  V30 10453 C 1005.09 1.23918 5.20143 0
M  V30 10454 C 1006.39 3.16039 4.15833 0
M  V30 10455 H 1008.09 2.02518 2.20515 0
M  V30 10456 H 1005.63 0.975093 1.05962 0
M  V30 10457 H 1007.59 0.587531 4.17284 0
M  V30 10458 H 1006.31 -0.251626 3.25629 0
M  V30 10459 H 1004.97 1.87815 3.14835 0
M  V30 10460 H 1004.62 0.260836 5.02323 0
M  V30 10461 H 1004.32 1.93673 5.54765 0
M  V30 10462 H 1005.84 1.12245 6.00194 0
M  V30 10463 H 1007.25 3.0738 4.83933 0
M  V30 10464 H 1005.65 3.83317 4.61723 0
M  V30 10465 H 1006.72 3.62652 3.21887 0
M  V30 10466 N 1008.06 -1.15214 1.07534 0
M  V30 10467 C 1009.29 -1.89647 0.819614 0
M  V30 10468 C 1009.7 -1.78365 -0.631072 0
M  V30 10469 O 1009.05 -1.1346 -1.44474 0
M  V30 10470 C 1009.11 -3.40573 1.1511 0
M  V30 10471 C 1008.77 -3.7564 2.60276 0
M  V30 10472 C 1009.77 -3.76507 3.58523 0
M  V30 10473 C 1007.45 -4.05891 2.95901 0
M  V30 10474 C 1009.45 -4.07133 4.9043 0
M  V30 10475 C 1007.13 -4.36182 4.28005 0
M  V30 10476 C 1008.13 -4.36785 5.25079 0
M  V30 10477 O 1007.82 -4.66348 6.54809 0
M  V30 10478 H 1007.55 -0.607836 0.295822 0
M  V30 10479 H 1010.11 -1.46895 1.43565 0
M  V30 10480 H 1008.34 -3.83734 0.478033 0
M  V30 10481 H 1010.03 -3.96299 0.877615 0
M  V30 10482 H 1010.79 -3.53233 3.32342 0
M  V30 10483 H 1006.67 -4.0458 2.20989 0
M  V30 10484 H 1010.21 -4.07519 5.66193 0
M  V30 10485 H 1006.11 -4.58924 4.53937 0
M  V30 10486 H 1006.88 -4.84105 6.59988 0
M  V30 10487 N 1009.54 -0.859717 -1.32086 0
M  V30 10488 C 1010.96 -0.55025 -1.49815 0
M  V30 10489 C 1011.16 0.917966 -1.79376 0
M  V30 10490 O 1010.21 1.70073 -1.86632 0
M  V30 10491 C 1011.53 -1.44161 -2.6389 0
M  V30 10492 C 1013.08 -1.44257 -2.77775 0
M  V30 10493 C 1013.55 -2.31926 -3.94936 0
M  V30 10494 N 1015.04 -2.2975 -4.02206 0
M  V30 10495 C 1015.78 -2.9431 -4.92107 0
M  V30 10496 N 1015.27 -3.68001 -5.86981 0
M  V30 10497 N 1017.07 -2.83671 -4.8527 0
M  V30 10498 H 1009.22 -1.80987 -1.11164 0
M  V30 10499 H 1011.48 -0.773313 -0.548353 0
M  V30 10500 H 1011.19 -2.48588 -2.4879 0
M  V30 10501 H 1011.06 -1.13268 -3.59792 0
M  V30 10502 H 1013.45 -0.405923 -2.92295 0
M  V30 10503 H 1013.53 -1.79169 -1.82571 0
M  V30 10504 H 1013.17 -3.35661 -3.81174 0
M  V30 10505 H 1013.1 -1.94344 -4.89426 0
M  V30 10506 H 1015.59 -1.76177 -3.3432 0
M  V30 10507 H 1015.91 -4.14417 -6.52287 0
M  V30 10508 H 1014.25 -3.72109 -5.86992 0
M  V30 10509 H 1017.44 -2.25647 -4.10123 0
M  V30 10510 H 1017.61 -3.34267 -5.5513 0
M  V30 10511 N 1011.02 1.44971 -0.618145 0
M  V30 10512 C 1011.95 2.33357 0.0815955 0
M  V30 10513 C 1012.93 1.47451 0.848072 0
M  V30 10514 O 1014.12 1.762 0.816532 0
M  V30 10515 C 1011.25 3.30324 1.07253 0
M  V30 10516 C 1010.2 4.25948 0.418563 0
M  V30 10517 C 1009.53 5.12685 1.51849 0
M  V30 10518 C 1010.83 5.18024 -0.66697 0
M  V30 10519 H 1012.52 2.92115 -0.656442 0
M  V30 10520 H 1010.07 1.40465 -0.317129 0
M  V30 10521 H 1012.02 3.91033 1.57069 0
M  V30 10522 H 1010.74 2.69748 1.8413 0
M  V30 10523 H 1009.4 3.66553 -0.0588308 0
M  V30 10524 H 1009.05 4.4847 2.2778 0
M  V30 10525 H 1008.75 5.7747 1.08637 0
M  V30 10526 H 1010.27 5.76264 2.01871 0
M  V30 10527 H 1011.69 5.72744 -0.252448 0
M  V30 10528 H 1010.09 5.91343 -1.02146 0
M  V30 10529 H 1011.16 4.59817 -1.53936 0
M  V30 10530 N 1012.5 0.357919 1.53482 0
M  V30 10531 C 1013.41 -0.500273 2.29204 0
M  V30 10532 C 1014.42 -1.09936 1.3487 0
M  V30 10533 O 1015.6 -1.11195 1.67921 0
M  V30 10534 C 1012.67 -1.62828 3.06085 0
M  V30 10535 C 1011.73 -1.05751 4.16071 0
M  V30 10536 C 1010.96 -2.13176 4.89277 0
M  V30 10537 O 1011.18 -3.34153 4.62274 0
M  V30 10538 O 1010.12 -1.76663 5.7539 0
M  V30 10539 H 1013.94 0.115696 3.0348 0
M  V30 10540 H 1011.53 0.122527 1.48897 0
M  V30 10541 H 1013.41 -2.28427 3.54117 0
M  V30 10542 H 1012.08 -2.22979 2.34653 0
M  V30 10543 H 1010.99 -0.365642 3.72309 0
M  V30 10544 H 1012.32 -0.500661 4.89647 0
M  V30 10545 N 1013.98 -1.5736 0.0868897 0
M  V30 10546 C 1015.2 -1.98809 -0.590757 0
M  V30 10547 C 1015.63 -0.965407 -1.61436 0
M  V30 10548 O 1014.98 0.067143 -1.81176 0
M  V30 10549 C 1015.03 -3.39249 -1.22238 0
M  V30 10550 O 1014.14 -3.39706 -2.33824 0
M  V30 10551 H 1013.48 -0.64669 -0.150626 0
M  V30 10552 H 1016.01 -2.03927 0.165873 0
M  V30 10553 H 1016.02 -3.76765 -1.56564 0
M  V30 10554 H 1014.69 -4.13208 -0.472434 0
M  V30 10555 H 1013.27 -3.13977 -2.01178 0
M  V30 10556 N 1015.45 0.186762 -1.56489 0
M  V30 10557 C 1016.7 0.907194 -1.81378 0
M  V30 10558 C 1017.03 1.82558 -0.662283 0
M  V30 10559 O 1016.31 1.91564 0.336699 0
M  V30 10560 C 1016.59 1.71624 -3.16571 0
M  V30 10561 C 1016.44 0.822009 -4.42225 0
M  V30 10562 C 1017.76 2.68713 -3.48542 0
M  V30 10563 H 1014.88 0.328366 -0.659806 0
M  V30 10564 H 1017.52 0.174142 -1.892 0
M  V30 10565 H 1015.67 2.34119 -3.10033 0
M  V30 10566 H 1017.35 0.211122 -4.60817 0
M  V30 10567 H 1015.59 0.129178 -4.33608 0
M  V30 10568 H 1016.26 1.42326 -5.33336 0
M  V30 10569 H 1018.74 2.16348 -3.55433 0
M  V30 10570 H 1017.61 3.22397 -4.44242 0
M  V30 10571 H 1017.87 3.48165 -2.72459 0
M  V30 10572 N 1016.93 1.50896 0.454776 0
M  V30 10573 C 1018.16 1.66759 1.23313 0
M  V30 10574 C 1018.58 0.35722 1.84677 0
M  V30 10575 O 1017.94 -0.680771 1.68033 0
M  V30 10576 C 1017.99 2.77254 2.3057 0
M  V30 10577 O 1017.09 2.39642 3.35627 0
M  V30 10578 H 1016.43 0.556599 0.362068 0
M  V30 10579 H 1018.96 1.97365 0.539274 0
M  V30 10580 H 1018.97 3.0082 2.75629 0
M  V30 10581 H 1017.65 3.72349 1.85281 0
M  V30 10582 H 1016.23 2.26584 2.96165 0
M  V30 10583 N 1018.41 -0.709066 1.40748 0
M  V30 10584 C 1019.34 -1.83583 1.4429 0
M  V30 10585 C 1020.32 -1.67378 0.303067 0
M  V30 10586 O 1021.51 -1.87312 0.512612 0
M  V30 10587 C 1018.64 -3.21599 1.31116 0
M  V30 10588 C 1017.59 -3.52486 2.4277 0
M  V30 10589 C 1016.92 -4.89716 2.14668 0
M  V30 10590 C 1018.22 -3.52824 3.85113 0
M  V30 10591 H 1019.91 -1.80876 2.38588 0
M  V30 10592 H 1017.46 -0.868795 1.14839 0
M  V30 10593 H 1019.41 -4.00123 1.32209 0
M  V30 10594 H 1018.13 -3.24898 0.332965 0
M  V30 10595 H 1016.79 -2.76305 2.40937 0
M  V30 10596 H 1016.44 -4.89625 1.15224 0
M  V30 10597 H 1016.14 -5.11347 2.89478 0
M  V30 10598 H 1017.66 -5.70566 2.17455 0
M  V30 10599 H 1019.08 -4.21377 3.88734 0
M  V30 10600 H 1017.48 -3.85984 4.59496 0
M  V30 10601 H 1018.55 -2.52073 4.14231 0
M  V30 10602 N 1019.89 -1.26353 -0.941956 0
M  V30 10603 C 1021.17 -1.02601 -1.6653 0
M  V30 10604 C 1021.55 0.44381 -2.06382 0
M  V30 10605 O 1020.89 1.42399 -1.78703 0
M  V30 10606 C 1021.1 -1.97401 -2.87809 0
M  V30 10607 C 1022.45 -2.25967 -3.59478 0
M  V30 10608 O 1023.48 -1.95261 -2.97912 0
M  V30 10609 O 1022.34 -2.78244 -4.70364 0
M  V30 10610 H 1019.43 -0.39007 -0.729228 0
M  V30 10611 H 1021.98 -1.37559 -0.993754 0
M  V30 10612 H 1020.75 -2.9659 -2.55245 0
M  V30 10613 H 1020.37 -1.62918 -3.62689 0
M  V30 10614 N 1021.37 1.14642 -1.08144 0
M  V30 10615 C 1022.62 1.84964 -0.804437 0
M  V30 10616 C 1022.93 1.8369 0.672106 0
M  V30 10617 O 1024.14 2.49775 1.06417 0
M  V30 10618 C 1022.59 3.32015 -1.38904 0
M  V30 10619 C 1022.2 3.41713 -2.89718 0
M  V30 10620 C 1023.94 4.07467 -1.19041 0
M  V30 10621 C 1021.85 4.82958 -3.41329 0
M  V30 10622 H 1020.78 0.692932 -0.297256 0
M  V30 10623 H 1023.43 1.29255 -1.30251 0
M  V30 10624 H 1021.81 3.87445 -0.818679 0
M  V30 10625 H 1022.99 2.96347 -3.52867 0
M  V30 10626 H 1021.3 2.79713 -3.08463 0
M  V30 10627 H 1023.9 5.1172 -1.55069 0
M  V30 10628 H 1024.24 4.16097 -0.130027 0
M  V30 10629 H 1024.78 3.58329 -1.72757 0
M  V30 10630 H 1021.51 4.79515 -4.46929 0
M  V30 10631 H 1021.03 5.28873 -2.82937 0
M  V30 10632 H 1022.71 5.51841 -3.37759 0
M  V30 10633 N 1022.85 0.866709 1.31628 0
M  V30 10634 C 1023.81 0.325041 2.26883 0
M  V30 10635 C 1024.81 -0.522133 1.52087 0
M  V30 10636 O 1026 -0.331908 1.71009 0
M  V30 10637 C 1023.13 -0.538756 3.36616 0
M  V30 10638 H 1024.32 1.16592 2.76308 0
M  V30 10639 H 1021.88 0.642029 1.42505 0
M  V30 10640 H 1022.61 -1.40096 2.92478 0
M  V30 10641 H 1022.4 0.0678115 3.92041 0
M  V30 10642 H 1023.89 -0.910123 4.07562 0
M  V30 10643 N 1024.32 -1.44642 0.625825 0
M  V30 10644 C 1025.55 -2.06971 0.133373 0
M  V30 10645 C 1025.97 -1.46421 -1.18078 0
M  V30 10646 O 1025.33 -0.563676 -1.72315 0
M  V30 10647 C 1025.38 -3.6059 0.0265097 0
M  V30 10648 O 1024.48 -3.99615 -1.01889 0
M  V30 10649 H 1023.82 -0.658873 0.0823568 0
M  V30 10650 H 1026.35 -1.85601 0.861002 0
M  V30 10651 H 1026.36 -4.07663 -0.1658 0
M  V30 10652 H 1025.04 -4.04043 0.985986 0
M  V30 10653 H 1023.62 -3.64183 -0.801577 0
M  V30 10654 N 1025.8 -0.366053 -1.5329 0
M  V30 10655 C 1027.03 0.226839 -2.06156 0
M  V30 10656 C 1027.45 1.41637 -1.23776 0
M  V30 10657 O 1026.81 1.7947 -0.256948 0
M  V30 10658 C 1026.86 0.597956 -3.55608 0
M  V30 10659 O 1025.96 1.69512 -3.75951 0
M  V30 10660 H 1025.3 0.0329156 -0.663184 0
M  V30 10661 H 1027.83 -0.526793 -1.97702 0
M  V30 10662 H 1027.84 0.868831 -3.98642 0
M  V30 10663 H 1026.52 -0.271838 -4.15011 0
M  V30 10664 H 1025.09 1.41976 -3.44815 0
M  V30 10665 N 1027.28 1.57312 -0.0952337 0
M  V30 10666 C 1028.23 2.15263 0.881167 0
M  V30 10667 C 1029.22 1.09552 1.29208 0
M  V30 10668 O 1030.43 1.27897 1.26659 0
M  V30 10669 H 1026.8 0.688611 0.302191 0
M  V30 10670 H 1028.77 2.96126 0.367694 0
M  V30 10671 C 1027.52 2.74779 2.13053 0
M  V30 10672 H 1026.85 3.55807 1.82323 0
M  V30 10673 H 1028.29 3.18895 2.79431 0
M  V30 10674 C 1026.74 1.7068 2.90465 0
M  V30 10675 O 1027.27 1.14582 3.85011 0
M  V30 10676 N 1025.48 1.41169 2.54007 0
M  V30 10677 H 1025.03 1.86977 1.77193 0
M  V30 10678 H 1024.99 0.717559 3.06102 0
M  V30 10679 N 1028.76 -0.17846 1.56586 0
M  V30 10680 C 1029.72 -1.20479 1.94981 0
M  V30 10681 C 1030.72 -1.37561 0.832677 0
M  V30 10682 O 1031.91 -1.35089 1.09984 0
M  V30 10683 C 1029.04 -2.57117 2.23839 0
M  V30 10684 H 1030.24 -0.876173 2.86816 0
M  V30 10685 H 1027.79 -0.420635 1.50534 0
M  V30 10686 H 1028.52 -2.95005 1.34695 0
M  V30 10687 H 1028.31 -2.46086 3.05261 0
M  V30 10688 H 1029.8 -3.31096 2.5449 0
M  V30 10689 N 1030.24 -1.51135 -0.446768 0
M  V30 10690 C 1031.48 -1.62571 -1.19388 0
M  V30 10691 C 1031.8 -0.3432 -1.92566 0
M  V30 10692 O 1033 -0.336804 -2.69403 0
M  V30 10693 C 1031.46 -2.87071 -2.17068 0
M  V30 10694 C 1031.07 -4.22291 -1.49581 0
M  V30 10695 C 1032.81 -3.07862 -2.9227 0
M  V30 10696 C 1030.72 -5.3795 -2.45689 0
M  V30 10697 H 1029.65 -0.60549 -0.449331 0
M  V30 10698 H 1032.3 -1.77593 -0.461846 0
M  V30 10699 H 1030.68 -2.65662 -2.93666 0
M  V30 10700 H 1031.86 -4.54046 -0.786054 0
M  V30 10701 H 1030.17 -4.07302 -0.865677 0
M  V30 10702 H 1032.77 -3.91444 -3.64246 0
M  V30 10703 H 1033.11 -2.20559 -3.53072 0
M  V30 10704 H 1033.64 -3.29566 -2.2278 0
M  V30 10705 H 1030.38 -6.27484 -1.89591 0
M  V30 10706 H 1029.9 -5.10583 -3.14746 0
M  V30 10707 H 1031.58 -5.69517 -3.07017 0
M  V30 10708 N 1031.71 0.701592 -1.41122 0
M  V30 10709 C 1032.99 1.45569 -1.30648 0
M  V30 10710 C 1033.37 2.10988 0.068744 0
M  V30 10711 O 1032.72 2.01228 1.08257 0
M  V30 10712 C 1032.93 2.48003 -2.45551 0
M  V30 10713 C 1034.28 3.13431 -2.86437 0
M  V30 10714 O 1035.3 2.58327 -2.45247 0
M  V30 10715 O 1034.16 4.13221 -3.57646 0
M  V30 10716 H 1031.25 0.648 -0.513834 0
M  V30 10717 H 1033.8 0.73258 -1.53073 0
M  V30 10718 H 1032.57 1.98276 -3.37346 0
M  V30 10719 H 1032.19 3.27832 -2.24971 0
M  V30 10720 N 1033.19 1.2685 0.935242 0
M  V30 10721 C 1034.12 1.1143 2.05196 0
M  V30 10722 C 1035.1 0.0178362 1.70091 0
M  V30 10723 O 1036.29 0.190951 1.93259 0
M  V30 10724 C 1033.42 0.752779 3.39044 0
M  V30 10725 C 1032.37 1.80164 3.88233 0
M  V30 10726 C 1031.7 1.29428 5.18799 0
M  V30 10727 C 1033 3.20431 4.12457 0
M  V30 10728 H 1034.69 2.04845 2.18355 0
M  V30 10729 H 1032.24 0.986276 1.04922 0
M  V30 10730 H 1034.19 0.631757 4.16637 0
M  V30 10731 H 1032.91 -0.217075 3.25878 0
M  V30 10732 H 1031.57 1.91144 3.12825 0
M  V30 10733 H 1031.22 0.3141 5.02018 0
M  V30 10734 H 1030.92 1.99546 5.5268 0
M  V30 10735 H 1032.45 1.18605 5.9897 0
M  V30 10736 H 1033.86 3.12495 4.80645 0
M  V30 10737 H 1032.26 3.88193 4.57631 0
M  V30 10738 H 1033.33 3.66046 3.18023 0
M  V30 10739 N 1034.67 -1.14067 1.0875 0
M  V30 10740 C 1035.92 -1.85459 0.82053 0
M  V30 10741 C 1036.25 -1.82923 -0.65213 0
M  V30 10742 O 1035.52 -1.26241 -1.47965 0
M  V30 10743 C 1035.81 -3.33937 1.34752 0
M  V30 10744 C 1035.66 -3.45026 2.88578 0
M  V30 10745 C 1036.98 -4.2915 0.975636 0
M  V30 10746 H 1034.1 -0.673384 0.299538 0
M  V30 10747 H 1036.74 -1.33927 1.34772 0
M  V30 10748 H 1034.89 -3.77953 0.899086 0
M  V30 10749 H 1036.56 -3.09771 3.41818 0
M  V30 10750 H 1034.81 -2.86124 3.26061 0
M  V30 10751 H 1035.48 -4.49408 3.20526 0
M  V30 10752 H 1037.95 -3.93168 1.36228 0
M  V30 10753 H 1036.83 -5.31489 1.37152 0
M  V30 10754 H 1037.09 -4.41945 -0.116956 0
M  V30 10755 N 1036.15 -0.873678 -1.31166 0
M  V30 10756 C 1037.39 -0.487178 -1.96861 0
M  V30 10757 C 1037.73 0.95887 -1.68877 0
M  V30 10758 O 1037 1.6758 -0.987279 0
M  V30 10759 C 1037.29 -0.74925 -3.52219 0
M  V30 10760 C 1037.14 -2.2451 -3.89763 0
M  V30 10761 C 1038.46 -0.218194 -4.39559 0
M  V30 10762 H 1035.58 -0.178477 -0.715063 0
M  V30 10763 H 1038.22 -1.0956 -1.55231 0
M  V30 10764 H 1036.37 -0.231403 -3.8781 0
M  V30 10765 H 1038.04 -2.83049 -3.64254 0
M  V30 10766 H 1036.28 -2.71621 -3.38237 0
M  V30 10767 H 1036.95 -2.37911 -4.98099 0
M  V30 10768 H 1039.43 -0.661274 -4.10812 0
M  V30 10769 H 1038.31 -0.430983 -5.47205 0
M  V30 10770 H 1038.57 0.880056 -4.33252 0
M  V30 10771 N 1037.63 1.44308 -0.633487 0
M  V30 10772 C 1038.59 2.2912 0.060376 0
M  V30 10773 C 1039.59 1.41166 0.769992 0
M  V30 10774 O 1040.78 1.63012 0.614224 0
M  V30 10775 C 1037.91 3.22798 1.0961 0
M  V30 10776 H 1039.1 2.91958 -0.685617 0
M  V30 10777 H 1036.66 1.51259 -0.393738 0
M  V30 10778 H 1037.39 2.64815 1.87199 0
M  V30 10779 H 1037.18 3.87618 0.591161 0
M  V30 10780 H 1038.67 3.86504 1.58127 0
M  V30 10781 N 1039.1 0.374177 1.53094 0
M  V30 10782 C 1040.07 -0.455999 2.24618 0
M  V30 10783 C 1041.07 -1.00269 1.25709 0
M  V30 10784 O 1042.26 -0.887077 1.49922 0
M  V30 10785 C 1039.39 -1.63822 2.98957 0
M  V30 10786 H 1040.58 0.169986 2.99418 0
M  V30 10787 H 1038.14 0.126015 1.55791 0
M  V30 10788 H 1038.87 -2.30205 2.28421 0
M  V30 10789 H 1038.66 -1.25308 3.71538 0
M  V30 10790 H 1040.15 -2.22633 3.53305 0
M  V30 10791 N 1040.58 -1.57259 0.103575 0
M  V30 10792 C 1041.86 -1.86143 -0.600852 0
M  V30 10793 C 1042.24 -1.00198 -1.85805 0
M  V30 10794 O 1041.59 -0.0766791 -2.28371 0
M  V30 10795 C 1041.8 -3.36978 -0.908108 0
M  V30 10796 C 1043.15 -4.05228 -1.26788 0
M  V30 10797 O 1044.17 -3.41908 -0.998859 0
M  V30 10798 O 1043.03 -5.16971 -1.7721 0
M  V30 10799 H 1040.12 -0.770064 -0.301547 0
M  V30 10800 H 1042.67 -1.69147 0.136914 0
M  V30 10801 H 1041.44 -3.91296 -0.0165615 0
M  V30 10802 H 1041.06 -3.5935 -1.70156 0
M  V30 10803 N 1042.06 0.170153 -1.56679 0
M  V30 10804 C 1043.31 0.887906 -1.8233 0
M  V30 10805 C 1043.64 1.81845 -0.681608 0
M  V30 10806 O 1042.91 1.9191 0.316362 0
M  V30 10807 C 1043.2 1.68256 -3.18374 0
M  V30 10808 C 1043.05 0.775059 -4.43072 0
M  V30 10809 C 1044.37 2.65001 -3.51372 0
M  V30 10810 H 1041.49 0.32135 -0.663252 0
M  V30 10811 H 1044.13 0.154065 -1.89374 0
M  V30 10812 H 1042.28 2.30817 -3.12499 0
M  V30 10813 H 1043.95 0.162234 -4.61015 0
M  V30 10814 H 1042.2 0.0831809 -4.3372 0
M  V30 10815 H 1042.87 1.36661 -5.34816 0
M  V30 10816 H 1045.34 2.12566 -3.57708 0
M  V30 10817 H 1044.22 3.17667 -4.47637 0
M  V30 10818 H 1044.48 3.45255 -2.76136 0
M  V30 10819 N 1043.54 1.5137 0.438746 0
M  V30 10820 C 1044.45 1.75424 1.55768 0
M  V30 10821 C 1045.46 0.638409 1.61865 0
M  V30 10822 O 1046.64 0.9205 1.79133 0
M  V30 10823 C 1043.71 1.87288 2.9176 0
M  V30 10824 C 1042.77 3.11137 2.95791 0
M  V30 10825 C 1042 3.22425 4.25297 0
M  V30 10826 O 1042.22 2.39688 5.17596 0
M  V30 10827 O 1041.16 4.15393 4.35583 0
M  V30 10828 H 1044.98 2.70339 1.38386 0
M  V30 10829 H 1042.57 1.35854 0.621609 0
M  V30 10830 H 1044.45 1.97085 3.72472 0
M  V30 10831 H 1043.12 0.955599 3.09273 0
M  V30 10832 H 1042.03 3.06819 2.1404 0
M  V30 10833 H 1043.36 4.02549 2.83223 0
M  V30 10834 N 1045.02 -0.694098 1.41492 0
M  V30 10835 C 1045.97 -1.80016 1.39923 0
M  V30 10836 C 1046.95 -1.58561 0.273377 0
M  V30 10837 O 1048.14 -1.69368 0.514157 0
M  V30 10838 C 1045.27 -3.18333 1.28526 0
M  V30 10839 C 1044.36 -3.45478 2.45979 0
M  V30 10840 N 1044.75 -3.43313 3.71443 0
M  V30 10841 C 1043.05 -3.76033 2.39824 0
M  V30 10842 C 1043.75 -3.69404 4.4935 0
M  V30 10843 N 1042.72 -3.89221 3.79484 0
M  V30 10844 H 1046.53 -1.76707 2.34844 0
M  V30 10845 H 1044.04 -0.894148 1.35568 0
M  V30 10846 H 1046.04 -3.97567 1.25484 0
M  V30 10847 H 1044.7 -3.22852 0.345904 0
M  V30 10848 H 1045.71 -3.2366 4.04308 0
M  V30 10849 H 1042.38 -3.87913 1.54368 0
M  V30 10850 H 1043.77 -3.73854 5.58285 0
M  V30 10851 N 1046.49 -1.27344 -0.928501 0
M  V30 10852 C 1047.73 -1.14871 -1.69068 0
M  V30 10853 C 1048.1 0.300603 -1.89632 0
M  V30 10854 O 1049.3 0.547743 -2.6316 0
M  V30 10855 C 1047.57 -1.90992 -3.02087 0
M  V30 10856 S 1049.13 -1.94722 -3.93229 0
M  V30 10857 H 1045.95 -0.410095 -0.580812 0
M  V30 10858 H 1048.55 -1.61242 -1.1055 0
M  V30 10859 H 1047.25 -2.95484 -2.84811 0
M  V30 10860 H 1046.78 -1.45112 -3.65658 0
M  V30 10861 H 1048.8 -1.04306 -4.85113 0
M  V30 10862 N 1047.97 1.13488 -1.09353 0
M  V30 10863 C 1048.88 2.2248 -0.744307 0
M  V30 10864 C 1049.9 1.72145 0.253404 0
M  V30 10865 O 1051.07 2.01176 0.0949339 0
M  V30 10866 C 1048.14 3.46286 -0.16928 0
M  V30 10867 C 1047.2 4.11516 -1.22284 0
M  V30 10868 C 1046.43 5.29412 -0.675161 0
M  V30 10869 O 1046.66 5.68185 0.502182 0
M  V30 10870 O 1045.59 5.8467 -1.42983 0
M  V30 10871 H 1049.42 2.54723 -1.65378 0
M  V30 10872 H 1047 1.21607 -0.867879 0
M  V30 10873 H 1048.88 4.2114 0.14811 0
M  V30 10874 H 1047.56 3.15745 0.713214 0
M  V30 10875 H 1046.47 3.38492 -1.59292 0
M  V30 10876 H 1047.8 4.46186 -2.07796 0
M  V30 10877 N 1049.45 0.880621 1.30701 0
M  V30 10878 C 1050.69 0.503519 1.98101 0
M  V30 10879 C 1051.06 -0.929075 1.68024 0
M  V30 10880 O 1052.26 -1.41208 2.28722 0
M  V30 10881 C 1050.53 0.765652 3.49102 0
M  V30 10882 S 1052.09 0.490001 4.36056 0
M  V30 10883 H 1048.9 0.187522 0.685825 0
M  V30 10884 H 1051.51 1.13895 1.58897 0
M  V30 10885 H 1050.21 1.80688 3.68484 0
M  V30 10886 H 1049.74 0.117616 3.93224 0
M  V30 10887 H 1051.76 -0.673236 4.91612 0
M  V30 10888 N 1050.93 -1.4397 0.641131 0
M  V30 10889 C 1052.34 -1.85267 0.230838 0
M  V30 10890 C 1052.69 -1.53659 -1.21998 0
M  V30 10891 O 1051.82 -0.979572 -1.92959 0
M  V30 10892 C 1052.41 -3.36284 0.412171 0
M  V30 10893 C 1050.97 -3.76358 0.0563004 0
M  V30 10894 C 1050.12 -2.67768 0.720809 0
M  V30 10895 H 1053.07 -1.34294 0.845624 0
M  V30 10896 H 1053.09 -3.78924 -0.345936 0
M  V30 10897 H 1052.6 -3.59258 1.46818 0
M  V30 10898 H 1050.7 -3.58997 -0.997582 0
M  V30 10899 H 1050.82 -4.76756 0.473335 0
M  V30 10900 H 1049.18 -2.54227 0.155164 0
M  V30 10901 H 1049.96 -2.93573 1.77961 0
M  V30 10902 N 1052.41 -0.382291 -1.52893 0
M  V30 10903 C 1053.34 0.491199 -2.23875 0
M  V30 10904 C 1054.35 1.03249 -1.25871 0
M  V30 10905 O 1055.54 0.936016 -1.5199 0
M  V30 10906 C 1052.64 1.6927 -2.936 0
M  V30 10907 C 1051.81 1.28 -4.18252 0
M  V30 10908 C 1050.87 2.34541 -4.71038 0
M  V30 10909 O 1049.9 1.96239 -5.34302 0
M  V30 10910 N 1051.1 3.6636 -4.50289 0
M  V30 10911 H 1053.87 -0.116897 -2.99472 0
M  V30 10912 H 1051.43 -0.208296 -1.60554 0
M  V30 10913 H 1053.42 2.40054 -3.25816 0
M  V30 10914 H 1051.99 2.20729 -2.21354 0
M  V30 10915 H 1051.21 0.40133 -3.92152 0
M  V30 10916 H 1052.5 0.98082 -4.99257 0
M  V30 10917 H 1051.9 4.00245 -3.99775 0
M  V30 10918 H 1050.45 4.332 -4.87013 0
M  V30 10919 N 1053.89 1.57202 -0.111913 0
M  V30 10920 C 1055.13 1.94565 0.546713 0
M  V30 10921 C 1055.45 0.995644 1.67666 0
M  V30 10922 O 1054.72 0.0506681 1.95834 0
M  V30 10923 H 1053.3 0.718334 0.204951 0
M  V30 10924 H 1055.97 1.94074 -0.179193 0
M  V30 10925 H 1055.06 2.9742 0.945931 0
M  V30 10926 N 1055.36 -0.161842 1.56767 0
M  V30 10927 C 1056.59 -0.890953 1.86402 0
M  V30 10928 C 1057 -1.75918 0.696373 0
M  V30 10929 O 1056.34 -1.80461 -0.343463 0
M  V30 10930 C 1056.41 -1.81079 3.10565 0
M  V30 10931 C 1056.07 -1.12121 4.43032 0
M  V30 10932 C 1057.07 -0.482152 5.17659 0
M  V30 10933 C 1054.75 -1.11514 4.89765 0
M  V30 10934 C 1056.75 0.153772 6.37214 0
M  V30 10935 C 1054.43 -0.4754 6.09248 0
M  V30 10936 C 1055.43 0.157944 6.82817 0
M  V30 10937 O 1055.12 0.787579 8.00033 0
M  V30 10938 H 1054.85 -0.26379 0.622407 0
M  V30 10939 H 1057.41 -0.163884 2.04745 0
M  V30 10940 H 1055.64 -2.57842 2.88192 0
M  V30 10941 H 1057.32 -2.41056 3.26568 0
M  V30 10942 H 1058.09 -0.478752 4.82631 0
M  V30 10943 H 1053.97 -1.59752 4.32435 0
M  V30 10944 H 1057.51 0.648716 6.94577 0
M  V30 10945 H 1053.41 -0.476416 6.43739 0
M  V30 10946 H 1054.18 0.687769 8.15605 0
M  V30 10947 N 1056.84 -1.516 -0.430713 0
M  V30 10948 C 1058.07 -1.68414 -1.20185 0
M  V30 10949 C 1058.48 -0.384297 -1.84847 0
M  V30 10950 O 1057.84 0.637808 -1.70992 0
M  V30 10951 C 1057.89 -2.80451 -2.28099 0
M  V30 10952 O 1057.61 -4.05399 -1.66081 0
M  V30 10953 C 1059.11 -3.0859 -3.18256 0
M  V30 10954 H 1056.33 -0.564982 -0.361989 0
M  V30 10955 H 1058.88 -1.9805 -0.50954 0
M  V30 10956 H 1057.03 -2.53395 -2.93036 0
M  V30 10957 H 1057.45 -4.67671 -2.37453 0
M  V30 10958 H 1058.92 -3.9055 -3.90096 0
M  V30 10959 H 1059.4 -2.21264 -3.79393 0
M  V30 10960 H 1060 -3.37331 -2.59014 0
M  V30 10961 N 1058.32 0.686584 -1.41858 0
M  V30 10962 C 1059.57 1.44379 -1.41418 0
M  V30 10963 C 1059.89 1.94981 -0.0273696 0
M  V30 10964 O 1059.16 1.72296 0.932248 0
M  V30 10965 H 1057.74 0.53574 -0.520568 0
M  V30 10966 H 1060.4 0.812056 -1.77177 0
M  V30 10967 H 1059.5 2.30258 -2.10684 0
M  V30 10968 N 1059.8 1.27835 0.921735 0
M  V30 10969 C 1061.03 1.17352 1.704 0
M  V30 10970 C 1061.44 -0.268892 1.86875 0
M  V30 10971 O 1060.8 -1.18253 1.39005 0
M  V30 10972 C 1060.85 1.85889 3.10045 0
M  V30 10973 O 1060.57 3.24495 2.94338 0
M  V30 10974 C 1062.07 1.81607 4.04393 0
M  V30 10975 H 1059.29 0.40773 0.532914 0
M  V30 10976 H 1061.83 1.68815 1.15419 0
M  V30 10977 H 1059.99 1.38316 3.61867 0
M  V30 10978 H 1060.4 3.58705 3.82663 0
M  V30 10979 H 1061.88 2.34165 4.99871 0
M  V30 10980 H 1062.35 0.786697 4.32097 0
M  V30 10981 H 1062.96 2.28822 3.58498 0
M  V30 10982 N 1061.28 -1.12907 1.09954 0
M  V30 10983 C 1062.5 -1.88679 0.861099 0
M  V30 10984 C 1062.93 -1.78853 -0.582499 0
M  V30 10985 O 1062.28 -1.13992 -1.4098 0
M  V30 10986 C 1062.33 -3.36047 1.30785 0
M  V30 10987 O 1061.44 -4.09716 0.469728 0
M  V30 10988 H 1060.78 -0.586447 0.31141 0
M  V30 10989 H 1063.31 -1.42818 1.46507 0
M  V30 10990 H 1063.32 -3.86882 1.29562 0
M  V30 10991 H 1061.99 -3.42516 2.35914 0
M  V30 10992 H 1060.57 -3.6887 0.54674 0
M  V30 10993 N 1062.75 -0.88754 -1.30232 0
M  V30 10994 C 1063.99 -0.514017 -1.97831 0
M  V30 10995 C 1064.36 0.920151 -1.68515 0
M  V30 10996 O 1065.56 1.39993 -2.29468 0
M  V30 10997 C 1063.83 -0.784155 -3.48692 0
M  V30 10998 S 1065.39 -0.513119 -4.3579 0
M  V30 10999 H 1062.21 -0.191157 -0.684821 0
M  V30 11000 H 1064.81 -1.14736 -1.58291 0
M  V30 11001 H 1063.51 -1.82639 -3.6752 0
M  V30 11002 H 1063.04 -0.138468 -3.93156 0
M  V30 11003 H 1065.06 0.647155 -4.91962 0
M  V30 11004 N 1064.23 1.43628 -0.648757 0
M  V30 11005 C 1065.14 2.34554 0.0463037 0
M  V30 11006 C 1066.16 1.53629 0.816952 0
M  V30 11007 O 1067.33 1.86297 0.765212 0
M  V30 11008 C 1064.4 3.3185 1.00381 0
M  V30 11009 C 1063.46 4.2868 0.230589 0
M  V30 11010 C 1062.69 5.21328 1.14249 0
M  V30 11011 O 1062.92 5.18298 2.38166 0
M  V30 11012 O 1061.85 5.98726 0.617296 0
M  V30 11013 H 1065.68 2.95475 -0.702008 0
M  V30 11014 H 1063.26 1.43694 -0.408942 0
M  V30 11015 H 1065.14 3.91692 1.5542 0
M  V30 11016 H 1063.82 2.73439 1.73243 0
M  V30 11017 H 1062.73 3.72332 -0.363282 0
M  V30 11018 H 1064.06 4.90061 -0.458368 0
M  V30 11019 N 1065.71 0.390394 1.52688 0
M  V30 11020 C 1066.94 -0.194013 2.06491 0
M  V30 11021 C 1067.36 -1.3965 1.26014 0
M  V30 11022 O 1066.72 -1.79038 0.285468 0
M  V30 11023 C 1066.77 -0.541306 3.56514 0
M  V30 11024 O 1065.87 -1.63509 3.78601 0
M  V30 11025 H 1065.21 -0.0223608 0.663623 0
M  V30 11026 H 1067.74 0.558179 1.96839 0
M  V30 11027 H 1067.75 -0.805301 3.99974 0
M  V30 11028 H 1066.43 0.337828 4.14526 0
M  V30 11029 H 1065 -1.36473 3.4703 0
M  V30 11030 N 1067.19 -1.57141 0.120249 0
M  V30 11031 C 1068.43 -1.97124 -0.540521 0
M  V30 11032 C 1068.79 -1.0022 -1.63768 0
M  V30 11033 O 1069.99 -1.29146 -2.35743 0
M  V30 11034 C 1068.26 -3.41371 -1.05833 0
M  V30 11035 S 1069.82 -4.03367 -1.72745 0
M  V30 11036 H 1066.64 -0.688962 -0.175646 0
M  V30 11037 H 1069.24 -1.94416 0.205625 0
M  V30 11038 H 1067.95 -4.09646 -0.248656 0
M  V30 11039 H 1067.48 -3.47732 -1.83972 0
M  V30 11040 H 1069.49 -3.94227 -3.0133 0
M  V30 11041 N 1068.67 0.153526 -1.5685 0
M  V30 11042 C 1069.6 1.19162 -2.00805 0
M  V30 11043 C 1070.58 1.45172 -0.886518 0
M  V30 11044 O 1071.76 1.56203 -1.15387 0
M  V30 11045 C 1068.89 2.52637 -2.38311 0
M  V30 11046 C 1067.85 2.41161 -3.53589 0
M  V30 11047 C 1067.17 3.79287 -3.76889 0
M  V30 11048 C 1068.47 1.90122 -4.86468 0
M  V30 11049 H 1070.17 0.82617 -2.87776 0
M  V30 11050 H 1067.71 0.395972 -1.38449 0
M  V30 11051 H 1069.67 3.25478 -2.6766 0
M  V30 11052 H 1068.39 2.91005 -1.4827 0
M  V30 11053 H 1067.05 1.70772 -3.24395 0
M  V30 11054 H 1066.7 4.15079 -2.84109 0
M  V30 11055 H 1066.4 3.72472 -4.54465 0
M  V30 11056 H 1067.92 4.53687 -4.08657 0
M  V30 11057 H 1069.33 2.52752 -5.14577 0
M  V30 11058 H 1067.73 1.94214 -5.67804 0
M  V30 11059 H 1068.8 0.856517 -4.77275 0
M  V30 11060 N 1070.14 1.51827 0.422667 0
M  V30 11061 C 1071.37 1.69337 1.19748 0
M  V30 11062 C 1071.79 0.396312 1.83878 0
M  V30 11063 O 1071.15 -0.644976 1.6944 0
M  V30 11064 C 1071.2 2.82082 2.24637 0
M  V30 11065 O 1070.3 2.46708 3.30468 0
M  V30 11066 H 1069.65 0.564154 0.35018 0
M  V30 11067 H 1072.18 1.98465 0.497289 0
M  V30 11068 H 1072.19 3.06599 2.69186 0
M  V30 11069 H 1070.86 3.76195 1.77341 0
M  V30 11070 H 1069.44 2.32815 2.91293 0
M  V30 11071 N 1071.62 -0.679052 1.4222 0
M  V30 11072 C 1072.87 -1.43627 1.42182 0
M  V30 11073 C 1073.19 -1.94964 0.0377095 0
M  V30 11074 O 1072.46 -1.72788 -0.923098 0
M  V30 11075 H 1071.04 -0.532972 0.523402 0
M  V30 11076 H 1073.7 -0.802649 1.77605 0
M  V30 11077 H 1072.8 -2.29137 2.11902 0
M  V30 11078 N 1073.1 -1.28322 -0.914942 0
M  V30 11079 C 1074.33 -1.18083 -1.69529 0
M  V30 11080 C 1074.74 0.263274 -1.87359 0
M  V30 11081 O 1074.08 1.18988 -1.39955 0
M  V30 11082 C 1074.14 -1.8062 -3.10832 0
M  V30 11083 C 1073.81 -3.29861 -3.16292 0
M  V30 11084 C 1074.8 -4.26313 -2.97578 0
M  V30 11085 C 1072.49 -3.70797 -3.38843 0
M  V30 11086 C 1074.48 -5.61677 -3.01326 0
M  V30 11087 C 1072.17 -5.06287 -3.42223 0
M  V30 11088 C 1073.17 -6.01537 -3.23485 0
M  V30 11089 O 1072.86 -7.34556 -3.26624 0
M  V30 11090 H 1072.59 -0.410931 -0.53676 0
M  V30 11091 H 1075.14 -1.6994 -1.15367 0
M  V30 11092 H 1073.37 -1.23255 -3.66531 0
M  V30 11093 H 1075.06 -1.64915 -3.70888 0
M  V30 11094 H 1075.83 -3.96023 -2.79984 0
M  V30 11095 H 1071.71 -2.97124 -3.52475 0
M  V30 11096 H 1075.25 -6.36 -2.86618 0
M  V30 11097 H 1071.15 -5.36228 -3.59346 0
M  V30 11098 H 1071.92 -7.43167 -3.42994 0
M  V30 11099 N 1074.58 1.12322 -1.10551 0
M  V30 11100 C 1075.81 1.87407 -0.869607 0
M  V30 11101 C 1076.22 1.79976 0.58356 0
M  V30 11102 O 1075.56 1.1725 1.41415 0
M  V30 11103 C 1075.62 3.37401 -1.24099 0
M  V30 11104 C 1075.29 3.68607 -2.70144 0
M  V30 11105 C 1076.28 3.66869 -3.68379 0
M  V30 11106 C 1073.97 3.97903 -3.06559 0
M  V30 11107 C 1075.96 3.93987 -5.01052 0
M  V30 11108 C 1073.65 4.24681 -4.39419 0
M  V30 11109 C 1074.65 4.2271 -5.36475 0
M  V30 11110 O 1074.33 4.48823 -6.66943 0
M  V30 11111 H 1074.07 0.59978 -0.311834 0
M  V30 11112 H 1076.62 1.43037 -1.4741 0
M  V30 11113 H 1074.85 3.82332 -0.579606 0
M  V30 11114 H 1076.54 3.93833 -0.982378 0
M  V30 11115 H 1077.31 3.44297 -3.41591 0
M  V30 11116 H 1073.18 3.98578 -2.31638 0
M  V30 11117 H 1076.73 3.92364 -5.76798 0
M  V30 11118 H 1072.63 4.46727 -4.65945 0
M  V30 11119 H 1073.39 4.66436 -6.72592 0
M  V30 11120 N 1076.06 0.894434 1.2976 0
M  V30 11121 C 1077.47 0.589778 1.48303 0
M  V30 11122 C 1077.67 -0.870085 1.81746 0
M  V30 11123 O 1076.73 -1.65065 1.91076 0
M  V30 11124 C 1078.04 1.51107 2.59975 0
M  V30 11125 C 1079.59 1.51571 2.73853 0
M  V30 11126 C 1080.06 2.42316 3.88648 0
M  V30 11127 N 1081.56 2.40333 3.95973 0
M  V30 11128 C 1082.29 3.07254 4.84131 0
M  V30 11129 N 1081.79 3.83435 5.77018 0
M  V30 11130 N 1083.58 2.96438 4.77578 0
M  V30 11131 H 1075.73 1.83871 1.06327 0
M  V30 11132 H 1077.99 0.78758 0.527657 0
M  V30 11133 H 1077.7 2.55097 2.42112 0
M  V30 11134 H 1077.57 1.22767 3.56662 0
M  V30 11135 H 1079.96 0.483277 2.91116 0
M  V30 11136 H 1080.04 1.83946 1.77757 0
M  V30 11137 H 1079.69 3.4565 3.72141 0
M  V30 11138 H 1079.62 2.07252 4.84101 0
M  V30 11139 H 1082.11 1.84979 3.29532 0
M  V30 11140 H 1082.42 4.31565 6.4107 0
M  V30 11141 H 1080.76 3.87542 5.7692 0
M  V30 11142 H 1083.96 2.36442 4.03996 0
M  V30 11143 H 1084.13 3.48867 5.46073 0
M  V30 11144 N 1077.53 -1.43282 0.656365 0
M  V30 11145 C 1078.78 -2.02075 0.171293 0
M  V30 11146 C 1079.11 -1.51682 -1.21269 0
M  V30 11147 O 1078.39 -0.711243 -1.81029 0
M  V30 11148 C 1078.67 -3.59621 0.185602 0
M  V30 11149 C 1078.52 -4.20239 1.60373 0
M  V30 11150 C 1079.84 -4.37515 -0.476289 0
M  V30 11151 H 1076.96 -0.73424 0.0637185 0
M  V30 11152 H 1079.6 -1.70539 0.837648 0
M  V30 11153 H 1077.75 -3.86619 -0.381804 0
M  V30 11154 H 1079.43 -4.0426 2.22197 0
M  V30 11155 H 1077.67 -3.76769 2.15006 0
M  V30 11156 H 1078.34 -5.29333 1.56557 0
M  V30 11157 H 1080.82 -4.16099 0.00651073 0
M  V30 11158 H 1079.69 -5.47169 -0.435562 0
M  V30 11159 H 1079.95 -4.14003 -1.55093 0
M  V30 11160 N 1079.01 -0.398486 -1.52479 0
M  V30 11161 C 1080.29 0.238776 -1.94137 0
M  V30 11162 C 1080.67 1.63558 -1.33462 0
M  V30 11163 O 1080.02 2.22821 -0.506272 0
M  V30 11164 C 1080.23 0.255863 -3.48061 0
M  V30 11165 C 1081.58 0.480376 -4.21874 0
M  V30 11166 O 1082.6 0.335679 -3.54615 0
M  V30 11167 O 1081.46 0.764654 -5.41124 0
M  V30 11168 H 1078.55 0.150806 -0.813134 0
M  V30 11169 H 1081.1 -0.453659 -1.63524 0
M  V30 11170 H 1079.87 -0.722171 -3.84578 0
M  V30 11171 H 1079.49 0.99284 -3.85004 0
M  V30 11172 N 1080.49 1.57075 -0.12858 0
M  V30 11173 C 1081.74 1.95134 0.526046 0
M  V30 11174 C 1082.06 1.01337 1.66601 0
M  V30 11175 O 1081.33 0.0714361 1.9577 0
M  V30 11176 H 1079.91 0.720468 0.19732 0
M  V30 11177 H 1082.57 1.93874 -0.199767 0
M  V30 11178 H 1081.67 2.98406 0.914332 0
M  V30 11179 N 1081.97 -0.145205 1.5693 0
M  V30 11180 C 1083.22 -0.855955 1.82637 0
M  V30 11181 C 1083.53 -1.82255 0.710109 0
M  V30 11182 O 1084.74 -2.57758 0.852837 0
M  V30 11183 C 1083.19 -1.57278 3.23715 0
M  V30 11184 C 1082.8 -0.648507 4.43281 0
M  V30 11185 C 1084.55 -2.27021 3.58695 0
M  V30 11186 C 1082.45 -1.36706 5.75383 0
M  V30 11187 H 1081.38 -0.323385 0.68113 0
M  V30 11188 H 1084.03 -0.10869 1.83178 0
M  V30 11189 H 1082.42 -2.36574 3.17567 0
M  V30 11190 H 1083.59 0.109355 4.6067 0
M  V30 11191 H 1081.9 -0.0594029 4.16358 0
M  V30 11192 H 1084.5 -2.81423 4.54648 0
M  V30 11193 H 1084.84 -3.03598 2.8484 0
M  V30 11194 H 1085.38 -1.54642 3.66512 0
M  V30 11195 H 1082.12 -0.6431 6.52338 0
M  V30 11196 H 1081.64 -2.09759 5.61926 0
M  V30 11197 H 1083.32 -1.90748 6.18243 0
M  V30 11198 N 1083.45 -1.52049 -0.414609 0
M  V30 11199 C 1084.38 -1.77956 -1.51175 0
M  V30 11200 C 1085.36 -0.630282 -1.57992 0
M  V30 11201 O 1086.54 -0.875324 -1.73354 0
M  V30 11202 C 1083.67 -1.92527 -2.89051 0
M  V30 11203 C 1082.63 -3.08096 -2.97087 0
M  V30 11204 C 1081.95 -3.07882 -4.37164 0
M  V30 11205 C 1083.25 -4.47656 -2.69075 0
M  V30 11206 H 1084.95 -2.69827 -1.29746 0
M  V30 11207 H 1082.49 -1.29839 -0.62273 0
M  V30 11208 H 1084.45 -2.09234 -3.65786 0
M  V30 11209 H 1083.17 -0.973235 -3.11762 0
M  V30 11210 H 1081.83 -2.91131 -2.22797 0
M  V30 11211 H 1081.48 -2.10411 -4.56877 0
M  V30 11212 H 1081.18 -3.85501 -4.43467 0
M  V30 11213 H 1082.7 -3.26712 -5.15841 0
M  V30 11214 H 1084.12 -4.64855 -3.35534 0
M  V30 11215 H 1082.51 -5.27151 -2.8676 0
M  V30 11216 H 1083.58 -4.56129 -1.64544 0
M  V30 11217 N 1084.93 0.6715 -1.42579 0
M  V30 11218 C 1086.17 1.43154 -1.43224 0
M  V30 11219 C 1086.5 1.94436 -0.0498695 0
M  V30 11220 O 1085.76 1.71521 0.942282 0
M  V30 11221 C 1086.05 2.64256 -2.40632 0
M  V30 11222 C 1085.72 2.31497 -3.86937 0
M  V30 11223 C 1084.38 2.22274 -4.26788 0
M  V30 11224 C 1086.73 2.04957 -4.7921 0
M  V30 11225 C 1084.06 1.84642 -5.56888 0
M  V30 11226 C 1086.41 1.68828 -6.09656 0
M  V30 11227 C 1085.08 1.58118 -6.48502 0
M  V30 11228 H 1084.35 0.523838 -0.524094 0
M  V30 11229 H 1087 0.765363 -1.7554 0
M  V30 11230 H 1085.3 3.35921 -2.01654 0
M  V30 11231 H 1087 3.22443 -2.38394 0
M  V30 11232 H 1083.59 2.39578 -3.55387 0
M  V30 11233 H 1087.77 2.11014 -4.49207 0
M  V30 11234 H 1083.03 1.74921 -5.85843 0
M  V30 11235 H 1087.2 1.47319 -6.8064 0
M  V30 11236 H 1084.83 1.28728 -7.49222 0
M  V30 11237 N 1086.4 1.28806 0.908124 0
M  V30 11238 C 1087.65 1.16058 1.65454 0
M  V30 11239 C 1087.97 -0.290057 1.92831 0
M  V30 11240 O 1087.24 -1.20001 1.54843 0
M  V30 11241 H 1085.82 0.426522 0.61326 0
M  V30 11242 H 1088.48 1.61614 1.08936 0
M  V30 11243 H 1087.58 1.70437 2.61453 0
M  V30 11244 N 1087.88 -1.11734 1.11145 0
M  V30 11245 C 1089.13 -1.83043 0.856717 0
M  V30 11246 C 1089.45 -1.84901 -0.619407 0
M  V30 11247 O 1088.72 -1.31738 -1.44989 0
M  V30 11248 H 1087.3 -0.677823 0.31395 0
M  V30 11249 H 1089.96 -1.35262 1.40322 0
M  V30 11250 H 1089.06 -2.87005 1.22616 0
M  V30 11251 N 1089.36 -0.901303 -1.29284 0
M  V30 11252 C 1090.61 -0.52401 -1.94774 0
M  V30 11253 C 1090.92 0.934645 -1.71825 0
M  V30 11254 O 1092.13 1.41953 -2.31434 0
M  V30 11255 C 1090.58 -0.886262 -3.48817 0
M  V30 11256 C 1090.19 -2.3638 -3.80564 0
M  V30 11257 C 1091.94 -0.578955 -4.20533 0
M  V30 11258 C 1089.84 -2.66682 -5.27858 0
M  V30 11259 H 1088.77 -0.192244 -0.72908 0
M  V30 11260 H 1091.42 -1.09852 -1.46986 0
M  V30 11261 H 1089.81 -0.240666 -3.95268 0
M  V30 11262 H 1090.98 -3.05508 -3.44966 0
M  V30 11263 H 1089.29 -2.64029 -3.2199 0
M  V30 11264 H 1091.89 -0.782185 -5.28948 0
M  V30 11265 H 1092.23 0.482605 -4.13493 0
M  V30 11266 H 1092.77 -1.18246 -3.79819 0
M  V30 11267 H 1089.51 -3.71643 -5.39965 0
M  V30 11268 H 1089.03 -2.02179 -5.64698 0
M  V30 11269 H 1090.71 -2.53033 -5.95469 0
M  V30 11270 N 1090.84 1.42931 -0.663954 0
M  V30 11271 C 1092.08 2.03557 -0.185479 0
M  V30 11272 C 1092.44 1.51309 1.18193 0
M  V30 11273 O 1093.64 2.03649 1.75444 0
M  V30 11274 C 1091.91 3.56802 -0.206705 0
M  V30 11275 S 1093.47 4.38333 0.202356 0
M  V30 11276 H 1090.29 0.706791 -0.0772523 0
M  V30 11277 H 1092.89 1.74841 -0.874688 0
M  V30 11278 H 1091.6 3.92328 -1.20445 0
M  V30 11279 H 1091.13 3.90175 0.502693 0
M  V30 11280 H 1093.14 4.7489 1.43853 0
M  V30 11281 N 1092.32 0.406567 1.52266 0
M  V30 11282 C 1093.25 -0.45552 2.24628 0
M  V30 11283 C 1094.26 -1.01234 1.27497 0
M  V30 11284 O 1095.45 -0.911718 1.5346 0
M  V30 11285 C 1092.55 -1.64578 2.96256 0
M  V30 11286 C 1091.72 -1.2133 4.20235 0
M  V30 11287 C 1090.78 -2.27018 4.7471 0
M  V30 11288 O 1089.81 -1.87714 5.37357 0
M  V30 11289 N 1091.01 -3.5915 4.56061 0
M  V30 11290 H 1093.77 0.164525 2.99248 0
M  V30 11291 H 1091.34 0.233812 1.60203 0
M  V30 11292 H 1093.33 -2.3484 3.29594 0
M  V30 11293 H 1091.9 -2.1718 2.24837 0
M  V30 11294 H 1091.12 -0.338892 3.92741 0
M  V30 11295 H 1092.41 -0.901268 5.00754 0
M  V30 11296 H 1091.8 -3.93834 4.06092 0
M  V30 11297 H 1090.36 -4.25397 4.93843 0
M  V30 11298 N 1093.79 -1.57004 0.136909 0
M  V30 11299 C 1095.21 -1.82675 -0.385577 0
M  V30 11300 C 1095.56 -1.05508 -1.65416 0
M  V30 11301 O 1094.68 -0.297207 -2.14349 0
M  V30 11302 C 1095.28 -3.31356 -0.706326 0
M  V30 11303 C 1093.84 -3.57644 -1.17337 0
M  V30 11304 C 1092.98 -2.7664 -0.191239 0
M  V30 11305 H 1095.93 -1.54522 0.36177 0
M  V30 11306 H 1095.95 -3.4696 -1.56201 0
M  V30 11307 H 1095.47 -3.87492 0.217147 0
M  V30 11308 H 1093.57 -3.06883 -2.11313 0
M  V30 11309 H 1093.68 -4.66152 -1.10632 0
M  V30 11310 H 1092.04 -2.45403 -0.681867 0
M  V30 11311 H 1092.83 -3.35543 0.725647 0
M  V30 11312 N 1095.27 0.136881 -1.57004 0
M  V30 11313 C 1096.51 0.853873 -1.8571 0
M  V30 11314 C 1096.88 1.77885 -0.722556 0
M  V30 11315 O 1098.08 2.53606 -0.89092 0
M  V30 11316 C 1096.35 1.59935 -3.19618 0
M  V30 11317 S 1097.91 2.36038 -3.69908 0
M  V30 11318 H 1094.73 0.285342 -0.65123 0
M  V30 11319 H 1097.33 0.113254 -1.95172 0
M  V30 11320 H 1096.03 0.91148 -4.0015 0
M  V30 11321 H 1095.56 2.38069 -3.13188 0
M  V30 11322 H 1097.58 3.61425 -3.3998 0
M  V30 11323 N 1096.75 1.52266 0.40654 0
M  V30 11324 C 1097.66 1.78688 1.52012 0
M  V30 11325 C 1098.68 0.6726 1.60475 0
M  V30 11326 O 1099.85 0.95829 1.77141 0
M  V30 11327 C 1096.92 1.93434 2.87722 0
M  V30 11328 C 1095.98 3.17341 2.89125 0
M  V30 11329 C 1095.21 3.31374 4.18362 0
M  V30 11330 O 1095.43 2.50613 5.12396 0
M  V30 11331 O 1094.37 4.24539 4.26674 0
M  V30 11332 H 1098.19 2.73213 1.3262 0
M  V30 11333 H 1095.78 1.37142 0.592653 0
M  V30 11334 H 1097.66 2.04941 3.68208 0
M  V30 11335 H 1096.34 1.02099 3.07177 0
M  V30 11336 H 1095.24 3.1129 2.07483 0
M  V30 11337 H 1096.58 4.08466 2.7462 0
M  V30 11338 N 1098.23 -0.663929 1.42933 0
M  V30 11339 C 1099.47 -1.43583 1.45476 0
M  V30 11340 C 1099.83 -1.91862 0.0728387 0
M  V30 11341 O 1101.03 -2.68786 -0.0270249 0
M  V30 11342 C 1099.3 -2.59316 2.45947 0
M  V30 11343 S 1100.86 -3.48004 2.6728 0
M  V30 11344 H 1097.68 -0.490261 0.514942 0
M  V30 11345 H 1100.28 -0.771834 1.79619 0
M  V30 11346 H 1098.99 -2.22104 3.45106 0
M  V30 11347 H 1098.52 -3.30577 2.13266 0
M  V30 11348 H 1100.53 -4.55677 1.96399 0
M  V30 11349 N 1099.71 -1.29285 -0.901281 0
M  V30 11350 C 1100.66 -1.10907 -1.99208 0
M  V30 11351 C 1101.64 -0.0289641 -1.60874 0
M  V30 11352 O 1102.83 -0.2505 -1.75218 0
M  V30 11353 C 1099.96 -0.785997 -3.34181 0
M  V30 11354 C 1099.05 -1.90556 -3.78879 0
M  V30 11355 N 1099.44 -3.14888 -3.95827 0
M  V30 11356 C 1097.74 -1.79824 -4.08141 0
M  V30 11357 C 1098.44 -3.87919 -4.33467 0
M  V30 11358 N 1097.41 -3.15852 -4.42424 0
M  V30 11359 H 1101.22 -2.05227 -2.10379 0
M  V30 11360 H 1098.73 -1.20387 -1.08999 0
M  V30 11361 H 1100.73 -0.635381 -4.1203 0
M  V30 11362 H 1099.39 0.149302 -3.24357 0
M  V30 11363 H 1100.4 -3.5036 -3.81403 0
M  V30 11364 H 1097.07 -0.935548 -4.06883 0
M  V30 11365 H 1098.46 -4.94909 -4.54439 0
M  V30 11366 N 1101.18 1.11143 -1.11736 0
M  V30 11367 C 1102.43 1.82586 -0.866412 0
M  V30 11368 C 1102.75 1.85227 0.609593 0
M  V30 11369 O 1102.02 1.32505 1.44288 0
M  V30 11370 H 1100.6 0.676149 -0.31754 0
M  V30 11371 H 1103.27 1.34516 -1.41037 0
M  V30 11372 H 1102.36 2.8635 -1.24136 0
M  V30 11373 N 1102.66 0.908147 1.28804 0
M  V30 11374 C 1103.61 0.363504 2.25084 0
M  V30 11375 C 1104.6 -0.52121 1.52224 0
M  V30 11376 O 1105.79 -0.361848 1.73262 0
M  V30 11377 C 1102.92 -0.400353 3.40958 0
M  V30 11378 C 1102 0.499761 4.21145 0
M  V30 11379 N 1102.39 1.61082 4.79464 0
M  V30 11380 C 1100.69 0.299108 4.44996 0
M  V30 11381 C 1101.39 2.16906 5.39747 0
M  V30 11382 N 1100.37 1.46103 5.23598 0
M  V30 11383 H 1104.17 1.21212 2.6774 0
M  V30 11384 H 1101.69 0.760159 1.43511 0
M  V30 11385 H 1103.68 -0.807343 4.09008 0
M  V30 11386 H 1102.34 -1.24613 2.99836 0
M  V30 11387 H 1103.35 1.99347 4.77997 0
M  V30 11388 H 1100.03 -0.507611 4.14403 0
M  V30 11389 H 1101.42 3.10338 5.95936 0
M  V30 11390 N 1104.14 -1.42577 0.671525 0
M  V30 11391 C 1105.1 -2.292 0.000392482 0
M  V30 11392 C 1106.1 -1.43158 -0.732294 0
M  V30 11393 O 1107.29 -1.64583 -0.570789 0
M  V30 11394 C 1104.43 -3.25591 -1.01013 0
M  V30 11395 H 1105.62 -2.90037 0.762783 0
M  V30 11396 H 1103.17 -1.50162 0.433703 0
M  V30 11397 H 1103.91 -2.69685 -1.80112 0
M  V30 11398 H 1103.69 -3.89049 -0.488183 0
M  V30 11399 H 1105.18 -3.90561 -1.47824 0
M  V30 11400 N 1105.62 -0.414636 -1.52048 0
M  V30 11401 C 1106.58 0.396285 -2.25748 0
M  V30 11402 C 1107.58 0.969003 -1.28324 0
M  V30 11403 O 1108.77 0.847016 -1.52221 0
M  V30 11404 C 1105.9 1.55838 -3.03195 0
M  V30 11405 H 1107.1 -0.249311 -2.98862 0
M  V30 11406 H 1104.65 -0.167276 -1.55402 0
M  V30 11407 H 1105.38 2.24068 -2.34444 0
M  V30 11408 H 1105.17 1.15414 -3.74729 0
M  V30 11409 H 1106.66 2.13187 -3.59084 0
M  V30 11410 N 1107.1 1.56929 -0.145233 0
M  V30 11411 C 1108.01 2.20238 0.808219 0
M  V30 11412 C 1109.02 1.18615 1.27304 0
M  V30 11413 O 1110.2 1.51186 1.3306 0
M  V30 11414 C 1107.26 2.81016 2.03055 0
M  V30 11415 C 1106.32 3.97759 1.61512 0
M  V30 11416 C 1105.56 4.55628 2.77918 0
M  V30 11417 O 1105.78 4.12378 3.94082 0
M  V30 11418 O 1104.71 5.45917 2.53492 0
M  V30 11419 H 1108.54 3.02221 0.299314 0
M  V30 11420 H 1106.13 1.49176 0.0817051 0
M  V30 11421 H 1108.01 3.19652 2.74592 0
M  V30 11422 H 1106.68 2.02047 2.52901 0
M  V30 11423 H 1105.59 3.63842 0.870033 0
M  V30 11424 H 1106.92 4.78242 1.16383 0
M  V30 11425 N 1108.58 -0.128553 1.57075 0
M  V30 11426 C 1109.82 -0.844012 1.86161 0
M  V30 11427 C 1110.18 -1.77499 0.73198 0
M  V30 11428 O 1111.38 -2.5313 0.904357 0
M  V30 11429 C 1109.65 -1.58238 3.20462 0
M  V30 11430 S 1111.21 -2.34073 3.71154 0
M  V30 11431 H 1108.03 -0.281884 0.652734 0
M  V30 11432 H 1110.63 -0.102902 1.95229 0
M  V30 11433 H 1109.33 -0.890246 4.00628 0
M  V30 11434 H 1108.87 -2.36404 3.14446 0
M  V30 11435 H 1110.88 -3.59617 3.41892 0
M  V30 11436 N 1110.05 -1.5248 -0.398459 0
M  V30 11437 C 1111 -1.77211 -1.50662 0
M  V30 11438 C 1112 -0.639638 -1.5686 0
M  V30 11439 O 1113.2 -0.821917 -1.60139 0
M  V30 11440 H 1109.58 -0.56057 -0.501264 0
M  V30 11441 H 1111.55 -2.70028 -1.26993 0
M  V30 11442 C 1110.3 -1.94944 -2.8791 0
M  V30 11443 H 1109.62 -2.8151 -2.83888 0
M  V30 11444 H 1111.06 -2.16243 -3.64712 0
M  V30 11445 C 1109.52 -0.719402 -3.29129 0
M  V30 11446 O 1110.05 0.107671 -4.01556 0
M  V30 11447 N 1108.25 -0.552228 -2.85305 0
M  V30 11448 H 1107.8 -1.22638 -2.26534 0
M  V30 11449 H 1107.76 0.269447 -3.13243 0
M  V30 11450 N 1111.53 0.65634 -1.43283 0
M  V30 11451 C 1112.78 1.41837 -1.44949 0
M  V30 11452 C 1113.11 1.94065 -0.0723212 0
M  V30 11453 O 1112.39 1.72092 0.906346 0
M  V30 11454 C 1112.67 2.60206 -2.48927 0
M  V30 11455 C 1112.52 2.1349 -3.95907 0
M  V30 11456 C 1113.84 3.62421 -2.49678 0
M  V30 11457 H 1110.96 0.514398 -0.527792 0
M  V30 11458 H 1113.6 0.74435 -1.74813 0
M  V30 11459 H 1111.75 3.17708 -2.23592 0
M  V30 11460 H 1113.42 1.61012 -4.32288 0
M  V30 11461 H 1111.67 1.4489 -4.08888 0
M  V30 11462 H 1112.34 2.98596 -4.64268 0
M  V30 11463 H 1114.81 3.14671 -2.72252 0
M  V30 11464 H 1113.69 4.42798 -3.24378 0
M  V30 11465 H 1113.95 4.14802 -1.52944 0
M  V30 11466 N 1113.01 1.29761 0.894412 0
M  V30 11467 C 1113.96 1.11962 1.98617 0
M  V30 11468 C 1114.94 0.0374952 1.60856 0
M  V30 11469 O 1116.14 0.259789 1.75083 0
M  V30 11470 C 1113.26 0.803708 3.3376 0
M  V30 11471 C 1112.35 1.92563 3.77863 0
M  V30 11472 N 1112.74 3.16983 3.94152 0
M  V30 11473 C 1111.04 1.81986 4.07182 0
M  V30 11474 C 1111.74 3.90212 4.31404 0
M  V30 11475 N 1110.72 3.18194 4.40742 0
M  V30 11476 H 1114.52 2.06339 2.09287 0
M  V30 11477 H 1112.03 1.20963 1.08359 0
M  V30 11478 H 1114.03 0.657223 4.11687 0
M  V30 11479 H 1112.69 -0.132098 3.24431 0
M  V30 11480 H 1113.7 3.52378 3.79539 0
M  V30 11481 H 1110.38 0.957112 4.06381 0
M  V30 11482 H 1111.77 4.97312 4.51808 0
M  V30 11483 N 1114.49 -1.10549 1.12324 0
M  V30 11484 C 1115.74 -1.82124 0.876083 0
M  V30 11485 C 1116.06 -1.85547 -0.599761 0
M  V30 11486 O 1115.33 -1.33269 -1.43584 0
M  V30 11487 H 1113.91 -0.674455 0.321122 0
M  V30 11488 H 1116.57 -1.33766 1.41748 0
M  V30 11489 H 1115.66 -2.85688 1.25653 0
M  V30 11490 N 1115.97 -0.914965 -1.28321 0
M  V30 11491 C 1117.21 -0.549562 -1.95212 0
M  V30 11492 C 1117.54 0.904658 -1.71842 0
M  V30 11493 O 1116.82 1.64354 -1.04009 0
M  V30 11494 C 1117.1 -0.860927 -3.49657 0
M  V30 11495 C 1116.96 -2.36797 -3.82423 0
M  V30 11496 C 1118.27 -0.357926 -4.38642 0
M  V30 11497 H 1115.39 -0.201136 -0.709023 0
M  V30 11498 H 1118.04 -1.14443 -1.51667 0
M  V30 11499 H 1116.19 -0.354665 -3.86878 0
M  V30 11500 H 1117.86 -2.94494 -3.55065 0
M  V30 11501 H 1116.1 -2.82245 -3.29424 0
M  V30 11502 H 1116.77 -2.53637 -4.90278 0
M  V30 11503 H 1119.25 -0.791636 -4.085 0
M  V30 11504 H 1118.12 -0.604855 -5.45557 0
M  V30 11505 H 1118.38 0.741775 -4.35833 0
M  V30 11506 N 1117.44 1.42219 -0.679077 0
M  V30 11507 C 1118.68 2.03349 -0.207058 0
M  V30 11508 C 1119.05 1.52554 1.16581 0
M  V30 11509 O 1120.25 2.05499 1.73274 0
M  V30 11510 C 1118.52 3.56562 -0.244537 0
M  V30 11511 S 1120.08 4.38523 0.155853 0
M  V30 11512 H 1116.9 0.705932 -0.0847444 0
M  V30 11513 H 1119.5 1.73904 -0.893183 0
M  V30 11514 H 1118.2 3.91028 -1.246 0
M  V30 11515 H 1117.73 3.90686 0.461282 0
M  V30 11516 H 1119.75 4.76389 1.38808 0
M  V30 11517 N 1118.92 0.422693 1.51826 0
M  V30 11518 C 1120.17 -0.150066 2.01141 0
M  V30 11519 C 1120.48 -1.45059 1.31214 0
M  V30 11520 O 1121.69 -2.10542 1.71419 0
M  V30 11521 C 1120.15 -0.317985 3.58492 0
M  V30 11522 C 1119.75 0.971244 4.37345 0
M  V30 11523 C 1121.5 -0.845303 4.15999 0
M  V30 11524 C 1119.4 0.769769 5.86369 0
M  V30 11525 H 1118.33 -0.0598567 0.75162 0
M  V30 11526 H 1120.99 0.550217 1.75057 0
M  V30 11527 H 1119.37 -1.08092 3.80962 0
M  V30 11528 H 1120.54 1.74138 4.26629 0
M  V30 11529 H 1118.86 1.42599 3.91222 0
M  V30 11530 H 1121.45 -1.01229 5.2503 0
M  V30 11531 H 1121.8 -1.82375 3.74226 0
M  V30 11532 H 1122.33 -0.141067 3.9755 0
M  V30 11533 H 1119.07 1.72017 6.32527 0
M  V30 11534 H 1118.59 0.0391717 5.99787 0
M  V30 11535 H 1120.27 0.417225 6.45653 0
M  V30 11536 N 1120.4 -1.5685 0.153553 0
M  V30 11537 C 1121.36 -2.15894 -0.769564 0
M  V30 11538 C 1122.36 -1.10239 -1.17064 0
M  V30 11539 O 1123.55 -1.35845 -1.09049 0
M  V30 11540 C 1120.68 -2.72738 -2.04516 0
M  V30 11541 H 1121.88 -2.98807 -0.255842 0
M  V30 11542 H 1119.43 -1.56005 -0.0959279 0
M  V30 11543 H 1120.17 -1.9351 -2.60239 0
M  V30 11544 H 1119.95 -3.50042 -1.76672 0
M  V30 11545 H 1121.44 -3.18208 -2.70432 0
M  V30 11546 N 1121.88 0.120221 -1.57141 0
M  V30 11547 C 1123.12 0.834128 -1.86606 0
M  V30 11548 C 1123.48 1.77109 -0.741383 0
M  V30 11549 O 1124.68 2.52647 -0.917769 0
M  V30 11550 C 1122.95 1.56536 -3.21296 0
M  V30 11551 S 1124.51 2.32101 -3.7239 0
M  V30 11552 H 1121.33 0.278419 -0.65422 0
M  V30 11553 H 1123.93 0.0925474 -1.95281 0
M  V30 11554 H 1122.64 0.868987 -4.01094 0
M  V30 11555 H 1122.17 2.34734 -3.15696 0
M  V30 11556 H 1124.18 3.57799 -3.43794 0
M  V30 11557 N 1123.36 1.52689 0.390367 0
M  V30 11558 C 1124.32 1.76726 1.45947 0
M  V30 11559 C 1125.32 0.637269 1.47633 0
M  V30 11560 O 1126.51 0.905312 1.48828 0
M  V30 11561 C 1123.64 1.86678 2.85244 0
M  V30 11562 H 1124.83 2.72185 1.25918 0
M  V30 11563 H 1122.39 1.4339 0.622023 0
M  V30 11564 H 1123.12 0.931991 3.10619 0
M  V30 11565 H 1122.91 2.68843 2.85422 0
M  V30 11566 H 1124.4 2.06952 3.62713 0
M  V30 11567 N 1124.83 -0.648732 1.43629 0
M  V30 11568 C 1125.78 -1.75473 1.45579 0
M  V30 11569 C 1126.77 -1.57611 0.323683 0
M  V30 11570 O 1127.96 -1.67646 0.56778 0
M  V30 11571 C 1125.09 -3.14083 1.38589 0
M  V30 11572 C 1124.18 -3.37477 2.56846 0
M  V30 11573 N 1124.57 -3.31322 3.82177 0
M  V30 11574 C 1122.86 -3.68212 2.51666 0
M  V30 11575 C 1123.57 -3.54921 4.60875 0
M  V30 11576 N 1122.54 -3.76951 3.91675 0
M  V30 11577 H 1126.34 -1.69146 2.40347 0
M  V30 11578 H 1123.86 -0.850566 1.38344 0
M  V30 11579 H 1125.85 -3.93374 1.38068 0
M  V30 11580 H 1124.51 -3.21588 0.448442 0
M  V30 11581 H 1125.53 -3.10633 4.144 0
M  V30 11582 H 1122.2 -3.82806 1.66631 0
M  V30 11583 H 1123.59 -3.55904 5.69897 0
M  V30 11584 N 1126.31 -1.30234 -0.887518 0
M  V30 11585 C 1127.26 -1.16302 -2.01436 0
M  V30 11586 C 1128.25 -0.0755422 -1.69231 0
M  V30 11587 O 1129.46 -0.236213 -1.78443 0
M  V30 11588 H 1125.84 -0.35961 -0.660443 0
M  V30 11589 H 1127.81 -2.11677 -2.10322 0
M  V30 11590 C 1126.56 -0.869009 -3.36665 0
M  V30 11591 H 1125.88 -1.69787 -3.61956 0
M  V30 11592 H 1127.32 -0.811621 -4.16159 0
M  V30 11593 C 1125.78 0.428021 -3.3417 0
M  V30 11594 O 1126.31 1.45033 -3.74604 0
M  V30 11595 N 1124.51 0.438264 -2.87276 0
M  V30 11596 H 1124.06 -0.394142 -2.54567 0
M  V30 11597 H 1124.02 1.30604 -2.85989 0
M  V30 11598 N 1127.79 1.09952 -1.12909 0
M  V30 11599 C 1129.02 1.8579 -0.910483 0
M  V30 11600 C 1129.43 1.80898 0.540484 0
M  V30 11601 O 1128.79 1.20126 1.3739 0
M  V30 11602 C 1128.84 3.33987 -1.38329 0
M  V30 11603 O 1128.56 3.38811 -2.77739 0
M  V30 11604 C 1130.06 4.26683 -1.20234 0
M  V30 11605 H 1127.28 0.587026 -0.325025 0
M  V30 11606 H 1129.83 1.38965 -1.5003 0
M  V30 11607 H 1127.98 3.78259 -0.836592 0
M  V30 11608 H 1128.4 4.31204 -2.98603 0
M  V30 11609 H 1129.87 5.28846 -1.58197 0
M  V30 11610 H 1130.35 4.38966 -0.14344 0
M  V30 11611 H 1130.95 3.88221 -1.73679 0
M  V30 11612 N 1129.27 0.921757 1.27833 0
M  V30 11613 C 1130.5 0.575202 1.98744 0
M  V30 11614 C 1130.91 -0.845405 1.68815 0
M  V30 11615 O 1130.27 -1.56106 0.94536 0
M  V30 11616 C 1130.32 0.784389 3.52888 0
M  V30 11617 O 1130.04 2.1491 3.81766 0
M  V30 11618 C 1131.54 0.445744 4.41053 0
M  V30 11619 H 1128.76 0.218525 0.634419 0
M  V30 11620 H 1131.31 1.23715 1.62834 0
M  V30 11621 H 1129.46 0.169323 3.8703 0
M  V30 11622 H 1129.87 2.19469 4.76375 0
M  V30 11623 H 1131.35 0.64284 5.48244 0
M  V30 11624 H 1131.83 -0.618433 4.34824 0
M  V30 11625 H 1132.43 1.03869 4.12421 0
M  V30 11626 N 1130.75 -1.41857 0.686609 0
M  V30 11627 C 1131.99 -2.0097 0.213378 0
M  V30 11628 C 1132.32 -1.54618 -1.1882 0
M  V30 11629 O 1131.59 -0.772916 -1.80008 0
M  V30 11630 H 1130.17 -0.743134 0.0758968 0
M  V30 11631 H 1132.83 -1.73609 0.885763 0
M  V30 11632 H 1131.92 -3.11296 0.223826 0
M  V30 11633 N 1132.22 -0.430739 -1.51599 0
M  V30 11634 C 1133.47 0.138133 -2.02329 0
M  V30 11635 C 1133.8 1.42934 -1.31466 0
M  V30 11636 O 1133.08 1.89743 -0.427551 0
M  V30 11637 C 1133.36 0.363677 -3.58259 0
M  V30 11638 C 1133.21 -0.94572 -4.39746 0
M  V30 11639 C 1134.53 1.13637 -4.25176 0
M  V30 11640 H 1131.65 0.0487287 -0.735387 0
M  V30 11641 H 1134.29 -0.568444 -1.81297 0
M  V30 11642 H 1132.44 0.965552 -3.7631 0
M  V30 11643 H 1134.12 -1.58107 -4.33359 0
M  V30 11644 H 1132.36 -1.55183 -4.05094 0
M  V30 11645 H 1133.03 -0.742031 -5.4699 0
M  V30 11646 H 1135.51 0.626608 -4.11355 0
M  V30 11647 H 1134.38 1.26294 -5.34173 0
M  V30 11648 H 1134.64 2.16273 -3.85588 0
M  V30 11649 N 1133.7 1.56767 -0.161869 0
M  V30 11650 C 1134.65 2.1409 0.784183 0
M  V30 11651 C 1135.64 1.07262 1.19932 0
M  V30 11652 O 1136.83 1.33406 1.16326 0
M  V30 11653 C 1133.96 2.77778 2.01729 0
M  V30 11654 C 1133.04 3.91751 1.62457 0
M  V30 11655 N 1133.43 4.96972 0.940888 0
M  V30 11656 C 1131.73 4.02735 1.91626 0
M  V30 11657 C 1132.43 5.76858 0.748946 0
M  V30 11658 N 1131.41 5.28134 1.28745 0
M  V30 11659 H 1135.21 2.92811 0.252763 0
M  V30 11660 H 1132.73 1.62353 0.0391501 0
M  V30 11661 H 1134.72 3.17216 2.70517 0
M  V30 11662 H 1133.38 2.00535 2.55374 0
M  V30 11663 H 1134.39 5.14413 0.599981 0
M  V30 11664 H 1131.07 3.36585 2.47016 0
M  V30 11665 H 1132.46 6.71575 0.208991 0
M  V30 11666 N 1135.18 -0.111886 1.57202 0
M  V30 11667 C 1136.42 -0.82422 1.87045 0
M  V30 11668 C 1136.78 -1.76713 0.750765 0
M  V30 11669 O 1137.99 -2.52157 0.931154 0
M  V30 11670 C 1136.26 -1.5483 3.22122 0
M  V30 11671 S 1137.82 -2.30123 3.73616 0
M  V30 11672 H 1134.63 -0.274945 0.655687 0
M  V30 11673 H 1137.24 -0.0821899 1.95327 0
M  V30 11674 H 1135.94 -0.847704 4.0155 0
M  V30 11675 H 1135.47 -2.33056 3.16936 0
M  V30 11676 H 1137.49 -3.5597 3.45687 0
M  V30 11677 N 1136.66 -1.52894 -0.382264 0
M  V30 11678 C 1137.57 -1.81084 -1.4915 0
M  V30 11679 C 1138.58 -0.698045 -1.59384 0
M  V30 11680 O 1139.76 -0.98635 -1.75594 0
M  V30 11681 C 1136.83 -1.97987 -2.84608 0
M  V30 11682 C 1135.89 -3.219 -2.8404 0
M  V30 11683 C 1135.12 -3.37988 -4.13037 0
M  V30 11684 O 1135.34 -2.58733 -5.08344 0
M  V30 11685 O 1134.28 -4.31273 -4.19866 0
M  V30 11686 H 1138.1 -2.75289 -1.28257 0
M  V30 11687 H 1135.69 -1.38068 -0.57076 0
M  V30 11688 H 1137.57 -2.10773 -3.64901 0
M  V30 11689 H 1136.24 -1.06972 -3.05514 0
M  V30 11690 H 1135.15 -3.14551 -2.02505 0
M  V30 11691 H 1136.48 -4.12783 -2.68087 0
M  V30 11692 N 1138.14 0.641106 -1.43971 0
M  V30 11693 C 1139.07 1.76645 -1.46046 0
M  V30 11694 C 1140.08 1.58881 -0.355049 0
M  V30 11695 O 1141.27 1.67379 -0.620207 0
M  V30 11696 C 1138.37 3.14237 -1.26918 0
M  V30 11697 C 1137.54 3.5855 -2.50521 0
M  V30 11698 C 1136.6 4.74986 -2.26438 0
M  V30 11699 O 1135.63 4.83807 -2.99866 0
M  V30 11700 N 1136.83 5.66016 -1.28866 0
M  V30 11701 H 1139.6 1.75339 -2.43056 0
M  V30 11702 H 1137.16 0.82535 -1.39282 0
M  V30 11703 H 1139.15 3.89837 -1.0867 0
M  V30 11704 H 1137.72 3.10244 -0.383082 0
M  V30 11705 H 1136.94 2.73265 -2.84112 0
M  V30 11706 H 1138.23 3.84906 -3.32754 0
M  V30 11707 H 1137.63 5.61574 -0.682018 0
M  V30 11708 H 1136.18 6.41286 -1.16599 0
M  V30 11709 N 1139.62 1.30703 0.880598 0
M  V30 11710 C 1140.86 1.21066 1.64688 0
M  V30 11711 C 1141.22 -0.230015 1.90617 0
M  V30 11712 O 1142.42 -0.449696 2.65012 0
M  V30 11713 C 1140.69 2.02072 2.94791 0
M  V30 11714 S 1142.25 2.09182 3.85731 0
M  V30 11715 H 1139.07 0.431369 0.565192 0
M  V30 11716 H 1141.67 1.65234 1.04489 0
M  V30 11717 H 1140.37 3.05851 2.73648 0
M  V30 11718 H 1139.91 1.58583 3.60021 0
M  V30 11719 H 1141.92 1.22239 4.80908 0
M  V30 11720 N 1141.09 -1.09351 1.1349 0
M  V30 11721 C 1142.02 -2.18037 0.835588 0
M  V30 11722 C 1143 -1.68856 -0.205373 0
M  V30 11723 O 1144.19 -1.94094 -0.0641357 0
M  V30 11724 C 1141.32 -3.45987 0.301661 0
M  V30 11725 C 1140.27 -4.08507 1.27696 0
M  V30 11726 C 1139.6 -5.31292 0.602758 0
M  V30 11727 C 1140.9 -4.50916 2.63575 0
M  V30 11728 H 1142.59 -2.43332 1.74441 0
M  V30 11729 H 1140.14 -1.1695 0.840166 0
M  V30 11730 H 1142.09 -4.21324 0.079928 0
M  V30 11731 H 1140.82 -3.20217 -0.642552 0
M  V30 11732 H 1139.48 -3.3519 1.4847 0
M  V30 11733 H 1139.12 -5.01802 -0.346953 0
M  V30 11734 H 1138.82 -5.74075 1.25345 0
M  V30 11735 H 1140.35 -6.09351 0.390325 0
M  V30 11736 H 1141.76 -5.17474 2.46765 0
M  V30 11737 H 1140.16 -5.04586 3.24827 0
M  V30 11738 H 1141.23 -3.63279 3.2118 0
M  V30 11739 N 1142.57 -0.928524 -1.27343 0
M  V30 11740 C 1143.98 -0.613856 -1.7632 0
M  V30 11741 C 1144.33 0.870983 -1.75808 0
M  V30 11742 O 1143.46 1.68155 -1.36209 0
M  V30 11743 C 1144.05 -1.10755 -3.20186 0
M  V30 11744 C 1142.61 -0.843532 -3.66826 0
M  V30 11745 C 1141.76 -1.26579 -2.46724 0
M  V30 11746 H 1144.71 -1.10821 -1.13598 0
M  V30 11747 H 1144.73 -0.455598 -3.77763 0
M  V30 11748 H 1144.24 -2.18825 -3.20526 0
M  V30 11749 H 1142.34 0.223334 -3.7193 0
M  V30 11750 H 1142.46 -1.46165 -4.56259 0
M  V30 11751 H 1140.82 -0.684334 -2.45334 0
M  V30 11752 H 1141.6 -2.35516 -2.49774 0
M  V30 11753 N 1144.05 1.41491 -0.694123 0
M  V30 11754 C 1145.3 2.00854 -0.224033 0
M  V30 11755 C 1145.62 1.55246 1.17999 0
M  V30 11756 O 1144.89 0.782452 1.79595 0
M  V30 11757 H 1143.47 0.742721 -0.0798368 0
M  V30 11758 H 1146.13 1.73137 -0.894958 0
M  V30 11759 H 1145.23 3.11173 -0.240332 0
M  V30 11760 N 1145.53 0.438773 1.51369 0
M  V30 11761 C 1146.77 -0.127213 2.021 0
M  V30 11762 C 1147.1 -1.42587 1.32284 0
M  V30 11763 O 1146.36 -1.90986 0.426949 0
M  V30 11764 C 1146.66 -0.39186 3.55245 0
M  V30 11765 C 1146.32 0.821158 4.4336 0
M  V30 11766 C 1144.98 1.15381 4.67162 0
M  V30 11767 C 1147.34 1.6303 4.95046 0
M  V30 11768 C 1144.66 2.29626 5.39897 0
M  V30 11769 C 1147.02 2.76376 5.69033 0
M  V30 11770 C 1145.68 3.10094 5.91099 0
M  V30 11771 H 1144.95 -0.0465505 0.739536 0
M  V30 11772 H 1147.6 0.586261 1.82305 0
M  V30 11773 H 1145.9 -1.18724 3.73379 0
M  V30 11774 H 1147.6 -0.843228 3.92034 0
M  V30 11775 H 1144.19 0.551946 4.25031 0
M  V30 11776 H 1148.37 1.38651 4.76539 0
M  V30 11777 H 1143.63 2.56062 5.55196 0
M  V30 11778 H 1147.8 3.39442 6.08072 0
M  V30 11779 H 1145.43 3.98731 6.47238 0
M  V30 11780 N 1147.01 -1.56678 0.170181 0
M  V30 11781 C 1148.24 -2.00931 -0.480664 0
M  V30 11782 C 1148.64 -1.04947 -1.57425 0
M  V30 11783 O 1147.99 -0.042229 -1.83651 0
M  V30 11784 C 1148.05 -3.4161 -1.11996 0
M  V30 11785 C 1147.71 -4.5669 -0.168167 0
M  V30 11786 C 1148.71 -5.16273 0.613059 0
M  V30 11787 C 1146.39 -5.02259 -0.0643243 0
M  V30 11788 C 1148.39 -6.19852 1.48534 0
M  V30 11789 C 1146.08 -6.05687 0.811542 0
M  V30 11790 C 1147.07 -6.64355 1.58496 0
M  V30 11791 O 1146.76 -7.65778 2.44619 0
M  V30 11792 H 1146.49 -0.66386 -0.12754 0
M  V30 11793 H 1149.05 -2.03635 0.2687 0
M  V30 11794 H 1147.28 -3.35815 -1.91743 0
M  V30 11795 H 1148.97 -3.69823 -1.67289 0
M  V30 11796 H 1149.73 -4.81951 0.542999 0
M  V30 11797 H 1145.61 -4.56307 -0.656102 0
M  V30 11798 H 1149.16 -6.65572 2.08948 0
M  V30 11799 H 1145.05 -6.39435 0.88281 0
M  V30 11800 H 1145.82 -7.83096 2.38122 0
M  V30 11801 N 1148.48 0.103547 -1.57259 0
M  V30 11802 C 1149.73 0.806979 -1.8529 0
M  V30 11803 C 1150.05 1.79679 -0.757653 0
M  V30 11804 O 1149.32 1.94695 0.216913 0
M  V30 11805 H 1147.9 0.301012 -0.683667 0
M  V30 11806 H 1150.56 0.0871886 -1.94705 0
M  V30 11807 H 1149.66 1.34275 -2.81738 0
M  V30 11808 N 1149.96 1.53094 0.37415 0
M  V30 11809 C 1150.87 1.81872 1.48188 0
M  V30 11810 C 1151.89 0.706487 1.59012 0
M  V30 11811 O 1153.06 0.995648 1.75068 0
M  V30 11812 C 1150.13 1.99494 2.83554 0
M  V30 11813 C 1149.19 3.23402 2.82329 0
M  V30 11814 C 1148.42 3.40174 4.11239 0
M  V30 11815 O 1148.65 2.61425 5.06965 0
M  V30 11816 O 1147.58 4.33493 4.17573 0
M  V30 11817 H 1151.41 2.75965 1.26795 0
M  V30 11818 H 1148.99 1.38368 0.56343 0
M  V30 11819 H 1150.87 2.12705 3.63778 0
M  V30 11820 H 1149.55 1.08591 3.04942 0
M  V30 11821 H 1148.45 3.15621 2.00834 0
M  V30 11822 H 1149.79 4.14199 2.65894 0
M  V30 11823 N 1151.44 -0.633461 1.44309 0
M  V30 11824 C 1152.85 -1.21504 1.41752 0
M  V30 11825 C 1153.2 -1.95758 0.131667 0
M  V30 11826 O 1152.33 -2.02311 -0.768072 0
M  V30 11827 C 1152.92 -2.21005 2.56792 0
M  V30 11828 C 1151.48 -2.74596 2.57438 0
M  V30 11829 C 1150.63 -1.49555 2.33513 0
M  V30 11830 H 1153.58 -0.424277 1.52923 0
M  V30 11831 H 1153.6 -3.03563 2.29412 0
M  V30 11832 H 1153.11 -1.66934 3.50364 0
M  V30 11833 H 1151.21 -3.32676 1.67801 0
M  V30 11834 H 1151.33 -3.20794 3.55849 0
M  V30 11835 H 1149.69 -1.77605 1.82561 0
M  V30 11836 H 1150.47 -0.973899 3.29196 0
M  V30 11837 N 1152.92 -1.31168 -0.873655 0
M  V30 11838 C 1154.14 -1.23728 -1.66452 0
M  V30 11839 C 1154.57 0.194869 -1.87088 0
M  V30 11840 O 1153.93 1.1397 -1.40998 0
M  V30 11841 C 1153.97 -1.98285 -3.0119 0
M  V30 11842 O 1153.08 -1.31767 -3.90783 0
M  V30 11843 H 1152.42 -0.427362 -0.508191 0
M  V30 11844 H 1154.95 -1.73176 -1.08955 0
M  V30 11845 H 1154.96 -2.0774 -3.51153 0
M  V30 11846 H 1153.63 -3.02437 -2.8549 0
M  V30 11847 H 1152.21 -1.3074 -3.4923 0
M  V30 11848 N 1154.4 1.08748 -1.14068 0
M  V30 11849 C 1155.81 1.33125 -0.880341 0
M  V30 11850 C 1156.01 1.9569 0.480396 0
M  V30 11851 O 1155.07 2.2077 1.22543 0
M  V30 11852 C 1156.38 2.23618 -2.01036 0
M  V30 11853 C 1157.93 2.37108 -2.04326 0
M  V30 11854 C 1158.4 3.30941 -3.1661 0
M  V30 11855 N 1159.9 3.38517 -3.16166 0
M  V30 11856 C 1160.63 4.11142 -3.99687 0
M  V30 11857 N 1160.13 4.86505 -4.93239 0
M  V30 11858 N 1161.92 4.06938 -3.87761 0
M  V30 11859 H 1154.07 0.665164 -2.01716 0
M  V30 11860 H 1156.33 0.355612 -0.878774 0
M  V30 11861 H 1156.04 1.84885 -2.99183 0
M  V30 11862 H 1155.91 3.24056 -1.93049 0
M  V30 11863 H 1158.3 2.75101 -1.06787 0
M  V30 11864 H 1158.38 1.36424 -2.16384 0
M  V30 11865 H 1158.03 2.93669 -4.14392 0
M  V30 11866 H 1157.96 4.31545 -3.01789 0
M  V30 11867 H 1160.45 2.84786 -2.48405 0
M  V30 11868 H 1160.76 5.39372 -5.53441 0
M  V30 11869 H 1159.1 4.8557 -4.9724 0
M  V30 11870 H 1162.3 3.47166 -3.13996 0
M  V30 11871 H 1162.47 4.63275 -4.53079 0
M  V30 11872 N 1155.87 0.935264 1.26849 0
M  V30 11873 C 1157.12 0.578545 1.93642 0
M  V30 11874 C 1157.44 -0.884296 1.73796 0
M  V30 11875 O 1156.71 -1.62768 1.09011 0
M  V30 11876 H 1155.29 0.210976 0.716588 0
M  V30 11877 H 1157.96 1.1893 1.54407 0
M  V30 11878 H 1157.05 0.791268 3.01903 0
M  V30 11879 N 1157.35 -1.41121 0.701616 0
M  V30 11880 C 1158.58 -2.05452 0.244365 0
M  V30 11881 C 1159 -1.5282 -1.10866 0
M  V30 11882 O 1158.35 -0.67893 -1.69401 0
M  V30 11883 C 1158.4 -3.60946 0.200112 0
M  V30 11884 O 1158.12 -4.11632 1.4997 0
M  V30 11885 C 1159.63 -4.42431 -0.277394 0
M  V30 11886 H 1156.85 -0.66151 0.112453 0
M  V30 11887 H 1159.39 -1.80784 0.9559 0
M  V30 11888 H 1157.54 -3.84632 -0.462287 0
M  V30 11889 H 1157.96 -5.05723 1.39084 0
M  V30 11890 H 1159.43 -5.514 -0.257225 0
M  V30 11891 H 1159.91 -4.1898 -1.31728 0
M  V30 11892 H 1160.52 -4.23822 0.354223 0
M  V30 11893 N 1158.83 -0.446794 -1.51134 0
M  V30 11894 C 1160.24 0.0141132 -1.86695 0
M  V30 11895 C 1160.59 1.41095 -1.36333 0
M  V30 11896 O 1159.72 2.04139 -0.718068 0
M  V30 11897 C 1160.31 0.0323866 -3.38785 0
M  V30 11898 C 1158.87 0.437737 -3.73846 0
M  V30 11899 C 1158.02 -0.363436 -2.74908 0
M  V30 11900 H 1160.97 -0.66221 -1.44224 0
M  V30 11901 H 1160.99 0.839865 -3.71115 0
M  V30 11902 H 1160.5 -0.984374 -3.75409 0
M  V30 11903 H 1158.6 1.45975 -3.42815 0
M  V30 11904 H 1158.72 0.155964 -4.78846 0
M  V30 11905 H 1157.08 0.179566 -2.54066 0
M  V30 11906 H 1157.86 -1.37925 -3.14375 0
M  V30 11907 N 1160.31 1.56586 -0.178487 0
M  V30 11908 C 1161.56 1.96709 0.4637 0
M  V30 11909 C 1161.88 1.06586 1.63292 0
M  V30 11910 O 1161.15 0.133683 1.95443 0
M  V30 11911 H 1159.73 0.726381 0.174299 0
M  V30 11912 H 1162.39 1.9314 -0.261345 0
M  V30 11913 H 1161.49 3.01164 0.818934 0
M  V30 11914 N 1161.79 -0.095206 1.57312 0
M  V30 11915 C 1163.06 -0.830388 1.77099 0
M  V30 11916 C 1163.44 -1.9694 0.760121 0
M  V30 11917 O 1162.79 -2.2752 -0.211403 0
M  V30 11918 C 1163 -1.32507 3.22867 0
M  V30 11919 C 1164.35 -1.7679 3.86045 0
M  V30 11920 O 1165.37 -1.42131 3.26615 0
M  V30 11921 O 1164.23 -2.40876 4.90552 0
M  V30 11922 H 1161.33 -0.396083 0.72598 0
M  V30 11923 H 1163.87 -0.0770965 1.69525 0
M  V30 11924 H 1162.64 -0.508992 3.87975 0
M  V30 11925 H 1162.27 -2.14037 3.35073 0
M  V30 11926 N 1163.26 -1.53291 -0.366026 0
M  V30 11927 C 1164.5 -1.71153 -1.11741 0
M  V30 11928 C 1164.87 -0.453416 -1.86569 0
M  V30 11929 O 1166.07 -0.508724 -2.63942 0
M  V30 11930 C 1164.34 -2.92657 -2.0515 0
M  V30 11931 S 1165.9 -3.31223 -2.87814 0
M  V30 11932 H 1162.72 -0.602251 -0.377909 0
M  V30 11933 H 1165.32 -1.91391 -0.398721 0
M  V30 11934 H 1164.02 -3.8242 -1.48939 0
M  V30 11935 H 1163.55 -2.7482 -2.81492 0
M  V30 11936 H 1165.57 -2.83201 -4.07445 0
M  V30 11937 N 1164.74 0.6258 -1.44643 0
M  V30 11938 C 1165.67 1.75086 -1.47911 0
M  V30 11939 C 1166.69 1.58496 -0.37188 0
M  V30 11940 O 1167.88 1.66712 -0.637925 0
M  V30 11941 C 1164.98 3.12874 -1.30243 0
M  V30 11942 C 1164.15 3.55873 -2.54309 0
M  V30 11943 C 1163.21 4.72558 -2.31464 0
M  V30 11944 O 1162.23 4.80599 -3.04981 0
M  V30 11945 N 1163.44 5.64617 -1.34862 0
M  V30 11946 H 1166.2 1.72751 -2.44902 0
M  V30 11947 H 1163.76 0.810531 -1.4015 0
M  V30 11948 H 1165.75 3.88663 -1.12798 0
M  V30 11949 H 1164.32 3.0982 -0.415966 0
M  V30 11950 H 1163.54 2.70237 -2.86994 0
M  V30 11951 H 1164.83 3.81355 -3.36817 0
M  V30 11952 H 1164.23 5.60819 -0.741542 0
M  V30 11953 H 1162.79 6.40013 -1.23394 0
M  V30 11954 N 1166.22 1.31629 0.866686 0
M  V30 11955 C 1167.63 1.19347 1.43573 0
M  V30 11956 C 1167.98 -0.198765 1.95191 0
M  V30 11957 O 1167.11 -1.09674 1.86549 0
M  V30 11958 C 1167.7 2.16055 2.6097 0
M  V30 11959 C 1166.26 2.07697 3.13909 0
M  V30 11960 C 1165.41 2.05099 1.86627 0
M  V30 11961 H 1168.36 1.43633 0.674929 0
M  V30 11962 H 1168.38 1.75207 3.37761 0
M  V30 11963 H 1167.89 3.17375 2.23371 0
M  V30 11964 H 1165.99 1.09583 3.56121 0
M  V30 11965 H 1166.11 2.96958 3.75969 0
M  V30 11966 H 1164.47 1.50162 2.05727 0
M  V30 11967 H 1165.25 3.0818 1.51261 0
M  V30 11968 N 1167.7 -1.08142 1.14644 0
M  V30 11969 C 1168.94 -1.82183 0.926747 0
M  V30 11970 C 1169.3 -1.8434 -0.53692 0
M  V30 11971 O 1170.5 -2.54172 -0.874651 0
M  V30 11972 C 1168.78 -3.23726 1.51446 0
M  V30 11973 S 1170.33 -4.14612 1.43673 0
M  V30 11974 H 1167.15 -0.627815 0.333721 0
M  V30 11975 H 1169.75 -1.29968 1.46043 0
M  V30 11976 H 1168.46 -3.19741 2.57282 0
M  V30 11977 H 1167.99 -3.81016 0.979289 0
M  V30 11978 H 1170 -4.94384 0.424105 0
M  V30 11979 N 1169.18 -0.941978 -1.26351 0
M  V30 11980 C 1170.14 -0.456768 -2.24602 0
M  V30 11981 C 1171.14 0.432574 -1.54872 0
M  V30 11982 O 1172.33 0.23164 -1.72653 0
M  V30 11983 C 1169.46 0.341583 -3.39184 0
M  V30 11984 H 1170.66 -1.32503 -2.69041 0
M  V30 11985 H 1168.21 -0.724021 -1.38519 0
M  V30 11986 H 1168.94 1.22806 -3.00149 0
M  V30 11987 H 1168.73 -0.296268 -3.90979 0
M  V30 11988 H 1170.22 0.670955 -4.12175 0
M  V30 11989 N 1170.66 1.40747 -0.709091 0
M  V30 11990 C 1171.9 2.02864 -0.250145 0
M  V30 11991 C 1172.26 1.54993 1.13319 0
M  V30 11992 O 1173.46 2.09128 1.68876 0
M  V30 11993 C 1171.73 3.55964 -0.320114 0
M  V30 11994 S 1173.29 4.38755 0.0628008 0
M  V30 11995 H 1170.11 0.703975 -0.0996992 0
M  V30 11996 H 1172.71 1.7197 -0.92987 0
M  V30 11997 H 1171.41 3.88297 -1.32866 0
M  V30 11998 H 1170.95 3.91577 0.378308 0
M  V30 11999 H 1172.96 4.79226 1.28672 0
M  V30 12000 N 1172.13 0.454803 1.50895 0
M  V30 12001 C 1173.54 -0.00421212 1.867 0
M  V30 12002 C 1173.9 -1.4037 1.3708 0
M  V30 12003 O 1173.02 -2.03755 0.728884 0
M  V30 12004 C 1173.62 -0.0144196 3.38797 0
M  V30 12005 C 1172.17 -0.417905 3.74073 0
M  V30 12006 C 1171.32 0.37801 2.74711 0
M  V30 12007 H 1174.27 0.669849 1.4387 0
M  V30 12008 H 1174.29 -0.820172 3.71555 0
M  V30 12009 H 1173.81 1.00427 3.74881 0
M  V30 12010 H 1171.91 -1.44155 3.43584 0
M  V30 12011 H 1172.02 -0.130568 4.78922 0
M  V30 12012 H 1170.38 -0.166089 2.54158 0
M  V30 12013 H 1171.17 1.3959 3.13639 0
M  V30 12014 N 1173.61 -1.56489 0.186789 0
M  V30 12015 C 1174.54 -2.21705 -0.732739 0
M  V30 12016 C 1175.52 -1.17751 -1.22755 0
M  V30 12017 O 1176.71 -1.46231 -1.27789 0
M  V30 12018 C 1173.84 -2.86992 -1.95584 0
M  V30 12019 C 1172.79 -3.97118 -1.59628 0
M  V30 12020 C 1172.12 -4.49529 -2.89531 0
M  V30 12021 C 1173.42 -5.15941 -0.812518 0
M  V30 12022 H 1175.11 -2.98802 -0.189094 0
M  V30 12023 H 1172.66 -1.43722 -0.0895099 0
M  V30 12024 H 1174.61 -3.31295 -2.60426 0
M  V30 12025 H 1173.33 -2.07287 -2.52388 0
M  V30 12026 H 1171.99 -3.53494 -0.971475 0
M  V30 12027 H 1171.64 -3.66596 -3.44407 0
M  V30 12028 H 1171.34 -5.23832 -2.66221 0
M  V30 12029 H 1172.87 -4.96528 -3.55376 0
M  V30 12030 H 1174.28 -5.56841 -1.36386 0
M  V30 12031 H 1172.68 -5.96259 -0.677862 0
M  V30 12032 H 1173.75 -4.84535 0.188095 0
M  V30 12033 N 1175.09 0.086862 -1.5736 0
M  V30 12034 C 1176.32 0.802167 -1.90717 0
M  V30 12035 C 1176.73 1.71875 -0.781304 0
M  V30 12036 O 1176.09 1.80831 0.246255 0
M  V30 12037 C 1176.14 1.60858 -3.23739 0
M  V30 12038 O 1175.86 0.728851 -4.31995 0
M  V30 12039 C 1177.36 2.42621 -3.71012 0
M  V30 12040 H 1174.58 0.228914 -0.630745 0
M  V30 12041 H 1177.13 0.061634 -2.04407 0
M  V30 12042 H 1175.28 2.30153 -3.11622 0
M  V30 12043 H 1175.7 1.2882 -5.08435 0
M  V30 12044 H 1177.17 2.94683 -4.66761 0
M  V30 12045 H 1177.65 3.21462 -2.99264 0
M  V30 12046 H 1178.25 1.78509 -3.86024 0
M  V30 12047 N 1176.57 1.53483 0.357892 0
M  V30 12048 C 1177.82 1.69256 1.09706 0
M  V30 12049 C 1178.13 0.454888 1.90237 0
M  V30 12050 O 1179.34 0.4933 2.66981 0
M  V30 12051 C 1177.79 2.99238 1.99961 0
M  V30 12052 C 1177.4 4.30293 1.24706 0
M  V30 12053 C 1179.14 3.24378 2.73823 0
M  V30 12054 C 1177.05 5.5136 2.13907 0
M  V30 12055 H 1175.98 0.630657 0.413265 0
M  V30 12056 H 1178.63 1.79983 0.357518 0
M  V30 12057 H 1177.01 2.82332 2.77677 0
M  V30 12058 H 1178.19 4.57857 0.519995 0
M  V30 12059 H 1176.5 4.11656 0.626736 0
M  V30 12060 H 1179.1 4.12015 3.40805 0
M  V30 12061 H 1179.44 2.40769 3.39612 0
M  V30 12062 H 1179.98 3.41994 2.03187 0
M  V30 12063 H 1176.71 6.3747 1.52684 0
M  V30 12064 H 1176.23 5.28065 2.84442 0
M  V30 12065 H 1177.91 5.86448 2.7329 0
M  V30 12066 N 1178.05 -0.61812 1.44973 0
M  V30 12067 C 1179.01 -1.71135 1.52465 0
M  V30 12068 C 1180.01 -1.5561 0.405246 0
M  V30 12069 O 1181.2 -1.60869 0.668351 0
M  V30 12070 C 1178.33 -3.10324 1.41108 0
M  V30 12071 H 1179.52 -1.65862 2.49859 0
M  V30 12072 H 1177.08 -0.832932 1.32257 0
M  V30 12073 H 1177.81 -3.21183 0.448574 0
M  V30 12074 H 1177.6 -3.23001 2.2229 0
M  V30 12075 H 1179.09 -3.89976 1.49361 0
M  V30 12076 N 1179.52 -1.32087 -0.859693 0
M  V30 12077 C 1180.75 -1.25486 -1.6513 0
M  V30 12078 C 1181.17 0.175015 -1.87284 0
M  V30 12079 O 1180.53 1.12468 -1.42199 0
M  V30 12080 C 1180.58 -2.01469 -2.9907 0
M  V30 12081 O 1179.68 -1.35904 -3.89363 0
M  V30 12082 H 1179.02 -0.432728 -0.503629 0
M  V30 12083 H 1181.55 -1.74322 -1.07112 0
M  V30 12084 H 1181.56 -2.11452 -3.4893 0
M  V30 12085 H 1180.24 -3.05448 -2.82266 0
M  V30 12086 H 1178.82 -1.34437 -3.47823 0
M  V30 12087 N 1181 1.07532 -1.15215 0
M  V30 12088 C 1181.95 2.16785 -0.843022 0
M  V30 12089 C 1182.94 1.68411 0.182802 0
M  V30 12090 O 1184.15 1.7996 0.0380164 0
M  V30 12091 H 1180.52 0.707465 -0.254945 0
M  V30 12092 H 1182.5 2.40078 -1.77215 0
M  V30 12093 C 1181.24 3.45967 -0.346699 0
M  V30 12094 H 1180.57 3.83574 -1.12744 0
M  V30 12095 H 1182.01 4.23663 -0.169039 0
M  V30 12096 C 1180.47 3.23768 0.931437 0
M  V30 12097 O 1181 3.48179 2.00336 0
M  V30 12098 N 1179.2 2.77264 0.870217 0
M  V30 12099 H 1178.75 2.576 -0.00226223 0
M  V30 12100 H 1178.71 2.6279 1.72594 0
M  V30 12101 N 1182.48 0.948665 1.2585 0
M  V30 12102 C 1183.43 0.455115 2.28104 0
M  V30 12103 C 1184.42 -0.471508 1.62706 0
M  V30 12104 O 1185.63 -0.348895 1.76586 0
M  V30 12105 H 1182 0.128659 0.740912 0
M  V30 12106 H 1183.97 1.32991 2.67125 0
M  V30 12107 C 1182.72 -0.25729 3.46747 0
M  V30 12108 H 1182.05 0.44658 3.97298 0
M  V30 12109 H 1183.49 -0.566736 4.20195 0
M  V30 12110 C 1181.95 -1.47772 3.02762 0
M  V30 12111 O 1182.48 -2.57571 3.08253 0
M  V30 12112 N 1180.68 -1.33694 2.5802 0
M  V30 12113 H 1180.23 -0.443595 2.53752 0
M  V30 12114 H 1180.19 -2.1547 2.28954 0
M  V30 12115 N 1183.96 -1.40369 0.716545 0
M  V30 12116 C 1185.21 -2.00869 0.256466 0
M  V30 12117 C 1185.53 -1.56816 -1.15061 0
M  V30 12118 O 1184.79 -0.779696 -1.79497 0
M  V30 12119 C 1185.09 -3.56257 0.285583 0
M  V30 12120 C 1184.75 -4.19897 1.64309 0
M  V30 12121 C 1183.42 -4.36994 2.01469 0
M  V30 12122 C 1185.77 -4.55385 2.53524 0
M  V30 12123 C 1183.1 -4.86862 3.27387 0
M  V30 12124 C 1185.45 -5.06653 3.78795 0
M  V30 12125 C 1184.11 -5.21959 4.16071 0
M  V30 12126 H 1183.38 -0.735033 0.0938475 0
M  V30 12127 H 1186.03 -1.67966 0.919765 0
M  V30 12128 H 1184.33 -3.89075 -0.461287 0
M  V30 12129 H 1186.03 -4.00903 -0.0882496 0
M  V30 12130 H 1182.62 -4.06978 1.34413 0
M  V30 12131 H 1186.8 -4.41811 2.2609 0
M  V30 12132 H 1182.06 -4.96897 3.56235 0
M  V30 12133 H 1186.23 -5.33089 4.48095 0
M  V30 12134 H 1183.86 -5.60362 5.1371 0
M  V30 12135 N 1185.44 -0.462799 -1.50652 0
M  V30 12136 C 1186.66 0.0952726 -2.07181 0
M  V30 12137 C 1187.09 1.33479 -1.32533 0
M  V30 12138 O 1186.44 1.77473 -0.370564 0
M  V30 12139 C 1186.49 0.370592 -3.58691 0
M  V30 12140 O 1185.6 1.4526 -3.85971 0
M  V30 12141 H 1184.94 -0.00932702 -0.663934 0
M  V30 12142 H 1187.47 -0.651458 -1.93951 0
M  V30 12143 H 1187.48 0.613551 -4.0336 0
M  V30 12144 H 1186.15 -0.535219 -4.12442 0
M  V30 12145 H 1184.73 1.1976 -3.53146 0
M  V30 12146 N 1186.91 1.56388 -0.195085 0
M  V30 12147 C 1188.33 1.8398 0.317513 0
M  V30 12148 C 1188.68 1.11575 1.61386 0
M  V30 12149 O 1187.8 0.376557 2.13099 0
M  V30 12150 C 1188.4 3.33749 0.582859 0
M  V30 12151 C 1186.96 3.61752 1.03983 0
M  V30 12152 C 1186.1 2.77159 0.088434 0
M  V30 12153 H 1189.05 1.53072 -0.418871 0
M  V30 12154 H 1189.07 3.52519 1.43216 0
M  V30 12155 H 1188.59 3.86419 -0.360813 0
M  V30 12156 H 1186.69 3.14515 1.99778 0
M  V30 12157 H 1186.8 4.69937 0.932549 0
M  V30 12158 H 1185.16 2.47765 0.590317 0
M  V30 12159 H 1185.95 3.32619 -0.849682 0
M  V30 12160 N 1188.39 -0.0785156 1.57404 0
M  V30 12161 C 1189.62 -0.792042 1.9114 0
M  V30 12162 C 1190.04 -1.71458 0.790408 0
M  V30 12163 O 1189.39 -1.80959 -0.236662 0
M  V30 12164 C 1189.44 -1.59138 3.24588 0
M  V30 12165 O 1189.16 -0.705931 4.32375 0
M  V30 12166 C 1190.67 -2.4065 3.72293 0
M  V30 12167 H 1187.89 -0.225566 0.63195 0
M  V30 12168 H 1190.43 -0.0507929 2.04437 0
M  V30 12169 H 1188.58 -2.28498 3.12838 0
M  V30 12170 H 1189 -1.26121 5.09111 0
M  V30 12171 H 1190.47 -2.92204 4.68317 0
M  V30 12172 H 1190.95 -3.1987 3.00965 0
M  V30 12173 H 1191.56 -1.7646 3.86965 0
M  V30 12174 N 1189.87 -1.5367 -0.349747 0
M  V30 12175 C 1191.11 -1.72329 -1.09919 0
M  V30 12176 C 1191.47 -0.473178 -1.86078 0
M  V30 12177 O 1192.68 -0.53669 -2.63388 0
M  V30 12178 C 1190.95 -2.94817 -2.02034 0
M  V30 12179 S 1192.51 -3.34257 -2.84285 0
M  V30 12180 H 1189.32 -0.606225 -0.3715 0
M  V30 12181 H 1191.93 -1.91803 -0.378399 0
M  V30 12182 H 1190.63 -3.83979 -1.44874 0
M  V30 12183 H 1190.16 -2.7779 -2.78561 0
M  V30 12184 H 1192.18 -2.87506 -4.04419 0
M  V30 12185 N 1191.35 0.610423 -1.45298 0
M  V30 12186 C 1192.3 1.71552 -1.5018 0
M  V30 12187 C 1193.28 1.56697 -0.365357 0
M  V30 12188 O 1194.47 1.66082 -0.612029 0
M  V30 12189 C 1191.6 3.10298 -1.46867 0
M  V30 12190 C 1190.69 3.30549 -2.65703 0
M  V30 12191 N 1191.08 3.21073 -3.90827 0
M  V30 12192 C 1189.38 3.6141 -2.6134 0
M  V30 12193 C 1190.08 3.42577 -4.70123 0
M  V30 12194 N 1189.06 3.66434 -4.01531 0
M  V30 12195 H 1192.86 1.62714 -2.44747 0
M  V30 12196 H 1190.37 0.813587 -1.40551 0
M  V30 12197 H 1192.37 3.89575 -1.48449 0
M  V30 12198 H 1191.03 3.20286 -0.533548 0
M  V30 12199 H 1192.04 2.99537 -4.2249 0
M  V30 12200 H 1188.72 3.78253 -1.76722 0
M  V30 12201 H 1190.11 3.40669 -5.79132 0
M  V30 12202 N 1192.83 1.32541 0.852676 0
M  V30 12203 C 1193.76 1.24254 1.97694 0
M  V30 12204 C 1194.74 0.125971 1.69633 0
M  V30 12205 O 1195.92 0.31347 1.91653 0
M  V30 12206 C 1193.05 0.966874 3.3357 0
M  V30 12207 C 1192.01 2.0449 3.75989 0
M  V30 12208 C 1191.33 1.6216 5.09518 0
M  V30 12209 C 1192.63 3.46013 3.91244 0
M  V30 12210 H 1194.33 2.18317 2.04886 0
M  V30 12211 H 1191.87 1.05101 0.984371 0
M  V30 12212 H 1193.83 0.895444 4.11776 0
M  V30 12213 H 1192.55 -0.0093893 3.26599 0
M  V30 12214 H 1191.21 2.10651 3.00036 0
M  V30 12215 H 1190.86 0.632729 4.99005 0
M  V30 12216 H 1190.56 2.3429 5.38871 0
M  V30 12217 H 1192.08 1.56457 5.90215 0
M  V30 12218 H 1193.49 3.4243 4.59799 0
M  V30 12219 H 1191.89 4.1651 4.32017 0
M  V30 12220 H 1192.96 3.8553 2.941 0
M  V30 12221 N 1194.3 -1.0692 1.15784 0
M  V30 12222 C 1195.25 -2.16335 0.854506 0
M  V30 12223 C 1196.25 -1.68505 -0.173868 0
M  V30 12224 O 1197.45 -1.79977 -0.0284722 0
M  V30 12225 H 1193.83 -0.706103 0.258694 0
M  V30 12226 H 1195.8 -2.39135 1.78486 0
M  V30 12227 C 1194.55 -3.45778 0.365042 0
M  V30 12228 H 1193.87 -3.82971 1.14776 0
M  V30 12229 H 1195.31 -4.23567 0.191504 0
M  V30 12230 C 1193.77 -3.24258 -0.914253 0
M  V30 12231 O 1194.3 -3.49236 -1.98487 0
M  V30 12232 N 1192.51 -2.77722 -0.855501 0
M  V30 12233 H 1192.05 -2.57595 0.0159233 0
M  V30 12234 H 1192.01 -2.63702 -1.71198 0
M  V30 12235 N 1195.78 -0.955326 -1.25345 0
M  V30 12236 C 1197.06 -0.527828 -1.88344 0
M  V30 12237 C 1197.44 0.994911 -1.86185 0
M  V30 12238 O 1196.79 1.86099 -1.32587 0
M  V30 12239 C 1197 -1.10525 -3.31037 0
M  V30 12240 C 1198.35 -1.18253 -4.07801 0
M  V30 12241 O 1199.37 -1.05685 -3.4016 0
M  V30 12242 O 1198.23 -1.37978 -5.28795 0
M  V30 12243 H 1195.32 -0.174206 -0.808444 0
M  V30 12244 H 1197.87 -1.0488 -1.3341 0
M  V30 12245 H 1196.64 -2.14847 -3.27042 0
M  V30 12246 H 1196.26 -0.567568 -3.93528 0
M  V30 12247 N 1197.26 1.39987 -0.723979 0
M  V30 12248 C 1198.51 2.00334 -0.266587 0
M  V30 12249 C 1198.83 1.57714 1.14679 0
M  V30 12250 O 1198.1 0.82037 1.77895 0
M  V30 12251 H 1196.68 0.740861 -0.095573 0
M  V30 12252 H 1199.34 1.712 -0.931481 0
M  V30 12253 H 1198.44 3.10594 -0.306282 0
M  V30 12254 N 1198.74 0.470782 1.50404 0
M  V30 12255 C 1200.02 -0.145879 1.95055 0
M  V30 12256 C 1200.4 -1.57004 1.41114 0
M  V30 12257 O 1199.74 -2.20152 0.612006 0
M  V30 12258 C 1199.95 -0.0895071 3.48885 0
M  V30 12259 C 1201.3 -0.278548 4.23685 0
M  V30 12260 O 1202.33 -0.166105 3.55812 0
M  V30 12261 O 1201.19 -0.505606 5.44156 0
M  V30 12262 H 1198.28 -0.111838 0.819403 0
M  V30 12263 H 1200.83 0.531162 1.61173 0
M  V30 12264 H 1199.6 0.904836 3.80695 0
M  V30 12265 H 1199.22 -0.808019 3.89303 0
M  V30 12266 N 1200.22 -1.56282 0.203376 0
M  V30 12267 C 1201.13 -2.23086 -0.725922 0
M  V30 12268 C 1202.14 -1.23258 -1.22814 0
M  V30 12269 O 1203.32 -1.5602 -1.27357 0
M  V30 12270 C 1200.38 -2.88358 -1.92485 0
M  V30 12271 C 1199.45 -4.03479 -1.46639 0
M  V30 12272 C 1198.68 -4.65629 -2.60816 0
M  V30 12273 O 1198.9 -4.2672 -3.78506 0
M  V30 12274 O 1197.84 -5.54949 -2.33056 0
M  V30 12275 H 1201.66 -3.03124 -0.18694 0
M  V30 12276 H 1199.25 -1.49377 -0.0262829 0
M  V30 12277 H 1201.13 -3.29623 -2.62539 0
M  V30 12278 H 1199.8 -2.11294 -2.45228 0
M  V30 12279 H 1198.71 -3.66821 -0.734396 0
M  V30 12280 H 1200.04 -4.82232 -0.985535 0
M  V30 12281 N 1201.7 0.070167 -1.57444 0
M  V30 12282 C 1202.94 0.770153 -1.87607 0
M  V30 12283 C 1203.27 1.77143 -0.795875 0
M  V30 12284 O 1202.55 1.93533 0.193674 0
M  V30 12285 C 1202.83 1.47668 -3.2843 0
M  V30 12286 C 1202.69 0.491712 -4.47104 0
M  V30 12287 C 1204 2.42118 -3.67514 0
M  V30 12288 H 1201.12 0.278519 -0.682346 0
M  V30 12289 H 1203.77 0.0333184 -1.89971 0
M  V30 12290 H 1201.92 2.10476 -3.26546 0
M  V30 12291 H 1203.59 -0.131283 -4.61113 0
M  V30 12292 H 1201.83 -0.192817 -4.33371 0
M  V30 12293 H 1202.5 1.02372 -5.42424 0
M  V30 12294 H 1204.98 1.89387 -3.70502 0
M  V30 12295 H 1203.85 2.88556 -4.66933 0
M  V30 12296 H 1204.11 3.26995 -2.97534 0
M  V30 12297 N 1203.17 1.53854 0.341593 0
M  V30 12298 C 1204.42 1.71447 1.08322 0
M  V30 12299 C 1204.75 0.477289 1.88243 0
M  V30 12300 O 1204.03 -0.525695 1.87261 0
M  V30 12301 C 1204.31 2.97917 2.02281 0
M  V30 12302 C 1204.16 4.31847 1.25809 0
M  V30 12303 C 1205.48 3.20065 3.0207 0
M  V30 12304 H 1202.6 0.623847 0.392408 0
M  V30 12305 H 1205.24 1.86527 0.361594 0
M  V30 12306 H 1203.39 2.85191 2.63815 0
M  V30 12307 H 1205.07 4.56427 0.668737 0
M  V30 12308 H 1203.31 4.30169 0.560119 0
M  V30 12309 H 1203.98 5.16522 1.94704 0
M  V30 12310 H 1206.46 3.32135 2.50651 0
M  V30 12311 H 1205.33 4.09947 3.65013 0
M  V30 12312 H 1205.59 2.36452 3.73554 0
M  V30 12313 N 1204.65 -0.602709 1.4562 0
M  V30 12314 C 1205.89 -1.37284 1.51435 0
M  V30 12315 C 1206.26 -1.9138 0.154148 0
M  V30 12316 O 1207.46 -2.68659 0.0870009 0
M  V30 12317 C 1205.73 -2.48651 2.56724 0
M  V30 12318 S 1207.29 -3.36354 2.818 0
M  V30 12319 H 1204.1 -0.46798 0.535272 0
M  V30 12320 H 1206.71 -0.694957 1.82731 0
M  V30 12321 H 1205.41 -2.07267 3.54215 0
M  V30 12322 H 1204.94 -3.21234 2.27095 0
M  V30 12323 H 1206.96 -4.46937 2.15549 0
M  V30 12324 N 1206.13 -1.32992 -0.845635 0
M  V30 12325 C 1207.41 -1.14671 -1.58461 0
M  V30 12326 C 1207.79 0.289498 -2.09106 0
M  V30 12327 O 1207.13 1.28751 -1.88773 0
M  V30 12328 C 1207.34 -2.18206 -2.72373 0
M  V30 12329 C 1208.69 -2.5201 -3.41726 0
M  V30 12330 O 1209.72 -2.16821 -2.82608 0
M  V30 12331 O 1208.58 -3.12368 -4.48429 0
M  V30 12332 H 1205.67 -0.443088 -0.698285 0
M  V30 12333 H 1208.22 -1.44552 -0.888978 0
M  V30 12334 H 1206.99 -3.14707 -2.32541 0
M  V30 12335 H 1206.61 -1.89372 -3.49605 0
M  V30 12336 N 1207.61 1.06304 -1.1635 0
M  V30 12337 C 1208.85 1.79516 -0.956328 0
M  V30 12338 C 1209.21 1.85506 0.510438 0
M  V30 12339 O 1208.5 1.33556 1.37381 0
M  V30 12340 C 1208.7 3.23589 -1.51741 0
M  V30 12341 C 1208.52 3.31639 -3.0372 0
M  V30 12342 C 1207.29 3.41579 -3.7236 0
M  V30 12343 C 1209.49 3.2151 -4.01417 0
M  V30 12344 N 1207.47 3.38643 -5.12049 0
M  V30 12345 C 1208.85 3.25815 -5.27489 0
M  V30 12346 C 1210.9 3.05393 -3.93242 0
M  V30 12347 C 1209.6 3.1566 -6.46337 0
M  V30 12348 C 1211.63 2.96577 -5.1166 0
M  V30 12349 C 1210.99 3.01504 -6.36612 0
M  V30 12350 H 1207.09 0.669727 -0.40372 0
M  V30 12351 H 1209.67 1.2681 -1.4774 0
M  V30 12352 H 1207.85 3.7469 -1.02282 0
M  V30 12353 H 1209.58 3.84977 -1.248 0
M  V30 12354 H 1206.33 3.46371 -3.22992 0
M  V30 12355 H 1206.76 3.40674 -5.85038 0
M  V30 12356 H 1211.4 3.0043 -2.97492 0
M  V30 12357 H 1209.12 3.1938 -7.42308 0
M  V30 12358 H 1212.7 2.85195 -5.07105 0
M  V30 12359 H 1211.58 2.9474 -7.26704 0
M  V30 12360 N 1209.09 0.96196 1.24836 0
M  V30 12361 C 1210.33 0.628484 1.94498 0
M  V30 12362 C 1210.69 -0.820337 1.73593 0
M  V30 12363 O 1211.89 -1.26376 2.37239 0
M  V30 12364 C 1210.16 0.986119 3.43527 0
M  V30 12365 S 1211.72 0.766324 4.32057 0
M  V30 12366 H 1208.54 0.230758 0.672511 0
M  V30 12367 H 1211.14 1.23769 1.51332 0
M  V30 12368 H 1209.84 2.03756 3.56247 0
M  V30 12369 H 1209.38 0.367454 3.9168 0
M  V30 12370 H 1211.39 -0.359227 4.94898 0
M  V30 12371 N 1210.56 -1.39601 0.731392 0
M  V30 12372 C 1211.53 -2.28992 0.0976037 0
M  V30 12373 C 1212.53 -1.46135 -0.670917 0
M  V30 12374 O 1213.72 -1.66856 -0.50047 0
M  V30 12375 C 1210.85 -3.29582 -0.871124 0
M  V30 12376 H 1212.04 -2.86541 0.885112 0
M  V30 12377 H 1209.59 -1.48188 0.497002 0
M  V30 12378 H 1210.33 -2.77082 -1.68512 0
M  V30 12379 H 1210.11 -3.9077 -0.322735 0
M  V30 12380 H 1211.6 -3.96479 -1.31126 0
M  V30 12381 N 1212.04 -0.478751 -1.50152 0
M  V30 12382 C 1213.45 -0.0254907 -1.86683 0
M  V30 12383 C 1213.8 1.38171 -1.39295 0
M  V30 12384 O 1212.93 2.0257 -0.761207 0
M  V30 12385 C 1213.52 -0.0394819 -3.38777 0
M  V30 12386 C 1212.08 0.35834 -3.7469 0
M  V30 12387 C 1211.23 -0.421667 -2.74075 0
M  V30 12388 H 1214.18 -0.692653 -1.42787 0
M  V30 12389 H 1214.2 0.760957 -3.72813 0
M  V30 12390 H 1213.71 -1.06378 -3.73236 0
M  V30 12391 H 1211.82 1.38671 -3.45834 0
M  V30 12392 H 1211.93 0.0543589 -4.79069 0
M  V30 12393 H 1210.29 0.125634 -2.5439 0
M  V30 12394 H 1211.08 -1.44562 -3.11379 0
M  V30 12395 N 1213.52 1.56172 -0.211661 0
M  V30 12396 C 1214.77 1.97648 0.421871 0
M  V30 12397 C 1215.09 1.10026 1.60995 0
M  V30 12398 O 1214.36 0.175109 1.95116 0
M  V30 12399 H 1212.94 0.729914 0.158852 0
M  V30 12400 H 1215.6 1.92542 -0.302254 0
M  V30 12401 H 1214.7 3.02834 0.754868 0
M  V30 12402 N 1215 -0.0618163 1.57479 0
M  V30 12403 C 1216.23 -0.770605 1.9169 0
M  V30 12404 C 1216.64 -1.71134 0.806841 0
M  V30 12405 O 1215.98 -1.8228 -0.228002 0
M  V30 12406 C 1216.04 -1.60962 3.21452 0
M  V30 12407 C 1215.71 -0.837193 4.49266 0
M  V30 12408 C 1216.7 -0.151964 5.19678 0
M  V30 12409 C 1214.39 -0.801414 4.95866 0
M  V30 12410 C 1216.38 0.558705 6.34947 0
M  V30 12411 C 1214.07 -0.0869788 6.11038 0
M  V30 12412 C 1215.07 0.591871 6.80431 0
M  V30 12413 O 1214.75 1.29478 7.93405 0
M  V30 12414 H 1214.49 -0.223673 0.637923 0
M  V30 12415 H 1217.04 -0.0333424 2.05373 0
M  V30 12416 H 1215.27 -2.38992 3.04006 0
M  V30 12417 H 1216.96 -2.19799 3.41238 0
M  V30 12418 H 1217.73 -0.170848 4.84699 0
M  V30 12419 H 1213.6 -1.31927 4.4172 0
M  V30 12420 H 1217.15 1.08913 6.89046 0
M  V30 12421 H 1213.05 -0.066057 6.45466 0
M  V30 12422 H 1213.81 1.20507 8.0958 0
M  V30 12423 N 1216.48 -1.54033 -0.333429 0
M  V30 12424 C 1217.7 -1.76031 -1.09672 0
M  V30 12425 C 1218.13 -0.502844 -1.81254 0
M  V30 12426 O 1217.48 0.54509 -1.72912 0
M  V30 12427 C 1217.53 -2.947 -2.07809 0
M  V30 12428 O 1216.64 -2.65555 -3.15522 0
M  V30 12429 H 1215.98 -0.583611 -0.316692 0
M  V30 12430 H 1218.51 -2.01026 -0.380732 0
M  V30 12431 H 1218.52 -3.21771 -2.50853 0
M  V30 12432 H 1217.19 -3.85895 -1.55106 0
M  V30 12433 H 1215.77 -2.49403 -2.77223 0
M  V30 12434 N 1217.95 0.594978 -1.45938 0
M  V30 12435 C 1219.2 1.35093 -1.50314 0
M  V30 12436 C 1219.52 1.94412 -0.151315 0
M  V30 12437 O 1218.79 1.77876 0.820787 0
M  V30 12438 H 1217.37 0.501549 -0.553586 0
M  V30 12439 H 1220.04 0.697735 -1.81983 0
M  V30 12440 H 1219.13 2.16393 -2.24901 0
M  V30 12441 N 1219.43 1.33438 0.838571 0
M  V30 12442 C 1220.4 1.23632 1.92997 0
M  V30 12443 C 1221.4 0.155302 1.60048 0
M  V30 12444 O 1222.59 0.406852 1.69382 0
M  V30 12445 C 1219.72 0.90512 3.28665 0
M  V30 12446 H 1220.91 2.20643 2.03117 0
M  V30 12447 H 1218.46 1.17501 1.03069 0
M  V30 12448 H 1219.2 -0.0624833 3.2424 0
M  V30 12449 H 1218.98 1.68688 3.53959 0
M  V30 12450 H 1220.47 0.861262 4.08622 0
M  V30 12451 N 1220.91 -1.05686 1.16912 0
M  V30 12452 C 1222.16 -1.79006 0.965835 0
M  V30 12453 C 1222.51 -1.85774 -0.500593 0
M  V30 12454 O 1221.8 -1.34282 -1.3667 0
M  V30 12455 C 1222 -3.22779 1.53455 0
M  V30 12456 C 1221.83 -3.30023 3.05474 0
M  V30 12457 C 1220.6 -3.396 3.74166 0
M  V30 12458 C 1222.8 -3.19376 4.03117 0
M  V30 12459 N 1220.78 -3.35923 5.13838 0
M  V30 12460 C 1222.15 -3.23013 5.2921 0
M  V30 12461 C 1224.2 -3.03304 3.94856 0
M  V30 12462 C 1222.91 -3.12228 6.48002 0
M  V30 12463 C 1224.93 -2.93859 5.13226 0
M  V30 12464 C 1224.29 -2.98124 6.38202 0
M  V30 12465 H 1220.39 -0.667577 0.407266 0
M  V30 12466 H 1222.98 -1.26025 1.48411 0
M  V30 12467 H 1221.15 -3.74143 1.04268 0
M  V30 12468 H 1222.88 -3.8431 1.26839 0
M  V30 12469 H 1219.64 -3.44654 3.24824 0
M  V30 12470 H 1220.06 -3.37567 5.86837 0
M  V30 12471 H 1224.7 -2.98848 2.99081 0
M  V30 12472 H 1222.42 -3.15439 7.43992 0
M  V30 12473 H 1226.01 -2.82501 5.0861 0
M  V30 12474 H 1224.89 -2.90882 7.28256 0
M  V30 12475 N 1222.39 -0.968567 -1.24324 0
M  V30 12476 C 1223.63 -0.63879 -1.94162 0
M  V30 12477 C 1223.99 0.81112 -1.74025 0
M  V30 12478 O 1225.19 1.25116 -2.37906 0
M  V30 12479 C 1223.46 -1.00432 -3.42999 0
M  V30 12480 S 1225.02 -0.789227 -4.31644 0
M  V30 12481 H 1221.84 -0.234322 -0.671278 0
M  V30 12482 H 1224.44 -1.2457 -1.50673 0
M  V30 12483 H 1223.15 -2.05643 -3.55161 0
M  V30 12484 H 1222.68 -0.388221 -3.9148 0
M  V30 12485 H 1224.69 0.332976 -4.95082 0
M  V30 12486 N 1223.87 1.39211 -0.738786 0
M  V30 12487 C 1224.78 2.34374 -0.102958 0
M  V30 12488 C 1225.79 1.58514 0.717596 0
M  V30 12489 O 1226.97 1.90786 0.645186 0
M  V30 12490 C 1224.03 3.37562 0.790733 0
M  V30 12491 C 1223.09 4.29279 -0.0425028 0
M  V30 12492 C 1222.33 5.27539 0.808628 0
M  V30 12493 O 1222.55 5.32396 2.04722 0
M  V30 12494 O 1221.48 6.0144 0.235279 0
M  V30 12495 H 1225.31 2.90412 -0.888498 0
M  V30 12496 H 1222.9 1.40803 -0.499498 0
M  V30 12497 H 1224.78 4.00783 1.30196 0
M  V30 12498 H 1223.45 2.83903 1.55502 0
M  V30 12499 H 1222.36 3.69268 -0.599335 0
M  V30 12500 H 1223.69 4.86154 -0.7691 0
M  V30 12501 N 1225.34 0.486708 1.49896 0
M  V30 12502 C 1226.76 0.141788 1.58969 0
M  V30 12503 C 1226.96 -1.35279 1.49338 0
M  V30 12504 O 1226.02 -2.1275 1.35992 0
M  V30 12505 C 1227.33 0.70588 2.92297 0
M  V30 12506 C 1228.88 0.670704 3.0573 0
M  V30 12507 C 1229.35 1.21261 4.41656 0
M  V30 12508 N 1230.84 1.17269 4.4811 0
M  V30 12509 C 1231.58 1.56233 5.51705 0
M  V30 12510 N 1231.07 2.02721 6.62477 0
M  V30 12511 N 1232.87 1.47738 5.42337 0
M  V30 12512 H 1225.02 1.45858 1.544 0
M  V30 12513 H 1227.28 0.604137 0.730563 0
M  V30 12514 H 1226.99 1.7535 3.04869 0
M  V30 12515 H 1226.86 0.158215 3.76868 0
M  V30 12516 H 1229.25 -0.368041 2.92796 0
M  V30 12517 H 1229.33 1.25535 2.22878 0
M  V30 12518 H 1228.97 2.25006 4.5534 0
M  V30 12519 H 1228.9 0.604031 5.23124 0
M  V30 12520 H 1231.39 0.831905 3.6863 0
M  V30 12521 H 1231.71 2.3056 7.37606 0
M  V30 12522 H 1230.05 2.06686 6.63556 0
M  V30 12523 H 1233.24 1.11249 4.54688 0
M  V30 12524 H 1233.42 1.78429 6.2295 0
M  V30 12525 N 1226.82 -1.56058 0.219941 0
M  V30 12526 C 1228.06 -2.00162 -0.414063 0
M  V30 12527 C 1228.43 -1.10432 -1.57063 0
M  V30 12528 O 1229.63 -1.43877 -2.27053 0
M  V30 12529 C 1227.9 -3.47411 -0.839084 0
M  V30 12530 S 1229.46 -4.13536 -1.46742 0
M  V30 12531 H 1226.28 -0.698738 -0.131475 0
M  V30 12532 H 1228.88 -1.92714 0.32885 0
M  V30 12533 H 1227.58 -4.10398 0.0123666 0
M  V30 12534 H 1227.11 -3.58728 -1.61485 0
M  V30 12535 H 1229.13 -4.12592 -2.75648 0
M  V30 12536 N 1228.3 0.053464 -1.57509 0
M  V30 12537 C 1229.26 1.04604 -2.03938 0
M  V30 12538 C 1230.26 1.30509 -0.939357 0
M  V30 12539 O 1231.45 1.25922 -1.20371 0
M  V30 12540 C 1228.59 2.38516 -2.43563 0
M  V30 12541 H 1229.78 0.645484 -2.92871 0
M  V30 12542 H 1227.33 0.299683 -1.534 0
M  V30 12543 H 1228.07 2.83368 -1.57712 0
M  V30 12544 H 1227.85 2.2105 -3.23851 0
M  V30 12545 H 1229.34 3.09826 -2.79996 0
M  V30 12546 N 1229.78 1.54207 0.325255 0
M  V30 12547 C 1231.06 1.6298 1.08153 0
M  V30 12548 C 1231.44 0.462583 2.05969 0
M  V30 12549 O 1230.78 -0.543323 2.21947 0
M  V30 12550 C 1230.99 2.999 1.78497 0
M  V30 12551 C 1232.34 3.55888 2.3158 0
M  V30 12552 O 1233.37 3.02194 1.88566 0
M  V30 12553 O 1232.23 4.49847 3.10322 0
M  V30 12554 H 1229.32 0.659923 0.498429 0
M  V30 12555 H 1231.87 1.66553 0.325282 0
M  V30 12556 H 1230.64 3.7629 1.07338 0
M  V30 12557 H 1230.26 2.99997 2.60936 0
M  V30 12558 N 1231.26 -0.58723 1.46251 0
M  V30 12559 C 1232.51 -1.34294 1.51028 0
M  V30 12560 C 1232.83 -1.94329 0.161623 0
M  V30 12561 O 1232.1 -1.78309 -0.811342 0
M  V30 12562 H 1230.68 -0.498607 0.556238 0
M  V30 12563 H 1233.34 -0.688074 1.8235 0
M  V30 12564 H 1232.43 -2.15197 2.26045 0
M  V30 12565 N 1232.74 -1.33881 -0.831482 0
M  V30 12566 C 1233.97 -1.28625 -1.61676 0
M  V30 12567 C 1234.37 0.143588 -1.88654 0
M  V30 12568 O 1233.72 1.09847 -1.47239 0
M  V30 12569 C 1233.78 -2.00022 -2.98716 0
M  V30 12570 C 1233.44 -3.49309 -2.94674 0
M  V30 12571 C 1234.44 -4.44375 -2.69864 0
M  V30 12572 C 1232.12 -3.91596 -3.14576 0
M  V30 12573 C 1234.12 -5.79703 -2.64996 0
M  V30 12574 C 1231.81 -5.27026 -3.09333 0
M  V30 12575 C 1232.8 -6.20892 -2.84575 0
M  V30 12576 O 1232.49 -7.53841 -2.79248 0
M  V30 12577 H 1232.22 -0.444235 -0.50954 0
M  V30 12578 H 1234.78 -1.76933 -1.04326 0
M  V30 12579 H 1233.01 -1.46316 -3.57951 0
M  V30 12580 H 1234.7 -1.88168 -3.59649 0
M  V30 12581 H 1235.46 -4.13027 -2.54231 0
M  V30 12582 H 1231.34 -3.18938 -3.32865 0
M  V30 12583 H 1234.89 -6.5294 -2.45591 0
M  V30 12584 H 1230.78 -5.57996 -3.24516 0
M  V30 12585 H 1231.55 -7.63476 -2.95037 0
M  V30 12586 N 1234.21 1.05064 -1.1747 0
M  V30 12587 C 1235.44 1.81497 -0.987031 0
M  V30 12588 C 1235.85 1.83323 0.467921 0
M  V30 12589 O 1235.19 1.26006 1.33672 0
M  V30 12590 C 1235.26 3.28826 -1.45306 0
M  V30 12591 C 1234.92 3.50681 -2.93039 0
M  V30 12592 C 1235.92 3.42699 -3.90965 0
M  V30 12593 C 1233.6 3.77602 -3.31243 0
M  V30 12594 C 1235.6 3.61325 -5.25093 0
M  V30 12595 C 1233.28 3.95876 -4.65538 0
M  V30 12596 C 1234.28 3.87737 -5.62271 0
M  V30 12597 O 1233.97 4.055 -6.94136 0
M  V30 12598 H 1233.7 0.578734 -0.349347 0
M  V30 12599 H 1236.26 1.33373 -1.56208 0
M  V30 12600 H 1234.49 3.77872 -0.821581 0
M  V30 12601 H 1236.17 3.86788 -1.23085 0
M  V30 12602 H 1236.94 3.21877 -3.62795 0
M  V30 12603 H 1232.82 3.8304 -2.56517 0
M  V30 12604 H 1236.36 3.54888 -6.00583 0
M  V30 12605 H 1232.26 4.16191 -4.93412 0
M  V30 12606 H 1233.03 4.22718 -7.00894 0
M  V30 12607 N 1235.69 0.975146 1.23809 0
M  V30 12608 C 1236.94 0.639858 1.91704 0
M  V30 12609 C 1237.26 -0.828557 1.76522 0
M  V30 12610 O 1236.53 -1.59217 1.14135 0
M  V30 12611 H 1235.11 0.233667 0.709513 0
M  V30 12612 H 1237.77 1.23782 1.50545 0
M  V30 12613 H 1236.87 0.886915 2.99233 0
M  V30 12614 N 1237.17 -1.38817 0.746158 0
M  V30 12615 C 1238.12 -2.32373 0.102785 0
M  V30 12616 C 1239.11 -1.53638 -0.713556 0
M  V30 12617 O 1240.32 -1.69223 -0.613488 0
M  V30 12618 H 1236.69 -0.751861 0.0144405 0
M  V30 12619 H 1238.66 -2.84249 0.908032 0
M  V30 12620 C 1237.41 -3.38796 -0.781827 0
M  V30 12621 H 1236.74 -3.99467 -0.163057 0
M  V30 12622 H 1238.18 -4.06682 -1.19941 0
M  V30 12623 C 1236.63 -2.76756 -1.92113 0
M  V30 12624 O 1237.16 -2.65478 -3.0147 0
M  V30 12625 N 1235.37 -2.34676 -1.71392 0
M  V30 12626 H 1234.92 -2.44049 -0.824483 0
M  V30 12627 H 1234.88 -1.93508 -2.47794 0
M  V30 12628 N 1238.65 -0.49465 -1.49636 0
M  V30 12629 C 1240.06 -0.0452894 -1.86645 0
M  V30 12630 C 1240.41 1.36686 -1.40753 0
M  V30 12631 O 1239.53 2.01751 -0.78265 0
M  V30 12632 C 1240.13 -0.0754115 -3.38716 0
M  V30 12633 C 1238.69 0.318579 -3.75049 0
M  V30 12634 C 1237.84 -0.450712 -2.73613 0
M  V30 12635 H 1240.79 -0.707758 -1.42044 0
M  V30 12636 H 1240.81 0.721372 -3.73599 0
M  V30 12637 H 1240.32 -1.10331 -3.72087 0
M  V30 12638 H 1238.42 1.34995 -3.47285 0
M  V30 12639 H 1238.53 0.00354416 -4.791 0
M  V30 12640 H 1236.9 0.0986455 -2.54509 0
M  V30 12641 H 1237.68 -1.47857 -3.09828 0
M  V30 12642 N 1240.13 1.55939 -0.228214 0
M  V30 12643 C 1241.35 2.0287 0.406348 0
M  V30 12644 C 1241.77 1.1079 1.52876 0
M  V30 12645 O 1241.13 0.118747 1.82113 0
M  V30 12646 C 1241.18 3.49286 0.931734 0
M  V30 12647 O 1240.9 4.37857 -0.145933 0
M  V30 12648 C 1242.4 4.11893 1.63887 0
M  V30 12649 H 1239.62 0.663696 0.0987358 0
M  V30 12650 H 1242.16 2.01541 -0.346616 0
M  V30 12651 H 1240.32 3.5121 1.63494 0
M  V30 12652 H 1240.73 5.23904 0.250005 0
M  V30 12653 H 1242.21 5.16091 1.95841 0
M  V30 12654 H 1242.68 3.57281 2.55435 0
M  V30 12655 H 1243.29 4.13839 0.980697 0
M  V30 12656 N 1241.6 -0.0451101 1.57535 0
M  V30 12657 C 1242.85 -0.740209 1.88809 0
M  V30 12658 C 1243.18 -1.75854 0.823956 0
M  V30 12659 O 1242.46 -1.93817 -0.16286 0
M  V30 12660 C 1242.74 -1.42424 3.30737 0
M  V30 12661 C 1242.59 -0.42052 4.4783 0
M  V30 12662 C 1243.91 -2.36241 3.7132 0
M  V30 12663 H 1241.03 -0.267628 0.686691 0
M  V30 12664 H 1243.67 -0.00309149 1.9 0
M  V30 12665 H 1241.82 -2.05254 3.29853 0
M  V30 12666 H 1243.5 0.204625 4.60846 0
M  V30 12667 H 1241.74 0.261739 4.3301 0
M  V30 12668 H 1242.41 -0.937298 5.43984 0
M  V30 12669 H 1244.89 -1.83468 3.73468 0
M  V30 12670 H 1243.76 -2.81091 4.71465 0
M  V30 12671 H 1244.02 -3.2222 3.02699 0
M  V30 12672 N 1243.08 -1.54377 -0.317073 0
M  V30 12673 C 1244.49 -1.64062 -0.891105 0
M  V30 12674 C 1244.84 -0.538863 -1.88655 0
M  V30 12675 O 1243.97 0.32718 -2.13912 0
M  V30 12676 C 1244.56 -2.97395 -1.62302 0
M  V30 12677 C 1243.12 -3.09253 -2.14568 0
M  V30 12678 C 1242.27 -2.59664 -0.973146 0
M  V30 12679 H 1245.22 -1.58418 -0.0944829 0
M  V30 12680 H 1245.24 -2.87918 -2.48764 0
M  V30 12681 H 1244.75 -3.77562 -0.898268 0
M  V30 12682 H 1242.86 -2.33774 -2.90139 0
M  V30 12683 H 1242.97 -4.15159 -2.39123 0
M  V30 12684 H 1241.33 -2.15719 -1.35416 0
M  V30 12685 H 1242.12 -3.42294 -0.262611 0
M  V30 12686 N 1244.56 0.579466 -1.4656 0
M  V30 12687 C 1245.81 1.33492 -1.51738 0
M  V30 12688 C 1246.13 1.94241 -0.171926 0
M  V30 12689 O 1245.4 1.78737 0.801875 0
M  V30 12690 H 1243.98 0.49565 -0.558874 0
M  V30 12691 H 1246.64 0.678394 -1.82712 0
M  V30 12692 H 1245.74 2.13995 -2.27183 0
M  V30 12693 N 1246.04 1.3432 0.824371 0
M  V30 12694 C 1246.95 1.27847 1.96704 0
M  V30 12695 C 1247.96 0.18641 1.72999 0
M  V30 12696 O 1249.14 0.412623 1.97128 0
M  V30 12697 C 1246.21 1.03231 3.30975 0
M  V30 12698 C 1245.27 2.21579 3.67697 0
M  V30 12699 C 1244.5 1.98128 4.95561 0
M  V30 12700 O 1244.72 0.938798 5.62621 0
M  V30 12701 O 1243.66 2.85041 5.30128 0
M  V30 12702 H 1247.48 2.23974 2.05108 0
M  V30 12703 H 1245.07 1.14512 0.959554 0
M  V30 12704 H 1246.95 0.912784 4.11395 0
M  V30 12705 H 1245.62 0.101425 3.23541 0
M  V30 12706 H 1244.53 2.3909 2.87727 0
M  V30 12707 H 1245.86 3.13052 3.79815 0
M  V30 12708 N 1247.52 -1.0444 1.18026 0
M  V30 12709 C 1248.74 -1.81772 0.998684 0
M  V30 12710 C 1249.17 -1.82682 -0.448225 0
M  V30 12711 O 1248.52 -1.24136 -1.32136 0
M  V30 12712 C 1248.57 -3.2542 1.55352 0
M  V30 12713 O 1247.68 -4.05103 0.772351 0
M  V30 12714 H 1247.02 -0.561731 0.354054 0
M  V30 12715 H 1249.55 -1.31557 1.56697 0
M  V30 12716 H 1249.56 -3.76206 1.57903 0
M  V30 12717 H 1248.23 -3.24073 2.60672 0
M  V30 12718 H 1246.81 -3.63798 0.818852 0
M  V30 12719 N 1248.99 -0.981699 -1.2329 0
M  V30 12720 C 1250.23 -0.659348 -1.93473 0
M  V30 12721 C 1250.6 0.792616 -1.74876 0
M  V30 12722 O 1251.8 1.22586 -2.3922 0
M  V30 12723 C 1250.07 -1.04065 -3.41914 0
M  V30 12724 S 1251.63 -0.834964 -4.30783 0
M  V30 12725 H 1248.45 -0.241428 -0.668755 0
M  V30 12726 H 1251.05 -1.26161 -1.49344 0
M  V30 12727 H 1249.75 -2.09398 -3.5296 0
M  V30 12728 H 1249.28 -0.429721 -3.91046 0
M  V30 12729 H 1251.3 0.280447 -4.95407 0
M  V30 12730 N 1250.47 1.3842 -0.753509 0
M  V30 12731 C 1251.72 2.00415 -0.310091 0
M  V30 12732 C 1252.05 1.59675 1.10532 0
M  V30 12733 O 1251.33 0.834261 1.757 0
M  V30 12734 C 1251.61 3.57488 -0.432897 0
M  V30 12735 C 1251.46 4.08193 -1.88941 0
M  V30 12736 C 1252.78 4.39757 0.173763 0
M  V30 12737 H 1249.9 0.728107 -0.114147 0
M  V30 12738 H 1252.54 1.64363 -0.953138 0
M  V30 12739 H 1250.69 3.88331 0.114563 0
M  V30 12740 H 1252.36 3.87993 -2.49517 0
M  V30 12741 H 1250.61 3.61063 -2.4045 0
M  V30 12742 H 1251.28 5.17291 -1.9265 0
M  V30 12743 H 1253.75 4.15066 -0.293137 0
M  V30 12744 H 1252.63 5.4887 0.057594 0
M  V30 12745 H 1252.89 4.23704 1.26205 0
M  V30 12746 N 1251.95 0.502579 1.49372 0
M  V30 12747 C 1253.36 0.055187 1.86618 0
M  V30 12748 C 1253.71 -1.35938 1.41476 0
M  V30 12749 O 1252.84 -2.01333 0.793338 0
M  V30 12750 C 1253.43 0.0933734 3.38671 0
M  V30 12751 C 1251.99 -0.298685 3.75213 0
M  V30 12752 C 1251.14 0.465216 2.7337 0
M  V30 12753 H 1254.09 0.715281 1.41667 0
M  V30 12754 H 1254.11 -0.701549 3.73977 0
M  V30 12755 H 1253.62 1.12303 3.71497 0
M  V30 12756 H 1251.72 -1.33151 3.47996 0
M  V30 12757 H 1251.84 0.0218637 4.79095 0
M  V30 12758 H 1250.2 -0.0851469 2.54558 0
M  V30 12759 H 1250.98 1.49498 3.09039 0
M  V30 12760 N 1253.43 -1.55816 0.23648 0
M  V30 12761 C 1254.67 -2.0059 -0.39281 0
M  V30 12762 C 1255.03 -1.12092 -1.55883 0
M  V30 12763 O 1256.23 -1.46277 -2.25514 0
M  V30 12764 C 1254.5 -3.48281 -0.80219 0
M  V30 12765 S 1256.06 -4.15069 -1.42348 0
M  V30 12766 H 1252.88 -0.700093 -0.124057 0
M  V30 12767 H 1255.48 -1.92355 0.349272 0
M  V30 12768 H 1254.19 -4.10362 0.0558941 0
M  V30 12769 H 1253.72 -3.60421 -1.57671 0
M  V30 12770 H 1255.73 -4.15493 -2.71257 0
M  V30 12771 N 1254.91 0.036755 -1.57557 0
M  V30 12772 C 1256.18 0.764087 -1.80059 0
M  V30 12773 C 1256.56 1.93983 -0.83269 0
M  V30 12774 O 1255.91 2.28148 0.126815 0
M  V30 12775 C 1256.12 1.20433 -3.27562 0
M  V30 12776 C 1257.47 1.6234 -3.9234 0
M  V30 12777 O 1258.49 1.29911 -3.31665 0
M  V30 12778 O 1257.35 2.22504 -4.99154 0
M  V30 12779 H 1254.45 0.368866 -0.74018 0
M  V30 12780 H 1256.99 0.0141254 -1.69694 0
M  V30 12781 H 1255.76 0.364646 -3.89597 0
M  V30 12782 H 1255.39 2.01454 -3.42786 0
M  V30 12783 N 1256.39 1.54543 0.308881 0
M  V30 12784 C 1257.63 1.75182 1.05312 0
M  V30 12785 C 1257.99 0.522347 1.84758 0
M  V30 12786 O 1259.19 0.606334 2.61872 0
M  V30 12787 C 1257.46 3.0007 1.94147 0
M  V30 12788 S 1259.02 3.41676 2.75323 0
M  V30 12789 H 1255.84 0.615862 0.355296 0
M  V30 12790 H 1258.44 1.92739 0.327413 0
M  V30 12791 H 1257.14 3.87685 1.34643 0
M  V30 12792 H 1256.68 2.85078 2.71098 0
M  V30 12793 H 1258.69 2.98128 3.96654 0
M  V30 12794 N 1257.86 -0.571685 1.46866 0
M  V30 12795 C 1259.09 -1.36008 1.56578 0
M  V30 12796 C 1259.51 -1.86909 0.211326 0
M  V30 12797 O 1258.87 -1.62179 -0.810421 0
M  V30 12798 C 1258.92 -2.51598 2.58323 0
M  V30 12799 O 1258.02 -3.53383 2.1259 0
M  V30 12800 H 1257.36 -0.404593 0.526498 0
M  V30 12801 H 1259.89 -0.692357 1.92529 0
M  V30 12802 H 1259.9 -2.98366 2.78283 0
M  V30 12803 H 1258.58 -2.13904 3.56676 0
M  V30 12804 H 1257.16 -3.13019 2.02666 0
M  V30 12805 N 1259.34 -1.34755 -0.817236 0
M  V30 12806 C 1260.59 -1.2718 -1.57066 0
M  V30 12807 C 1260.91 0.156531 -1.94371 0
M  V30 12808 O 1260.18 1.09049 -1.62742 0
M  V30 12809 H 1258.76 -0.467755 -0.582421 0
M  V30 12810 H 1261.42 -1.68734 -0.975438 0
M  V30 12811 H 1260.52 -1.88043 -2.49091 0
M  V30 12812 N 1260.82 1.03812 -1.18578 0
M  V30 12813 C 1261.77 2.13994 -0.911563 0
M  V30 12814 C 1262.76 1.68907 0.129131 0
M  V30 12815 O 1263.97 1.7999 -0.0192557 0
M  V30 12816 H 1260.34 0.698996 -0.277324 0
M  V30 12817 H 1262.31 2.34318 -1.84763 0
M  V30 12818 C 1261.06 3.44689 -0.456591 0
M  V30 12819 H 1260.39 3.79793 -1.2489 0
M  V30 12820 H 1261.83 4.22911 -0.303738 0
M  V30 12821 C 1260.28 3.26568 0.827961 0
M  V30 12822 O 1260.81 3.54376 1.89158 0
M  V30 12823 N 1259.02 2.79893 0.781567 0
M  V30 12824 H 1258.57 2.57462 -0.0842145 0
M  V30 12825 H 1258.53 2.68148 1.64146 0
M  V30 12826 N 1262.3 0.988223 1.22768 0
M  V30 12827 C 1263.54 0.662441 1.91676 0
M  V30 12828 C 1263.88 -0.802931 1.76824 0
M  V30 12829 O 1263.15 -1.58011 1.13415 0
M  V30 12830 C 1263.43 1.06332 3.44043 0
M  V30 12831 C 1263.29 2.5869 3.67967 0
M  V30 12832 C 1264.61 0.613058 4.35809 0
M  V30 12833 H 1261.73 0.242132 0.69609 0
M  V30 12834 H 1264.37 1.23091 1.44736 0
M  V30 12835 H 1262.52 0.579623 3.84152 0
M  V30 12836 H 1264.19 3.14694 3.37291 0
M  V30 12837 H 1262.43 3.00971 3.12408 0
M  V30 12838 H 1263.1 2.8179 4.74656 0
M  V30 12839 H 1265.58 1.02846 4.0319 0
M  V30 12840 H 1264.46 0.921901 5.41103 0
M  V30 12841 H 1264.72 -0.48641 4.39416 0
M  V30 12842 N 1263.78 -1.38018 0.760839 0
M  V30 12843 C 1265.05 -1.94054 0.245437 0
M  V30 12844 C 1265.43 -1.6955 -1.25761 0
M  V30 12845 O 1264.78 -1.03812 -2.03557 0
M  V30 12846 C 1264.99 -3.43681 0.606986 0
M  V30 12847 C 1266.34 -4.20748 0.570673 0
M  V30 12848 O 1267.36 -3.51995 0.545715 0
M  V30 12849 O 1266.22 -5.43327 0.588043 0
M  V30 12850 H 1263.32 -0.825264 0.0535607 0
M  V30 12851 H 1265.86 -1.47369 0.841453 0
M  V30 12852 H 1264.63 -3.55054 1.64476 0
M  V30 12853 H 1264.26 -3.97597 -0.0166576 0
M  V30 12854 N 1265.25 -0.510493 -1.49103 0
M  V30 12855 C 1266.66 -0.0650831 -1.86587 0
M  V30 12856 C 1267.02 1.35185 -1.42195 0
M  V30 12857 O 1266.14 2.0091 -0.804004 0
M  V30 12858 C 1266.74 -0.111333 -3.38617 0
M  V30 12859 C 1265.29 0.278782 -3.75366 0
M  V30 12860 C 1264.44 -0.479707 -2.73119 0
M  V30 12861 H 1267.39 -0.722784 -1.41285 0
M  V30 12862 H 1267.41 0.681706 -3.74343 0
M  V30 12863 H 1266.93 -1.14271 -3.70896 0
M  V30 12864 H 1265.03 1.31304 -3.48698 0
M  V30 12865 H 1265.14 -0.047271 -4.79077 0
M  V30 12866 H 1263.5 0.0716459 -2.54599 0
M  V30 12867 H 1264.29 -1.51135 -3.08242 0
M  V30 12868 N 1266.73 1.55688 -0.24474 0
M  V30 12869 C 1267.96 2.03743 0.387776 0
M  V30 12870 C 1268.38 1.1229 1.50906 0
M  V30 12871 O 1267.74 0.115445 1.80932 0
M  V30 12872 C 1267.79 3.49825 0.874927 0
M  V30 12873 O 1266.89 3.61504 1.98466 0
M  V30 12874 H 1266.23 0.658561 0.0848107 0
M  V30 12875 H 1268.76 2.01224 -0.370165 0
M  V30 12876 H 1268.77 3.90603 1.17871 0
M  V30 12877 H 1267.45 4.15864 0.0543852 0
M  V30 12878 H 1266.02 3.32622 1.68574 0
M  V30 12879 N 1268.21 -0.0283989 1.57574 0
M  V30 12880 C 1269.12 -1.04575 2.10003 0
M  V30 12881 C 1270.14 -1.39588 1.03881 0
M  V30 12882 O 1271.31 -1.48894 1.35619 0
M  V30 12883 C 1268.38 -2.32755 2.56955 0
M  V30 12884 C 1267.44 -2.04317 3.77562 0
M  V30 12885 C 1266.67 -3.26385 4.22266 0
M  V30 12886 O 1266.89 -4.37082 3.66491 0
M  V30 12887 O 1265.83 -3.12046 5.14695 0
M  V30 12888 H 1269.65 -0.630183 2.9709 0
M  V30 12889 H 1267.24 -0.245423 1.4737 0
M  V30 12890 H 1269.12 -3.08111 2.87482 0
M  V30 12891 H 1267.8 -2.73605 1.72979 0
M  V30 12892 H 1266.7 -1.26527 3.52054 0
M  V30 12893 H 1268.04 -1.68321 4.62524 0
M  V30 12894 N 1269.69 -1.54705 -0.300681 0
M  V30 12895 C 1270.65 -1.84934 -1.35395 0
M  V30 12896 C 1271.65 -0.72226 -1.43666 0
M  V30 12897 O 1272.84 -0.990543 -1.43296 0
M  V30 12898 C 1269.97 -2.02991 -2.73875 0
M  V30 12899 H 1271.17 -2.79063 -1.09835 0
M  V30 12900 H 1268.72 -1.46772 -0.537365 0
M  V30 12901 H 1269.45 -1.11151 -3.04657 0
M  V30 12902 H 1269.24 -2.85027 -2.69262 0
M  V30 12903 H 1270.73 -2.27747 -3.5003 0
M  V30 12904 N 1271.17 0.563888 -1.47167 0
M  V30 12905 C 1272.41 1.31875 -1.53145 0
M  V30 12906 C 1272.74 1.94047 -0.192518 0
M  V30 12907 O 1272.01 1.79577 0.782872 0
M  V30 12908 H 1270.59 0.489694 -0.5641 0
M  V30 12909 H 1273.25 0.658976 -1.83422 0
M  V30 12910 H 1272.34 2.11574 -2.2944 0
M  V30 12911 N 1272.64 1.35187 0.810078 0
M  V30 12912 C 1273.59 1.24366 1.91094 0
M  V30 12913 C 1274.58 0.139718 1.60292 0
M  V30 12914 O 1275.77 0.370609 1.73077 0
M  V30 12915 C 1272.9 1.01434 3.27973 0
M  V30 12916 C 1271.99 2.16203 3.64852 0
M  V30 12917 N 1272.38 3.41408 3.73195 0
M  V30 12918 C 1270.67 2.07512 3.94784 0
M  V30 12919 C 1271.38 4.16858 4.05714 0
M  V30 12920 N 1270.35 3.45579 4.19614 0
M  V30 12921 H 1274.15 2.19232 1.95741 0
M  V30 12922 H 1271.67 1.2761 1.00447 0
M  V30 12923 H 1273.66 0.91771 4.06674 0
M  V30 12924 H 1272.32 0.074495 3.24615 0
M  V30 12925 H 1273.34 3.75802 3.56361 0
M  V30 12926 H 1270.01 1.21362 3.99472 0
M  V30 12927 H 1271.4 5.25039 4.19266 0
M  V30 12928 N 1274.12 -1.03182 1.19127 0
M  V30 12929 C 1275.36 -1.78089 1.00318 0
M  V30 12930 C 1275.73 -1.86451 -0.458252 0
M  V30 12931 O 1276.93 -2.57653 -0.766061 0
M  V30 12932 C 1275.2 -3.17012 1.6504 0
M  V30 12933 S 1276.76 -4.08146 1.61129 0
M  V30 12934 H 1273.58 -0.613096 0.360048 0
M  V30 12935 H 1276.18 -1.23657 1.51424 0
M  V30 12936 H 1274.88 -3.08541 2.70612 0
M  V30 12937 H 1274.41 -3.7652 1.14001 0
M  V30 12938 H 1276.43 -4.92141 0.633408 0
M  V30 12939 N 1275.6 -0.99472 -1.22242 0
M  V30 12940 C 1276.88 -0.587481 -1.86569 0
M  V30 12941 C 1277.26 0.935174 -1.89256 0
M  V30 12942 O 1276.61 1.81787 -1.3844 0
M  V30 12943 C 1276.82 -1.21001 -3.27353 0
M  V30 12944 C 1278.16 -1.31167 -4.03832 0
M  V30 12945 O 1279.19 -1.16454 -3.36626 0
M  V30 12946 O 1278.05 -1.54731 -5.24138 0
M  V30 12947 H 1275.14 -0.199838 -0.802492 0
M  V30 12948 H 1277.69 -1.09071 -1.30006 0
M  V30 12949 H 1276.46 -2.25143 -3.20041 0
M  V30 12950 H 1276.08 -0.692479 -3.91523 0
M  V30 12951 N 1277.08 1.37613 -0.768148 0
M  V30 12952 C 1278.3 2.04579 -0.340892 0
M  V30 12953 C 1278.73 1.57556 1.02751 0
M  V30 12954 O 1278.09 0.734151 1.65771 0
M  V30 12955 C 1278.13 3.58495 -0.389099 0
M  V30 12956 O 1277.24 4.07838 0.611741 0
M  V30 12957 H 1276.58 0.647246 -0.148216 0
M  V30 12958 H 1279.11 1.75999 -1.04333 0
M  V30 12959 H 1279.12 4.07263 -0.245116 0
M  V30 12960 H 1277.79 3.92076 -1.38742 0
M  V30 12961 H 1276.37 3.70399 0.431173 0
M  V30 12962 N 1278.56 0.518393 1.4883 0
M  V30 12963 C 1279.8 -0.0199348 2.0279 0
M  V30 12964 C 1280.14 -1.35026 1.39576 0
M  V30 12965 O 1279.41 -1.86927 0.537449 0
M  V30 12966 C 1279.69 -0.154184 3.5977 0
M  V30 12967 C 1279.55 1.2005 4.33484 0
M  V30 12968 C 1280.87 -0.886547 4.31078 0
M  V30 12969 H 1277.98 -0.00577061 0.736977 0
M  V30 12970 H 1280.63 0.673178 1.77675 0
M  V30 12971 H 1278.78 -0.74451 3.81299 0
M  V30 12972 H 1280.45 1.83104 4.23404 0
M  V30 12973 H 1278.69 1.78537 3.95357 0
M  V30 12974 H 1279.36 1.05968 5.41733 0
M  V30 12975 H 1281.84 -0.385711 4.14308 0
M  V30 12976 H 1280.71 -0.949355 5.40628 0
M  V30 12977 H 1280.98 -1.93424 3.97542 0
M  V30 12978 N 1280.03 -1.55556 0.252993 0
M  V30 12979 C 1281.26 -2.03491 -0.374022 0
M  V30 12980 C 1281.68 -1.13208 -1.51094 0
M  V30 12981 O 1281.03 -0.147705 -1.81901 0
M  V30 12982 C 1281.09 -3.50724 -0.876047 0
M  V30 12983 O 1280.81 -4.37569 0.215574 0
M  V30 12984 C 1282.31 -4.14448 -1.57313 0
M  V30 12985 H 1279.53 -0.665183 -0.0881644 0
M  V30 12986 H 1282.07 -2.00964 0.378636 0
M  V30 12987 H 1280.23 -3.53766 -1.57886 0
M  V30 12988 H 1280.64 -5.24235 -0.166625 0
M  V30 12989 H 1282.11 -5.19142 -1.87606 0
M  V30 12990 H 1282.59 -3.61299 -2.49719 0
M  V30 12991 H 1283.2 -4.15346 -0.914735 0
M  V30 12992 N 1281.51 0.0200419 -1.57587 0
M  V30 12993 C 1282.76 0.707627 -1.89307 0
M  V30 12994 C 1283.08 1.7541 -0.851831 0
M  V30 12995 O 1282.35 1.95571 0.113404 0
M  V30 12996 H 1280.93 0.264349 -0.698662 0
M  V30 12997 H 1283.59 -0.0161428 -1.94893 0
M  V30 12998 H 1282.69 1.19152 -2.8846 0
M  V30 12999 N 1282.99 1.54862 0.292472 0
M  V30 13000 C 1283.9 1.89472 1.38339 0
M  V30 13001 C 1284.92 0.789783 1.55043 0
M  V30 13002 O 1286.09 1.08705 1.69544 0
M  V30 13003 C 1283.16 2.14244 2.72581 0
M  V30 13004 C 1282.22 3.37913 2.64789 0
M  V30 13005 C 1281.45 3.61494 3.92629 0
M  V30 13006 O 1281.67 2.87931 4.92394 0
M  V30 13007 O 1280.61 4.55019 3.94007 0
M  V30 13008 H 1284.43 2.82298 1.11989 0
M  V30 13009 H 1282.02 1.41161 0.489291 0
M  V30 13010 H 1283.9 2.31689 3.51991 0
M  V30 13011 H 1282.58 1.24603 2.98757 0
M  V30 13012 H 1281.48 3.25823 1.83821 0
M  V30 13013 H 1282.82 4.27711 2.43565 0
M  V30 13014 N 1284.47 -0.556076 1.47464 0
M  V30 13015 C 1285.71 -1.32397 1.55726 0
M  V30 13016 C 1286.07 -1.90793 0.214956 0
M  V30 13017 O 1287.27 -2.68246 0.172429 0
M  V30 13018 C 1285.54 -2.40358 2.64505 0
M  V30 13019 S 1287.1 -3.27219 2.92358 0
M  V30 13020 H 1283.92 -0.450713 0.549889 0
M  V30 13021 H 1286.52 -0.636471 1.84849 0
M  V30 13022 H 1285.23 -1.95893 3.6063 0
M  V30 13023 H 1284.76 -3.13847 2.372 0
M  V30 13024 H 1286.77 -4.39854 2.29659 0
M  V30 13025 N 1285.95 -1.35615 -0.802897 0
M  V30 13026 C 1286.88 -1.31506 -1.92947 0
M  V30 13027 C 1287.86 -0.188843 -1.69048 0
M  V30 13028 O 1289.04 -0.384384 -1.90358 0
M  V30 13029 C 1286.17 -1.09001 -3.29752 0
M  V30 13030 C 1285.13 -2.18303 -3.68141 0
M  V30 13031 C 1284.45 -1.80959 -5.03148 0
M  V30 13032 C 1285.75 -3.60296 -3.78132 0
M  V30 13033 H 1287.45 -2.25771 -1.96642 0
M  V30 13034 H 1284.99 -1.08682 -0.944685 0
M  V30 13035 H 1286.95 -1.04766 -4.08169 0
M  V30 13036 H 1285.67 -0.111832 -3.26408 0
M  V30 13037 H 1284.33 -2.21642 -2.92011 0
M  V30 13038 H 1283.98 -0.817495 -4.96312 0
M  V30 13039 H 1283.68 -2.54129 -5.29804 0
M  V30 13040 H 1285.2 -1.78255 -5.84001 0
M  V30 13041 H 1286.62 -3.59259 -4.46773 0
M  V30 13042 H 1285.01 -4.32258 -4.16261 0
M  V30 13043 H 1286.08 -3.9618 -2.79588 0
M  V30 13044 N 1287.43 1.02549 -1.19673 0
M  V30 13045 C 1288.37 2.109 -0.937536 0
M  V30 13046 C 1289.34 1.65599 0.128923 0
M  V30 13047 O 1290.53 1.90795 -0.0139366 0
M  V30 13048 C 1287.67 3.4166 -0.48602 0
M  V30 13049 C 1286.78 4.0049 -1.61963 0
M  V30 13050 C 1285.92 5.19273 -1.11931 0
M  V30 13051 C 1284.95 5.70166 -2.22659 0
M  V30 13052 N 1284.09 6.80221 -1.73909 0
M  V30 13053 H 1288.93 2.32408 -1.86523 0
M  V30 13054 H 1286.47 1.13982 -0.929869 0
M  V30 13055 H 1288.43 4.16693 -0.205614 0
M  V30 13056 H 1287.06 3.20253 0.404678 0
M  V30 13057 H 1286.11 3.22638 -2.01516 0
M  V30 13058 H 1287.42 4.34273 -2.45374 0
M  V30 13059 H 1286.57 6.01478 -0.794336 0
M  V30 13060 H 1285.31 4.87033 -0.254972 0
M  V30 13061 H 1284.32 4.86572 -2.55983 0
M  V30 13062 H 1285.54 6.04444 -3.09554 0
M  V30 13063 H 1283.49 6.49826 -0.897889 0
M  V30 13064 H 1283.41 7.13149 -2.50907 0
M  V30 13065 H 1284.67 7.66011 -1.44386 0
M  V30 13066 N 1288.9 1.00119 1.21713 0
M  V30 13067 C 1290.14 0.690044 1.924 0
M  V30 13068 C 1290.51 -0.764695 1.76115 0
M  V30 13069 O 1291.71 -1.18764 2.4114 0
M  V30 13070 C 1289.98 1.09491 3.40215 0
M  V30 13071 S 1291.54 0.903392 4.294 0
M  V30 13072 H 1288.36 0.252037 0.66483 0
M  V30 13073 H 1290.96 1.28521 1.47318 0
M  V30 13074 H 1289.66 2.14987 3.49584 0
M  V30 13075 H 1289.19 0.491878 3.90313 0
M  V30 13076 H 1291.21 -0.201597 4.9579 0
M  V30 13077 N 1290.38 -1.37203 0.775435 0
M  V30 13078 C 1291.31 -2.32819 0.17826 0
M  V30 13079 C 1292.29 -1.55963 -0.678944 0
M  V30 13080 O 1293.48 -1.84183 -0.615648 0
M  V30 13081 C 1290.61 -3.40198 -0.698768 0
M  V30 13082 C 1289.56 -4.27961 0.057423 0
M  V30 13083 C 1288.89 -5.26385 -0.93929 0
M  V30 13084 C 1290.19 -5.07402 1.23856 0
M  V30 13085 H 1291.88 -2.8301 0.977028 0
M  V30 13086 H 1289.43 -1.3607 0.471274 0
M  V30 13087 H 1291.38 -4.06067 -1.12637 0
M  V30 13088 H 1290.1 -2.88541 -1.53009 0
M  V30 13089 H 1288.76 -3.63628 0.465848 0
M  V30 13090 H 1288.41 -4.71007 -1.76527 0
M  V30 13091 H 1288.11 -5.85966 -0.437844 0
M  V30 13092 H 1289.64 -5.9513 -1.36576 0
M  V30 13093 H 1291.05 -5.6639 0.887423 0
M  V30 13094 H 1289.45 -5.76327 1.67234 0
M  V30 13095 H 1290.52 -4.3986 2.04085 0
M  V30 13096 N 1291.86 -0.526279 -1.48553 0
M  V30 13097 C 1293.11 0.00914839 -2.02098 0
M  V30 13098 C 1293.43 1.35119 -1.40598 0
M  V30 13099 O 1292.7 1.87422 -0.570065 0
M  V30 13100 H 1291.28 0.00636935 -0.746973 0
M  V30 13101 H 1293.94 -0.689269 -1.82305 0
M  V30 13102 H 1293.04 0.120212 -3.11868 0
M  V30 13103 N 1293.34 1.5542 -0.261239 0
M  V30 13104 C 1294.29 2.23382 0.648324 0
M  V30 13105 C 1295.28 1.22615 1.16884 0
M  V30 13106 O 1296.49 1.40587 1.12407 0
M  V30 13107 H 1292.86 0.716733 0.227592 0
M  V30 13108 H 1294.83 2.98354 0.0521289 0
M  V30 13109 C 1293.58 2.9579 1.82766 0
M  V30 13110 H 1292.9 3.73109 1.4363 0
M  V30 13111 H 1294.34 3.46686 2.441 0
M  V30 13112 C 1292.8 2.00472 2.70763 0
M  V30 13113 O 1293.33 1.54698 3.70717 0
M  V30 13114 N 1291.54 1.67267 2.37635 0
M  V30 13115 H 1291.09 2.04685 1.56402 0
M  V30 13116 H 1291.04 1.03759 2.96785 0
M  V30 13117 N 1294.82 -0.0116844 1.57596 0
M  V30 13118 C 1296.04 -0.71026 1.94327 0
M  V30 13119 C 1296.46 -1.67952 0.862418 0
M  V30 13120 O 1295.82 -1.818 -0.159698 0
M  V30 13121 C 1295.87 -1.45228 3.31045 0
M  V30 13122 O 1295.59 -0.52191 4.3498 0
M  V30 13123 C 1297.09 -2.24644 3.82165 0
M  V30 13124 H 1294.31 -0.198559 0.640949 0
M  V30 13125 H 1296.85 0.0359615 2.04468 0
M  V30 13126 H 1295.01 -2.15023 3.22248 0
M  V30 13127 H 1295.42 -1.04415 5.14002 0
M  V30 13128 H 1296.9 -2.72078 4.80289 0
M  V30 13129 H 1297.37 -3.06817 3.14261 0
M  V30 13130 H 1297.98 -1.59888 3.94101 0
M  V30 13131 N 1296.29 -1.55015 -0.284256 0
M  V30 13132 C 1297.57 -1.6579 -1.03794 0
M  V30 13133 C 1297.95 -0.517029 -2.04671 0
M  V30 13134 O 1297.3 0.484287 -2.23309 0
M  V30 13135 C 1297.51 -3.04527 -1.70483 0
M  V30 13136 C 1298.86 -3.61903 -2.22062 0
M  V30 13137 O 1299.88 -3.07087 -1.80488 0
M  V30 13138 O 1298.74 -4.57917 -2.98286 0
M  V30 13139 H 1295.83 -0.672906 -0.480757 0
M  V30 13140 H 1298.38 -1.67357 -0.281009 0
M  V30 13141 H 1297.15 -3.79004 -0.973238 0
M  V30 13142 H 1296.77 -3.0681 -2.5289 0
M  V30 13143 N 1297.77 0.548248 -1.47757 0
M  V30 13144 C 1299.02 1.30243 -1.54535 0
M  V30 13145 C 1299.34 1.93832 -0.213089 0
M  V30 13146 O 1298.61 1.80397 0.763782 0
M  V30 13147 H 1297.19 0.483684 -0.569262 0
M  V30 13148 H 1299.85 0.639485 -1.8411 0
M  V30 13149 H 1298.95 2.09128 -2.31672 0
M  V30 13150 N 1299.25 1.36039 0.795694 0
M  V30 13151 C 1300.21 1.29709 1.88966 0
M  V30 13152 C 1301.21 0.206142 1.59473 0
M  V30 13153 O 1302.4 0.460534 1.68002 0
M  V30 13154 C 1299.53 1.00922 3.25619 0
M  V30 13155 H 1300.73 2.26993 1.95995 0
M  V30 13156 H 1298.28 1.2072 0.992791 0
M  V30 13157 H 1299.02 0.0407027 3.24274 0
M  V30 13158 H 1298.8 1.79863 3.48413 0
M  V30 13159 H 1300.29 0.990826 4.05675 0
M  V30 13160 N 1300.73 -1.01913 1.20215 0
M  V30 13161 C 1301.68 -2.08774 0.916367 0
M  V30 13162 C 1302.66 -1.60431 -0.122796 0
M  V30 13163 O 1303.85 -1.76799 0.0842336 0
M  V30 13164 C 1300.98 -3.40102 0.467517 0
M  V30 13165 C 1300.07 -3.95153 1.53997 0
M  V30 13166 N 1300.46 -4.23745 2.76178 0
M  V30 13167 C 1298.76 -4.23274 1.40554 0
M  V30 13168 C 1299.46 -4.681 3.45336 0
M  V30 13169 N 1298.44 -4.70224 2.72745 0
M  V30 13170 H 1302.24 -2.28786 1.84484 0
M  V30 13171 H 1299.75 -1.19861 1.09577 0
M  V30 13172 H 1301.75 -4.16184 0.244195 0
M  V30 13173 H 1300.41 -3.21505 -0.454358 0
M  V30 13174 H 1301.42 -4.12728 3.12852 0
M  V30 13175 H 1298.1 -4.1389 0.547877 0
M  V30 13176 H 1299.49 -4.99063 4.49873 0
M  V30 13177 N 1302.21 -1.00763 -1.2118 0
M  V30 13178 C 1303.45 -0.700238 -1.92031 0
M  V30 13179 C 1303.81 0.755344 -1.76518 0
M  V30 13180 O 1305.01 1.17484 -2.41766 0
M  V30 13181 C 1303.28 -1.11294 -3.3963 0
M  V30 13182 S 1304.84 -0.926151 -4.28915 0
M  V30 13183 H 1301.66 -0.255559 -0.663484 0
M  V30 13184 H 1304.26 -1.29301 -1.46634 0
M  V30 13185 H 1302.97 -2.16838 -3.48439 0
M  V30 13186 H 1302.5 -0.51257 -3.90047 0
M  V30 13187 H 1304.51 0.175301 -4.9589 0
M  V30 13188 N 1303.68 1.3679 -0.7827 0
M  V30 13189 C 1304.59 2.33928 -0.17747 0
M  V30 13190 C 1305.61 1.60716 0.666802 0
M  V30 13191 O 1306.79 1.92742 0.584162 0
M  V30 13192 C 1303.85 3.39907 0.68294 0
M  V30 13193 C 1302.91 4.28926 -0.179053 0
M  V30 13194 C 1302.15 5.29844 0.640386 0
M  V30 13195 O 1302.37 5.38639 1.87681 0
M  V30 13196 O 1301.3 6.01884 0.0438164 0
M  V30 13197 H 1305.13 2.87439 -0.980441 0
M  V30 13198 H 1302.71 1.39142 -0.54404 0
M  V30 13199 H 1304.6 4.04722 1.17379 0
M  V30 13200 H 1303.27 2.88706 1.46391 0
M  V30 13201 H 1302.18 3.67174 -0.716512 0
M  V30 13202 H 1303.51 4.83461 -0.923377 0
M  V30 13203 N 1305.16 0.53415 1.48272 0
M  V30 13204 C 1306.58 0.192291 1.58437 0
M  V30 13205 C 1306.78 -1.3046 1.53566 0
M  V30 13206 O 1305.83 -2.08316 1.42692 0
M  V30 13207 C 1307.15 0.798515 2.89904 0
M  V30 13208 C 1308.7 0.76763 3.03441 0
M  V30 13209 C 1309.17 1.3525 4.37574 0
M  V30 13210 N 1310.66 1.31466 4.44152 0
M  V30 13211 C 1311.4 1.73706 5.46456 0
M  V30 13212 N 1310.89 2.23695 6.55692 0
M  V30 13213 N 1312.69 1.64918 5.37363 0
M  V30 13214 H 1304.84 1.50696 1.49681 0
M  V30 13215 H 1307.1 0.627073 0.710973 0
M  V30 13216 H 1306.81 1.8496 2.99136 0
M  V30 13217 H 1306.68 0.278033 3.76174 0
M  V30 13218 H 1309.07 -0.274704 2.93819 0
M  V30 13219 H 1309.15 1.32562 2.18771 0
M  V30 13220 H 1308.79 2.39379 4.47951 0
M  V30 13221 H 1308.72 0.770153 5.20938 0
M  V30 13222 H 1311.21 0.948761 3.65796 0
M  V30 13223 H 1311.53 2.5391 7.29897 0
M  V30 13224 H 1309.87 2.27691 6.56644 0
M  V30 13225 H 1313.06 1.25658 4.50919 0
M  V30 13226 H 1313.23 1.98157 6.16958 0
M  V30 13227 N 1306.64 -1.55279 0.269478 0
M  V30 13228 C 1307.88 -2.01378 -0.350174 0
M  V30 13229 C 1308.24 -1.15373 -1.5347 0
M  V30 13230 O 1309.45 -1.51027 -2.22361 0
M  V30 13231 C 1307.72 -3.49904 -0.728134 0
M  V30 13232 S 1309.28 -4.17995 -1.33512 0
M  V30 13233 H 1306.09 -0.702567 -0.109179 0
M  V30 13234 H 1308.7 -1.91571 0.389994 0
M  V30 13235 H 1307.4 -4.10151 0.142925 0
M  V30 13236 H 1306.93 -3.63684 -1.49991 0
M  V30 13237 H 1308.95 -4.21153 -2.62383 0
M  V30 13238 N 1308.12 0.00332656 -1.576 0
M  V30 13239 C 1309.08 0.980628 -2.07163 0
M  V30 13240 C 1310.08 1.27455 -0.980402 0
M  V30 13241 O 1311.27 1.22029 -1.24317 0
M  V30 13242 C 1308.4 2.30647 -2.51028 0
M  V30 13243 H 1309.6 0.551982 -2.94776 0
M  V30 13244 H 1307.15 0.250728 -1.54276 0
M  V30 13245 H 1307.88 2.78207 -1.66647 0
M  V30 13246 H 1307.67 2.10635 -3.30719 0
M  V30 13247 H 1309.16 3.00761 -2.89711 0
M  V30 13248 N 1309.6 1.55164 0.276031 0
M  V30 13249 C 1310.87 1.66338 1.02913 0
M  V30 13250 C 1311.25 0.527876 2.04393 0
M  V30 13251 O 1310.6 -0.472437 2.23563 0
M  V30 13252 C 1310.81 3.05427 1.68865 0
M  V30 13253 C 1312.16 3.63075 2.2014 0
M  V30 13254 O 1313.18 3.0804 1.78857 0
M  V30 13255 O 1312.04 4.59492 2.95854 0
M  V30 13256 H 1309.14 0.675446 0.477181 0
M  V30 13257 H 1311.68 1.67504 0.272129 0
M  V30 13258 H 1310.45 3.79514 0.953125 0
M  V30 13259 H 1310.08 3.08147 2.5126 0
M  V30 13260 N 1311.07 -0.540404 1.48045 0
M  V30 13261 C 1312.32 -1.29422 1.55224 0
M  V30 13262 C 1312.64 -1.93716 0.223365 0
M  V30 13263 O 1311.91 -1.808 -0.754204 0
M  V30 13264 H 1310.49 -0.480658 0.571819 0
M  V30 13265 H 1313.16 -0.629712 1.84447 0
M  V30 13266 H 1312.25 -2.07897 2.32777 0
M  V30 13267 N 1312.55 -1.36459 -0.788468 0
M  V30 13268 C 1313.8 -1.30741 -1.54638 0
M  V30 13269 C 1314.13 0.113029 -1.94171 0
M  V30 13270 O 1313.38 1.08252 -1.63034 0
M  V30 13271 C 1313.68 -2.17672 -2.83467 0
M  V30 13272 C 1313.35 -3.66205 -2.63067 0
M  V30 13273 C 1312.01 -4.06688 -2.57212 0
M  V30 13274 C 1314.36 -4.60376 -2.44343 0
M  V30 13275 C 1311.69 -5.39482 -2.306 0
M  V30 13276 C 1314.04 -5.93388 -2.19258 0
M  V30 13277 C 1312.71 -6.32994 -2.11836 0
M  V30 13278 H 1311.98 -0.478416 -0.565862 0
M  V30 13279 H 1314.62 -1.68519 -0.909588 0
M  V30 13280 H 1312.93 -1.72834 -3.51619 0
M  V30 13281 H 1314.62 -2.10573 -3.41263 0
M  V30 13282 H 1311.21 -3.3409 -2.6848 0
M  V30 13283 H 1315.4 -4.29971 -2.47868 0
M  V30 13284 H 1310.65 -5.69149 -2.23337 0
M  V30 13285 H 1314.83 -6.65923 -2.03765 0
M  V30 13286 H 1312.46 -7.3582 -1.90978 0
M  V30 13287 N 1314.03 1.01274 -1.20754 0
M  V30 13288 C 1315.26 1.78265 -1.04427 0
M  V30 13289 C 1315.67 1.84718 0.409361 0
M  V30 13290 O 1315.01 1.30195 1.29595 0
M  V30 13291 C 1315.07 3.24037 -1.55693 0
M  V30 13292 C 1314.74 3.41181 -3.04047 0
M  V30 13293 C 1315.73 3.30087 -4.0167 0
M  V30 13294 C 1313.42 3.66872 -3.43089 0
M  V30 13295 C 1315.41 3.44436 -5.36323 0
M  V30 13296 C 1313.1 3.80865 -4.77896 0
M  V30 13297 C 1314.1 3.69652 -5.74322 0
M  V30 13298 O 1313.79 3.83211 -7.06686 0
M  V30 13299 H 1313.52 0.567327 -0.367582 0
M  V30 13300 H 1316.07 1.28336 -1.60372 0
M  V30 13301 H 1314.3 3.75067 -0.941382 0
M  V30 13302 H 1315.99 3.82676 -1.35328 0
M  V30 13303 H 1316.76 3.10172 -3.72852 0
M  V30 13304 H 1312.64 3.74685 -2.68574 0
M  V30 13305 H 1316.18 3.35601 -6.1157 0
M  V30 13306 H 1312.08 4.00282 -5.06403 0
M  V30 13307 H 1312.85 4.00205 -7.13987 0
M  V30 13308 N 1315.51 1.01404 1.20644 0
M  V30 13309 C 1316.76 0.700523 1.89571 0
M  V30 13310 C 1317.08 -0.771978 1.79068 0
M  V30 13311 O 1316.35 -1.55506 1.19142 0
M  V30 13312 H 1314.93 0.256122 0.70172 0
M  V30 13313 H 1317.59 1.28509 1.46531 0
M  V30 13314 H 1316.69 0.981665 2.9626 0
M  V30 13315 N 1316.99 -1.36373 0.789944 0
M  V30 13316 C 1318.26 -1.9349 0.286543 0
M  V30 13317 C 1318.64 -1.7218 -1.22136 0
M  V30 13318 O 1317.99 -1.08106 -2.01309 0
M  V30 13319 C 1318.2 -3.42316 0.679749 0
M  V30 13320 C 1319.55 -4.19442 0.659791 0
M  V30 13321 O 1320.57 -3.50758 0.620256 0
M  V30 13322 O 1319.43 -5.41957 0.703159 0
M  V30 13323 H 1316.53 -0.823942 0.0710537 0
M  V30 13324 H 1319.07 -1.45551 0.872523 0
M  V30 13325 H 1317.85 -3.51485 1.7197 0
M  V30 13326 H 1317.47 -3.97542 0.0676823 0
M  V30 13327 N 1318.47 -0.542005 -1.47987 0
M  V30 13328 C 1319.43 0.203537 -2.28294 0
M  V30 13329 C 1320.43 0.856762 -1.36074 0
M  V30 13330 O 1321.62 0.71496 -1.58852 0
M  V30 13331 C 1318.75 1.29581 -3.15312 0
M  V30 13332 H 1319.94 -0.501701 -2.95674 0
M  V30 13333 H 1317.5 -0.298378 -1.53426 0
M  V30 13334 H 1318.23 2.03393 -2.5259 0
M  V30 13335 H 1318.02 0.832398 -3.83163 0
M  V30 13336 H 1319.51 1.81988 -3.75859 0
M  V30 13337 N 1319.94 1.55134 -0.277709 0
M  V30 13338 C 1321.19 1.99949 0.338831 0
M  V30 13339 C 1321.52 1.16587 1.5531 0
M  V30 13340 O 1320.8 0.236572 1.93056 0
M  V30 13341 C 1321.08 3.5286 0.718457 0
M  V30 13342 C 1320.93 4.46975 -0.503332 0
M  V30 13343 C 1322.25 4.11754 1.55392 0
M  V30 13344 H 1319.37 0.726885 0.121682 0
M  V30 13345 H 1322.01 1.86055 -0.385171 0
M  V30 13346 H 1320.16 3.64831 1.33531 0
M  V30 13347 H 1321.84 4.46944 -1.14188 0
M  V30 13348 H 1320.08 4.18528 -1.14092 0
M  V30 13349 H 1320.75 5.51659 -0.193912 0
M  V30 13350 H 1323.23 4.03075 1.03293 0
M  V30 13351 H 1322.1 5.1895 1.78835 0
M  V30 13352 H 1322.36 3.62147 2.53578 0
M  V30 13353 N 1321.42 0.00503138 1.57599 0
M  V30 13354 C 1322.65 -0.689609 1.95069 0
M  V30 13355 C 1323.06 -1.67028 0.880183 0
M  V30 13356 O 1322.42 -1.81959 -0.140406 0
M  V30 13357 C 1322.47 -1.41709 3.32567 0
M  V30 13358 O 1322.19 -0.475746 4.35509 0
M  V30 13359 C 1323.69 -2.20578 3.84526 0
M  V30 13360 H 1320.91 -0.19175 0.643019 0
M  V30 13361 H 1323.46 0.057646 2.04419 0
M  V30 13362 H 1321.61 -2.11593 3.2451 0
M  V30 13363 H 1322.03 -0.989573 5.1508 0
M  V30 13364 H 1323.5 -2.66969 4.83148 0
M  V30 13365 H 1323.98 -3.03467 3.17497 0
M  V30 13366 H 1324.58 -1.557 3.95775 0
M  V30 13367 N 1322.9 -1.55308 -0.267798 0
M  V30 13368 C 1323.86 -1.87765 -1.31442 0
M  V30 13369 C 1324.86 -0.752571 -1.42102 0
M  V30 13370 O 1326.05 -1.02072 -1.41163 0
M  V30 13371 C 1323.18 -2.08754 -2.69508 0
M  V30 13372 H 1324.38 -2.8133 -1.03891 0
M  V30 13373 H 1321.93 -1.47879 -0.506111 0
M  V30 13374 H 1322.67 -1.17588 -3.02231 0
M  V30 13375 H 1322.45 -2.90674 -2.63156 0
M  V30 13376 H 1323.94 -2.3512 -3.4512 0
M  V30 13377 N 1324.38 0.532545 -1.4833 0
M  V30 13378 C 1325.32 1.63737 -1.62661 0
M  V30 13379 C 1326.29 1.59348 -0.468758 0
M  V30 13380 O 1327.48 1.77812 -0.691921 0
M  V30 13381 C 1324.62 3.02006 -1.66993 0
M  V30 13382 C 1323.73 3.16648 -2.93867 0
M  V30 13383 C 1322.87 4.4546 -2.89376 0
M  V30 13384 C 1321.91 4.53622 -4.10966 0
M  V30 13385 N 1321.04 5.7382 -4.04567 0
M  V30 13386 H 1325.88 1.50828 -2.57012 0
M  V30 13387 H 1323.42 0.734348 -1.27459 0
M  V30 13388 H 1325.38 3.82105 -1.67486 0
M  V30 13389 H 1324.01 3.13693 -0.76135 0
M  V30 13390 H 1323.06 2.29817 -3.0313 0
M  V30 13391 H 1324.37 3.1854 -3.8384 0
M  V30 13392 H 1323.53 5.33848 -2.88256 0
M  V30 13393 H 1322.27 4.46085 -1.97127 0
M  V30 13394 H 1321.27 3.63642 -4.12364 0
M  V30 13395 H 1322.5 4.54738 -5.04371 0
M  V30 13396 H 1320.44 5.75347 -3.15137 0
M  V30 13397 H 1320.36 5.77196 -4.88243 0
M  V30 13398 H 1321.63 6.64502 -4.07502 0
M  V30 13399 N 1325.86 1.36875 0.78122 0
M  V30 13400 C 1326.8 1.31941 1.91557 0
M  V30 13401 C 1327.8 0.209783 1.68096 0
M  V30 13402 O 1329 0.377266 1.76002 0
M  V30 13403 H 1325.38 0.410955 0.629778 0
M  V30 13404 H 1327.35 2.27721 1.92836 0
M  V30 13405 C 1326.1 1.13379 3.28695 0
M  V30 13406 H 1325.42 1.98013 3.47319 0
M  V30 13407 H 1326.86 1.13976 4.08394 0
M  V30 13408 C 1325.32 -0.161119 3.36515 0
M  V30 13409 O 1325.85 -1.14806 3.84945 0
M  V30 13410 N 1324.06 -0.208594 2.8985 0
M  V30 13411 H 1323.6 0.595187 2.5063 0
M  V30 13412 H 1323.56 -1.07465 2.95463 0
M  V30 13413 N 1327.33 -1.00632 1.21289 0
M  V30 13414 C 1328.57 -1.75921 1.04073 0
M  V30 13415 C 1328.94 -1.87381 -0.4186 0
M  V30 13416 O 1330.14 -2.5922 -0.711236 0
M  V30 13417 C 1328.41 -3.1344 1.71727 0
M  V30 13418 S 1329.97 -4.04636 1.6975 0
M  V30 13419 H 1326.79 -0.605321 0.372972 0
M  V30 13420 H 1329.39 -1.20417 1.54013 0
M  V30 13421 H 1328.09 -3.02731 2.77096 0
M  V30 13422 H 1327.62 -3.74017 1.21962 0
M  V30 13423 H 1329.64 -4.90686 0.737656 0
M  V30 13424 N 1328.81 -1.02043 -1.20104 0
M  V30 13425 C 1330.23 -0.735967 -1.41618 0
M  V30 13426 C 1330.43 0.68285 -1.89577 0
M  V30 13427 O 1329.48 1.45007 -2.06711 0
M  V30 13428 C 1330.8 -1.76492 -2.43457 0
M  V30 13429 C 1332.34 -1.78349 -2.57217 0
M  V30 13430 C 1332.82 -2.80181 -3.62302 0
M  V30 13431 N 1334.31 -2.78945 -3.69789 0
M  V30 13432 C 1335.05 -3.54395 -4.50768 0
M  V30 13433 N 1334.54 -4.39533 -5.35521 0
M  V30 13434 N 1336.33 -3.42974 -4.45337 0
M  V30 13435 H 1328.49 -1.93634 -0.872916 0
M  V30 13436 H 1330.75 -0.836663 -0.445757 0
M  V30 13437 H 1330.45 -2.78158 -2.15223 0
M  V30 13438 H 1330.33 -1.58022 -3.42504 0
M  V30 13439 H 1332.72 -0.773665 -2.84778 0
M  V30 13440 H 1332.8 -2.00894 -1.58352 0
M  V30 13441 H 1332.44 -3.81331 -3.35484 0
M  V30 13442 H 1332.37 -2.54898 -4.60798 0
M  V30 13443 H 1334.86 -2.17189 -3.09253 0
M  V30 13444 H 1335.17 -4.93863 -5.94407 0
M  V30 13445 H 1333.52 -4.43609 -5.3501 0
M  V30 13446 H 1336.71 -2.75881 -3.78163 0
M  V30 13447 H 1336.88 -4.02028 -5.0821 0
M  V30 13448 N 1330.29 1.35952 -0.797165 0
M  V30 13449 C 1331.25 2.28266 -0.206748 0
M  V30 13450 C 1332.25 1.49169 0.60043 0
M  V30 13451 O 1333.44 1.69054 0.42029 0
M  V30 13452 C 1330.58 3.33363 0.712884 0
M  V30 13453 H 1331.77 2.81992 -1.02082 0
M  V30 13454 H 1329.32 1.45648 -0.567138 0
M  V30 13455 H 1330.06 2.84806 1.551 0
M  V30 13456 H 1329.84 3.91864 0.135926 0
M  V30 13457 H 1331.33 4.02284 1.1206 0
M  V30 13458 N 1331.77 0.549846 1.47697 0
M  V30 13459 C 1333.01 0.0253105 2.04384 0
M  V30 13460 C 1333.37 -1.29692 1.41576 0
M  V30 13461 O 1334.57 -1.9087 1.89267 0
M  V30 13462 C 1332.84 -0.0736795 3.57324 0
M  V30 13463 S 1334.4 -0.545405 4.35397 0
M  V30 13464 H 1331.22 0.0215991 0.710672 0
M  V30 13465 H 1333.82 0.734912 1.81161 0
M  V30 13466 H 1332.53 0.893144 4.00563 0
M  V30 13467 H 1332.06 -0.80706 3.85033 0
M  V30 13468 H 1334.07 -1.80644 4.6215 0
M  V30 13469 N 1333.25 -1.54984 0.285932 0
M  V30 13470 C 1334.16 -2.26621 -0.606648 0
M  V30 13471 C 1335.17 -1.29595 -1.16108 0
M  V30 13472 O 1336.35 -1.62551 -1.18908 0
M  V30 13473 C 1333.41 -2.98156 -1.76929 0
M  V30 13474 C 1332.47 -4.10685 -1.25045 0
M  V30 13475 C 1331.71 -4.788 -2.35768 0
M  V30 13476 O 1331.93 -4.46183 -3.55354 0
M  V30 13477 O 1330.86 -5.66523 -2.03312 0
M  V30 13478 H 1334.69 -3.03689 -0.0259981 0
M  V30 13479 H 1332.28 -1.49306 0.0529355 0
M  V30 13480 H 1334.16 -3.43076 -2.44697 0
M  V30 13481 H 1332.83 -2.23996 -2.33683 0
M  V30 13482 H 1331.74 -3.70198 -0.538919 0
M  V30 13483 H 1333.07 -4.86778 -0.728528 0
M  V30 13484 N 1334.72 -0.0133892 -1.57594 0
M  V30 13485 C 1335.96 0.672977 -1.93004 0
M  V30 13486 C 1336.33 1.70188 -0.888816 0
M  V30 13487 O 1337.53 2.4396 -1.12859 0
M  V30 13488 C 1335.8 1.28743 -3.33407 0
M  V30 13489 S 1337.36 1.99706 -3.90721 0
M  V30 13490 H 1334.18 0.221972 -0.675462 0
M  V30 13491 H 1336.78 -0.0732871 -1.95363 0
M  V30 13492 H 1335.48 0.525931 -4.07016 0
M  V30 13493 H 1335.01 2.07134 -3.34454 0
M  V30 13494 H 1337.03 3.27375 -3.72881 0
M  V30 13495 N 1336.2 1.55448 0.259558 0
M  V30 13496 C 1337.15 1.85637 1.32374 0
M  V30 13497 C 1338.14 0.716256 1.44078 0
M  V30 13498 O 1339.33 0.977907 1.47533 0
M  V30 13499 C 1336.46 2.14353 2.68156 0
M  V30 13500 C 1335.54 3.34659 2.60508 0
M  V30 13501 N 1335.93 4.54241 2.22484 0
M  V30 13502 C 1334.23 3.37517 2.91545 0
M  V30 13503 C 1334.93 5.36358 2.25157 0
M  V30 13504 N 1333.91 4.751 2.64162 0
M  V30 13505 H 1337.71 2.75631 1.02005 0
M  V30 13506 H 1335.23 1.55505 0.468194 0
M  V30 13507 H 1337.22 2.34141 3.4494 0
M  V30 13508 H 1335.88 1.25651 2.99403 0
M  V30 13509 H 1336.89 4.80096 1.94237 0
M  V30 13510 H 1333.57 2.59048 3.27414 0
M  V30 13511 H 1334.96 6.42 1.98206 0
M  V30 13512 N 1337.68 -0.524672 1.4861 0
M  V30 13513 C 1338.93 -1.28211 1.5713 0
M  V30 13514 C 1339.26 -1.92626 0.246751 0
M  V30 13515 O 1338.53 -1.79553 -0.747725 0
M  V30 13516 C 1338.82 -2.36737 2.71344 0
M  V30 13517 C 1338.67 -1.76978 4.1352 0
M  V30 13518 C 1339.99 -3.3847 2.81294 0
M  V30 13519 H 1337.11 -0.46479 0.571961 0
M  V30 13520 H 1339.75 -0.583937 1.80804 0
M  V30 13521 H 1337.9 -2.96287 2.51289 0
M  V30 13522 H 1339.57 -1.21438 4.45029 0
M  V30 13523 H 1337.82 -1.07488 4.20272 0
M  V30 13524 H 1338.49 -2.55583 4.89266 0
M  V30 13525 H 1340.96 -2.88882 2.99477 0
M  V30 13526 H 1339.84 -4.11795 3.62928 0
M  V30 13527 H 1340.1 -3.99347 1.89669 0
M  V30 13528 N 1339.16 -1.37287 -0.77395 0
M  V30 13529 C 1340.11 -1.32872 -1.88716 0
M  V30 13530 C 1341.08 -0.194655 -1.64955 0
M  V30 13531 O 1342.26 -0.383662 -1.86903 0
M  V30 13532 C 1339.4 -1.13934 -3.2575 0
M  V30 13533 C 1338.51 -2.36552 -3.61479 0
M  V30 13534 C 1337.65 -2.10504 -4.87711 0
M  V30 13535 C 1336.69 -3.28999 -5.16165 0
M  V30 13536 N 1335.82 -3.02517 -6.33584 0
M  V30 13537 H 1340.66 -2.28051 -1.91825 0
M  V30 13538 H 1338.2 -1.13325 -0.93786 0
M  V30 13539 H 1340.16 -1.00976 -4.04796 0
M  V30 13540 H 1338.79 -0.22404 -3.22022 0
M  V30 13541 H 1337.84 -2.60257 -2.77435 0
M  V30 13542 H 1339.15 -3.24931 -3.78446 0
M  V30 13543 H 1338.31 -1.94564 -5.74656 0
M  V30 13544 H 1337.05 -1.19459 -4.72843 0
M  V30 13545 H 1336.05 -3.4548 -4.27696 0
M  V30 13546 H 1337.28 -4.20892 -5.32942 0
M  V30 13547 H 1335.22 -2.14099 -6.20079 0
M  V30 13548 H 1335.14 -3.84439 -6.50955 0
M  V30 13549 H 1336.41 -2.9019 -7.23471 0
M  V30 13550 N 1340.64 0.999871 -1.21821 0
M  V30 13551 C 1341.88 1.73497 -1.0365 0
M  V30 13552 C 1342.21 1.90194 0.430271 0
M  V30 13553 O 1341.48 1.45655 1.31002 0
M  V30 13554 H 1340.06 0.642804 -0.380541 0
M  V30 13555 H 1342.72 1.20461 -1.53216 0
M  V30 13556 H 1341.81 2.73215 -1.50864 0
M  V30 13557 N 1342.11 1.02678 1.19562 0
M  V30 13558 C 1343.34 0.741424 1.93695 0
M  V30 13559 C 1343.76 -0.693203 1.74861 0
M  V30 13560 O 1343.12 -1.47833 1.04953 0
M  V30 13561 C 1343.17 1.09514 3.43568 0
M  V30 13562 O 1342.27 0.212596 4.11852 0
M  V30 13563 H 1341.62 0.274128 0.604773 0
M  V30 13564 H 1344.15 1.37289 1.517 0
M  V30 13565 H 1344.16 1.05115 3.94227 0
M  V30 13566 H 1342.83 2.14034 3.56598 0
M  V30 13567 H 1341.41 0.315 3.71567 0
M  V30 13568 N 1343.59 -1.35528 0.804364 0
M  V30 13569 C 1344.54 -2.27241 0.18591 0
M  V30 13570 C 1345.53 -1.47669 -0.638956 0
M  V30 13571 O 1346.72 -1.69891 -0.496578 0
M  V30 13572 C 1343.85 -3.36769 -0.666446 0
M  V30 13573 C 1342.93 -4.23767 0.168027 0
M  V30 13574 N 1343.32 -4.90618 1.22994 0
M  V30 13575 C 1341.62 -4.45971 -0.0507088 0
M  V30 13576 C 1342.32 -5.55092 1.7392 0
M  V30 13577 N 1341.3 -5.33441 1.04601 0
M  V30 13578 H 1345.1 -2.7642 0.998467 0
M  V30 13579 H 1342.62 -1.49029 0.645301 0
M  V30 13580 H 1344.61 -4.01419 -1.12554 0
M  V30 13581 H 1343.27 -2.89143 -1.47738 0
M  V30 13582 H 1344.28 -4.92155 1.61256 0
M  V30 13583 H 1340.96 -4.09147 -0.830958 0
M  V30 13584 H 1342.35 -6.18434 2.62659 0
M  V30 13585 N 1345.07 -0.557671 -1.47404 0
M  V30 13586 C 1346.3 -0.0366797 -2.07368 0
M  V30 13587 C 1346.72 1.2478 -1.40754 0
M  V30 13588 O 1346.08 1.74757 -0.48268 0
M  V30 13589 C 1346.13 0.141728 -3.60321 0
M  V30 13590 O 1345.23 1.20419 -3.94427 0
M  V30 13591 H 1344.57 -0.0515319 -0.661997 0
M  V30 13592 H 1347.1 -0.773485 -1.89416 0
M  V30 13593 H 1347.11 0.355787 -4.06446 0
M  V30 13594 H 1345.79 -0.796433 -4.08203 0
M  V30 13595 H 1344.36 0.970589 -3.60047 0
M  V30 13596 N 1346.55 1.54831 -0.294147 0
M  V30 13597 C 1347.51 2.21946 0.572061 0
M  V30 13598 C 1348.51 1.20331 1.06663 0
M  V30 13599 O 1349.7 1.45112 0.963757 0
M  V30 13600 C 1346.83 2.90044 1.7913 0
M  V30 13601 H 1348.03 2.99897 -0.0142234 0
M  V30 13602 H 1345.58 1.56235 -0.0449187 0
M  V30 13603 H 1346.32 2.16154 2.4176 0
M  V30 13604 H 1346.1 3.64527 1.44439 0
M  V30 13605 H 1347.59 3.41263 2.40684 0
M  V30 13606 N 1348.03 0.0217466 1.57585 0
M  V30 13607 C 1349.27 -0.659463 1.91778 0
M  V30 13608 C 1349.61 -1.72201 0.897801 0
M  V30 13609 O 1348.88 -1.94333 -0.080509 0
M  V30 13610 C 1349.16 -1.28269 3.36481 0
M  V30 13611 C 1349.02 -0.230201 4.49211 0
M  V30 13612 C 1350.34 -2.20279 3.81005 0
M  V30 13613 H 1347.46 -0.238263 0.697424 0
M  V30 13614 H 1350.1 0.0774967 1.89842 0
M  V30 13615 H 1348.25 -1.9108 3.38262 0
M  V30 13616 H 1349.92 0.399901 4.59563 0
M  V30 13617 H 1348.16 0.445157 4.3151 0
M  V30 13618 H 1348.83 -0.705732 5.4747 0
M  V30 13619 H 1351.31 -1.67463 3.80914 0
M  V30 13620 H 1350.19 -2.60842 4.82962 0
M  V30 13621 H 1350.45 -3.09092 3.16093 0
M  V30 13622 N 1349.51 -1.55583 -0.251311 0
M  V30 13623 C 1350.75 -1.7897 -0.987372 0
M  V30 13624 C 1351.11 -0.590559 -1.82692 0
M  V30 13625 O 1352.31 -0.703109 -2.59441 0
M  V30 13626 C 1350.58 -3.07069 -1.82876 0
M  V30 13627 S 1352.14 -3.51659 -2.62452 0
M  V30 13628 H 1348.96 -0.628624 -0.332194 0
M  V30 13629 H 1351.56 -1.93821 -0.255653 0
M  V30 13630 H 1350.26 -3.92415 -1.20161 0
M  V30 13631 H 1349.8 -2.94943 -2.60331 0
M  V30 13632 H 1351.81 -3.12644 -3.85316 0
M  V30 13633 N 1350.98 0.516783 -1.48886 0
M  V30 13634 C 1351.93 1.61653 -1.60786 0
M  V30 13635 C 1352.92 1.54056 -0.464271 0
M  V30 13636 O 1354.11 1.61853 -0.716412 0
M  V30 13637 C 1351.24 3.0033 -1.66304 0
M  V30 13638 C 1350.32 3.12982 -2.86187 0
M  V30 13639 N 1350.72 2.95568 -4.10455 0
M  V30 13640 C 1349.01 3.44059 -2.83795 0
M  V30 13641 C 1349.71 3.11986 -4.90958 0
M  V30 13642 N 1348.69 3.40156 -4.24022 0
M  V30 13643 H 1352.49 1.4682 -2.546 0
M  V30 13644 H 1350.01 0.722555 -1.4544 0
M  V30 13645 H 1352 3.79345 -1.72924 0
M  V30 13646 H 1350.66 3.16245 -0.736158 0
M  V30 13647 H 1351.67 2.72062 -4.40684 0
M  V30 13648 H 1348.35 3.66249 -2.0042 0
M  V30 13649 H 1349.74 3.03149 -5.99625 0
M  V30 13650 N 1352.46 1.37696 0.766659 0
M  V30 13651 C 1353.39 1.36576 1.89392 0
M  V30 13652 C 1354.37 0.233597 1.68488 0
M  V30 13653 O 1355.56 0.434719 1.89272 0
M  V30 13654 C 1352.69 1.17705 3.26746 0
M  V30 13655 C 1351.64 2.27987 3.62224 0
M  V30 13656 C 1350.97 1.94235 4.98174 0
M  V30 13657 C 1352.27 3.70195 3.68447 0
M  V30 13658 H 1353.96 2.30905 1.90587 0
M  V30 13659 H 1351.51 1.11148 0.915538 0
M  V30 13660 H 1353.46 1.15551 4.05248 0
M  V30 13661 H 1352.18 0.198334 3.25997 0
M  V30 13662 H 1350.84 2.29306 2.86032 0
M  V30 13663 H 1350.49 0.948796 4.93971 0
M  V30 13664 H 1350.19 2.68086 5.2288 0
M  V30 13665 H 1351.72 1.93676 5.7907 0
M  V30 13666 H 1353.13 3.70978 4.37091 0
M  V30 13667 H 1351.53 4.43142 4.04654 0
M  V30 13668 H 1352.6 4.03453 2.68986 0
M  V30 13669 N 1353.94 -0.993397 1.22349 0
M  V30 13670 C 1354.85 -2.11771 1.00947 0
M  V30 13671 C 1355.87 -1.73949 -0.0420679 0
M  V30 13672 O 1357.04 -2.00837 0.150548 0
M  V30 13673 C 1354.11 -3.41654 0.589359 0
M  V30 13674 C 1353.17 -3.93579 1.71446 0
M  V30 13675 C 1352.4 -5.17264 1.3143 0
M  V30 13676 O 1352.62 -5.70074 0.192876 0
M  V30 13677 O 1351.56 -5.62929 2.13059 0
M  V30 13678 H 1355.38 -2.32708 1.95142 0
M  V30 13679 H 1352.97 -1.10144 1.00939 0
M  V30 13680 H 1354.85 -4.19813 0.365403 0
M  V30 13681 H 1353.53 -3.22077 -0.323738 0
M  V30 13682 H 1352.43 -3.16596 1.99294 0
M  V30 13683 H 1353.77 -4.17588 2.6054 0
M  V30 13684 N 1355.42 -1.03311 -1.19015 0
M  V30 13685 C 1356.65 -0.751802 -1.92758 0
M  V30 13686 C 1357.06 0.689982 -1.7574 0
M  V30 13687 O 1356.42 1.46961 -1.08207 0
M  V30 13688 C 1356.47 -1.09892 -3.44392 0
M  V30 13689 O 1356.19 -2.48409 -3.60866 0
M  V30 13690 C 1357.69 -0.841029 -4.35249 0
M  V30 13691 H 1354.91 -0.274757 -0.612168 0
M  V30 13692 H 1357.45 -1.37873 -1.51034 0
M  V30 13693 H 1355.61 -0.517092 -3.83933 0
M  V30 13694 H 1356.02 -2.61468 -4.54681 0
M  V30 13695 H 1357.5 -1.13383 -5.4023 0
M  V30 13696 H 1357.97 0.224434 -4.38626 0
M  V30 13697 H 1358.58 -1.40579 -4.01395 0
M  V30 13698 N 1356.9 1.35099 -0.81154 0
M  V30 13699 C 1358.14 1.98233 -0.393453 0
M  V30 13700 C 1358.46 1.64688 1.04417 0
M  V30 13701 O 1357.73 0.931845 1.72318 0
M  V30 13702 H 1356.31 0.733283 -0.142496 0
M  V30 13703 H 1358.98 1.6493 -1.03847 0
M  V30 13704 H 1358.07 3.08017 -0.503188 0
M  V30 13705 N 1358.37 0.56548 1.47106 0
M  V30 13706 C 1359.3 -0.16567 2.32912 0
M  V30 13707 C 1360.28 -0.900678 1.44298 0
M  V30 13708 O 1361.47 -0.879523 1.73142 0
M  V30 13709 C 1358.6 -1.19092 3.26243 0
M  V30 13710 C 1357.55 -0.571849 4.24163 0
M  V30 13711 C 1356.88 -1.70233 5.06878 0
M  V30 13712 C 1358.18 0.479785 5.20092 0
M  V30 13713 H 1359.87 0.550705 2.94292 0
M  V30 13714 H 1357.42 0.266284 1.41517 0
M  V30 13715 H 1359.37 -1.71064 3.85117 0
M  V30 13716 H 1358.1 -1.93734 2.62934 0
M  V30 13717 H 1356.76 -0.073353 3.66527 0
M  V30 13718 H 1356.4 -2.438 4.39967 0
M  V30 13719 H 1356.1 -1.29384 5.73178 0
M  V30 13720 H 1357.63 -2.22515 5.68612 0
M  V30 13721 H 1359.04 0.0458042 5.73282 0
M  V30 13722 H 1357.44 0.807615 5.94641 0
M  V30 13723 H 1358.51 1.37259 4.65068 0
M  V30 13724 N 1359.85 -1.54672 0.302354 0
M  V30 13725 C 1361.09 -2.02076 -0.30738 0
M  V30 13726 C 1361.46 -1.18603 -1.50988 0
M  V30 13727 O 1362.66 -1.5571 -2.19107 0
M  V30 13728 C 1360.93 -3.5137 -0.65375 0
M  V30 13729 S 1362.49 -4.20733 -1.24615 0
M  V30 13730 H 1359.31 -0.704725 -0.0942521 0
M  V30 13731 H 1361.91 -1.907 0.430542 0
M  V30 13732 H 1360.61 -4.09756 0.229892 0
M  V30 13733 H 1360.14 -3.66784 -1.42243 0
M  V30 13734 H 1362.16 -4.26624 -2.5339 0
M  V30 13735 N 1361.33 -0.0301034 -1.57571 0
M  V30 13736 C 1362.61 0.68703 -1.83137 0
M  V30 13737 C 1362.99 1.90277 -0.914216 0
M  V30 13738 O 1362.34 2.2848 0.0299358 0
M  V30 13739 C 1362.55 1.06431 -3.32375 0
M  V30 13740 C 1363.89 1.45554 -3.98873 0
M  V30 13741 O 1364.92 1.15727 -3.36877 0
M  V30 13742 O 1363.78 2.01133 -5.08142 0
M  V30 13743 H 1360.87 0.337141 -0.755159 0
M  V30 13744 H 1363.42 -0.0578604 -1.69601 0
M  V30 13745 H 1362.19 0.199077 -3.90793 0
M  V30 13746 H 1361.81 1.86734 -3.51022 0
M  V30 13747 N 1362.81 1.55714 0.243056 0
M  V30 13748 C 1364.05 1.79491 0.977867 0
M  V30 13749 C 1364.41 0.600239 1.82376 0
M  V30 13750 O 1365.61 0.716857 2.59065 0
M  V30 13751 C 1363.88 3.08034 1.81245 0
M  V30 13752 S 1365.44 3.53046 2.60583 0
M  V30 13753 H 1362.26 0.630377 0.328855 0
M  V30 13754 H 1364.86 1.93954 0.245371 0
M  V30 13755 H 1363.57 3.93047 1.18079 0
M  V30 13756 H 1363.1 2.9632 2.58763 0
M  V30 13757 H 1365.11 3.14683 3.83652 0
M  V30 13758 N 1364.29 -0.50888 1.49158 0
M  V30 13759 C 1365.23 -1.61129 1.65246 0
M  V30 13760 C 1366.2 -1.58582 0.49405 0
M  V30 13761 O 1367.39 -1.76689 0.720122 0
M  V30 13762 C 1364.53 -2.99311 1.71776 0
M  V30 13763 C 1363.64 -3.11933 2.98868 0
M  V30 13764 C 1362.78 -4.408 2.96426 0
M  V30 13765 C 1361.82 -4.47027 4.18131 0
M  V30 13766 N 1360.95 -5.67311 4.13645 0
M  V30 13767 H 1365.79 -1.4672 2.59379 0
M  V30 13768 H 1363.33 -0.713978 1.28611 0
M  V30 13769 H 1365.29 -3.79392 1.73543 0
M  V30 13770 H 1363.92 -3.12442 0.811159 0
M  V30 13771 H 1362.97 -2.24966 3.06748 0
M  V30 13772 H 1364.28 -3.12393 3.8886 0
M  V30 13773 H 1363.44 -5.29194 2.96712 0
M  V30 13774 H 1362.17 -4.42893 2.04199 0
M  V30 13775 H 1361.18 -3.57036 4.18097 0
M  V30 13776 H 1362.4 -4.46656 5.11542 0
M  V30 13777 H 1360.35 -5.70261 3.2425 0
M  V30 13778 H 1360.27 -5.69355 4.97364 0
M  V30 13779 H 1361.54 -6.57934 4.18022 0
M  V30 13780 N 1365.76 -1.381 -0.759346 0
M  V30 13781 C 1367.18 -1.30379 -1.33635 0
M  V30 13782 C 1367.53 0.0430279 -1.96153 0
M  V30 13783 O 1366.65 0.945029 -1.94675 0
M  V30 13784 C 1367.25 -2.3611 -2.42976 0
M  V30 13785 C 1365.81 -2.31985 -2.96412 0
M  V30 13786 C 1364.95 -2.19281 -1.69739 0
M  V30 13787 H 1367.9 -1.48542 -0.558656 0
M  V30 13788 H 1367.92 -2.01493 -3.22771 0
M  V30 13789 H 1367.44 -3.34122 -1.97445 0
M  V30 13790 H 1365.54 -1.37536 -3.46287 0
M  V30 13791 H 1365.65 -3.25895 -3.51183 0
M  V30 13792 H 1364.01 -1.66035 -1.93144 0
M  V30 13793 H 1364.8 -3.19225 -1.26293 0
M  V30 13794 N 1367.24 0.986894 -1.22875 0
M  V30 13795 C 1368.19 2.09935 -1.00151 0
M  V30 13796 C 1369.18 1.69303 0.0573751 0
M  V30 13797 O 1370.39 1.79746 -0.0955781 0
M  V30 13798 H 1366.77 0.686605 -0.306721 0
M  V30 13799 H 1368.74 2.26271 -1.94535 0
M  V30 13800 C 1367.49 3.42442 -0.602374 0
M  V30 13801 H 1366.81 3.74154 -1.40886 0
M  V30 13802 H 1368.25 4.21242 -0.482836 0
M  V30 13803 C 1366.71 3.29785 0.688707 0
M  V30 13804 O 1367.24 3.6208 1.73957 0
M  V30 13805 N 1365.44 2.82956 0.662152 0
M  V30 13806 H 1364.99 2.56873 -0.193337 0
M  V30 13807 H 1364.95 2.74869 1.52625 0
M  V30 13808 N 1368.72 1.0394 1.18466 0
M  V30 13809 C 1369.97 0.743141 1.88694 0
M  V30 13810 C 1370.3 -0.727211 1.8007 0
M  V30 13811 O 1369.57 -1.53058 1.20014 0
M  V30 13812 C 1369.86 1.20829 3.39223 0
M  V30 13813 C 1369.71 2.74064 3.56664 0
M  V30 13814 C 1371.03 0.797348 4.32817 0
M  V30 13815 H 1368.15 0.271437 0.685194 0
M  V30 13816 H 1370.79 1.29119 1.39386 0
M  V30 13817 H 1368.94 0.742033 3.81348 0
M  V30 13818 H 1370.61 3.28717 3.2364 0
M  V30 13819 H 1368.86 3.1395 2.99362 0
M  V30 13820 H 1369.53 3.01668 4.62277 0
M  V30 13821 H 1372 1.19854 3.98465 0
M  V30 13822 H 1370.88 1.15057 5.36706 0
M  V30 13823 H 1371.14 -0.299601 4.41084 0
M  V30 13824 N 1370.2 -1.34667 0.818693 0
M  V30 13825 C 1371.43 -2.02642 0.417608 0
M  V30 13826 C 1371.84 -1.61667 -0.97516 0
M  V30 13827 O 1371.2 -0.820056 -1.63038 0
M  V30 13828 C 1371.25 -3.57951 0.505295 0
M  V30 13829 O 1370.97 -3.97441 1.84317 0
M  V30 13830 C 1372.47 -4.4319 0.0985667 0
M  V30 13831 H 1369.69 -0.6496 0.168111 0
M  V30 13832 H 1372.24 -1.72032 1.10568 0
M  V30 13833 H 1370.39 -3.87166 -0.134646 0
M  V30 13834 H 1370.8 -4.92116 1.81444 0
M  V30 13835 H 1372.28 -5.51597 0.211015 0
M  V30 13836 H 1372.76 -4.28637 -0.95745 0
M  V30 13837 H 1373.36 -4.19295 0.71214 0
M  V30 13838 N 1371.68 -0.573274 -1.46804 0
M  V30 13839 C 1372.92 -0.0551522 -2.02025 0
M  V30 13840 C 1373.25 1.30577 -1.44826 0
M  V30 13841 O 1372.52 1.85514 -0.629403 0
M  V30 13842 H 1371.1 -0.0173982 -0.746797 0
M  V30 13843 H 1373.76 -0.746919 -1.8002 0
M  V30 13844 H 1372.85 0.0209326 -3.12093 0
M  V30 13845 N 1373.15 1.5451 -0.310553 0
M  V30 13846 C 1374.09 2.2134 0.595098 0
M  V30 13847 C 1375.1 1.20917 1.09009 0
M  V30 13848 O 1376.29 1.47458 1.0059 0
M  V30 13849 C 1373.39 2.85384 1.82782 0
M  V30 13850 C 1372.56 4.11826 1.47372 0
M  V30 13851 C 1371.62 4.59584 2.56259 0
M  V30 13852 O 1370.65 5.24567 2.20949 0
M  V30 13853 N 1371.85 4.32709 3.86967 0
M  V30 13854 H 1374.61 2.99691 0.0229291 0
M  V30 13855 H 1372.17 1.61351 -0.133173 0
M  V30 13856 H 1374.17 3.14263 2.54992 0
M  V30 13857 H 1372.74 2.10816 2.30815 0
M  V30 13858 H 1371.96 3.89853 0.583826 0
M  V30 13859 H 1373.24 4.94138 1.21265 0
M  V30 13860 H 1372.64 3.80669 4.18458 0
M  V30 13861 H 1371.2 4.66275 4.55446 0
M  V30 13862 N 1374.63 0.0384594 1.57553 0
M  V30 13863 C 1375.57 -0.969185 2.077 0
M  V30 13864 C 1376.58 -1.2829 1.00227 0
M  V30 13865 O 1377.77 -1.24592 1.27824 0
M  V30 13866 C 1374.87 -2.29414 2.49444 0
M  V30 13867 C 1374.04 -2.16422 3.80106 0
M  V30 13868 C 1373.1 -3.31931 4.08299 0
M  V30 13869 O 1372.13 -3.08401 4.78412 0
M  V30 13870 N 1373.33 -4.56015 3.59208 0
M  V30 13871 H 1376.09 -0.541252 2.94772 0
M  V30 13872 H 1373.65 -0.148084 1.61221 0
M  V30 13873 H 1375.65 -3.05533 2.6539 0
M  V30 13874 H 1374.22 -2.63817 1.67688 0
M  V30 13875 H 1373.44 -1.24973 3.73866 0
M  V30 13876 H 1374.72 -2.04954 4.65694 0
M  V30 13877 H 1374.12 -4.78025 3.02503 0
M  V30 13878 H 1372.68 -5.29271 3.80415 0
M  V30 13879 N 1376.11 -1.55841 -0.234795 0
M  V30 13880 C 1377.35 -1.80007 -0.968334 0
M  V30 13881 C 1377.72 -0.609903 -1.82055 0
M  V30 13882 O 1378.92 -0.730586 -2.58681 0
M  V30 13883 C 1377.19 -3.08991 -1.79609 0
M  V30 13884 S 1378.75 -3.54423 -2.58707 0
M  V30 13885 H 1375.56 -0.632112 -0.325508 0
M  V30 13886 H 1378.17 -1.94081 -0.235082 0
M  V30 13887 H 1376.87 -3.93667 -1.15993 0
M  V30 13888 H 1376.4 -2.97688 -2.57188 0
M  V30 13889 H 1378.42 -3.16713 -3.81978 0
M  V30 13890 N 1377.59 0.500963 -1.49426 0
M  V30 13891 C 1378.87 1.26231 -1.49416 0
M  V30 13892 C 1379.25 2.0993 -0.221908 0
M  V30 13893 O 1378.59 2.14198 0.795712 0
M  V30 13894 C 1378.8 2.11899 -2.77308 0
M  V30 13895 C 1380.15 2.71086 -3.26799 0
M  V30 13896 O 1381.18 2.22166 -2.78425 0
M  V30 13897 O 1380.04 3.60141 -4.11049 0
M  V30 13898 H 1377.13 0.571224 -0.598024 0
M  V30 13899 H 1379.68 0.51523 -1.61689 0
M  V30 13900 H 1378.45 1.50027 -3.61397 0
M  V30 13901 H 1378.07 2.93799 -2.67896 0
M  V30 13902 N 1379.07 1.38501 0.752011 0
M  V30 13903 C 1380 1.31746 1.87551 0
M  V30 13904 C 1381.01 0.229386 1.61176 0
M  V30 13905 O 1382.2 0.487066 1.71726 0
M  V30 13906 C 1379.3 1.01889 3.23221 0
M  V30 13907 C 1378.47 2.21637 3.77088 0
M  V30 13908 C 1377.53 1.885 4.91278 0
M  V30 13909 O 1376.56 2.61011 5.05828 0
M  V30 13910 N 1377.76 0.840909 5.74377 0
M  V30 13911 H 1380.53 2.28561 1.93856 0
M  V30 13912 H 1378.09 1.32383 0.932013 0
M  V30 13913 H 1380.08 0.777704 3.97157 0
M  V30 13914 H 1378.65 0.138658 3.12292 0
M  V30 13915 H 1377.87 2.61812 2.947 0
M  V30 13916 H 1379.16 3.01551 4.0981 0
M  V30 13917 H 1378.56 0.23962 5.65192 0
M  V30 13918 H 1377.11 0.659604 6.48454 0
M  V30 13919 N 1380.55 -0.980364 1.23396 0
M  V30 13920 C 1381.79 -1.73674 1.07781 0
M  V30 13921 C 1382.15 -1.88227 -0.378759 0
M  V30 13922 O 1383.35 -2.6067 -0.656092 0
M  V30 13923 C 1381.62 -3.09727 1.78337 0
M  V30 13924 S 1383.18 -4.00944 1.78295 0
M  V30 13925 H 1380 -0.597273 0.385728 0
M  V30 13926 H 1382.6 -1.17123 1.56533 0
M  V30 13927 H 1381.3 -2.96786 2.83455 0
M  V30 13928 H 1380.84 -3.71346 1.29868 0
M  V30 13929 H 1382.85 -4.89011 0.841572 0
M  V30 13930 N 1382.02 -1.04567 -1.17913 0
M  V30 13931 C 1382.95 -0.662066 -2.23917 0
M  V30 13932 C 1383.93 0.33713 -1.66726 0
M  V30 13933 O 1385.12 0.216116 -1.92994 0
M  V30 13934 C 1382.25 -0.029463 -3.47288 0
M  V30 13935 C 1381.2 -0.95274 -4.17261 0
M  V30 13936 C 1380.53 -0.184347 -5.34382 0
M  V30 13937 C 1381.83 -2.2741 -4.70194 0
M  V30 13938 H 1383.52 -1.54826 -2.5626 0
M  V30 13939 H 1381.07 -0.745886 -1.23177 0
M  V30 13940 H 1383.02 0.250654 -4.20654 0
M  V30 13941 H 1381.75 0.891638 -3.14193 0
M  V30 13942 H 1380.41 -1.21732 -3.45799 0
M  V30 13943 H 1380.05 0.73932 -4.97537 0
M  V30 13944 H 1379.75 -0.79949 -5.82136 0
M  V30 13945 H 1381.28 0.0886344 -6.10536 0
M  V30 13946 H 1382.69 -2.05433 -5.35229 0
M  V30 13947 H 1381.09 -2.84265 -5.28501 0
M  V30 13948 H 1382.16 -2.91708 -3.87342 0
M  V30 13949 N 1383.5 1.34231 -0.825823 0
M  V30 13950 C 1384.45 2.26916 -0.222038 0
M  V30 13951 C 1385.44 1.48667 0.615382 0
M  V30 13952 O 1386.63 1.7066 0.469487 0
M  V30 13953 C 1383.76 3.37787 0.612785 0
M  V30 13954 C 1382.84 4.23446 -0.235423 0
M  V30 13955 N 1383.23 4.88599 -1.30784 0
M  V30 13956 C 1381.53 4.45995 -0.0202477 0
M  V30 13957 C 1382.23 5.52254 -1.82729 0
M  V30 13958 N 1381.21 5.3171 -1.13074 0
M  V30 13959 H 1385.01 2.74796 -1.04232 0
M  V30 13960 H 1382.52 1.47983 -0.668928 0
M  V30 13961 H 1384.52 4.03159 1.06153 0
M  V30 13962 H 1383.18 2.91457 1.43119 0
M  V30 13963 H 1384.19 4.89528 -1.69066 0
M  V30 13964 H 1380.87 4.10417 0.765761 0
M  V30 13965 H 1382.26 6.14177 -2.72464 0
M  V30 13966 N 1384.98 0.581051 1.46498 0
M  V30 13967 C 1386.23 0.0658652 2.01993 0
M  V30 13968 C 1386.55 -1.29807 1.45516 0
M  V30 13969 O 1385.82 -1.85177 0.639233 0
M  V30 13970 H 1384.4 0.0213584 0.746695 0
M  V30 13971 H 1387.06 0.756456 1.79621 0
M  V30 13972 H 1386.16 -0.00438128 3.121 0
M  V30 13973 N 1386.46 -1.54343 0.318742 0
M  V30 13974 C 1387.69 -2.04597 -0.286961 0
M  V30 13975 C 1388.1 -1.19474 -1.46706 0
M  V30 13976 O 1387.44 -0.217082 -1.82413 0
M  V30 13977 C 1387.5 -3.50729 -0.789262 0
M  V30 13978 C 1387.16 -4.56214 0.267888 0
M  V30 13979 C 1388.16 -5.08079 1.10235 0
M  V30 13980 C 1385.85 -5.00585 0.414691 0
M  V30 13981 C 1387.84 -6.02872 2.06938 0
M  V30 13982 C 1385.53 -5.95195 1.38515 0
M  V30 13983 C 1386.53 -6.46224 2.21097 0
M  V30 13984 O 1386.21 -7.38976 3.16495 0
M  V30 13985 H 1385.95 -0.672994 -0.0636843 0
M  V30 13986 H 1388.5 -2.00147 0.461569 0
M  V30 13987 H 1386.73 -3.52562 -1.58862 0
M  V30 13988 H 1388.42 -3.84084 -1.31278 0
M  V30 13989 H 1389.18 -4.74581 0.999893 0
M  V30 13990 H 1385.06 -4.60483 -0.21819 0
M  V30 13991 H 1388.61 -6.42627 2.71435 0
M  V30 13992 H 1384.5 -6.28109 1.48826 0
M  V30 13993 H 1385.27 -7.56835 3.11678 0
M  V30 13994 N 1387.94 -0.0468143 -1.5753 0
M  V30 13995 C 1389.17 0.636723 -1.96544 0
M  V30 13996 C 1389.57 1.65169 -0.922814 0
M  V30 13997 O 1388.92 1.83417 0.101892 0
M  V30 13998 C 1388.98 1.38435 -3.31777 0
M  V30 13999 C 1388.64 0.525714 -4.53966 0
M  V30 14000 C 1389.64 -0.206392 -5.1949 0
M  V30 14001 C 1387.32 0.457919 -5.00208 0
M  V30 14002 C 1389.32 -0.994779 -6.29589 0
M  V30 14003 C 1387.01 -0.334159 -6.10186 0
M  V30 14004 C 1388 -1.0592 -6.74737 0
M  V30 14005 O 1387.69 -1.83826 -7.826 0
M  V30 14006 H 1387.42 0.179197 -0.651816 0
M  V30 14007 H 1389.98 -0.108214 -2.05115 0
M  V30 14008 H 1388.21 2.17482 -3.19748 0
M  V30 14009 H 1389.9 1.9577 -3.55568 0
M  V30 14010 H 1390.66 -0.163457 -4.84724 0
M  V30 14011 H 1386.54 1.01185 -4.49758 0
M  V30 14012 H 1390.09 -1.56121 -6.79906 0
M  V30 14013 H 1385.98 -0.378748 -6.44388 0
M  V30 14014 H 1386.75 -1.75991 -7.99356 0
M  V30 14015 N 1389.41 1.55964 0.226527 0
M  V30 14016 C 1390.66 1.78392 0.94977 0
M  V30 14017 C 1390.98 0.614444 1.85066 0
M  V30 14018 O 1390.25 -0.368894 1.92395 0
M  V30 14019 H 1388.83 0.657962 0.353688 0
M  V30 14020 H 1391.5 1.93422 0.239577 0
M  V30 14021 H 1390.59 2.70343 1.55952 0
M  V30 14022 N 1390.89 -0.493031 1.4969 0
M  V30 14023 C 1391.82 -1.60215 1.69863 0
M  V30 14024 C 1392.8 -1.61053 0.547362 0
M  V30 14025 O 1393.99 -1.77667 0.784093 0
M  V30 14026 C 1391.12 -2.98662 1.77252 0
M  V30 14027 C 1390.07 -3.1269 2.92248 0
M  V30 14028 C 1389.4 -4.52567 2.84758 0
M  V30 14029 C 1390.7 -2.91965 4.33074 0
M  V30 14030 H 1392.39 -1.43587 2.62723 0
M  V30 14031 H 1389.94 -0.689334 1.26429 0
M  V30 14032 H 1391.89 -3.7616 1.89951 0
M  V30 14033 H 1390.62 -3.16397 0.809976 0
M  V30 14034 H 1389.27 -2.37619 2.79164 0
M  V30 14035 H 1388.92 -4.6719 1.86394 0
M  V30 14036 H 1388.62 -4.62893 3.61944 0
M  V30 14037 H 1390.15 -5.32116 2.99475 0
M  V30 14038 H 1391.56 -3.59228 4.46798 0
M  V30 14039 H 1389.96 -3.13756 5.11544 0
M  V30 14040 H 1391.03 -1.88015 4.46966 0
M  V30 14041 N 1392.37 -1.38898 -0.744656 0
M  V30 14042 C 1393.65 -1.2611 -1.49518 0
M  V30 14043 C 1394.03 0.133592 -2.10677 0
M  V30 14044 O 1393.38 1.14394 -1.97804 0
M  V30 14045 C 1393.59 -2.37809 -2.55437 0
M  V30 14046 C 1394.93 -2.76664 -3.22091 0
M  V30 14047 O 1395.96 -2.37187 -2.65746 0
M  V30 14048 O 1394.82 -3.44771 -4.24023 0
M  V30 14049 H 1391.91 -0.493664 -0.663494 0
M  V30 14050 H 1394.46 -1.50748 -0.779304 0
M  V30 14051 H 1393.23 -3.31089 -2.08556 0
M  V30 14052 H 1392.85 -2.14783 -3.34595 0
M  V30 14053 N 1393.85 0.973806 -1.23914 0
M  V30 14054 C 1395.07 1.7564 -1.10296 0
M  V30 14055 C 1395.5 1.84984 0.340954 0
M  V30 14056 O 1394.86 1.31629 1.24674 0
M  V30 14057 C 1394.9 3.15809 -1.7406 0
M  V30 14058 O 1394.01 3.99911 -1.00722 0
M  V30 14059 H 1393.35 0.540133 -0.386202 0
M  V30 14060 H 1395.88 1.22197 -1.64101 0
M  V30 14061 H 1395.89 3.66359 -1.79568 0
M  V30 14062 H 1394.56 3.08324 -2.79122 0
M  V30 14063 H 1393.14 3.58405 -1.02956 0
M  V30 14064 N 1395.33 1.05191 1.17357 0
M  V30 14065 C 1396.57 0.760479 1.87246 0
M  V30 14066 C 1396.9 -0.714618 1.81434 0
M  V30 14067 O 1396.17 -1.51636 1.24029 0
M  V30 14068 H 1394.75 0.278317 0.693216 0
M  V30 14069 H 1397.41 1.33106 1.42369 0
M  V30 14070 H 1396.5 1.07542 2.92987 0
M  V30 14071 N 1396.8 -1.33791 0.83293 0
M  V30 14072 C 1397.75 -2.26795 0.234069 0
M  V30 14073 C 1398.74 -1.48991 -0.60749 0
M  V30 14074 O 1399.93 -1.70907 -0.46043 0
M  V30 14075 C 1397.06 -3.38107 -0.594863 0
M  V30 14076 C 1396.15 -4.23315 0.257877 0
M  V30 14077 N 1396.54 -4.87899 1.33373 0
M  V30 14078 C 1394.83 -4.45978 0.0438997 0
M  V30 14079 C 1395.54 -5.51278 1.85655 0
M  V30 14080 N 1394.51 -5.31103 1.15892 0
M  V30 14081 H 1398.31 -2.7424 1.05688 0
M  V30 14082 H 1395.83 -1.47627 0.676767 0
M  V30 14083 H 1397.82 -4.03716 -1.04014 0
M  V30 14084 H 1396.48 -2.92212 -1.41571 0
M  V30 14085 H 1397.5 -4.88624 1.71659 0
M  V30 14086 H 1394.17 -4.10818 -0.743985 0
M  V30 14087 H 1395.56 -6.12723 2.75717 0
M  V30 14088 N 1398.28 -0.588812 -1.46187 0
M  V30 14089 C 1399.53 -0.0765765 -2.01955 0
M  V30 14090 C 1399.85 1.29034 -1.46203 0
M  V30 14091 O 1399.12 1.84836 -0.649044 0
M  V30 14092 H 1397.7 -0.025318 -0.746571 0
M  V30 14093 H 1400.36 -0.765971 -1.79217 0
M  V30 14094 H 1399.46 -0.0121702 -3.12098 0
M  V30 14095 N 1399.76 1.54172 -0.326923 0
M  V30 14096 C 1401 2.02539 0.275192 0
M  V30 14097 C 1401.36 1.2099 1.49082 0
M  V30 14098 O 1402.57 1.59176 2.16602 0
M  V30 14099 C 1400.84 3.52366 0.597767 0
M  V30 14100 S 1402.4 4.22663 1.17906 0
M  V30 14101 H 1399.21 0.706135 0.0830286 0
M  V30 14102 H 1401.82 1.89991 -0.460826 0
M  V30 14103 H 1400.52 4.09338 -0.295052 0
M  V30 14104 H 1400.05 3.69001 1.36389 0
M  V30 14105 H 1402.07 4.30601 2.46571 0
M  V30 14106 N 1401.24 0.0551678 1.57503 0
M  V30 14107 C 1402.65 -0.3014 1.56728 0
M  V30 14108 C 1402.85 -1.71169 1.06317 0
M  V30 14109 O 1401.91 -2.4197 0.721566 0
M  V30 14110 C 1403.22 -0.12622 3.00435 0
M  V30 14111 C 1404.77 -0.197022 3.12379 0
M  V30 14112 C 1405.25 -0.0503235 4.57972 0
M  V30 14113 N 1406.74 -0.106471 4.63078 0
M  V30 14114 C 1407.47 -0.0171325 5.73397 0
M  V30 14115 N 1406.97 0.124781 6.92688 0
M  V30 14116 N 1408.76 -0.0730028 5.62053 0
M  V30 14117 H 1400.91 0.977072 1.88592 0
M  V30 14118 H 1403.18 0.37963 0.868668 0
M  V30 14119 H 1402.88 0.846286 3.41366 0
M  V30 14120 H 1402.76 -0.885574 3.66657 0
M  V30 14121 H 1405.14 -1.16 2.71345 0
M  V30 14122 H 1405.22 0.593155 2.48828 0
M  V30 14123 H 1404.87 0.909352 4.99693 0
M  V30 14124 H 1404.8 -0.859695 5.19535 0
M  V30 14125 H 1407.29 -0.215241 3.77287 0
M  V30 14126 H 1407.6 0.185548 7.72577 0
M  V30 14127 H 1405.95 0.15992 6.94816 0
M  V30 14128 H 1409.14 -0.182456 4.67744 0
M  V30 14129 H 1409.31 7.85052e-05 6.48 0
M  V30 14130 N 1402.72 -1.56081 -0.218252 0
M  V30 14131 C 1404.13 -1.69397 -0.784964 0
M  V30 14132 C 1404.48 -0.65775 -1.84846 0
M  V30 14133 O 1403.6 0.190478 -2.1556 0
M  V30 14134 C 1404.2 -3.07114 -1.4306 0
M  V30 14135 C 1402.76 -3.22273 -1.94466 0
M  V30 14136 C 1401.9 -2.65327 -0.80604 0
M  V30 14137 H 1404.86 -1.58699 0.0064566 0
M  V30 14138 H 1404.88 -3.03156 -2.2995 0
M  V30 14139 H 1404.39 -3.8251 -0.656335 0
M  V30 14140 H 1402.49 -2.51752 -2.74684 0
M  V30 14141 H 1402.6 -4.29526 -2.12237 0
M  V30 14142 H 1400.97 -2.23894 -1.21423 0
M  V30 14143 H 1401.75 -3.43271 -0.0443928 0
M  V30 14144 N 1404.2 0.485086 -1.49949 0
M  V30 14145 C 1405.44 1.24816 -1.61865 0
M  V30 14146 C 1405.8 1.8955 -0.305741 0
M  V30 14147 O 1407 2.67118 -0.300216 0
M  V30 14148 C 1405.27 2.27464 -2.75672 0
M  V30 14149 S 1406.83 3.12898 -3.07637 0
M  V30 14150 H 1403.65 0.423964 -0.570767 0
M  V30 14151 H 1406.25 0.547552 -1.87676 0
M  V30 14152 H 1404.95 1.78464 -3.69566 0
M  V30 14153 H 1404.49 3.02172 -2.51904 0
M  V30 14154 H 1406.5 4.28395 -2.50384 0
M  V30 14155 N 1405.67 1.39291 0.737279 0
M  V30 14156 C 1406.62 1.37969 1.87263 0
M  V30 14157 C 1407.62 0.263156 1.67344 0
M  V30 14158 O 1408.82 0.433069 1.74713 0
M  V30 14159 H 1405.2 0.430782 0.616385 0
M  V30 14160 H 1407.17 2.33741 1.85494 0
M  V30 14161 C 1405.92 1.23779 3.24922 0
M  V30 14162 H 1405.24 2.08963 3.40844 0
M  V30 14163 H 1406.68 1.26911 4.04561 0
M  V30 14164 C 1405.14 -0.0539778 3.36857 0
M  V30 14165 O 1405.67 -1.02501 3.88402 0
M  V30 14166 N 1403.87 -0.116275 2.90367 0
M  V30 14167 H 1403.42 0.674622 2.48609 0
M  V30 14168 H 1403.38 -0.980107 2.98733 0
M  V30 14169 N 1407.15 -0.967221 1.24429 0
M  V30 14170 C 1408.39 -1.72521 1.09617 0
M  V30 14171 C 1408.76 -1.88618 -0.358774 0
M  V30 14172 O 1409.96 -2.61351 -0.628408 0
M  V30 14173 C 1408.23 -3.07818 1.81612 0
M  V30 14174 S 1409.79 -3.99031 1.82537 0
M  V30 14175 H 1406.6 -0.593148 0.392041 0
M  V30 14176 H 1409.21 -1.15456 1.57766 0
M  V30 14177 H 1407.91 -2.93762 2.86586 0
M  V30 14178 H 1407.44 -3.69948 1.33799 0
M  V30 14179 H 1409.46 -4.88091 0.893391 0
M  V30 14180 N 1408.63 -1.05812 -1.16797 0
M  V30 14181 C 1409.85 -0.792518 -1.91661 0
M  V30 14182 C 1410.28 0.646598 -1.76637 0
M  V30 14183 O 1409.64 1.44998 -1.08836 0
M  V30 14184 C 1409.69 -1.18585 -3.40544 0
M  V30 14185 O 1408.79 -0.321716 -4.11143 0
M  V30 14186 H 1408.13 -0.290066 -0.597292 0
M  V30 14187 H 1410.66 -1.41263 -1.48007 0
M  V30 14188 H 1410.67 -1.1553 -3.91301 0
M  V30 14189 H 1409.35 -2.23413 -3.50798 0
M  V30 14190 H 1407.92 -0.413403 -3.70601 0
M  V30 14191 N 1410.11 1.33347 -0.840014 0
M  V30 14192 C 1411.35 1.98037 -0.43692 0
M  V30 14193 C 1411.69 1.66382 1.00154 0
M  V30 14194 O 1410.96 0.944311 1.70038 0
M  V30 14195 C 1411.24 3.54012 -0.65937 0
M  V30 14196 C 1411.1 3.9535 -2.14518 0
M  V30 14197 C 1412.42 4.39972 -0.106258 0
M  V30 14198 H 1409.54 0.719373 -0.160221 0
M  V30 14199 H 1412.18 1.57969 -1.05574 0
M  V30 14200 H 1410.33 3.88274 -0.132633 0
M  V30 14201 H 1412 3.7134 -2.73687 0
M  V30 14202 H 1410.24 3.4504 -2.62926 0
M  V30 14203 H 1410.91 5.03992 -2.25158 0
M  V30 14204 H 1413.39 4.12362 -0.556511 0
M  V30 14205 H 1412.27 5.48125 -0.291583 0
M  V30 14206 H 1412.53 4.30872 0.990032 0
M  V30 14207 N 1411.59 0.596556 1.45873 0
M  V30 14208 C 1412.55 -0.118666 2.28893 0
M  V30 14209 C 1413.55 -0.805668 1.3916 0
M  V30 14210 O 1414.74 -0.655511 1.61396 0
M  V30 14211 C 1411.87 -1.17789 3.19904 0
M  V30 14212 H 1413.06 0.611093 2.93608 0
M  V30 14213 H 1410.62 0.355115 1.52212 0
M  V30 14214 H 1411.35 -1.93878 2.59965 0
M  V30 14215 H 1411.14 -0.689616 3.85988 0
M  V30 14216 H 1412.63 -1.67912 3.82355 0
M  V30 14217 N 1413.06 -1.53996 0.335095 0
M  V30 14218 C 1414.31 -2.00375 -0.263475 0
M  V30 14219 C 1414.63 -1.22471 -1.51742 0
M  V30 14220 O 1413.9 -0.329604 -1.93107 0
M  V30 14221 H 1412.48 -0.740229 -0.100347 0
M  V30 14222 H 1415.14 -1.89531 0.454302 0
M  V30 14223 H 1414.24 -3.07874 -0.511834 0
M  V30 14224 N 1414.54 -0.0635198 -1.57472 0
M  V30 14225 C 1415.77 0.620205 -1.9791 0
M  V30 14226 C 1416.19 1.62851 -0.941335 0
M  V30 14227 O 1415.55 1.81056 0.0940313 0
M  V30 14228 C 1415.6 1.27261 -3.37397 0
M  V30 14229 O 1414.7 2.38841 -3.36197 0
M  V30 14230 H 1414.04 0.16021 -0.644382 0
M  V30 14231 H 1416.57 -0.135582 -2.0415 0
M  V30 14232 H 1416.58 1.6214 -3.74399 0
M  V30 14233 H 1415.26 0.533723 -4.12461 0
M  V30 14234 H 1413.83 2.05817 -3.10956 0
M  V30 14235 N 1416.02 1.56195 0.209972 0
M  V30 14236 C 1417.27 1.80011 0.93402 0
M  V30 14237 C 1417.6 0.635109 1.83521 0
M  V30 14238 O 1416.87 -0.365099 1.91043 0
M  V30 14239 C 1417.16 3.13989 1.76304 0
M  V30 14240 C 1417.01 4.40956 0.887567 0
M  V30 14241 C 1418.33 3.44514 2.73857 0
M  V30 14242 H 1415.45 0.654859 0.338125 0
M  V30 14243 H 1418.09 1.88921 0.20221 0
M  V30 14244 H 1416.24 3.06524 2.38695 0
M  V30 14245 H 1417.91 4.60452 0.279507 0
M  V30 14246 H 1416.15 4.33368 0.193533 0
M  V30 14247 H 1416.83 5.31164 1.50228 0
M  V30 14248 H 1419.3 3.52182 2.216 0
M  V30 14249 H 1418.18 4.39407 3.28957 0
M  V30 14250 H 1418.44 2.6726 3.52171 0
M  V30 14251 N 1417.5 -0.477127 1.50204 0
M  V30 14252 C 1418.72 -1.25775 1.6491 0
M  V30 14253 C 1419.15 -1.85187 0.329765 0
M  V30 14254 O 1418.51 -1.67004 -0.705641 0
M  V30 14255 C 1418.55 -2.3466 2.73801 0
M  V30 14256 O 1417.66 -3.39147 2.34634 0
M  V30 14257 H 1417 -0.370291 0.551163 0
M  V30 14258 H 1419.53 -0.568514 1.96543 0
M  V30 14259 H 1419.54 -2.80065 2.96695 0
M  V30 14260 H 1418.21 -1.90788 3.69557 0
M  V30 14261 H 1416.79 -2.99496 2.22163 0
M  V30 14262 N 1418.98 -1.3968 -0.729882 0
M  V30 14263 C 1420.25 -1.27689 -1.48172 0
M  V30 14264 C 1420.63 0.111239 -2.10807 0
M  V30 14265 O 1419.98 1.12289 -1.99006 0
M  V30 14266 C 1420.19 -2.40505 -2.529 0
M  V30 14267 C 1421.54 -2.80064 -3.19138 0
M  V30 14268 O 1422.56 -2.39992 -2.63215 0
M  V30 14269 O 1421.42 -3.49248 -4.20342 0
M  V30 14270 H 1418.52 -0.500674 -0.658221 0
M  V30 14271 H 1421.06 -1.51566 -0.763272 0
M  V30 14272 H 1419.83 -3.33282 -2.05033 0
M  V30 14273 H 1419.46 -2.1832 -3.32298 0
M  V30 14274 N 1420.45 0.960609 -1.2494 0
M  V30 14275 C 1421.7 1.70111 -1.09117 0
M  V30 14276 C 1422.02 1.91466 0.369544 0
M  V30 14277 O 1421.29 1.49749 1.26302 0
M  V30 14278 H 1419.87 0.630372 -0.400799 0
M  V30 14279 H 1422.54 1.15525 -1.56971 0
M  V30 14280 H 1421.63 2.68277 -1.5948 0
M  V30 14281 N 1421.93 1.0643 1.16234 0
M  V30 14282 C 1423.17 0.791061 1.88472 0
M  V30 14283 C 1423.54 -0.670265 1.79921 0
M  V30 14284 O 1424.74 -1.05815 2.47096 0
M  V30 14285 C 1423.01 1.27371 3.33933 0
M  V30 14286 S 1424.57 1.12974 4.24008 0
M  V30 14287 H 1421.39 0.286924 0.650535 0
M  V30 14288 H 1423.99 1.3615 1.40298 0
M  V30 14289 H 1422.69 2.33215 3.37696 0
M  V30 14290 H 1422.22 0.698083 3.87157 0
M  V30 14291 H 1424.24 0.0614942 4.96162 0
M  V30 14292 N 1423.41 -1.329 0.847073 0
M  V30 14293 C 1424.64 -2.0171 0.460497 0
M  V30 14294 C 1425.05 -1.63699 -0.940649 0
M  V30 14295 O 1424.41 -0.854454 -1.61262 0
M  V30 14296 C 1424.46 -3.56799 0.581108 0
M  V30 14297 O 1424.18 -3.93442 1.92705 0
M  V30 14298 C 1425.68 -4.42882 0.192552 0
M  V30 14299 H 1422.9 -0.645887 0.181853 0
M  V30 14300 H 1425.45 -1.69648 1.14192 0
M  V30 14301 H 1423.6 -3.87364 -0.0524924 0
M  V30 14302 H 1424.02 -4.88157 1.91841 0
M  V30 14303 H 1425.49 -5.51025 0.327969 0
M  V30 14304 H 1425.97 -4.30571 -0.866315 0
M  V30 14305 H 1426.57 -4.17691 0.800918 0
M  V30 14306 N 1424.89 -0.604284 -1.45555 0
M  V30 14307 C 1426.17 -0.0303285 -1.95576 0
M  V30 14308 C 1426.55 1.43661 -1.54676 0
M  V30 14309 O 1425.89 2.13747 -0.807731 0
M  V30 14310 C 1426.1 -0.22497 -3.48274 0
M  V30 14311 C 1427.45 -0.104042 -4.24473 0
M  V30 14312 O 1428.48 -0.154919 -3.55863 0
M  V30 14313 O 1427.33 0.0136297 -5.46498 0
M  V30 14314 H 1424.43 0.0376106 -0.826144 0
M  V30 14315 H 1426.97 -0.674114 -1.55736 0
M  V30 14316 H 1425.75 -1.24391 -3.71002 0
M  V30 14317 H 1425.37 0.454234 -3.94997 0
M  V30 14318 N 1426.37 1.53816 -0.343257 0
M  V30 14319 C 1427.28 2.28716 0.522121 0
M  V30 14320 C 1428.29 1.33815 1.11218 0
M  V30 14321 O 1429.47 1.66853 1.12793 0
M  V30 14322 C 1426.53 3.04517 1.65741 0
M  V30 14323 C 1425.59 4.15043 1.09716 0
M  V30 14324 C 1424.83 4.8722 2.17835 0
M  V30 14325 O 1425.05 4.59065 3.38549 0
M  V30 14326 O 1423.98 5.73678 1.82145 0
M  V30 14327 H 1427.81 3.03576 -0.086732 0
M  V30 14328 H 1425.4 1.49007 -0.108313 0
M  V30 14329 H 1427.28 3.51921 2.31796 0
M  V30 14330 H 1425.95 2.32514 2.25208 0
M  V30 14331 H 1424.86 3.71943 0.401152 0
M  V30 14332 H 1426.19 4.89147 0.547362 0
M  V30 14333 N 1427.84 0.0718701 1.57436 0
M  V30 14334 C 1429.09 -0.596052 1.9311 0
M  V30 14335 C 1429.41 -1.70146 0.952652 0
M  V30 14336 O 1428.68 -1.959 0.000812941 0
M  V30 14337 H 1427.26 -0.223165 0.712886 0
M  V30 14338 H 1429.93 0.129744 1.94468 0
M  V30 14339 H 1429.02 -1.02132 2.94916 0
M  V30 14340 N 1429.32 -1.56304 -0.201686 0
M  V30 14341 C 1430.25 -1.90538 -1.27389 0
M  V30 14342 C 1431.27 -0.795422 -1.42045 0
M  V30 14343 O 1432.46 -1.07381 -1.42589 0
M  V30 14344 C 1429.56 -2.11638 -2.64694 0
M  V30 14345 C 1428.73 -3.42755 -2.71731 0
M  V30 14346 C 1427.79 -3.53047 -3.90185 0
M  V30 14347 O 1426.81 -4.25923 -3.77595 0
M  V30 14348 N 1428.02 -2.85649 -5.05356 0
M  V30 14349 H 1430.78 -2.83106 -0.983411 0
M  V30 14350 H 1428.34 -1.57092 -0.391638 0
M  V30 14351 H 1430.33 -2.15818 -3.42352 0
M  V30 14352 H 1428.9 -1.256 -2.86258 0
M  V30 14353 H 1428.12 -3.50501 -1.80397 0
M  V30 14354 H 1429.41 -4.29092 -2.73418 0
M  V30 14355 H 1428.81 -2.26256 -5.18483 0
M  V30 14356 H 1427.37 -2.95465 -5.80985 0
M  V30 14357 N 1430.8 0.469154 -1.50455 0
M  V30 14358 C 1432.04 1.23092 -1.6318 0
M  V30 14359 C 1432.4 1.89215 -0.325829 0
M  V30 14360 O 1433.61 2.66785 -0.328531 0
M  V30 14361 C 1431.88 2.24527 -2.78069 0
M  V30 14362 S 1433.44 3.09617 -3.10938 0
M  V30 14363 H 1430.25 0.417887 -0.575232 0
M  V30 14364 H 1432.86 0.527616 -1.88246 0
M  V30 14365 H 1431.56 1.74534 -3.71438 0
M  V30 14366 H 1431.09 2.99483 -2.55095 0
M  V30 14367 H 1433.11 4.25716 -2.54913 0
M  V30 14368 N 1432.28 1.40065 0.722464 0
M  V30 14369 C 1433.23 1.36267 1.82798 0
M  V30 14370 C 1434.21 0.241375 1.59079 0
M  V30 14371 O 1435.4 0.479929 1.70369 0
M  V30 14372 C 1432.53 1.22086 3.20858 0
M  V30 14373 C 1431.62 2.38969 3.50364 0
M  V30 14374 N 1432.01 3.6445 3.50727 0
M  V30 14375 C 1430.31 2.32199 3.80788 0
M  V30 14376 C 1431.01 4.41816 3.78383 0
M  V30 14377 N 1429.99 3.71565 3.96787 0
M  V30 14378 H 1433.79 2.31236 1.81403 0
M  V30 14379 H 1431.3 1.33739 0.92128 0
M  V30 14380 H 1433.3 1.17448 4.00014 0
M  V30 14381 H 1431.96 0.280787 3.23484 0
M  V30 14382 H 1432.97 3.97705 3.3174 0
M  V30 14383 H 1429.65 1.46521 3.90945 0
M  V30 14384 H 1431.04 5.5064 3.85027 0
M  V30 14385 N 1433.76 -0.95397 1.25448 0
M  V30 14386 C 1435 -1.71348 1.11441 0
M  V30 14387 C 1435.36 -1.88988 -0.338748 0
M  V30 14388 O 1436.56 -2.62003 -0.600652 0
M  V30 14389 C 1434.83 -3.05874 1.84867 0
M  V30 14390 S 1436.39 -3.97072 1.86759 0
M  V30 14391 H 1433.21 -0.588957 0.39831 0
M  V30 14392 H 1435.81 -1.13776 1.58982 0
M  V30 14393 H 1434.52 -2.90706 2.89686 0
M  V30 14394 H 1434.05 -3.68508 1.37715 0
M  V30 14395 H 1436.06 -4.87116 0.945109 0
M  V30 14396 N 1435.24 -1.07045 -1.15668 0
M  V30 14397 C 1436.48 -0.792908 -1.86657 0
M  V30 14398 C 1436.81 0.679213 -1.81935 0
M  V30 14399 O 1436.09 1.49822 -1.2403 0
M  V30 14400 C 1436.37 -1.2978 -3.35901 0
M  V30 14401 C 1436.23 -2.83424 -3.49272 0
M  V30 14402 C 1437.54 -0.911821 -4.30551 0
M  V30 14403 H 1434.66 -0.289509 -0.677756 0
M  V30 14404 H 1437.31 -1.32769 -1.35913 0
M  V30 14405 H 1435.46 -0.84288 -3.79246 0
M  V30 14406 H 1437.13 -3.37182 -3.14811 0
M  V30 14407 H 1435.37 -3.21777 -2.90933 0
M  V30 14408 H 1436.04 -3.13819 -4.54116 0
M  V30 14409 H 1438.52 -1.30376 -3.95147 0
M  V30 14410 H 1437.39 -1.29247 -5.33467 0
M  V30 14411 H 1437.65 0.18255 -4.41723 0
M  V30 14412 N 1436.71 1.32449 -0.85411 0
M  V30 14413 C 1438.12 1.79545 -0.511923 0
M  V30 14414 C 1438.48 1.70534 0.970188 0
M  V30 14415 O 1437.6 1.2636 1.75676 0
M  V30 14416 C 1438.2 3.26 -0.922456 0
M  V30 14417 C 1436.75 3.71053 -0.632176 0
M  V30 14418 C 1435.9 2.53565 -1.12249 0
M  V30 14419 H 1438.85 1.19755 -1.04137 0
M  V30 14420 H 1438.87 3.79751 -0.238618 0
M  V30 14421 H 1438.39 3.32526 -2.00119 0
M  V30 14422 H 1436.49 3.70042 0.435862 0
M  V30 14423 H 1436.6 4.63878 -1.19809 0
M  V30 14424 H 1434.96 2.48849 -0.542781 0
M  V30 14425 H 1435.75 2.62846 -2.20832 0
M  V30 14426 N 1438.19 0.611994 1.45232 0
M  V30 14427 C 1439.44 0.108696 2.01807 0
M  V30 14428 C 1439.76 -1.26692 1.48237 0
M  V30 14429 O 1439.03 -1.8378 0.678368 0
M  V30 14430 H 1437.61 0.0371921 0.746074 0
M  V30 14431 H 1440.27 0.794386 1.77976 0
M  V30 14432 H 1439.37 0.0618207 3.12039 0
M  V30 14433 N 1439.67 -1.53632 0.351409 0
M  V30 14434 C 1440.92 -2.01338 -0.243047 0
M  V30 14435 C 1441.25 -1.23864 -1.4957 0
M  V30 14436 O 1440.52 -0.328412 -1.91707 0
M  V30 14437 C 1440.81 -3.55886 -0.549284 0
M  V30 14438 C 1440.66 -4.44064 0.716016 0
M  V30 14439 C 1441.98 -4.18699 -1.35569 0
M  V30 14440 H 1439.1 -0.731863 -0.0868627 0
M  V30 14441 H 1441.74 -1.84005 0.473501 0
M  V30 14442 H 1439.89 -3.70787 -1.15972 0
M  V30 14443 H 1441.56 -4.40987 1.35383 0
M  V30 14444 H 1439.8 -4.12608 1.3393 0
M  V30 14445 H 1440.48 -5.50106 0.456895 0
M  V30 14446 H 1442.95 -4.07545 -0.839441 0
M  V30 14447 H 1441.83 -5.26892 -1.53871 0
M  V30 14448 H 1442.09 -3.73834 -2.3601 0
M  V30 14449 N 1441.15 -0.0802183 -1.57396 0
M  V30 14450 C 1442.11 0.869437 -2.12069 0
M  V30 14451 C 1443.11 1.22079 -1.04658 0
M  V30 14452 O 1444.3 1.15267 -1.3061 0
M  V30 14453 C 1441.43 2.17016 -2.62901 0
M  V30 14454 H 1442.63 0.394952 -2.97288 0
M  V30 14455 H 1440.18 0.168597 -1.55388 0
M  V30 14456 H 1440.91 2.68983 -1.8116 0
M  V30 14457 H 1440.7 1.92808 -3.4142 0
M  V30 14458 H 1442.19 2.84982 -3.05246 0
M  V30 14459 N 1442.63 1.56409 0.193394 0
M  V30 14460 C 1443.87 1.80367 0.911717 0
M  V30 14461 C 1444.19 0.653561 1.83721 0
M  V30 14462 O 1443.46 -0.328001 1.93135 0
M  V30 14463 H 1442.04 0.665316 0.339652 0
M  V30 14464 H 1444.71 1.93887 0.198496 0
M  V30 14465 H 1443.8 2.7359 1.50182 0
M  V30 14466 N 1444.1 -0.461169 1.50702 0
M  V30 14467 C 1445.05 -1.5579 1.70288 0
M  V30 14468 C 1446.02 -1.5693 0.544251 0
M  V30 14469 O 1447.21 -1.74308 0.77597 0
M  V30 14470 C 1444.35 -2.93694 1.81212 0
M  V30 14471 C 1443.46 -3.02267 3.0864 0
M  V30 14472 C 1442.59 -4.31147 3.103 0
M  V30 14473 C 1441.63 -4.33498 4.32141 0
M  V30 14474 N 1440.77 -5.53864 4.31484 0
M  V30 14475 H 1445.61 -1.38393 2.63915 0
M  V30 14476 H 1443.15 -0.6727 1.30817 0
M  V30 14477 H 1445.1 -3.73679 1.85526 0
M  V30 14478 H 1443.73 -3.09703 0.91015 0
M  V30 14479 H 1442.79 -2.15093 3.1375 0
M  V30 14480 H 1444.1 -2.99864 3.98601 0
M  V30 14481 H 1443.25 -5.19487 3.13398 0
M  V30 14482 H 1441.99 -4.36172 2.18186 0
M  V30 14483 H 1441 -3.43554 4.29245 0
M  V30 14484 H 1442.22 -4.30156 5.25493 0
M  V30 14485 H 1440.17 -5.59657 3.42229 0
M  V30 14486 H 1440.08 -5.53244 5.15225 0
M  V30 14487 H 1441.35 -6.44302 4.38742 0
M  V30 14488 N 1445.58 -1.40446 -0.715026 0
M  V30 14489 C 1447 -1.22488 -1.02317 0
M  V30 14490 C 1447.2 -0.100481 -2.01249 0
M  V30 14491 O 1446.25 0.541447 -2.46626 0
M  V30 14492 C 1447.57 -2.56682 -1.56636 0
M  V30 14493 C 1449.11 -2.63699 -1.68617 0
M  V30 14494 C 1449.59 -3.98163 -2.26342 0
M  V30 14495 N 1451.08 -3.99907 -2.33727 0
M  V30 14496 C 1451.82 -5.00737 -2.79375 0
M  V30 14497 N 1451.31 -6.11961 -3.24771 0
M  V30 14498 N 1453.1 -4.88106 -2.78764 0
M  V30 14499 H 1445.26 -2.12317 -0.0592712 0
M  V30 14500 H 1447.52 -0.943823 -0.088895 0
M  V30 14501 H 1447.22 -3.39615 -0.914036 0
M  V30 14502 H 1447.1 -2.77809 -2.55151 0
M  V30 14503 H 1449.49 -1.81138 -2.32966 0
M  V30 14504 H 1449.57 -2.46402 -0.687004 0
M  V30 14505 H 1449.21 -4.81164 -1.62614 0
M  V30 14506 H 1449.14 -4.1279 -3.26974 0
M  V30 14507 H 1451.63 -3.19592 -2.01666 0
M  V30 14508 H 1451.94 -6.84787 -3.58171 0
M  V30 14509 H 1450.29 -6.15525 -3.22729 0
M  V30 14510 H 1453.48 -4.00307 -2.42635 0
M  V30 14511 H 1453.65 -5.66828 -3.14023 0
M  V30 14512 N 1447.06 0.947303 -1.25952 0
M  V30 14513 C 1448.3 1.70755 -1.12348 0
M  V30 14514 C 1448.66 1.89165 0.328721 0
M  V30 14515 O 1449.86 2.62318 0.586749 0
M  V30 14516 C 1448.14 3.04889 -1.86486 0
M  V30 14517 S 1449.69 3.96076 -1.88863 0
M  V30 14518 H 1446.51 0.586836 -0.401428 0
M  V30 14519 H 1449.11 1.12932 -1.59583 0
M  V30 14520 H 1447.82 2.89166 -2.91224 0
M  V30 14521 H 1447.35 3.67772 -1.39668 0
M  V30 14522 H 1449.36 4.86608 -0.970929 0
M  V30 14523 N 1448.54 1.07657 1.15099 0
M  V30 14524 C 1449.82 0.714608 1.82079 0
M  V30 14525 C 1450.2 -0.802578 1.95248 0
M  V30 14526 O 1449.54 -1.71818 1.50634 0
M  V30 14527 C 1449.75 1.43264 3.1824 0
M  V30 14528 C 1451.1 1.58675 3.93837 0
M  V30 14529 O 1452.13 1.39367 3.27804 0
M  V30 14530 O 1450.98 1.9047 5.12234 0
M  V30 14531 H 1448.08 0.254645 0.786819 0
M  V30 14532 H 1450.62 1.17768 1.22183 0
M  V30 14533 H 1449.4 2.46655 3.03772 0
M  V30 14534 H 1449.02 0.960546 3.85823 0
M  V30 14535 N 1450.02 -1.31994 0.861122 0
M  V30 14536 C 1451.43 -1.49756 0.551844 0
M  V30 14537 C 1451.63 -1.79473 -0.916056 0
M  V30 14538 O 1450.69 -1.86813 -1.69874 0
M  V30 14539 C 1452 -2.63737 1.44442 0
M  V30 14540 C 1453.55 -2.77621 1.44552 0
M  V30 14541 C 1454.02 -3.94689 2.32346 0
M  V30 14542 N 1455.52 -4.01961 2.30177 0
M  V30 14543 C 1456.25 -4.91794 2.94833 0
M  V30 14544 N 1455.75 -5.86589 3.68626 0
M  V30 14545 N 1457.54 -4.84968 2.84188 0
M  V30 14546 H 1449.69 -1.10972 1.81105 0
M  V30 14547 H 1451.95 -0.54753 0.773896 0
M  V30 14548 H 1451.66 -2.48526 2.48853 0
M  V30 14549 H 1451.53 -3.59671 1.13651 0
M  V30 14550 H 1453.92 -2.92251 0.409034 0
M  V30 14551 H 1454 -1.8238 1.79363 0
M  V30 14552 H 1453.65 -3.80817 3.36067 0
M  V30 14553 H 1453.58 -4.89219 1.94865 0
M  V30 14554 H 1456.07 -3.34132 1.76533 0
M  V30 14555 H 1456.38 -6.51846 4.15111 0
M  V30 14556 H 1454.72 -5.86596 3.72734 0
M  V30 14557 H 1457.92 -4.09883 2.26084 0
M  V30 14558 H 1458.09 -5.54774 3.34857 0
M  V30 14559 N 1451.49 -0.619688 -1.44906 0
M  V30 14560 C 1452.73 -0.122796 -2.04031 0
M  V30 14561 C 1453.1 1.2279 -1.47603 0
M  V30 14562 O 1454.3 1.81623 -1.98158 0
M  V30 14563 C 1452.57 -0.0968883 -3.57269 0
M  V30 14564 S 1454.13 0.33705 -4.37504 0
M  V30 14565 H 1450.95 -0.0554816 -0.708832 0
M  V30 14566 H 1453.55 -0.82051 -1.77448 0
M  V30 14567 H 1452.25 -1.08324 -3.95846 0
M  V30 14568 H 1451.78 0.622437 -3.88445 0
M  V30 14569 H 1453.8 1.58388 -4.70242 0
M  V30 14570 N 1452.97 1.53444 -0.359552 0
M  V30 14571 C 1453.94 2.24173 0.477412 0
M  V30 14572 C 1454.94 1.24747 1.01464 0
M  V30 14573 O 1456.13 1.49069 0.901343 0
M  V30 14574 C 1453.26 2.9738 1.66667 0
M  V30 14575 H 1454.45 2.99566 -0.141407 0
M  V30 14576 H 1452 1.55904 -0.111143 0
M  V30 14577 H 1452.74 2.26214 2.32374 0
M  V30 14578 H 1452.52 3.70325 1.28848 0
M  V30 14579 H 1454.01 3.51165 2.25994 0
M  V30 14580 N 1454.45 0.0885642 1.57351 0
M  V30 14581 C 1455.4 -0.883199 2.10199 0
M  V30 14582 C 1456.38 -1.24805 1.0155 0
M  V30 14583 O 1457.58 -1.22423 1.27835 0
M  V30 14584 C 1454.71 -2.14467 2.68065 0
M  V30 14585 C 1453.79 -1.80555 3.83746 0
M  V30 14586 N 1454.18 -1.17169 4.92042 0
M  V30 14587 C 1452.48 -2.10204 3.93358 0
M  V30 14588 C 1453.18 -1.01722 5.72737 0
M  V30 14589 N 1452.16 -1.53241 5.21553 0
M  V30 14590 H 1455.96 -0.38908 2.91313 0
M  V30 14591 H 1453.47 -0.114842 1.61993 0
M  V30 14592 H 1455.47 -2.85021 3.04251 0
M  V30 14593 H 1454.13 -2.64451 1.88403 0
M  V30 14594 H 1455.14 -0.839293 5.11054 0
M  V30 14595 H 1451.82 -2.62448 3.24696 0
M  V30 14596 H 1453.21 -0.522042 6.69869 0
M  V30 14597 N 1455.93 -1.56509 -0.185096 0
M  V30 14598 C 1457.18 -1.80848 -0.902139 0
M  V30 14599 C 1457.5 -0.663295 -1.83372 0
M  V30 14600 O 1456.77 0.317754 -1.93306 0
M  V30 14601 H 1455.35 -0.667108 -0.336119 0
M  V30 14602 H 1458.01 -1.93989 -0.188211 0
M  V30 14603 H 1457.11 -2.74383 -1.48729 0
M  V30 14604 N 1457.41 0.45317 -1.50944 0
M  V30 14605 C 1458.65 1.20389 -1.62827 0
M  V30 14606 C 1458.98 1.91559 -0.336982 0
M  V30 14607 O 1458.24 1.83574 0.678153 0
M  V30 14608 C 1458.54 2.25747 -2.7708 0
M  V30 14609 C 1458.2 1.71703 -4.16928 0
M  V30 14610 C 1456.86 1.56686 -4.54976 0
M  V30 14611 C 1459.22 1.31804 -5.04259 0
M  V30 14612 C 1456.54 1.0022 -5.78077 0
M  V30 14613 C 1458.9 0.767738 -6.27924 0
M  V30 14614 C 1457.56 0.604341 -6.64759 0
M  V30 14615 H 1456.83 0.440536 -0.595827 0
M  V30 14616 H 1459.48 0.497234 -1.84932 0
M  V30 14617 H 1457.78 3.0239 -2.49134 0
M  V30 14618 H 1459.48 2.83625 -2.83475 0
M  V30 14619 H 1456.07 1.84364 -3.86921 0
M  V30 14620 H 1460.25 1.42233 -4.75482 0
M  V30 14621 H 1455.51 0.863228 -6.05275 0
M  V30 14622 H 1459.68 0.449994 -6.94945 0
M  V30 14623 H 1457.31 0.164663 -7.60022 0
M  V30 14624 N 1458.88 1.40823 0.707568 0
M  V30 14625 C 1460.11 1.42659 1.49439 0
M  V30 14626 C 1460.52 0.0268475 1.89181 0
M  V30 14627 O 1459.87 -0.961444 1.56531 0
M  V30 14628 C 1459.93 2.26104 2.79494 0
M  V30 14629 C 1459.59 3.7442 2.62027 0
M  V30 14630 C 1460.59 4.66867 2.28759 0
M  V30 14631 C 1458.27 4.18328 2.78042 0
M  V30 14632 C 1460.27 6.01208 2.11727 0
M  V30 14633 C 1457.95 5.52736 2.60627 0
M  V30 14634 C 1458.95 6.43991 2.27518 0
M  V30 14635 O 1458.64 7.75921 2.10243 0
M  V30 14636 H 1458.37 0.488307 0.467475 0
M  V30 14637 H 1460.93 1.85607 0.879719 0
M  V30 14638 H 1459.16 1.77949 3.43323 0
M  V30 14639 H 1460.85 2.19785 3.41247 0
M  V30 14640 H 1461.61 4.34239 2.16012 0
M  V30 14641 H 1457.49 3.47612 3.02798 0
M  V30 14642 H 1461.03 6.724 1.85807 0
M  V30 14643 H 1456.93 5.84947 2.7296 0
M  V30 14644 H 1457.7 7.86938 2.251 0
M  V30 14645 N 1460.36 -0.94061 1.26453 0
M  V30 14646 C 1461.33 -2.02096 1.0812 0
M  V30 14647 C 1462.33 -1.60773 0.0293393 0
M  V30 14648 O 1463.52 -1.72051 0.272796 0
M  V30 14649 C 1460.65 -3.34749 0.644646 0
M  V30 14650 H 1461.84 -2.19792 2.04038 0
M  V30 14651 H 1459.39 -1.11965 1.09058 0
M  V30 14652 H 1460.13 -3.22752 -0.316509 0
M  V30 14653 H 1459.91 -3.66095 1.40416 0
M  V30 14654 H 1461.4 -4.14117 0.538233 0
M  V30 14655 N 1461.84 -1.08266 -1.14527 0
M  V30 14656 C 1463.07 -0.831673 -1.89121 0
M  V30 14657 C 1463.48 0.619702 -1.78763 0
M  V30 14658 O 1462.82 1.43748 -1.14377 0
M  V30 14659 C 1462.88 -1.17276 -3.39833 0
M  V30 14660 C 1462.55 -2.62662 -3.73975 0
M  V30 14661 C 1463.54 -3.60913 -3.74216 0
M  V30 14662 C 1461.23 -2.9848 -4.03999 0
M  V30 14663 C 1463.22 -4.93012 -4.04002 0
M  V30 14664 C 1460.91 -4.30773 -4.33448 0
M  V30 14665 C 1461.91 -5.27849 -4.33433 0
M  V30 14666 O 1461.6 -6.57765 -4.6217 0
M  V30 14667 H 1461.33 -0.299687 -0.60594 0
M  V30 14668 H 1463.88 -1.44498 -1.45978 0
M  V30 14669 H 1462.11 -0.502458 -3.83422 0
M  V30 14670 H 1463.8 -0.902831 -3.95732 0
M  V30 14671 H 1464.57 -3.34585 -3.5111 0
M  V30 14672 H 1460.45 -2.23561 -4.03164 0
M  V30 14673 H 1463.99 -5.68776 -4.03906 0
M  V30 14674 H 1459.89 -4.5685 -4.56024 0
M  V30 14675 H 1460.66 -6.63057 -4.79893 0
M  V30 14676 N 1463.32 1.31536 -0.86811 0
M  V30 14677 C 1464.25 2.27486 -0.279749 0
M  V30 14678 C 1465.26 1.53006 0.556158 0
M  V30 14679 O 1466.45 1.74442 0.378454 0
M  V30 14680 C 1463.55 3.33139 0.622197 0
M  V30 14681 C 1462.73 4.37026 -0.180855 0
M  V30 14682 C 1461.79 5.22183 0.64894 0
M  V30 14683 O 1460.81 5.69147 0.0776395 0
M  V30 14684 N 1462.01 5.46365 1.96127 0
M  V30 14685 H 1464.78 2.78613 -1.1043 0
M  V30 14686 H 1462.34 1.44538 -0.729409 0
M  V30 14687 H 1464.33 3.87024 1.18297 0
M  V30 14688 H 1462.9 2.8207 1.34742 0
M  V30 14689 H 1462.12 3.8324 -0.923078 0
M  V30 14690 H 1463.41 5.03508 -0.731953 0
M  V30 14691 H 1462.81 5.09962 2.44857 0
M  V30 14692 H 1461.36 6.03192 2.46987 0
M  V30 14693 N 1464.8 0.627364 1.44575 0
M  V30 14694 C 1466.07 0.0614392 1.95503 0
M  V30 14695 C 1466.45 -1.41182 1.56942 0
M  V30 14696 O 1465.8 -2.12435 0.841634 0
M  V30 14697 C 1466.01 0.280349 3.47872 0
M  V30 14698 C 1467.36 0.171559 4.24253 0
M  V30 14699 O 1468.38 0.211515 3.55571 0
M  V30 14700 O 1467.24 0.0733152 5.46451 0
M  V30 14701 H 1464.34 -0.0244626 0.826638 0
M  V30 14702 H 1466.88 0.698805 1.54644 0
M  V30 14703 H 1465.66 1.30278 3.68976 0
M  V30 14704 H 1465.28 -0.391336 3.95669 0
M  V30 14705 N 1466.28 -1.53251 0.367684 0
M  V30 14706 C 1467.52 -2.00889 -0.220914 0
M  V30 14707 C 1467.84 -1.25662 -1.4911 0
M  V30 14708 O 1467.11 -0.370491 -1.92365 0
M  V30 14709 H 1465.69 -0.742191 -0.0846233 0
M  V30 14710 H 1468.36 -1.88525 0.494402 0
M  V30 14711 H 1467.45 -3.08891 -0.446414 0
M  V30 14712 N 1467.75 -0.0969077 -1.57302 0
M  V30 14713 C 1468.98 0.578086 -1.99181 0
M  V30 14714 C 1469.4 1.60818 -0.975667 0
M  V30 14715 O 1468.76 1.81215 0.0556054 0
M  V30 14716 C 1468.81 1.20076 -3.40021 0
M  V30 14717 O 1467.91 2.31656 -3.41188 0
M  V30 14718 H 1467.25 0.146506 -0.647636 0
M  V30 14719 H 1469.78 -0.178855 -2.03817 0
M  V30 14720 H 1469.79 1.54162 -3.77754 0
M  V30 14721 H 1468.47 0.446114 -4.135 0
M  V30 14722 H 1467.05 1.99175 -3.15252 0
M  V30 14723 N 1469.23 1.56605 0.176793 0
M  V30 14724 C 1470.47 1.83477 0.900858 0
M  V30 14725 C 1470.84 0.677051 1.79666 0
M  V30 14726 O 1472.04 0.826091 2.55791 0
M  V30 14727 C 1470.31 3.15444 1.68017 0
M  V30 14728 S 1471.87 3.63781 2.45375 0
M  V30 14729 H 1468.68 0.643758 0.301823 0
M  V30 14730 H 1471.29 1.9482 0.162888 0
M  V30 14731 H 1469.99 3.97701 1.01302 0
M  V30 14732 H 1469.52 3.07028 2.45962 0
M  V30 14733 H 1471.54 3.30672 3.6996 0
M  V30 14734 N 1470.71 -0.445159 1.51182 0
M  V30 14735 C 1471.94 -1.21787 1.67259 0
M  V30 14736 C 1472.35 -1.85206 0.366641 0
M  V30 14737 O 1471.71 -1.70376 -0.654095 0
M  V30 14738 C 1471.76 -2.30765 2.78262 0
M  V30 14739 O 1471.48 -1.69942 4.03796 0
M  V30 14740 C 1472.98 -3.21186 3.05539 0
M  V30 14741 H 1470.2 -0.367364 0.561502 0
M  V30 14742 H 1472.75 -0.528415 1.97555 0
M  V30 14743 H 1470.9 -2.9544 2.50587 0
M  V30 14744 H 1471.32 -2.41905 4.65384 0
M  V30 14745 H 1472.79 -3.93805 3.8681 0
M  V30 14746 H 1473.27 -3.81487 2.17634 0
M  V30 14747 H 1473.87 -2.62221 3.34844 0
M  V30 14748 N 1472.19 -1.41197 -0.700089 0
M  V30 14749 C 1473.6 -1.3593 -1.27985 0
M  V30 14750 C 1473.95 -0.0402059 -1.96159 0
M  V30 14751 O 1473.07 0.861611 -1.98508 0
M  V30 14752 C 1473.67 -2.46203 -2.32743 0
M  V30 14753 C 1472.23 -2.44348 -2.86306 0
M  V30 14754 C 1471.38 -2.26283 -1.60285 0
M  V30 14755 H 1474.33 -1.50778 -0.495152 0
M  V30 14756 H 1474.35 -2.15001 -3.13934 0
M  V30 14757 H 1473.86 -3.42195 -1.83096 0
M  V30 14758 H 1471.96 -1.521 -3.40142 0
M  V30 14759 H 1472.07 -3.40497 -3.37044 0
M  V30 14760 H 1470.44 -1.74078 -1.85928 0
M  V30 14761 H 1471.22 -3.24295 -1.1264 0
M  V30 14762 N 1473.67 0.933891 -1.2695 0
M  V30 14763 C 1474.91 1.69554 -1.14153 0
M  V30 14764 C 1475.27 1.89503 0.308639 0
M  V30 14765 O 1476.47 2.62925 0.558894 0
M  V30 14766 C 1474.74 3.02894 -1.8971 0
M  V30 14767 S 1476.3 3.94051 -1.93053 0
M  V30 14768 H 1473.12 0.582546 -0.407629 0
M  V30 14769 H 1475.72 1.11233 -1.60772 0
M  V30 14770 H 1474.42 2.86061 -2.94274 0
M  V30 14771 H 1473.96 3.6627 -1.43561 0
M  V30 14772 H 1475.97 4.85551 -1.02249 0
M  V30 14773 N 1475.14 1.08871 1.13951 0
M  V30 14774 C 1476.42 0.73388 1.81311 0
M  V30 14775 C 1476.8 -0.781824 1.96089 0
M  V30 14776 O 1476.15 -1.70211 1.52448 0
M  V30 14777 C 1476.36 1.46631 3.16702 0
M  V30 14778 C 1477.71 1.62843 3.92132 0
M  V30 14779 O 1478.73 1.42836 3.26307 0
M  V30 14780 O 1477.59 1.95893 5.10185 0
M  V30 14781 H 1474.68 0.262976 0.784074 0
M  V30 14782 H 1477.23 1.19057 1.20927 0
M  V30 14783 H 1476 2.49863 3.01138 0
M  V30 14784 H 1475.62 1.00141 3.84782 0
M  V30 14785 N 1476.62 -1.31073 0.875073 0
M  V30 14786 C 1477.86 -1.98313 0.495116 0
M  V30 14787 C 1478.23 -1.67629 -0.93619 0
M  V30 14788 O 1479.43 -2.28122 -1.42176 0
M  V30 14789 C 1477.7 -3.49424 0.750847 0
M  V30 14790 S 1479.26 -4.36259 0.471512 0
M  V30 14791 H 1476.07 -0.686614 0.184613 0
M  V30 14792 H 1478.68 -1.59378 1.1322 0
M  V30 14793 H 1477.38 -3.69246 1.79124 0
M  V30 14794 H 1476.91 -3.9327 0.100946 0
M  V30 14795 H 1478.93 -4.91322 -0.69407 0
M  V30 14796 N 1478.1 -0.635022 -1.4424 0
M  V30 14797 C 1479.51 -0.222982 -1.85364 0
M  V30 14798 C 1479.86 1.22648 -1.5314 0
M  V30 14799 O 1478.99 1.93373 -0.971384 0
M  V30 14800 C 1479.58 -0.397912 -3.36455 0
M  V30 14801 C 1478.14 -0.0403458 -3.76378 0
M  V30 14802 C 1477.29 -0.709451 -2.68071 0
M  V30 14803 H 1480.24 -0.839923 -1.34651 0
M  V30 14804 H 1480.26 0.361996 -3.78774 0
M  V30 14805 H 1479.77 -1.45294 -3.59877 0
M  V30 14806 H 1477.87 1.01279 -3.58571 0
M  V30 14807 H 1477.99 -0.453121 -4.76952 0
M  V30 14808 H 1476.35 -0.144386 -2.5429 0
M  V30 14809 H 1477.13 -1.76715 -2.94324 0
M  V30 14810 N 1479.58 1.53054 -0.375806 0
M  V30 14811 C 1480.53 2.22837 0.482477 0
M  V30 14812 C 1481.51 1.22728 1.04051 0
M  V30 14813 O 1482.7 1.48129 0.968854 0
M  V30 14814 C 1479.83 3.02869 1.61634 0
M  V30 14815 C 1478.92 4.10362 1.07069 0
M  V30 14816 N 1479.31 5.05187 0.248878 0
M  V30 14817 C 1477.61 4.25251 1.34452 0
M  V30 14818 C 1478.31 5.81678 -0.0510458 0
M  V30 14819 N 1477.29 5.40817 0.549318 0
M  V30 14820 H 1481.09 2.93506 -0.1521 0
M  V30 14821 H 1478.6 1.6135 -0.184373 0
M  V30 14822 H 1480.6 3.51387 2.24349 0
M  V30 14823 H 1479.26 2.33732 2.25387 0
M  V30 14824 H 1480.27 5.17777 -0.112766 0
M  V30 14825 H 1476.95 3.67342 1.98408 0
M  V30 14826 H 1478.34 6.68073 -0.716061 0
M  V30 14827 N 1481.06 0.105248 1.57248 0
M  V30 14828 C 1482.28 -0.564157 1.9906 0
M  V30 14829 C 1482.7 -1.61092 0.984624 0
M  V30 14830 O 1482.06 -1.82484 -0.0244031 0
M  V30 14831 C 1482.11 -1.20272 3.40906 0
M  V30 14832 O 1481.83 -0.197815 4.37653 0
M  V30 14833 C 1483.33 -1.95677 3.97776 0
M  V30 14834 H 1480.55 -0.150468 0.653912 0
M  V30 14835 H 1483.09 0.187532 2.03638 0
M  V30 14836 H 1481.25 -1.90528 3.3731 0
M  V30 14837 H 1481.66 -0.659998 5.20331 0
M  V30 14838 H 1483.14 -2.35702 4.99148 0
M  V30 14839 H 1483.61 -2.82661 3.36154 0
M  V30 14840 H 1484.22 -1.30215 4.04876 0
M  V30 14841 N 1482.53 -1.56697 -0.168486 0
M  V30 14842 C 1483.47 -1.93197 -1.23319 0
M  V30 14843 C 1484.48 -0.825373 -1.40326 0
M  V30 14844 O 1485.67 -1.10381 -1.40279 0
M  V30 14845 C 1482.77 -2.17205 -2.60145 0
M  V30 14846 C 1481.94 -3.48442 -2.64399 0
M  V30 14847 C 1481 -3.61244 -3.82609 0
M  V30 14848 O 1480.03 -4.33837 -3.68476 0
M  V30 14849 N 1481.23 -2.96304 -4.99183 0
M  V30 14850 H 1483.99 -2.85128 -0.923138 0
M  V30 14851 H 1481.55 -1.57887 -0.358229 0
M  V30 14852 H 1483.55 -2.23031 -3.37697 0
M  V30 14853 H 1482.12 -1.31643 -2.83529 0
M  V30 14854 H 1481.34 -3.54248 -1.72922 0
M  V30 14855 H 1482.62 -4.34795 -2.64255 0
M  V30 14856 H 1482.02 -2.37203 -5.13567 0
M  V30 14857 H 1480.58 -3.07722 -5.74587 0
M  V30 14858 N 1484.01 0.437135 -1.51416 0
M  V30 14859 C 1484.96 1.55124 -1.73319 0
M  V30 14860 C 1485.95 1.58437 -0.599511 0
M  V30 14861 O 1487.16 1.62179 -0.780896 0
M  V30 14862 H 1483.54 0.515368 -0.547632 0
M  V30 14863 H 1485.51 1.33824 -2.66709 0
M  V30 14864 C 1484.26 2.92778 -1.87554 0
M  V30 14865 H 1483.58 2.9096 -2.74194 0
M  V30 14866 H 1485.02 3.70097 -2.06891 0
M  V30 14867 C 1483.48 3.30854 -0.635408 0
M  V30 14868 O 1484.01 4.01152 0.20983 0
M  V30 14869 N 1482.21 2.86618 -0.47944 0
M  V30 14870 H 1481.76 2.29582 -1.16834 0
M  V30 14871 H 1481.72 3.12456 0.349078 0
M  V30 14872 N 1485.49 1.41566 0.692592 0
M  V30 14873 C 1486.72 1.44445 1.48132 0
M  V30 14874 C 1487.13 0.0505867 1.88732 0
M  V30 14875 O 1486.49 -0.930779 1.5698 0
M  V30 14876 C 1486.54 2.35582 2.74196 0
M  V30 14877 O 1486.26 3.69545 2.35305 0
M  V30 14878 C 1487.76 2.47296 3.67912 0
M  V30 14879 H 1484.98 0.491877 0.456396 0
M  V30 14880 H 1487.53 1.85884 0.852499 0
M  V30 14881 H 1485.68 1.97445 3.33308 0
M  V30 14882 H 1486.1 4.1818 3.16584 0
M  V30 14883 H 1487.57 3.15225 4.53141 0
M  V30 14884 H 1488.05 1.50517 4.12603 0
M  V30 14885 H 1488.65 2.86082 3.14702 0
M  V30 14886 N 1486.97 -0.927146 1.27443 0
M  V30 14887 C 1488.21 -1.68946 1.15051 0
M  V30 14888 C 1488.57 -1.89664 -0.298585 0
M  V30 14889 O 1489.77 -2.63218 -0.544943 0
M  V30 14890 C 1488.04 -3.01884 1.91313 0
M  V30 14891 S 1489.6 -3.93021 1.9514 0
M  V30 14892 H 1486.42 -0.580376 0.410713 0
M  V30 14893 H 1489.02 -1.10378 1.61359 0
M  V30 14894 H 1487.73 -2.84496 2.95787 0
M  V30 14895 H 1487.26 -3.65504 1.45501 0
M  V30 14896 H 1489.27 -4.85002 1.04822 0
M  V30 14897 N 1488.45 -1.09474 -1.13372 0
M  V30 14898 C 1489.72 -0.743485 -1.80919 0
M  V30 14899 C 1490.1 0.771414 -1.965 0
M  V30 14900 O 1489.45 1.694 -1.53349 0
M  V30 14901 C 1489.66 -1.48309 -3.1592 0
M  V30 14902 C 1491.01 -1.64921 -3.91263 0
M  V30 14903 O 1492.03 -1.44564 -3.25545 0
M  V30 14904 O 1490.89 -1.98595 -5.09139 0
M  V30 14905 H 1487.99 -0.26713 -0.782669 0
M  V30 14906 H 1490.53 -1.19697 -1.20294 0
M  V30 14907 H 1489.3 -2.51456 -2.99809 0
M  V30 14908 H 1488.93 -1.02181 -3.84246 0
M  V30 14909 N 1489.92 1.30607 -0.882012 0
M  V30 14910 C 1491.34 1.78418 -0.549892 0
M  V30 14911 C 1491.69 1.72553 0.933797 0
M  V30 14912 O 1490.81 1.30058 1.72956 0
M  V30 14913 C 1491.41 3.2397 -0.991398 0
M  V30 14914 C 1489.97 3.69629 -0.710739 0
M  V30 14915 C 1489.11 2.51127 -1.17602 0
M  V30 14916 H 1492.06 1.17519 -1.06653 0
M  V30 14917 H 1492.08 3.79159 -0.319115 0
M  V30 14918 H 1491.6 3.28207 -2.07128 0
M  V30 14919 H 1489.7 3.70883 0.357273 0
M  V30 14920 H 1489.81 4.61232 -1.29621 0
M  V30 14921 H 1488.17 2.47642 -0.595444 0
M  V30 14922 H 1488.96 2.58103 -2.26358 0
M  V30 14923 N 1491.4 0.642663 1.43901 0
M  V30 14924 C 1492.31 -0.0562462 2.34533 0
M  V30 14925 C 1493.33 -0.823457 1.53281 0
M  V30 14926 O 1494.5 -0.773103 1.85971 0
M  V30 14927 C 1491.57 -1.01787 3.31422 0
M  V30 14928 C 1490.63 -0.248759 4.28579 0
M  V30 14929 C 1489.86 -1.16458 5.20839 0
M  V30 14930 O 1490.09 -2.40361 5.17284 0
M  V30 14931 O 1489.02 -0.642671 5.98459 0
M  V30 14932 H 1492.85 0.689476 2.9577 0
M  V30 14933 H 1490.43 0.402847 1.43866 0
M  V30 14934 H 1492.31 -1.5708 3.91029 0
M  V30 14935 H 1490.99 -1.744 2.72702 0
M  V30 14936 H 1489.9 0.347495 3.72483 0
M  V30 14937 H 1491.23 0.437589 4.90251 0
M  V30 14938 N 1492.88 -1.52852 0.383918 0
M  V30 14939 C 1494.11 -2.05929 -0.200216 0
M  V30 14940 C 1494.52 -1.25606 -1.40956 0
M  V30 14941 O 1493.88 -0.301336 -1.79995 0
M  V30 14942 C 1493.93 -3.56887 -0.575655 0
M  V30 14943 O 1493.65 -4.34168 0.58564 0
M  V30 14944 C 1495.15 -4.2629 -1.21623 0
M  V30 14945 H 1492.37 -0.670261 -0.0314727 0
M  V30 14946 H 1494.92 -1.97032 0.547591 0
M  V30 14947 H 1493.07 -3.65875 -1.27336 0
M  V30 14948 H 1493.49 -5.23761 0.278267 0
M  V30 14949 H 1494.96 -5.33174 -1.42933 0
M  V30 14950 H 1495.44 -3.81163 -2.182 0
M  V30 14951 H 1496.04 -4.21605 -0.559435 0
M  V30 14952 N 1494.36 -0.113586 -1.5719 0
M  V30 14953 C 1495.61 0.544642 -1.94623 0
M  V30 14954 C 1495.93 1.6756 -0.997428 0
M  V30 14955 O 1495.2 1.95829 -0.0527521 0
M  V30 14956 H 1493.78 0.204186 -0.718552 0
M  V30 14957 H 1496.44 -0.181258 -1.94055 0
M  V30 14958 H 1495.54 0.942765 -2.9752 0
M  V30 14959 N 1495.84 1.56784 0.160173 0
M  V30 14960 C 1496.75 2.00514 1.21783 0
M  V30 14961 C 1497.76 0.918341 1.47792 0
M  V30 14962 O 1498.94 1.22683 1.59721 0
M  V30 14963 C 1496 2.36575 2.53443 0
M  V30 14964 C 1495.07 3.59138 2.35198 0
M  V30 14965 C 1494.3 3.93469 3.6058 0
M  V30 14966 O 1494.52 3.28625 4.6622 0
M  V30 14967 O 1493.46 4.86774 3.54027 0
M  V30 14968 H 1497.28 2.90774 0.876607 0
M  V30 14969 H 1494.87 1.44799 0.367897 0
M  V30 14970 H 1496.75 2.60687 3.31089 0
M  V30 14971 H 1495.42 1.49474 2.87122 0
M  V30 14972 H 1494.33 3.4023 1.55546 0
M  V30 14973 H 1495.66 4.46815 2.0644 0
M  V30 14974 N 1497.32 -0.429099 1.51646 0
M  V30 14975 C 1498.56 -1.18722 1.66386 0
M  V30 14976 C 1498.92 -1.88285 0.375881 0
M  V30 14977 O 1500.12 -2.6582 0.399149 0
M  V30 14978 C 1498.39 -2.17076 2.83924 0
M  V30 14979 S 1499.95 -3.01264 3.19038 0
M  V30 14980 H 1496.77 -0.402488 0.586109 0
M  V30 14981 H 1499.37 -0.47752 1.89578 0
M  V30 14982 H 1498.07 -1.64625 3.75935 0
M  V30 14983 H 1497.61 -2.92615 2.62945 0
M  V30 14984 H 1499.62 -4.18807 2.66111 0
M  V30 14985 N 1498.79 -1.41931 -0.685074 0
M  V30 14986 C 1500.04 -1.42062 -1.44728 0
M  V30 14987 C 1500.37 -0.0332072 -1.94172 0
M  V30 14988 O 1499.65 0.940835 -1.70231 0
M  V30 14989 C 1499.93 -2.43634 -2.65168 0
M  V30 14990 C 1499.78 -3.91525 -2.21423 0
M  V30 14991 C 1501.1 -2.42325 -3.67378 0
M  V30 14992 H 1498.22 -0.517321 -0.524927 0
M  V30 14993 H 1500.86 -1.73277 -0.779419 0
M  V30 14994 H 1499.01 -2.17146 -3.22149 0
M  V30 14995 H 1500.69 -4.28956 -1.69689 0
M  V30 14996 H 1498.93 -4.05886 -1.53099 0
M  V30 14997 H 1499.6 -4.58158 -3.07889 0
M  V30 14998 H 1502.08 -2.65857 -3.20093 0
M  V30 14999 H 1500.95 -3.15391 -4.49243 0
M  V30 15000 H 1501.21 -1.44555 -4.17799 0
M  V30 15001 N 1500.27 0.920374 -1.27933 0
M  V30 15002 C 1501.51 1.68333 -1.15945 0
M  V30 15003 C 1501.88 1.8982 0.288522 0
M  V30 15004 O 1503.08 2.63503 0.530976 0
M  V30 15005 C 1501.35 3.00865 -1.92912 0
M  V30 15006 S 1502.91 3.91981 -1.97221 0
M  V30 15007 H 1499.72 0.578189 -0.413785 0
M  V30 15008 H 1502.33 1.09521 -1.61943 0
M  V30 15009 H 1501.03 2.82924 -2.97292 0
M  V30 15010 H 1500.56 3.64727 -1.47437 0
M  V30 15011 H 1502.58 4.84439 -1.07393 0
M  V30 15012 N 1501.75 1.10074 1.1279 0
M  V30 15013 C 1503.16 0.859181 1.65756 0
M  V30 15014 C 1503.51 -0.611193 1.86437 0
M  V30 15015 O 1502.64 -1.46997 1.58811 0
M  V30 15016 C 1503.23 1.55312 3.01104 0
M  V30 15017 C 1501.79 1.35836 3.51035 0
M  V30 15018 C 1500.94 1.60491 2.26137 0
M  V30 15019 H 1503.89 1.25897 0.966211 0
M  V30 15020 H 1503.91 0.990001 3.67395 0
M  V30 15021 H 1503.42 2.62325 2.8602 0
M  V30 15022 H 1501.52 0.309694 3.71311 0
M  V30 15023 H 1501.64 2.09777 4.30732 0
M  V30 15024 H 1500 1.02742 2.33058 0
M  V30 15025 H 1500.78 2.68748 2.1361 0
M  V30 15026 N 1503.23 -1.30138 0.888926 0
M  V30 15027 C 1504.64 -1.78124 0.559346 0
M  V30 15028 C 1504.99 -1.73046 -0.924633 0
M  V30 15029 O 1504.11 -1.30974 -1.72264 0
M  V30 15030 C 1504.71 -3.2344 1.00856 0
M  V30 15031 C 1503.27 -3.69247 0.730332 0
M  V30 15032 C 1502.42 -2.505 1.18933 0
M  V30 15033 H 1505.37 -1.16952 1.07275 0
M  V30 15034 H 1505.39 -3.78985 0.339219 0
M  V30 15035 H 1504.9 -3.27104 2.08865 0
M  V30 15036 H 1503 -3.71067 -0.337599 0
M  V30 15037 H 1503.11 -4.60538 1.32066 0
M  V30 15038 H 1501.48 -2.47323 0.608568 0
M  V30 15039 H 1502.26 -2.56899 2.27724 0
M  V30 15040 N 1504.71 -0.650285 -1.43559 0
M  V30 15041 C 1505.66 0.0653687 -2.27906 0
M  V30 15042 C 1506.64 0.797628 -1.39738 0
M  V30 15043 O 1507.83 0.680579 -1.63393 0
M  V30 15044 C 1504.96 1.03311 -3.27386 0
M  V30 15045 C 1504.05 0.299481 -4.23041 0
M  V30 15046 N 1504.44 -0.68239 -5.01176 0
M  V30 15047 C 1502.74 0.54133 -4.42703 0
M  V30 15048 C 1503.44 -1.11758 -5.70863 0
M  V30 15049 N 1502.41 -0.452434 -5.41714 0
M  V30 15050 H 1506.21 -0.688114 -2.85731 0
M  V30 15051 H 1503.73 -0.477326 -1.55227 0
M  V30 15052 H 1505.73 1.56058 -3.86589 0
M  V30 15053 H 1504.39 1.78669 -2.71123 0
M  V30 15054 H 1505.4 -1.06099 -5.06915 0
M  V30 15055 H 1502.07 1.2763 -3.97513 0
M  V30 15056 H 1503.46 -1.92985 -6.43589 0
M  V30 15057 N 1506.18 1.52647 -0.392018 0
M  V30 15058 C 1507.41 2.06032 0.189293 0
M  V30 15059 C 1507.83 1.26351 1.40288 0
M  V30 15060 O 1507.18 0.310877 1.79833 0
M  V30 15061 C 1507.23 3.57187 0.55672 0
M  V30 15062 O 1506.96 4.33851 -0.608657 0
M  V30 15063 C 1508.46 4.26929 1.1936 0
M  V30 15064 H 1505.68 0.670419 0.0279177 0
M  V30 15065 H 1508.22 1.96739 -0.558033 0
M  V30 15066 H 1506.38 3.66545 1.25394 0
M  V30 15067 H 1506.79 5.23606 -0.306039 0
M  V30 15068 H 1508.26 5.33924 1.40104 0
M  V30 15069 H 1508.74 3.82315 2.16175 0
M  V30 15070 H 1509.35 4.21895 0.537069 0
M  V30 15071 N 1507.66 0.121921 1.57128 0
M  V30 15072 C 1508.59 -0.857725 2.12546 0
M  V30 15073 C 1509.61 -1.22797 1.06886 0
M  V30 15074 O 1510.8 -1.17641 1.34249 0
M  V30 15075 C 1507.9 -2.15869 2.61254 0
M  V30 15076 C 1507.07 -1.95969 3.91043 0
M  V30 15077 C 1506.13 -3.09822 4.2532 0
M  V30 15078 O 1505.15 -2.82608 4.94087 0
M  V30 15079 N 1506.36 -4.36333 3.82875 0
M  V30 15080 H 1509.12 -0.384239 2.97227 0
M  V30 15081 H 1506.68 -0.062416 1.6178 0
M  V30 15082 H 1508.67 -2.91035 2.81213 0
M  V30 15083 H 1507.24 -2.54557 1.81437 0
M  V30 15084 H 1506.46 -1.04979 3.79965 0
M  V30 15085 H 1507.75 -1.79981 4.75904 0
M  V30 15086 H 1507.15 -4.61318 3.27417 0
M  V30 15087 H 1505.71 -5.08362 4.07936 0
M  V30 15088 N 1509.14 -1.56867 -0.151857 0
M  V30 15089 C 1510.39 -1.82721 -0.863575 0
M  V30 15090 C 1510.71 -0.702042 -1.81924 0
M  V30 15091 O 1509.98 0.27668 -1.93936 0
M  V30 15092 H 1508.56 -0.674088 -0.321893 0
M  V30 15093 H 1511.22 -1.94345 -0.14702 0
M  V30 15094 H 1510.32 -2.77476 -1.42876 0
M  V30 15095 N 1510.62 0.421051 -1.51871 0
M  V30 15096 C 1511.86 1.17082 -1.65589 0
M  V30 15097 C 1512.2 1.90469 -0.378861 0
M  V30 15098 O 1511.47 1.84277 0.622259 0
M  V30 15099 C 1511.76 2.17483 -2.87007 0
M  V30 15100 C 1511.61 1.48071 -4.24729 0
M  V30 15101 C 1512.93 3.18288 -3.03942 0
M  V30 15102 H 1510.05 0.424284 -0.602621 0
M  V30 15103 H 1512.69 0.457998 -1.84397 0
M  V30 15104 H 1510.84 2.78273 -2.71102 0
M  V30 15105 H 1512.51 0.904926 -4.52337 0
M  V30 15106 H 1510.75 0.782814 -4.26678 0
M  V30 15107 H 1511.42 2.21272 -5.0571 0
M  V30 15108 H 1513.9 2.67565 -3.18666 0
M  V30 15109 H 1512.78 3.85815 -3.90433 0
M  V30 15110 H 1513.04 3.85333 -2.16728 0
M  V30 15111 N 1512.1 1.42293 0.677538 0
M  V30 15112 C 1513.04 1.45556 1.79114 0
M  V30 15113 C 1514.01 0.307826 1.63223 0
M  V30 15114 O 1515.2 0.511504 1.83816 0
M  V30 15115 C 1512.34 1.36104 3.17127 0
M  V30 15116 C 1511.45 2.60891 3.44325 0
M  V30 15117 C 1510.59 2.43601 4.72051 0
M  V30 15118 C 1509.63 3.63775 4.92274 0
M  V30 15119 N 1508.76 3.45444 6.11239 0
M  V30 15120 H 1513.6 2.40723 1.7566 0
M  V30 15121 H 1511.14 1.19517 0.857565 0
M  V30 15122 H 1513.1 1.28622 3.96878 0
M  V30 15123 H 1511.73 0.445342 3.19713 0
M  V30 15124 H 1510.78 2.78751 2.58848 0
M  V30 15125 H 1512.09 3.50229 3.55163 0
M  V30 15126 H 1511.25 2.33689 5.59888 0
M  V30 15127 H 1509.98 1.51748 4.63491 0
M  V30 15128 H 1508.99 3.74122 4.0288 0
M  V30 15129 H 1510.21 4.56605 5.02681 0
M  V30 15130 H 1508.16 2.56306 6.03857 0
M  V30 15131 H 1508.08 4.28368 6.22926 0
M  V30 15132 H 1509.35 3.39339 7.01762 0
M  V30 15133 N 1513.57 -0.913576 1.28419 0
M  V30 15134 C 1514.81 -1.67716 1.16836 0
M  V30 15135 C 1515.18 -1.8997 -0.278452 0
M  V30 15136 O 1516.38 -2.63781 -0.516994 0
M  V30 15137 C 1514.65 -2.99838 1.94504 0
M  V30 15138 S 1516.21 -3.9093 1.99297 0
M  V30 15139 H 1513.03 -0.575987 0.416845 0
M  V30 15140 H 1515.63 -1.08661 1.62521 0
M  V30 15141 H 1514.33 -2.81343 2.98788 0
M  V30 15142 H 1513.86 -3.6394 1.4937 0
M  V30 15143 H 1515.88 -4.83863 1.0996 0
M  V30 15144 N 1515.05 -1.1067 -1.12204 0
M  V30 15145 C 1515.96 -0.770221 -2.21596 0
M  V30 15146 C 1516.98 0.233297 -1.72429 0
M  V30 15147 O 1518.15 0.0714493 -2.01273 0
M  V30 15148 C 1515.22 -0.209682 -3.46065 0
M  V30 15149 C 1514.28 -1.27079 -4.1006 0
M  V30 15150 C 1513.51 -0.736899 -5.28588 0
M  V30 15151 O 1513.74 0.435838 -5.68732 0
M  V30 15152 O 1512.67 -1.49797 -5.82962 0
M  V30 15153 H 1516.5 -1.6834 -2.52776 0
M  V30 15154 H 1514.08 -0.882012 -1.20586 0
M  V30 15155 H 1515.96 0.0989516 -4.21284 0
M  V30 15156 H 1514.64 0.676316 -3.16556 0
M  V30 15157 H 1513.55 -1.63231 -3.3661 0
M  V30 15158 H 1514.88 -2.12989 -4.4373 0
M  V30 15159 N 1516.53 1.29665 -0.895815 0
M  V30 15160 C 1517.44 2.31582 -0.375086 0
M  V30 15161 C 1518.46 1.65789 0.528196 0
M  V30 15162 O 1519.63 1.96999 0.41871 0
M  V30 15163 C 1516.7 3.44472 0.39241 0
M  V30 15164 C 1515.76 4.25866 -0.541926 0
M  V30 15165 C 1514.99 5.33365 0.189037 0
M  V30 15166 O 1515.21 5.52607 1.41355 0
M  V30 15167 O 1514.15 6.0009 -0.466441 0
M  V30 15168 H 1517.97 2.78095 -1.22052 0
M  V30 15169 H 1515.56 1.34031 -0.660007 0
M  V30 15170 H 1517.44 4.13214 0.826565 0
M  V30 15171 H 1516.12 3.00074 1.21397 0
M  V30 15172 H 1515.02 3.59781 -1.02512 0
M  V30 15173 H 1516.36 4.73896 -1.32979 0
M  V30 15174 N 1518.01 0.657889 1.43212 0
M  V30 15175 C 1519.25 0.176848 2.03634 0
M  V30 15176 C 1519.61 -1.18833 1.50807 0
M  V30 15177 O 1520.81 -1.76305 2.02904 0
M  V30 15178 C 1519.08 0.191578 3.56886 0
M  V30 15179 S 1520.64 -0.220935 4.38243 0
M  V30 15180 H 1517.46 0.0742555 0.707112 0
M  V30 15181 H 1520.06 0.867268 1.7521 0
M  V30 15182 H 1518.77 1.18781 3.92835 0
M  V30 15183 H 1518.3 -0.519229 3.89958 0
M  V30 15184 H 1520.31 -1.45865 4.74276 0
M  V30 15185 N 1519.49 -1.52437 0.400108 0
M  V30 15186 C 1520.4 -2.30496 -0.436875 0
M  V30 15187 C 1521.41 -1.37851 -1.06175 0
M  V30 15188 O 1522.59 -1.70924 -1.06522 0
M  V30 15189 C 1519.65 -3.10459 -1.54325 0
M  V30 15190 C 1518.71 -4.18829 -0.942367 0
M  V30 15191 C 1517.95 -4.94969 -1.99602 0
M  V30 15192 O 1518.17 -4.71314 -3.21278 0
M  V30 15193 O 1517.1 -5.80043 -1.60728 0
M  V30 15194 H 1520.93 -3.03045 0.199343 0
M  V30 15195 H 1518.52 -1.48502 0.163541 0
M  V30 15196 H 1520.4 -3.60282 -2.18575 0
M  V30 15197 H 1519.07 -2.40713 -2.16423 0
M  V30 15198 H 1517.98 -3.73176 -0.262831 0
M  V30 15199 H 1519.31 -4.90841 -0.365441 0
M  V30 15200 N 1520.96 -0.130252 -1.57061 0
M  V30 15201 C 1522.24 0.569171 -1.87136 0
M  V30 15202 C 1522.62 1.84078 -1.03337 0
M  V30 15203 O 1521.97 2.28208 -0.11543 0
M  V30 15204 C 1522.18 0.850782 -3.38471 0
M  V30 15205 C 1523.53 1.19892 -4.07322 0
M  V30 15206 O 1524.55 0.940682 -3.43554 0
M  V30 15207 O 1523.41 1.6841 -5.19904 0
M  V30 15208 H 1520.5 0.288433 -0.775071 0
M  V30 15209 H 1523.05 -0.165603 -1.6889 0
M  V30 15210 H 1521.82 -0.0498562 -3.91268 0
M  V30 15211 H 1521.45 1.64032 -3.62187 0
M  V30 15212 N 1522.44 1.56945 0.143535 0
M  V30 15213 C 1523.69 1.83176 0.853873 0
M  V30 15214 C 1524.01 0.71168 1.81549 0
M  V30 15215 O 1523.28 -0.266391 1.9408 0
M  V30 15216 H 1521.86 0.675785 0.318313 0
M  V30 15217 H 1524.52 1.9442 0.136712 0
M  V30 15218 H 1523.62 2.7823 1.41402 0
M  V30 15219 N 1523.92 -0.412991 1.52093 0
M  V30 15220 C 1524.87 -1.50193 1.7154 0
M  V30 15221 C 1525.86 -1.50492 0.569294 0
M  V30 15222 O 1527.05 -1.56534 0.826207 0
M  V30 15223 C 1524.18 -2.8816 1.86598 0
M  V30 15224 C 1523.26 -2.92524 3.07068 0
M  V30 15225 N 1523.65 -2.66591 4.29841 0
M  V30 15226 C 1521.95 -3.23691 3.06822 0
M  V30 15227 C 1522.65 -2.77424 5.11284 0
M  V30 15228 N 1521.63 -3.10138 4.46448 0
M  V30 15229 H 1525.43 -1.28932 2.64109 0
M  V30 15230 H 1522.94 -0.620648 1.50072 0
M  V30 15231 H 1524.94 -3.66532 1.98646 0
M  V30 15232 H 1523.6 -3.10422 0.952263 0
M  V30 15233 H 1524.61 -2.41058 4.58379 0
M  V30 15234 H 1521.29 -3.51572 2.25174 0
M  V30 15235 H 1522.68 -2.61121 6.19084 0
M  V30 15236 N 1525.4 -1.4265 -0.669982 0
M  V30 15237 C 1526.65 -1.44587 -1.4306 0
M  V30 15238 C 1527 -0.0629167 -1.92297 0
M  V30 15239 O 1526.29 0.915708 -1.68301 0
M  V30 15240 C 1526.49 -2.40913 -2.63999 0
M  V30 15241 C 1526.32 -3.88438 -2.26597 0
M  V30 15242 C 1525.09 -4.56936 -2.15725 0
M  V30 15243 C 1527.28 -4.78731 -1.87938 0
M  V30 15244 N 1525.27 -5.89465 -1.71477 0
M  V30 15245 C 1526.64 -6.00404 -1.54645 0
M  V30 15246 C 1528.69 -4.66143 -1.74973 0
M  V30 15247 C 1527.4 -7.10888 -1.09688 0
M  V30 15248 C 1529.42 -5.76613 -1.3142 0
M  V30 15249 C 1528.78 -6.97401 -0.99054 0
M  V30 15250 H 1524.88 -0.584242 -0.519794 0
M  V30 15251 H 1527.47 -1.78711 -0.772679 0
M  V30 15252 H 1525.64 -2.08843 -3.27474 0
M  V30 15253 H 1527.37 -2.33398 -3.30617 0
M  V30 15254 H 1524.12 -4.11213 -2.34948 0
M  V30 15255 H 1524.55 -6.59771 -1.51762 0
M  V30 15256 H 1529.19 -3.73231 -1.98641 0
M  V30 15257 H 1526.91 -8.03642 -0.847666 0
M  V30 15258 H 1530.49 -5.68886 -1.21902 0
M  V30 15259 H 1529.37 -7.81429 -0.658653 0
M  V30 15260 N 1526.88 0.906753 -1.28902 0
M  V30 15261 C 1528.13 1.6533 -1.16234 0
M  V30 15262 C 1528.45 1.92861 0.288004 0
M  V30 15263 O 1527.72 1.54971 1.19837 0
M  V30 15264 H 1526.3 0.612806 -0.427174 0
M  V30 15265 H 1528.96 1.08764 -1.6173 0
M  V30 15266 H 1528.05 2.61271 -1.70715 0
M  V30 15267 N 1528.36 1.11264 1.11616 0
M  V30 15268 C 1529.59 0.881522 1.8685 0
M  V30 15269 C 1529.99 -0.572088 1.80344 0
M  V30 15270 O 1529.34 -1.40665 1.18148 0
M  V30 15271 C 1529.4 1.26245 3.36604 0
M  V30 15272 C 1529.06 2.72485 3.6688 0
M  V30 15273 C 1530.06 3.70708 3.64516 0
M  V30 15274 C 1527.74 3.09086 3.95943 0
M  V30 15275 C 1529.74 5.0355 3.90789 0
M  V30 15276 C 1527.43 4.42114 4.21875 0
M  V30 15277 C 1528.42 5.39155 4.19286 0
M  V30 15278 O 1528.11 6.69787 4.44568 0
M  V30 15279 H 1527.84 0.315647 0.597782 0
M  V30 15280 H 1530.4 1.48317 1.42095 0
M  V30 15281 H 1528.63 0.603938 3.81955 0
M  V30 15282 H 1530.32 1.00744 3.93199 0
M  V30 15283 H 1531.08 3.43776 3.42115 0
M  V30 15284 H 1526.96 2.34171 3.97095 0
M  V30 15285 H 1530.51 5.79285 3.88684 0
M  V30 15286 H 1526.4 4.6878 4.43751 0
M  V30 15287 H 1527.17 6.75548 4.62144 0
M  V30 15288 N 1529.83 -1.29188 0.902679 0
M  V30 15289 C 1531.11 -1.90365 0.449496 0
M  V30 15290 C 1531.49 -1.81911 -1.07105 0
M  V30 15291 O 1530.84 -1.24778 -1.91423 0
M  V30 15292 C 1531.05 -3.35324 0.967418 0
M  V30 15293 C 1532.4 -4.12342 1.0129 0
M  V30 15294 O 1533.42 -3.44239 0.915293 0
M  V30 15295 O 1532.28 -5.34048 1.15994 0
M  V30 15296 H 1529.37 -0.814956 0.140628 0
M  V30 15297 H 1531.92 -1.37633 0.992739 0
M  V30 15298 H 1530.69 -3.35646 2.0114 0
M  V30 15299 H 1530.31 -3.95539 0.404358 0
M  V30 15300 N 1531.31 -0.665475 -1.42861 0
M  V30 15301 C 1532.27 0.00932351 -2.29198 0
M  V30 15302 C 1533.27 0.738356 -1.42846 0
M  V30 15303 O 1534.46 0.57776 -1.6434 0
M  V30 15304 C 1531.6 1.02392 -3.25159 0
M  V30 15305 H 1532.79 -0.750481 -2.90358 0
M  V30 15306 H 1530.34 -0.427334 -1.50345 0
M  V30 15307 H 1531.08 1.81254 -2.68919 0
M  V30 15308 H 1530.86 0.504671 -3.88839 0
M  V30 15309 H 1532.35 1.49479 -3.89931 0
M  V30 15310 N 1532.79 1.52222 -0.408187 0
M  V30 15311 C 1533.7 2.30725 0.424645 0
M  V30 15312 C 1534.72 1.38412 1.05442 0
M  V30 15313 O 1535.89 1.71486 1.05614 0
M  V30 15314 C 1532.96 3.11273 1.52677 0
M  V30 15315 C 1532.02 4.19323 0.920143 0
M  V30 15316 C 1531.25 4.96021 1.96974 0
M  V30 15317 O 1531.47 4.73011 3.18774 0
M  V30 15318 O 1530.41 5.80887 1.5765 0
M  V30 15319 H 1534.23 3.02935 -0.215411 0
M  V30 15320 H 1531.82 1.48413 -0.171414 0
M  V30 15321 H 1533.7 3.61436 2.16661 0
M  V30 15322 H 1532.38 2.41857 2.15144 0
M  V30 15323 H 1531.28 3.7331 0.243037 0
M  V30 15324 H 1532.62 4.91028 0.339405 0
M  V30 15325 N 1534.27 0.138579 1.5699 0
M  V30 15326 C 1535.51 -0.51539 1.96142 0
M  V30 15327 C 1535.85 -1.65067 1.02306 0
M  V30 15328 O 1535.12 -1.94395 0.0638645 0
M  V30 15329 C 1535.4 -1.02956 3.45068 0
M  V30 15330 C 1535.26 0.103646 4.49681 0
M  V30 15331 C 1536.58 -1.91411 3.96295 0
M  V30 15332 H 1533.7 -0.185873 0.713176 0
M  V30 15333 H 1536.34 0.218103 1.88744 0
M  V30 15334 H 1534.49 -1.65462 3.51503 0
M  V30 15335 H 1536.16 0.739693 4.55331 0
M  V30 15336 H 1534.4 0.764014 4.27019 0
M  V30 15337 H 1535.07 -0.297688 5.51197 0
M  V30 15338 H 1537.55 -1.38746 3.92286 0
M  V30 15339 H 1536.43 -2.24298 5.0098 0
M  V30 15340 H 1536.69 -2.84793 3.38149 0
M  V30 15341 N 1535.75 -1.57019 -0.13521 0
M  V30 15342 C 1536.99 -1.83626 -0.844147 0
M  V30 15343 C 1537.31 -0.721298 -1.81169 0
M  V30 15344 O 1536.58 0.256095 -1.94219 0
M  V30 15345 H 1535.16 -0.677464 -0.314725 0
M  V30 15346 H 1537.83 -1.9449 -0.126399 0
M  V30 15347 H 1536.92 -2.78976 -1.39925 0
M  V30 15348 N 1537.22 0.404919 -1.52309 0
M  V30 15349 C 1538.46 1.1606 -1.68254 0
M  V30 15350 C 1538.83 1.87663 -0.405788 0
M  V30 15351 O 1540.03 2.65151 -0.441388 0
M  V30 15352 C 1538.3 2.12531 -2.87342 0
M  V30 15353 S 1539.86 2.9615 -3.23791 0
M  V30 15354 H 1536.68 0.393113 -0.592438 0
M  V30 15355 H 1539.28 0.4473 -1.90314 0
M  V30 15356 H 1537.98 1.58623 -3.78506 0
M  V30 15357 H 1537.51 2.88395 -2.67567 0
M  V30 15358 H 1539.53 4.14521 -2.7274 0
M  V30 15359 N 1538.7 1.43003 0.662408 0
M  V30 15360 C 1539.63 1.43407 1.78793 0
M  V30 15361 C 1540.65 0.331423 1.59391 0
M  V30 15362 O 1541.84 0.595291 1.68281 0
M  V30 15363 C 1538.94 1.22239 3.16087 0
M  V30 15364 C 1538.11 2.4517 3.6223 0
M  V30 15365 C 1537.17 2.19362 4.78296 0
M  V30 15366 O 1536.19 2.92651 4.88205 0
M  V30 15367 N 1537.4 1.20449 5.67866 0
M  V30 15368 H 1540.16 2.40426 1.78928 0
M  V30 15369 H 1537.72 1.38042 0.845936 0
M  V30 15370 H 1539.71 1.02871 3.91407 0
M  V30 15371 H 1538.28 0.336983 3.10778 0
M  V30 15372 H 1537.5 2.80024 2.77453 0
M  V30 15373 H 1538.79 3.27003 3.89803 0
M  V30 15374 H 1538.19 0.598577 5.62524 0
M  V30 15375 H 1536.75 1.07066 6.42946 0
M  V30 15376 N 1540.18 -0.899904 1.29381 0
M  V30 15377 C 1541.14 -1.98554 1.14494 0
M  V30 15378 C 1542.14 -1.60599 0.0804732 0
M  V30 15379 O 1543.33 -1.71096 0.327395 0
M  V30 15380 C 1540.47 -3.32529 0.750818 0
M  V30 15381 H 1541.66 -2.13189 2.10928 0
M  V30 15382 H 1539.21 -1.08438 1.12565 0
M  V30 15383 H 1539.95 -3.23595 -0.213668 0
M  V30 15384 H 1539.73 -3.61443 1.51992 0
M  V30 15385 H 1541.22 -4.12195 0.669709 0
M  V30 15386 N 1541.66 -1.11854 -1.11024 0
M  V30 15387 C 1542.9 -0.880082 -1.84483 0
M  V30 15388 C 1543.26 0.583659 -1.82914 0
M  V30 15389 O 1544.46 0.939053 -2.51864 0
M  V30 15390 C 1542.73 -1.43158 -3.27476 0
M  V30 15391 S 1544.29 -1.33075 -4.18135 0
M  V30 15392 H 1541.11 -0.317635 -0.636105 0
M  V30 15393 H 1543.71 -1.42688 -1.33642 0
M  V30 15394 H 1542.42 -2.49061 -3.26185 0
M  V30 15395 H 1541.95 -0.882005 -3.83385 0
M  V30 15396 H 1543.96 -0.298149 -4.95303 0
M  V30 15397 N 1543.14 1.28707 -0.909517 0
M  V30 15398 C 1544.08 2.29396 -0.384756 0
M  V30 15399 C 1545.08 1.61179 0.521318 0
M  V30 15400 O 1546.28 1.7543 0.403032 0
M  V30 15401 H 1542.66 0.744518 -0.105814 0
M  V30 15402 H 1544.63 2.71089 -1.24714 0
M  V30 15403 C 1543.38 3.45792 0.363795 0
M  V30 15404 H 1542.7 3.98483 -0.324198 0
M  V30 15405 H 1544.14 4.18254 0.695681 0
M  V30 15406 C 1542.6 2.98075 1.57012 0
M  V30 15407 O 1543.13 3.00187 2.66929 0
M  V30 15408 N 1541.34 2.53787 1.41565 0
M  V30 15409 H 1540.88 2.52268 0.521415 0
M  V30 15410 H 1540.84 2.2222 2.22408 0
M  V30 15411 N 1544.61 0.673042 1.42506 0
M  V30 15412 C 1545.85 0.198436 2.03434 0
M  V30 15413 C 1546.22 -1.17227 1.52059 0
M  V30 15414 O 1547.42 -1.74143 2.04762 0
M  V30 15415 C 1545.69 0.22942 3.56663 0
M  V30 15416 S 1547.25 -0.174441 4.38453 0
M  V30 15417 H 1544.07 0.0817512 0.706284 0
M  V30 15418 H 1546.67 0.885803 1.74281 0
M  V30 15419 H 1545.37 1.22941 3.91553 0
M  V30 15420 H 1544.9 -0.477839 3.90487 0
M  V30 15421 H 1546.92 -1.40826 4.75797 0
M  V30 15422 N 1546.09 -1.52004 0.416254 0
M  V30 15423 C 1547.32 -2.0679 -0.158937 0
M  V30 15424 C 1547.74 -1.28366 -1.37491 0
M  V30 15425 O 1547.1 -0.315815 -1.78528 0
M  V30 15426 C 1547.15 -3.57381 -0.480717 0
M  V30 15427 O 1546.25 -3.81321 -1.5706 0
M  V30 15428 H 1545.59 -0.663907 -0.0110938 0
M  V30 15429 H 1548.12 -1.95863 0.591509 0
M  V30 15430 H 1548.13 -4.01283 -0.737297 0
M  V30 15431 H 1546.81 -4.13893 0.408137 0
M  V30 15432 H 1545.39 -3.49296 -1.30563 0
M  V30 15433 N 1547.57 -0.146903 -1.56914 0
M  V30 15434 C 1548.5 0.788924 -2.19769 0
M  V30 15435 C 1549.48 1.25712 -1.14589 0
M  V30 15436 O 1550.67 1.3147 -1.42931 0
M  V30 15437 C 1547.8 2.02824 -2.81921 0
M  V30 15438 C 1546.75 1.69683 -3.92927 0
M  V30 15439 C 1546.08 3.00877 -4.42015 0
M  V30 15440 C 1547.38 0.943559 -5.13706 0
M  V30 15441 H 1549.07 0.265076 -2.98224 0
M  V30 15442 H 1546.62 0.126057 -1.43447 0
M  V30 15443 H 1548.57 2.68773 -3.2456 0
M  V30 15444 H 1547.29 2.57581 -2.00797 0
M  V30 15445 H 1545.95 1.06112 -3.50907 0
M  V30 15446 H 1545.6 3.53625 -3.57713 0
M  V30 15447 H 1545.3 2.79466 -5.16888 0
M  V30 15448 H 1546.82 3.67897 -4.87323 0
M  V30 15449 H 1548.24 1.50513 -5.5319 0
M  V30 15450 H 1546.64 0.829387 -5.94341 0
M  V30 15451 H 1547.71 -0.0647228 -4.84857 0
M  V30 15452 N 1549.05 1.57088 0.126881 0
M  V30 15453 C 1550.29 1.84709 0.837287 0
M  V30 15454 C 1550.63 0.731496 1.79897 0
M  V30 15455 O 1549.9 -0.263319 1.92709 0
M  V30 15456 C 1550.19 3.22893 1.59412 0
M  V30 15457 C 1550.04 4.45041 0.652578 0
M  V30 15458 C 1551.36 3.58547 2.5521 0
M  V30 15459 H 1548.48 0.671862 0.302937 0
M  V30 15460 H 1551.12 1.89727 0.101783 0
M  V30 15461 H 1549.27 3.18746 2.22112 0
M  V30 15462 H 1550.94 4.61287 0.0350382 0
M  V30 15463 H 1549.18 4.33785 -0.0364578 0
M  V30 15464 H 1549.85 5.38381 1.21861 0
M  V30 15465 H 1552.33 3.63434 2.0262 0
M  V30 15466 H 1551.21 4.56227 3.05202 0
M  V30 15467 H 1551.47 2.85552 3.37509 0
M  V30 15468 N 1550.53 -0.396836 1.52522 0
M  V30 15469 C 1551.77 -1.14037 1.66853 0
M  V30 15470 C 1552.1 -1.90706 0.406987 0
M  V30 15471 O 1551.37 -1.87165 -0.578443 0
M  V30 15472 H 1549.95 -0.423967 0.615029 0
M  V30 15473 H 1552.61 -0.451042 1.89609 0
M  V30 15474 H 1551.7 -1.84763 2.51533 0
M  V30 15475 N 1552.01 -1.43353 -0.654814 0
M  V30 15476 C 1553.23 -1.48536 -1.44748 0
M  V30 15477 C 1553.66 -0.103991 -1.87812 0
M  V30 15478 O 1553.01 0.901924 -1.57274 0
M  V30 15479 C 1553.06 -2.43498 -2.65972 0
M  V30 15480 O 1552.17 -1.92014 -3.64972 0
M  V30 15481 H 1551.51 -0.502476 -0.434067 0
M  V30 15482 H 1554.04 -1.88251 -0.801427 0
M  V30 15483 H 1554.05 -2.60748 -3.13806 0
M  V30 15484 H 1552.72 -3.43847 -2.3397 0
M  V30 15485 H 1551.3 -1.84417 -3.24106 0
M  V30 15486 N 1553.48 0.89303 -1.29857 0
M  V30 15487 C 1554.71 1.67744 -1.21119 0
M  V30 15488 C 1555.13 1.87428 0.227198 0
M  V30 15489 O 1554.48 1.41605 1.15128 0
M  V30 15490 C 1554.53 3.05827 -1.92749 0
M  V30 15491 O 1554.26 2.87036 -3.30971 0
M  V30 15492 C 1555.76 4.00248 -1.9057 0
M  V30 15493 H 1552.98 0.523699 -0.4195 0
M  V30 15494 H 1555.52 1.1163 -1.71344 0
M  V30 15495 H 1553.68 3.58696 -1.46342 0
M  V30 15496 H 1554.09 3.74578 -3.6714 0
M  V30 15497 H 1555.56 4.9453 -2.45242 0
M  V30 15498 H 1556.04 4.30237 -0.882753 0
M  V30 15499 H 1556.65 3.53312 -2.36751 0
M  V30 15500 N 1554.96 1.12442 1.10429 0
M  V30 15501 C 1555.91 0.761266 2.14916 0
M  V30 15502 C 1556.9 -0.239768 1.59103 0
M  V30 15503 O 1558.09 -0.045261 1.76942 0
M  V30 15504 C 1555.22 0.217596 3.4261 0
M  V30 15505 C 1554.3 1.24692 4.05355 0
M  V30 15506 N 1554.69 2.44456 4.42804 0
M  V30 15507 C 1552.99 1.09229 4.32418 0
M  V30 15508 C 1553.69 3.10186 4.92097 0
M  V30 15509 N 1552.67 2.37634 4.88908 0
M  V30 15510 H 1556.47 1.67262 2.41662 0
M  V30 15511 H 1553.98 1.0052 1.27552 0
M  V30 15512 H 1555.98 -0.0607568 4.16856 0
M  V30 15513 H 1554.64 -0.688215 3.17323 0
M  V30 15514 H 1555.65 2.81837 4.34498 0
M  V30 15515 H 1552.33 0.24379 4.16788 0
M  V30 15516 H 1553.72 4.12179 5.3062 0
M  V30 15517 N 1556.44 -1.28223 0.91633 0
M  V30 15518 C 1557.39 -2.24848 0.377829 0
M  V30 15519 C 1558.37 -1.52553 -0.511507 0
M  V30 15520 O 1559.57 -1.73489 -0.350808 0
M  V30 15521 C 1556.69 -3.41206 -0.378635 0
M  V30 15522 C 1555.78 -4.20818 0.526567 0
M  V30 15523 N 1556.17 -4.78429 1.64132 0
M  V30 15524 C 1554.47 -4.44796 0.327436 0
M  V30 15525 C 1555.17 -5.38355 2.20339 0
M  V30 15526 N 1554.15 -5.22657 1.49434 0
M  V30 15527 H 1557.95 -2.66963 1.22914 0
M  V30 15528 H 1555.46 -1.43024 0.769282 0
M  V30 15529 H 1557.46 -4.09514 -0.781283 0
M  V30 15530 H 1556.12 -3.00623 -1.22701 0
M  V30 15531 H 1557.13 -4.76718 2.02387 0
M  V30 15532 H 1553.81 -4.14717 -0.481214 0
M  V30 15533 H 1555.2 -5.93948 3.14126 0
M  V30 15534 N 1557.92 -0.68059 -1.42147 0
M  V30 15535 C 1559.33 -0.350691 -1.55699 0
M  V30 15536 C 1559.53 1.1435 -1.6591 0
M  V30 15537 O 1558.59 1.92905 -1.62923 0
M  V30 15538 C 1559.9 -1.08608 -2.80401 0
M  V30 15539 C 1561.45 -1.06897 -2.9418 0
M  V30 15540 C 1561.93 -1.78581 -4.2175 0
M  V30 15541 N 1563.42 -1.75477 -4.28675 0
M  V30 15542 C 1564.15 -2.27794 -5.26211 0
M  V30 15543 N 1563.65 -2.88518 -6.29865 0
M  V30 15544 N 1565.44 -2.18135 -5.18048 0
M  V30 15545 H 1557.59 -1.64988 -1.33763 0
M  V30 15546 H 1559.85 -0.695411 -0.644289 0
M  V30 15547 H 1559.56 -2.14113 -2.79014 0
M  V30 15548 H 1559.43 -0.655022 -3.71469 0
M  V30 15549 H 1561.82 -0.0222464 -2.95092 0
M  V30 15550 H 1561.9 -1.53897 -2.04327 0
M  V30 15551 H 1561.55 -2.83225 -4.21599 0
M  V30 15552 H 1561.48 -1.29027 -5.10548 0
M  V30 15553 H 1563.97 -1.31191 -3.54397 0
M  V30 15554 H 1564.28 -3.26043 -7.00654 0
M  V30 15555 H 1562.63 -2.92589 -6.3041 0
M  V30 15556 H 1565.82 -1.7038 -4.35991 0
M  V30 15557 H 1565.99 -2.59213 -5.93896 0
M  V30 15558 N 1559.4 1.51781 -0.424309 0
M  V30 15559 C 1560.64 2.03879 0.145828 0
M  V30 15560 C 1561 1.30226 1.41086 0
M  V30 15561 O 1562.2 1.72629 2.06041 0
M  V30 15562 C 1560.47 3.55454 0.372466 0
M  V30 15563 S 1562.03 4.29305 0.907876 0
M  V30 15564 H 1558.85 0.709986 0.0379529 0
M  V30 15565 H 1561.45 1.86676 -0.58072 0
M  V30 15566 H 1560.15 4.06633 -0.554778 0
M  V30 15567 H 1559.69 3.76928 1.12646 0
M  V30 15568 H 1561.7 4.4541 2.18687 0
M  V30 15569 N 1560.87 0.155222 1.56834 0
M  V30 15570 C 1562.15 -0.539327 1.88018 0
M  V30 15571 C 1562.53 -1.8241 1.06253 0
M  V30 15572 O 1561.88 -2.27996 0.151721 0
M  V30 15573 C 1562.09 -0.796826 3.39782 0
M  V30 15574 C 1563.44 -1.13397 4.09178 0
M  V30 15575 O 1564.46 -0.885907 3.45007 0
M  V30 15576 O 1563.32 -1.60117 5.22518 0
M  V30 15577 H 1560.41 -0.276066 0.779562 0
M  V30 15578 H 1562.96 0.192451 1.68605 0
M  V30 15579 H 1561.73 0.112097 3.91139 0
M  V30 15580 H 1561.35 -1.5825 3.6475 0
M  V30 15581 N 1562.35 -1.57153 -0.118549 0
M  V30 15582 C 1563.6 -1.8515 -0.82748 0
M  V30 15583 C 1563.93 -0.741026 -1.79506 0
M  V30 15584 O 1563.21 0.253095 -1.92846 0
M  V30 15585 C 1563.49 -3.23734 -1.57698 0
M  V30 15586 C 1563.34 -4.45381 -0.628967 0
M  V30 15587 C 1564.66 -3.59895 -2.53305 0
M  V30 15588 H 1561.78 -0.673459 -0.29937 0
M  V30 15589 H 1564.42 -1.89778 -0.0917198 0
M  V30 15590 H 1562.57 -3.19919 -2.20418 0
M  V30 15591 H 1564.24 -4.61299 -0.0105746 0
M  V30 15592 H 1562.49 -4.33759 0.059462 0
M  V30 15593 H 1563.16 -5.3902 -1.19004 0
M  V30 15594 H 1565.63 -3.64503 -2.0069 0
M  V30 15595 H 1564.51 -4.57839 -3.02778 0
M  V30 15596 H 1564.77 -2.87338 -3.3599 0
M  V30 15597 N 1563.83 0.388742 -1.5273 0
M  V30 15598 C 1565.08 1.13543 -1.68035 0
M  V30 15599 C 1565.41 1.89622 -0.419177 0
M  V30 15600 O 1564.68 1.85556 0.583031 0
M  V30 15601 C 1564.97 2.11346 -2.91556 0
M  V30 15602 C 1564.82 1.39029 -4.27775 0
M  V30 15603 C 1566.14 3.11769 -3.10625 0
M  V30 15604 H 1563.26 0.411406 -0.611485 0
M  V30 15605 H 1565.9 0.418781 -1.85327 0
M  V30 15606 H 1564.05 2.7246 -2.76944 0
M  V30 15607 H 1565.72 0.808775 -4.54155 0
M  V30 15608 H 1563.96 0.692133 -4.28243 0
M  V30 15609 H 1564.64 2.10495 -5.1029 0
M  V30 15610 H 1567.11 2.60745 -3.2427 0
M  V30 15611 H 1565.99 3.77447 -3.98529 0
M  V30 15612 H 1566.25 3.80649 -2.24853 0
M  V30 15613 N 1565.31 1.43698 0.647203 0
M  V30 15614 C 1566.54 1.49085 1.43462 0
M  V30 15615 C 1566.95 0.110605 1.88476 0
M  V30 15616 O 1566.31 -0.880365 1.59862 0
M  V30 15617 C 1566.36 2.44186 2.66562 0
M  V30 15618 O 1566.08 3.76844 2.23429 0
M  V30 15619 C 1567.58 2.58876 3.59858 0
M  V30 15620 H 1564.8 0.506148 0.440517 0
M  V30 15621 H 1567.34 1.88502 0.792931 0
M  V30 15622 H 1565.5 2.07949 3.26858 0
M  V30 15623 H 1565.91 4.2804 3.0312 0
M  V30 15624 H 1567.39 3.29482 4.42883 0
M  V30 15625 H 1567.86 1.63567 4.07606 0
M  V30 15626 H 1568.47 2.95949 3.05441 0
M  V30 15627 N 1566.79 -0.886131 1.30328 0
M  V30 15628 C 1568.03 -1.6346 1.18849 0
M  V30 15629 C 1568.36 -1.93295 -0.257285 0
M  V30 15630 O 1567.63 -1.56858 -1.17356 0
M  V30 15631 H 1566.21 -0.605932 0.43687 0
M  V30 15632 H 1568.87 -1.06177 1.63439 0
M  V30 15633 H 1567.96 -2.58522 1.7485 0
M  V30 15634 N 1568.26 -1.13026 -1.09832 0
M  V30 15635 C 1569.21 -0.772653 -2.14509 0
M  V30 15636 C 1570.2 0.231327 -1.59228 0
M  V30 15637 O 1571.39 0.0358767 -1.76964 0
M  V30 15638 C 1568.52 -0.235762 -3.42489 0
M  V30 15639 C 1567.61 -1.2684 -4.04688 0
M  V30 15640 N 1568 -2.46801 -4.41501 0
M  V30 15641 C 1566.29 -1.11521 -4.31832 0
M  V30 15642 C 1567 -3.12791 -4.90445 0
M  V30 15643 N 1565.97 -2.40224 -4.87641 0
M  V30 15644 H 1569.77 -1.68541 -2.40772 0
M  V30 15645 H 1567.29 -1.01195 -1.27017 0
M  V30 15646 H 1569.28 0.038649 -4.16882 0
M  V30 15647 H 1567.94 0.671377 -3.17683 0
M  V30 15648 H 1568.96 -2.84137 -4.32997 0
M  V30 15649 H 1565.63 -0.26589 -4.16652 0
M  V30 15650 H 1567.02 -4.14988 -5.28427 0
M  V30 15651 N 1569.74 1.27735 -0.923117 0
M  V30 15652 C 1570.98 1.96339 -0.568378 0
M  V30 15653 C 1571.35 1.70988 0.87333 0
M  V30 15654 O 1572.55 2.33241 1.33611 0
M  V30 15655 C 1570.82 3.46396 -0.880016 0
M  V30 15656 S 1572.38 4.34209 -0.633102 0
M  V30 15657 H 1569.2 0.679289 -0.209969 0
M  V30 15658 H 1571.8 1.55066 -1.19057 0
M  V30 15659 H 1570.5 3.62344 -1.92705 0
M  V30 15660 H 1570.03 3.92625 -0.246836 0
M  V30 15661 H 1572.05 4.93559 0.511241 0
M  V30 15662 N 1571.22 0.688118 1.41784 0
M  V30 15663 C 1572.15 -0.02099 2.2919 0
M  V30 15664 C 1573.17 -0.752005 1.44391 0
M  V30 15665 O 1574.35 -0.603947 1.67972 0
M  V30 15666 C 1571.45 -1.0537 3.22103 0
M  V30 15667 C 1570.63 -0.393817 4.35624 0
M  V30 15668 C 1569.69 -1.32812 5.09163 0
M  V30 15669 O 1568.71 -0.823341 5.63214 0
M  V30 15670 N 1569.91 -2.66083 5.15927 0
M  V30 15671 H 1572.68 0.729389 2.90689 0
M  V30 15672 H 1570.24 0.533564 1.52855 0
M  V30 15673 H 1572.23 -1.6803 3.68169 0
M  V30 15674 H 1570.8 -1.70568 2.61964 0
M  V30 15675 H 1570.02 0.41253 3.92035 0
M  V30 15676 H 1571.31 0.065338 5.08758 0
M  V30 15677 H 1570.71 -3.09619 4.73448 0
M  V30 15678 H 1569.27 -3.23956 5.65593 0
M  V30 15679 N 1572.7 -1.51554 0.432352 0
M  V30 15680 C 1573.94 -2.03954 -0.135014 0
M  V30 15681 C 1574.3 -1.30972 -1.40393 0
M  V30 15682 O 1575.5 -1.73719 -2.05122 0
M  V30 15683 C 1573.77 -3.55646 -0.35361 0
M  V30 15684 S 1575.33 -4.29781 -0.885096 0
M  V30 15685 H 1572.15 -0.710178 -0.0341871 0
M  V30 15686 H 1574.75 -1.86365 0.590612 0
M  V30 15687 H 1573.46 -4.06333 0.576335 0
M  V30 15688 H 1572.99 -3.7752 -1.10646 0
M  V30 15689 H 1575 -4.46564 -2.16322 0
M  V30 15690 N 1574.18 -0.163538 -1.56749 0
M  V30 15691 C 1575.12 0.769787 -2.17584 0
M  V30 15692 C 1576.09 1.23246 -1.11354 0
M  V30 15693 O 1577.28 1.30203 -1.3947 0
M  V30 15694 C 1574.42 1.99685 -2.81461 0
M  V30 15695 C 1573.53 1.57846 -4.0213 0
M  V30 15696 C 1572.67 2.75858 -4.53955 0
M  V30 15697 C 1571.71 2.30473 -5.67053 0
M  V30 15698 N 1570.84 3.41551 -6.13423 0
M  V30 15699 H 1575.68 0.244221 -2.96998 0
M  V30 15700 H 1573.22 0.108821 -1.46697 0
M  V30 15701 H 1575.18 2.71643 -3.16648 0
M  V30 15702 H 1573.81 2.49624 -2.04664 0
M  V30 15703 H 1572.86 0.755907 -3.72814 0
M  V30 15704 H 1574.17 1.20525 -4.8402 0
M  V30 15705 H 1573.33 3.55984 -4.91284 0
M  V30 15706 H 1572.06 3.16434 -3.71107 0
M  V30 15707 H 1571.07 1.48791 -5.29284 0
M  V30 15708 H 1572.29 1.90964 -6.51698 0
M  V30 15709 H 1570.24 3.81717 -5.33506 0
M  V30 15710 H 1570.16 3.08298 -6.90281 0
M  V30 15711 H 1571.43 4.21985 -6.554 0
M  V30 15712 N 1575.65 1.57214 0.110213 0
M  V30 15713 C 1576.88 1.8988 0.834297 0
M  V30 15714 C 1577.3 0.756347 1.72224 0
M  V30 15715 O 1576.66 -0.292768 1.78921 0
M  V30 15716 C 1576.71 3.21338 1.63629 0
M  V30 15717 O 1575.81 3.07862 2.74399 0
M  V30 15718 H 1575.16 0.62283 0.23017 0
M  V30 15719 H 1577.69 2.04402 0.0899726 0
M  V30 15720 H 1577.7 3.54275 2.02369 0
M  V30 15721 H 1576.37 4.04079 0.984521 0
M  V30 15722 H 1574.95 2.8641 2.38797 0
M  V30 15723 N 1577.13 -0.380637 1.52934 0
M  V30 15724 C 1578.08 -1.46544 1.78307 0
M  V30 15725 C 1579.05 -1.53825 0.626671 0
M  V30 15726 O 1580.23 -1.6995 0.867276 0
M  V30 15727 C 1577.37 -2.83676 1.96525 0
M  V30 15728 C 1576.49 -2.85481 3.24229 0
M  V30 15729 C 1575.62 -4.14092 3.32718 0
M  V30 15730 C 1574.66 -4.09982 4.54512 0
M  V30 15731 N 1573.8 -5.30214 4.60237 0
M  V30 15732 H 1578.64 -1.24209 2.7088 0
M  V30 15733 H 1576.18 -0.60241 1.34199 0
M  V30 15734 H 1578.13 -3.63319 2.05073 0
M  V30 15735 H 1576.76 -3.04443 1.07304 0
M  V30 15736 H 1575.82 -1.98159 3.24711 0
M  V30 15737 H 1577.13 -2.78313 4.13936 0
M  V30 15738 H 1576.28 -5.02144 3.40494 0
M  V30 15739 H 1575.02 -4.23993 2.41 0
M  V30 15740 H 1574.03 -3.20317 4.46852 0
M  V30 15741 H 1575.25 -4.01696 5.47556 0
M  V30 15742 H 1573.2 -5.40729 3.71414 0
M  V30 15743 H 1573.11 -5.25155 5.43827 0
M  V30 15744 H 1574.38 -6.2014 4.72279 0
M  V30 15745 N 1578.61 -1.44039 -0.639573 0
M  V30 15746 C 1579.86 -1.46377 -1.39928 0
M  V30 15747 C 1580.19 -0.0931685 -1.94277 0
M  V30 15748 O 1579.44 0.903841 -1.73578 0
M  V30 15749 C 1579.74 -2.46459 -2.5883 0
M  V30 15750 C 1579.41 -3.91998 -2.2282 0
M  V30 15751 C 1578.07 -4.31633 -2.12712 0
M  V30 15752 C 1580.42 -4.83656 -1.94232 0
M  V30 15753 C 1577.75 -5.60863 -1.72191 0
M  V30 15754 C 1580.1 -6.13265 -1.55206 0
M  V30 15755 C 1578.76 -6.51863 -1.43633 0
M  V30 15756 H 1578.03 -0.535633 -0.512034 0
M  V30 15757 H 1580.68 -1.77202 -0.72607 0
M  V30 15758 H 1578.99 -2.09087 -3.31345 0
M  V30 15759 H 1580.68 -2.45518 -3.17052 0
M  V30 15760 H 1577.27 -3.60636 -2.31602 0
M  V30 15761 H 1581.46 -4.53796 -2.00955 0
M  V30 15762 H 1576.71 -5.89595 -1.61828 0
M  V30 15763 H 1580.89 -6.83752 -1.32121 0
M  V30 15764 H 1578.51 -7.51903 -1.12006 0
M  V30 15765 N 1580.09 0.879207 -1.30796 0
M  V30 15766 C 1581.34 1.62828 -1.19715 0
M  V30 15767 C 1581.66 1.93429 0.247031 0
M  V30 15768 O 1580.93 1.57478 1.16522 0
M  V30 15769 H 1579.51 0.603607 -0.440077 0
M  V30 15770 H 1582.17 1.05309 -1.64 0
M  V30 15771 H 1581.27 2.57591 -1.76219 0
M  V30 15772 N 1581.57 1.13606 1.09231 0
M  V30 15773 C 1582.82 0.897278 1.81089 0
M  V30 15774 C 1583.14 -0.578066 1.86235 0
M  V30 15775 O 1582.41 -1.42018 1.34935 0
M  V30 15776 H 1580.99 0.328971 0.670662 0
M  V30 15777 H 1583.65 1.433 1.32103 0
M  V30 15778 H 1582.74 1.28979 2.84202 0
M  V30 15779 N 1583.05 -1.27244 0.929878 0
M  V30 15780 C 1584.46 -1.4662 0.630451 0
M  V30 15781 C 1584.66 -1.84077 -0.819633 0
M  V30 15782 O 1583.72 -1.95555 -1.59733 0
M  V30 15783 C 1585.03 -2.55709 1.58219 0
M  V30 15784 C 1586.58 -2.69569 1.59065 0
M  V30 15785 C 1587.05 -3.81818 2.52941 0
M  V30 15786 N 1588.54 -3.89195 2.51161 0
M  V30 15787 C 1589.28 -4.75474 3.20488 0
M  V30 15788 N 1588.78 -5.66225 3.99201 0
M  V30 15789 N 1590.57 -4.69222 3.09495 0
M  V30 15790 H 1582.72 -1.01216 1.86733 0
M  V30 15791 H 1584.98 -0.505737 0.801832 0
M  V30 15792 H 1584.69 -2.34985 2.61677 0
M  V30 15793 H 1584.56 -3.53141 1.32556 0
M  V30 15794 H 1586.95 -2.89672 0.563375 0
M  V30 15795 H 1587.03 -1.72616 1.88778 0
M  V30 15796 H 1586.67 -3.62467 3.55781 0
M  V30 15797 H 1586.6 -4.78202 2.20524 0
M  V30 15798 H 1589.1 -3.24305 1.93997 0
M  V30 15799 H 1589.41 -6.28925 4.4908 0
M  V30 15800 H 1587.75 -5.66013 4.03304 0
M  V30 15801 H 1590.94 -3.97322 2.47493 0
M  V30 15802 H 1591.12 -5.36244 3.63794 0
M  V30 15803 N 1584.52 -0.695628 -1.41417 0
M  V30 15804 C 1585.49 -0.0392949 -2.29166 0
M  V30 15805 C 1586.49 0.70789 -1.4438 0
M  V30 15806 O 1587.68 0.542771 -1.65528 0
M  V30 15807 C 1584.81 0.954719 -3.27258 0
M  V30 15808 H 1586 -0.811902 -2.88701 0
M  V30 15809 H 1583.55 -0.459128 -1.49405 0
M  V30 15810 H 1584.29 1.75509 -2.72703 0
M  V30 15811 H 1584.07 0.422079 -3.89822 0
M  V30 15812 H 1585.56 1.41174 -3.93014 0
M  V30 15813 N 1586 1.51322 -0.440383 0
M  V30 15814 C 1587.24 2.04022 0.124196 0
M  V30 15815 C 1587.61 1.31715 1.39697 0
M  V30 15816 O 1588.81 1.74804 2.04198 0
M  V30 15817 C 1587.08 3.55829 0.334744 0
M  V30 15818 S 1588.64 4.30244 0.862291 0
M  V30 15819 H 1585.45 0.710349 0.0304204 0
M  V30 15820 H 1588.06 1.86049 -0.600487 0
M  V30 15821 H 1586.76 4.06022 -0.597876 0
M  V30 15822 H 1586.29 3.78101 1.08642 0
M  V30 15823 H 1588.31 4.47705 2.13951 0
M  V30 15824 N 1587.48 0.171848 1.5666 0
M  V30 15825 C 1588.76 -0.519355 1.88579 0
M  V30 15826 C 1589.14 -1.81273 1.08182 0
M  V30 15827 O 1588.48 -2.27822 0.175895 0
M  V30 15828 C 1588.69 -0.760743 3.40608 0
M  V30 15829 C 1590.04 -1.09051 4.10357 0
M  V30 15830 O 1591.07 -0.849264 3.45928 0
M  V30 15831 O 1589.93 -1.54566 5.24187 0
M  V30 15832 H 1587.02 -0.267782 0.782446 0
M  V30 15833 H 1589.57 0.210323 1.68392 0
M  V30 15834 H 1588.34 0.153577 3.90999 0
M  V30 15835 H 1587.96 -1.54372 3.66408 0
M  V30 15836 N 1588.96 -1.5727 -0.101874 0
M  V30 15837 C 1589.89 -1.98253 -1.15014 0
M  V30 15838 C 1590.9 -0.884147 -1.36699 0
M  V30 15839 O 1592.09 -1.16232 -1.35471 0
M  V30 15840 C 1589.19 -2.28043 -2.50698 0
M  V30 15841 C 1588.36 -3.59343 -2.49383 0
M  V30 15842 C 1587.42 -3.77147 -3.66943 0
M  V30 15843 O 1586.45 -4.49075 -3.49744 0
M  V30 15844 N 1587.65 -3.1721 -4.86167 0
M  V30 15845 H 1590.42 -2.88787 -0.801375 0
M  V30 15846 H 1587.98 -1.59264 -0.290941 0
M  V30 15847 H 1589.97 -2.37153 -3.27934 0
M  V30 15848 H 1588.54 -1.4355 -2.77691 0
M  V30 15849 H 1587.76 -3.61264 -1.57741 0
M  V30 15850 H 1589.05 -4.45612 -2.45576 0
M  V30 15851 H 1588.45 -2.58772 -5.03044 0
M  V30 15852 H 1587 -3.31816 -5.61018 0
M  V30 15853 N 1590.44 0.372521 -1.53134 0
M  V30 15854 C 1591.68 1.12465 -1.70678 0
M  V30 15855 C 1592.04 1.8676 -0.445503 0
M  V30 15856 O 1593.24 2.64155 -0.497531 0
M  V30 15857 C 1591.51 2.06389 -2.91785 0
M  V30 15858 S 1593.07 2.89216 -3.3 0
M  V30 15859 H 1589.89 0.380458 -0.600644 0
M  V30 15860 H 1592.49 0.406831 -1.9122 0
M  V30 15861 H 1591.19 1.50559 -3.81786 0
M  V30 15862 H 1590.73 2.82654 -2.73624 0
M  V30 15863 H 1592.74 4.08642 -2.81471 0
M  V30 15864 N 1591.91 1.44376 0.631925 0
M  V30 15865 C 1593.14 1.5082 1.42366 0
M  V30 15866 C 1593.56 0.133858 1.87623 0
M  V30 15867 O 1592.92 -0.876789 1.58689 0
M  V30 15868 C 1592.97 2.47698 2.62065 0
M  V30 15869 O 1592.07 1.97796 3.61871 0
M  V30 15870 H 1591.41 0.509318 0.426018 0
M  V30 15871 H 1593.94 1.89502 0.771376 0
M  V30 15872 H 1593.95 2.65708 3.09618 0
M  V30 15873 H 1592.63 3.47526 2.2847 0
M  V30 15874 H 1591.21 1.89549 3.21131 0
M  V30 15875 N 1593.39 -0.872258 1.31261 0
M  V30 15876 C 1594.32 -1.99517 1.21306 0
M  V30 15877 C 1595.3 -1.69801 0.100775 0
M  V30 15878 O 1596.49 -1.92098 0.284984 0
M  V30 15879 C 1593.62 -3.34968 0.917249 0
M  V30 15880 C 1592.57 -3.78984 1.98885 0
M  V30 15881 C 1591.9 -5.11869 1.54578 0
M  V30 15882 C 1593.2 -3.96338 3.40167 0
M  V30 15883 H 1594.89 -2.08104 2.15251 0
M  V30 15884 H 1592.44 -0.999865 1.03628 0
M  V30 15885 H 1594.39 -4.1306 0.834217 0
M  V30 15886 H 1593.11 -3.26549 -0.0578721 0
M  V30 15887 H 1591.77 -3.0313 2.06174 0
M  V30 15888 H 1591.42 -4.99889 0.558581 0
M  V30 15889 H 1591.12 -5.4229 2.26265 0
M  V30 15890 H 1592.65 -5.92472 1.47678 0
M  V30 15891 H 1594.06 -4.64831 3.35566 0
M  V30 15892 H 1592.46 -4.38153 4.10051 0
M  V30 15893 H 1593.53 -2.9979 3.81122 0
M  V30 15894 N 1594.87 -1.14184 -1.08627 0
M  V30 15895 C 1596.12 -0.906869 -1.80611 0
M  V30 15896 C 1596.44 0.568182 -1.86539 0
M  V30 15897 O 1595.71 1.41301 -1.35687 0
M  V30 15898 H 1594.29 -0.332523 -0.668908 0
M  V30 15899 H 1596.95 -1.43998 -1.31341 0
M  V30 15900 H 1596.05 -1.30484 -2.83514 0
M  V30 15901 N 1596.35 1.26749 -0.936613 0
M  V30 15902 C 1597.58 1.97772 -0.597489 0
M  V30 15903 C 1597.99 1.69984 0.830796 0
M  V30 15904 O 1597.33 0.962037 1.56495 0
M  V30 15905 C 1597.39 3.51497 -0.754307 0
M  V30 15906 C 1597.06 4.02926 -2.15637 0
M  V30 15907 C 1598.05 4.15016 -3.13141 0
M  V30 15908 C 1595.74 4.37051 -2.47572 0
M  V30 15909 C 1597.73 4.60518 -4.40683 0
M  V30 15910 C 1595.42 4.82242 -3.75347 0
M  V30 15911 C 1596.42 4.93936 -4.71716 0
M  V30 15912 O 1596.1 5.38133 -5.97217 0
M  V30 15913 H 1595.84 0.637664 -0.224412 0
M  V30 15914 H 1598.39 1.62341 -1.25836 0
M  V30 15915 H 1596.62 3.86683 -0.0363189 0
M  V30 15916 H 1598.31 4.03732 -0.418921 0
M  V30 15917 H 1599.08 3.88903 -2.89792 0
M  V30 15918 H 1594.95 4.27186 -1.733 0
M  V30 15919 H 1598.5 4.69561 -5.15906 0
M  V30 15920 H 1594.4 5.07799 -3.98511 0
M  V30 15921 H 1595.16 5.56365 -6.00334 0
M  V30 15922 N 1597.83 0.703118 1.41046 0
M  V30 15923 C 1599.24 0.375417 1.55122 0
M  V30 15924 C 1599.44 -1.11696 1.67709 0
M  V30 15925 O 1598.5 -1.90289 1.65971 0
M  V30 15926 C 1599.81 1.13056 2.78638 0
M  V30 15927 C 1601.36 1.11564 2.92442 0
M  V30 15928 C 1601.83 1.85268 4.18855 0
M  V30 15929 N 1603.33 1.82275 4.25829 0
M  V30 15930 C 1604.06 2.36137 5.2252 0
M  V30 15931 N 1603.56 2.98502 6.25195 0
M  V30 15932 N 1605.35 2.26349 5.14512 0
M  V30 15933 H 1597.5 1.67096 1.31121 0
M  V30 15934 H 1599.76 0.705573 0.633144 0
M  V30 15935 H 1599.47 2.18524 2.75572 0
M  V30 15936 H 1599.34 0.714037 3.7038 0
M  V30 15937 H 1601.73 0.0691901 2.95019 0
M  V30 15938 H 1601.81 1.57128 2.01853 0
M  V30 15939 H 1601.46 2.89896 4.1704 0
M  V30 15940 H 1601.39 1.37133 5.08431 0
M  V30 15941 H 1603.88 1.36812 3.52265 0
M  V30 15942 H 1604.19 3.37149 6.95378 0
M  V30 15943 H 1602.53 3.02582 6.25675 0
M  V30 15944 H 1605.73 1.77294 4.33226 0
M  V30 15945 H 1605.9 2.68629 5.89697 0
M  V30 15946 N 1599.3 -1.51086 0.448402 0
M  V30 15947 C 1600.58 -1.94817 -0.174819 0
M  V30 15948 C 1600.96 -1.38767 -1.59081 0
M  V30 15949 O 1600.31 -0.579257 -2.21036 0
M  V30 15950 C 1600.52 -3.48714 -0.14129 0
M  V30 15951 C 1601.87 -4.23225 -0.341414 0
M  V30 15952 O 1602.89 -3.55527 -0.218908 0
M  V30 15953 O 1601.75 -5.43346 -0.586331 0
M  V30 15954 H 1598.84 -0.817652 -0.12399 0
M  V30 15955 H 1601.39 -1.61944 0.507177 0
M  V30 15956 H 1600.16 -3.81996 0.848222 0
M  V30 15957 H 1599.79 -3.88061 -0.865722 0
M  V30 15958 N 1600.78 -0.180154 -1.56567 0
M  V30 15959 C 1602.03 0.46252 -1.97147 0
M  V30 15960 C 1602.36 1.62654 -1.06649 0
M  V30 15961 O 1601.61 1.95432 -0.102417 0
M  V30 15962 C 1601.91 0.978895 -3.43733 0
M  V30 15963 C 1601.58 -0.0701623 -4.50845 0
M  V30 15964 C 1600.24 -0.358456 -4.79863 0
M  V30 15965 C 1602.59 -0.781763 -5.15304 0
M  V30 15966 C 1599.92 -1.36359 -5.70634 0
M  V30 15967 C 1602.27 -1.77594 -6.0716 0
M  V30 15968 C 1600.94 -2.07159 -6.3454 0
M  V30 15969 H 1600.21 0.169248 -0.721413 0
M  V30 15970 H 1602.85 -0.273976 -1.8953 0
M  V30 15971 H 1601.16 1.79338 -3.48346 0
M  V30 15972 H 1602.85 1.4853 -3.72478 0
M  V30 15973 H 1599.44 0.164708 -4.28283 0
M  V30 15974 H 1603.63 -0.572254 -4.9299 0
M  V30 15975 H 1598.88 -1.59872 -5.90128 0
M  V30 15976 H 1603.06 -2.33265 -6.56171 0
M  V30 15977 H 1600.69 -2.85191 -7.04677 0
M  V30 15978 N 1602.26 1.57322 0.0935319 0
M  V30 15979 C 1603.67 1.75099 0.64787 0
M  V30 15980 C 1604.02 0.802558 1.79035 0
M  V30 15981 O 1603.15 -0.0185803 2.16392 0
M  V30 15982 C 1603.74 3.17512 1.18203 0
M  V30 15983 C 1602.3 3.36707 1.68242 0
M  V30 15984 C 1601.45 2.70893 0.592649 0
M  V30 15985 H 1604.4 1.58146 -0.132546 0
M  V30 15986 H 1604.42 3.2047 2.05132 0
M  V30 15987 H 1603.93 3.86516 0.350297 0
M  V30 15988 H 1602.03 2.72784 2.5381 0
M  V30 15989 H 1602.15 4.45033 1.77433 0
M  V30 15990 H 1600.51 2.32835 1.03248 0
M  V30 15991 H 1601.29 3.42539 -0.228529 0
M  V30 15992 N 1603.74 -0.364395 1.53329 0
M  V30 15993 C 1605.02 -1.12265 1.60174 0
M  V30 15994 C 1605.4 -2.0708 0.410015 0
M  V30 15995 O 1604.74 -2.20492 -0.599631 0
M  V30 15996 C 1604.95 -1.86071 2.9526 0
M  V30 15997 C 1606.3 -2.40562 3.49879 0
M  V30 15998 O 1607.33 -1.96196 2.97297 0
M  V30 15999 O 1606.18 -3.2167 4.41804 0
M  V30 16000 H 1603.28 -0.515062 0.647024 0
M  V30 16001 H 1605.82 -0.367563 1.65672 0
M  V30 16002 H 1604.6 -1.1688 3.73436 0
M  V30 16003 H 1604.22 -2.68486 2.93259 0
M  V30 16004 N 1605.22 -1.44709 -0.62426 0
M  V30 16005 C 1606.46 -1.4938 -1.39517 0
M  V30 16006 C 1606.82 -0.125721 -1.91588 0
M  V30 16007 O 1608.02 -0.0471087 -2.68759 0
M  V30 16008 C 1606.29 -2.53005 -2.52435 0
M  V30 16009 S 1607.85 -2.76776 -3.40501 0
M  V30 16010 H 1604.67 -0.528266 -0.475874 0
M  V30 16011 H 1607.27 -1.81679 -0.722007 0
M  V30 16012 H 1605.98 -3.51099 -2.12502 0
M  V30 16013 H 1605.51 -2.22301 -3.2457 0
M  V30 16014 H 1607.52 -2.08891 -4.50088 0
M  V30 16015 N 1606.69 0.865285 -1.31722 0
M  V30 16016 C 1607.94 1.62108 -1.21855 0
M  V30 16017 C 1608.27 1.9293 0.221714 0
M  V30 16018 O 1607.55 1.56423 1.15595 0
M  V30 16019 C 1607.83 2.94828 -2.06756 0
M  V30 16020 C 1607.68 2.70855 -3.59107 0
M  V30 16021 C 1609 3.95983 -1.92055 0
M  V30 16022 H 1606.12 0.588234 -0.444015 0
M  V30 16023 H 1608.76 0.999922 -1.6156 0
M  V30 16024 H 1606.91 3.47843 -1.73025 0
M  V30 16025 H 1608.59 2.24477 -4.02999 0
M  V30 16026 H 1606.83 2.05004 -3.82303 0
M  V30 16027 H 1607.5 3.65312 -4.13825 0
M  V30 16028 H 1609.98 3.52193 -2.21584 0
M  V30 16029 H 1608.85 4.86724 -2.53754 0
M  V30 16030 H 1609.11 4.33148 -0.885174 0
M  V30 16031 N 1608.17 1.14759 1.0802 0
M  V30 16032 C 1609.58 0.928711 1.61963 0
M  V30 16033 C 1609.93 -0.531568 1.88862 0
M  V30 16034 O 1609.06 -1.40129 1.64902 0
M  V30 16035 C 1609.65 1.67943 2.94246 0
M  V30 16036 C 1608.21 1.50602 3.44958 0
M  V30 16037 C 1607.36 1.69938 2.19126 0
M  V30 16038 H 1610.31 1.29882 0.911945 0
M  V30 16039 H 1610.33 1.14493 3.62866 0
M  V30 16040 H 1609.84 2.7422 2.74636 0
M  V30 16041 H 1607.95 0.466901 3.69663 0
M  V30 16042 H 1608.06 2.27857 4.21447 0
M  V30 16043 H 1606.42 1.12534 2.28491 0
M  V30 16044 H 1607.21 2.77566 2.0202 0
M  V30 16045 N 1609.65 -1.26251 0.943322 0
M  V30 16046 C 1610.89 -1.95409 0.599542 0
M  V30 16047 C 1611.25 -1.72356 -0.846017 0
M  V30 16048 O 1612.46 -2.35337 -1.29884 0
M  V30 16049 C 1610.73 -3.44953 0.935013 0
M  V30 16050 S 1612.29 -4.33147 0.702101 0
M  V30 16051 H 1609.1 -0.675863 0.22075 0
M  V30 16052 H 1611.71 -1.53153 1.21509 0
M  V30 16053 H 1610.41 -3.59232 1.98445 0
M  V30 16054 H 1609.94 -3.92182 0.309268 0
M  V30 16055 H 1611.96 -4.9431 -0.432655 0
M  V30 16056 N 1611.13 -0.710588 -1.40671 0
M  V30 16057 C 1612.41 -0.175319 -1.94813 0
M  V30 16058 C 1612.79 1.31792 -1.64906 0
M  V30 16059 O 1612.13 2.07167 -0.964058 0
M  V30 16060 C 1612.34 -0.482691 -3.45646 0
M  V30 16061 C 1613.69 -0.418619 -4.22531 0
M  V30 16062 O 1614.72 -0.418463 -3.53733 0
M  V30 16063 O 1613.58 -0.391787 -5.45094 0
M  V30 16064 H 1610.67 -0.0237744 -0.826658 0
M  V30 16065 H 1613.22 -0.787778 -1.50307 0
M  V30 16066 H 1611.99 -1.51569 -3.60753 0
M  V30 16067 H 1611.61 0.159984 -3.97278 0
M  V30 16068 N 1612.61 1.50847 -0.456408 0
M  V30 16069 C 1613.85 2.04143 0.102549 0
M  V30 16070 C 1614.21 1.33189 1.38292 0
M  V30 16071 O 1615.41 1.7696 2.02333 0
M  V30 16072 C 1613.68 3.56164 0.296985 0
M  V30 16073 S 1615.24 4.31134 0.816609 0
M  V30 16074 H 1612.06 0.710632 0.0228845 0
M  V30 16075 H 1614.66 1.85402 -0.620186 0
M  V30 16076 H 1613.37 4.05365 -0.640906 0
M  V30 16077 H 1612.9 3.79232 1.04626 0
M  V30 16078 H 1614.91 4.49949 2.0919 0
M  V30 16079 N 1614.09 0.188454 1.56469 0
M  V30 16080 C 1615.36 -0.499324 1.89119 0
M  V30 16081 C 1615.74 -1.80116 1.10098 0
M  V30 16082 O 1615.09 -2.27623 0.200048 0
M  V30 16083 C 1615.3 -0.724574 3.41396 0
M  V30 16084 C 1616.65 -1.04692 4.11491 0
M  V30 16085 O 1617.67 -0.812526 3.46809 0
M  V30 16086 O 1616.53 -1.48998 5.25797 0
M  V30 16087 H 1613.63 -0.259468 0.785242 0
M  V30 16088 H 1616.17 0.228172 1.68159 0
M  V30 16089 H 1614.94 0.195039 3.90814 0
M  V30 16090 H 1614.57 -1.50477 3.68025 0
M  V30 16091 N 1615.56 -1.5737 -0.0851874 0
M  V30 16092 C 1616.49 -2.05796 -1.10319 0
M  V30 16093 C 1617.47 -0.948796 -1.4118 0
M  V30 16094 O 1618.66 -1.22069 -1.51039 0
M  V30 16095 C 1615.79 -2.49069 -2.42037 0
M  V30 16096 C 1614.74 -3.6374 -2.25561 0
M  V30 16097 C 1614.07 -3.93023 -3.62543 0
M  V30 16098 C 1615.37 -4.94274 -1.68793 0
M  V30 16099 H 1617.06 -2.91095 -0.700274 0
M  V30 16100 H 1614.61 -1.40039 -0.335405 0
M  V30 16101 H 1616.56 -2.81558 -3.13534 0
M  V30 16102 H 1615.29 -1.60781 -2.84283 0
M  V30 16103 H 1613.95 -3.31513 -1.56507 0
M  V30 16104 H 1613.59 -3.01887 -4.02335 0
M  V30 16105 H 1613.29 -4.70229 -3.52362 0
M  V30 16106 H 1614.82 -4.27995 -4.35491 0
M  V30 16107 H 1616.23 -5.25079 -2.30141 0
M  V30 16108 H 1614.63 -5.75711 -1.69344 0
M  V30 16109 H 1615.7 -4.80548 -0.648204 0
M  V30 16110 N 1617.04 0.356258 -1.53521 0
M  V30 16111 C 1618.46 0.698546 -1.43501 0
M  V30 16112 C 1618.66 1.92926 -0.581547 0
M  V30 16113 O 1617.71 2.5241 -0.0675947 0
M  V30 16114 C 1619.03 0.903047 -2.8682 0
M  V30 16115 C 1620.57 1.00247 -2.96512 0
M  V30 16116 C 1621.05 1.23938 -4.40912 0
M  V30 16117 N 1622.54 1.30687 -4.44382 0
M  V30 16118 C 1623.28 1.50745 -5.5323 0
M  V30 16119 N 1622.77 1.68058 -6.72107 0
M  V30 16120 N 1624.56 1.5319 -5.40823 0
M  V30 16121 H 1616.72 -0.453102 -2.07511 0
M  V30 16122 H 1618.98 -0.140708 -0.937499 0
M  V30 16123 H 1618.68 0.070416 -3.5163 0
M  V30 16124 H 1618.56 1.80847 -3.3102 0
M  V30 16125 H 1620.95 1.82564 -2.3185 0
M  V30 16126 H 1621.03 0.0742303 -2.55692 0
M  V30 16127 H 1620.67 0.421189 -5.06151 0
M  V30 16128 H 1620.6 2.18098 -4.79313 0
M  V30 16129 H 1623.09 1.18883 -3.58713 0
M  V30 16130 H 1623.4 1.82963 -7.50829 0
M  V30 16131 H 1621.75 1.65219 -6.75076 0
M  V30 16132 H 1624.94 1.39237 -4.46912 0
M  V30 16133 H 1625.11 1.6848 -6.25714 0
M  V30 16134 N 1618.52 1.45038 0.616577 0
M  V30 16135 C 1619.77 1.48292 1.3731 0
M  V30 16136 C 1620.09 0.122437 1.94615 0
M  V30 16137 O 1619.36 -0.847103 1.76638 0
M  V30 16138 H 1617.94 0.546079 0.509712 0
M  V30 16139 H 1620.6 1.80927 0.724673 0
M  V30 16140 H 1619.7 2.21664 2.19708 0
M  V30 16141 N 1620 -0.858287 1.32179 0
M  V30 16142 C 1621.23 -1.64473 1.25523 0
M  V30 16143 C 1621.64 -1.87964 -0.177425 0
M  V30 16144 O 1621 -1.44607 -1.11333 0
M  V30 16145 C 1621.05 -3.00609 2.0079 0
M  V30 16146 O 1620.77 -2.7816 3.38465 0
M  V30 16147 C 1622.27 -3.95054 2.01115 0
M  V30 16148 H 1619.49 -0.512393 0.433237 0
M  V30 16149 H 1622.03 -1.07048 1.74244 0
M  V30 16150 H 1620.19 -3.5469 1.55801 0
M  V30 16151 H 1620.6 -3.64712 3.76942 0
M  V30 16152 H 1622.08 -4.87854 2.58268 0
M  V30 16153 H 1622.55 -4.27746 0.996513 0
M  V30 16154 H 1623.16 -3.4691 2.46035 0
M  V30 16155 N 1621.48 -1.1533 -1.07409 0
M  V30 16156 C 1622.7 -0.952101 -1.84255 0
M  V30 16157 C 1623.13 0.494571 -1.81482 0
M  V30 16158 O 1622.48 1.35253 -1.20733 0
M  V30 16159 C 1622.53 -1.47019 -3.29268 0
M  V30 16160 O 1621.64 -0.669005 -4.06937 0
M  V30 16161 H 1620.98 -0.339643 -0.57056 0
M  V30 16162 H 1623.51 -1.53298 -1.35502 0
M  V30 16163 H 1623.52 -1.48278 -3.80102 0
M  V30 16164 H 1622.19 -2.5234 -3.30602 0
M  V30 16165 H 1620.77 -0.726003 -3.65764 0
M  V30 16166 N 1622.95 1.25748 -0.950004 0
M  V30 16167 C 1624.2 1.92954 -0.601104 0
M  V30 16168 C 1624.52 1.74817 0.863953 0
M  V30 16169 O 1623.79 1.10904 1.61484 0
M  V30 16170 H 1622.37 0.714077 -0.219325 0
M  V30 16171 H 1625.03 1.53009 -1.20724 0
M  V30 16172 H 1624.13 3.00959 -0.826447 0
M  V30 16173 N 1624.43 0.718038 1.40292 0
M  V30 16174 C 1625.71 0.185648 1.94717 0
M  V30 16175 C 1626.09 -1.30916 1.65603 0
M  V30 16176 O 1625.44 -2.06653 0.975031 0
M  V30 16177 C 1625.65 0.501015 3.45385 0
M  V30 16178 C 1626.99 0.441021 4.22303 0
M  V30 16179 O 1628.02 0.437217 3.53507 0
M  V30 16180 O 1626.88 0.420689 5.44878 0
M  V30 16181 H 1623.97 0.0281581 0.82652 0
M  V30 16182 H 1626.52 0.795738 1.49887 0
M  V30 16183 H 1625.29 1.5348 3.59944 0
M  V30 16184 H 1624.91 -0.138913 3.97357 0
M  V30 16185 N 1625.91 -1.50602 0.464402 0
M  V30 16186 C 1626.87 -2.26929 -0.32185 0
M  V30 16187 C 1627.87 -1.3144 -0.926289 0
M  V30 16188 O 1629.06 -1.54924 -0.796511 0
M  V30 16189 C 1626.2 -3.08155 -1.45785 0
M  V30 16190 H 1627.39 -2.97881 0.347436 0
M  V30 16191 H 1624.94 -1.54768 0.218278 0
M  V30 16192 H 1625.68 -2.41684 -2.16239 0
M  V30 16193 H 1625.46 -3.78321 -1.03031 0
M  V30 16194 H 1626.95 -3.65899 -2.01266 0
M  V30 16195 N 1627.39 -0.19675 -1.56367 0
M  V30 16196 C 1628.63 0.443732 -1.99525 0
M  V30 16197 C 1628.99 1.58685 -1.08088 0
M  V30 16198 O 1630.19 2.29164 -1.4049 0
M  V30 16199 C 1628.46 0.890565 -3.46127 0
M  V30 16200 S 1630.02 1.52865 -4.11312 0
M  V30 16201 H 1626.84 0.141834 -0.69671 0
M  V30 16202 H 1629.44 -0.300205 -1.93181 0
M  V30 16203 H 1628.15 0.0485587 -4.10371 0
M  V30 16204 H 1627.68 1.66793 -3.56292 0
M  V30 16205 H 1629.69 2.81743 -4.08455 0
M  V30 16206 N 1628.87 1.57413 0.0768405 0
M  V30 16207 C 1629.81 2.04373 1.1106 0
M  V30 16208 C 1630.81 0.948127 1.40381 0
M  V30 16209 O 1632.01 1.13325 1.39848 0
M  V30 16210 H 1628.39 0.65156 0.375464 0
M  V30 16211 H 1630.36 2.90352 0.688348 0
M  V30 16212 C 1629.11 2.49914 2.41741 0
M  V30 16213 H 1628.43 3.33808 2.20027 0
M  V30 16214 H 1629.87 2.8653 3.12532 0
M  V30 16215 C 1628.33 1.37996 3.07341 0
M  V30 16216 O 1628.86 0.719242 3.95209 0
M  V30 16217 N 1627.07 1.12635 2.67884 0
M  V30 16218 H 1626.61 1.66545 1.96521 0
M  V30 16219 H 1626.57 0.37956 3.121 0
M  V30 16220 N 1630.34 -0.348112 1.53707 0
M  V30 16221 C 1631.27 -1.43296 1.8436 0
M  V30 16222 C 1632.26 -1.55102 0.698376 0
M  V30 16223 O 1633.44 -1.69385 0.949864 0
M  V30 16224 C 1630.57 -2.80407 2.04912 0
M  V30 16225 C 1629.52 -2.83412 3.20721 0
M  V30 16226 C 1628.85 -4.23365 3.26597 0
M  V30 16227 C 1630.15 -2.49358 4.58931 0
M  V30 16228 H 1631.84 -1.17892 2.75212 0
M  V30 16229 H 1629.39 -0.565692 1.32423 0
M  V30 16230 H 1631.34 -3.56343 2.24939 0
M  V30 16231 H 1630.07 -3.07236 1.10786 0
M  V30 16232 H 1628.73 -2.09929 3.00542 0
M  V30 16233 H 1628.37 -4.47297 2.30076 0
M  V30 16234 H 1628.07 -4.26287 4.04417 0
M  V30 16235 H 1629.6 -5.01149 3.4883 0
M  V30 16236 H 1631.01 -3.15006 4.79003 0
M  V30 16237 H 1629.41 -2.6357 5.3912 0
M  V30 16238 H 1630.48 -1.44557 4.62851 0
M  V30 16239 N 1631.82 -1.45363 -0.608876 0
M  V30 16240 C 1632.73 -1.56471 -1.74797 0
M  V30 16241 C 1633.75 -0.449225 -1.68101 0
M  V30 16242 O 1634.92 -0.709731 -1.8848 0
M  V30 16243 C 1631.99 -1.52714 -3.11254 0
M  V30 16244 C 1631.05 -2.75291 -3.29414 0
M  V30 16245 C 1630.28 -2.71704 -4.59361 0
M  V30 16246 O 1630.51 -1.78959 -5.41599 0
M  V30 16247 O 1629.44 -3.62886 -4.80205 0
M  V30 16248 H 1633.27 -2.52751 -1.68377 0
M  V30 16249 H 1630.85 -1.27859 -0.772808 0
M  V30 16250 H 1632.73 -1.53222 -3.92557 0
M  V30 16251 H 1631.41 -0.595858 -3.18169 0
M  V30 16252 H 1630.32 -2.80345 -2.47704 0
M  V30 16253 H 1631.65 -3.67541 -3.27375 0
M  V30 16254 N 1633.3 0.851265 -1.32632 0
M  V30 16255 C 1634.23 1.96682 -1.17681 0
M  V30 16256 C 1635.25 1.62422 -0.110926 0
M  V30 16257 O 1636.43 1.74828 -0.360202 0
M  V30 16258 C 1633.53 3.29806 -0.779838 0
M  V30 16259 C 1632.71 3.92284 -1.93473 0
M  V30 16260 C 1631.77 5.03745 -1.52075 0
M  V30 16261 O 1630.79 5.23558 -2.23328 0
M  V30 16262 N 1631.99 5.78988 -0.418695 0
M  V30 16263 H 1634.76 2.10049 -2.13775 0
M  V30 16264 H 1632.32 1.02631 -1.25214 0
M  V30 16265 H 1634.31 4.0178 -0.485236 0
M  V30 16266 H 1632.88 3.1247 0.0900498 0
M  V30 16267 H 1632.1 3.13054 -2.39564 0
M  V30 16268 H 1633.39 4.30762 -2.7078 0
M  V30 16269 H 1632.79 5.65432 0.174269 0
M  V30 16270 H 1631.35 6.51541 -0.183714 0
M  V30 16271 N 1634.78 1.15898 1.06796 0
M  V30 16272 C 1636.03 0.935488 1.79145 0
M  V30 16273 C 1636.35 -0.538433 1.87419 0
M  V30 16274 O 1635.62 -1.39124 1.37917 0
M  V30 16275 H 1634.2 0.343123 0.663533 0
M  V30 16276 H 1636.86 1.4607 1.29034 0
M  V30 16277 H 1635.96 1.34978 2.81402 0
M  V30 16278 N 1636.26 -1.25243 0.956659 0
M  V30 16279 C 1637.19 -2.28159 0.496574 0
M  V30 16280 C 1638.17 -1.63814 -0.458132 0
M  V30 16281 O 1639.35 -1.90897 -0.356648 0
M  V30 16282 C 1636.48 -3.46573 -0.22454 0
M  V30 16283 C 1635.44 -4.2311 0.645104 0
M  V30 16284 C 1634.76 -5.343 -0.206867 0
M  V30 16285 C 1636.06 -4.85562 1.92422 0
M  V30 16286 H 1637.76 -2.66895 1.35675 0
M  V30 16287 H 1635.3 -1.28301 0.653827 0
M  V30 16288 H 1637.26 -4.17695 -0.55755 0
M  V30 16289 H 1635.98 -3.06833 -1.11898 0
M  V30 16290 H 1634.64 -3.53774 0.961228 0
M  V30 16291 H 1634.29 -4.908 -1.10112 0
M  V30 16292 H 1633.99 -5.86423 0.371714 0
M  V30 16293 H 1635.51 -6.08253 -0.534798 0
M  V30 16294 H 1636.92 -5.48817 1.65749 0
M  V30 16295 H 1635.32 -5.47871 2.44862 0
M  V30 16296 H 1636.39 -4.07634 2.62607 0
M  V30 16297 N 1637.73 -0.725468 -1.3991 0
M  V30 16298 C 1638.97 -0.273803 -2.02558 0
M  V30 16299 C 1639.34 1.11503 -1.56305 0
M  V30 16300 O 1640.54 1.66424 -2.11084 0
M  V30 16301 C 1638.81 -0.361635 -3.55566 0
M  V30 16302 S 1640.37 0.0115918 -4.38798 0
M  V30 16303 H 1637.19 -0.107908 -0.702764 0
M  V30 16304 H 1639.79 -0.949876 -1.70873 0
M  V30 16305 H 1638.49 -1.37389 -3.8672 0
M  V30 16306 H 1638.02 0.332583 -3.91992 0
M  V30 16307 H 1640.04 1.2307 -4.80695 0
M  V30 16308 N 1639.21 1.50354 -0.472382 0
M  V30 16309 C 1640.46 2.01934 0.0820006 0
M  V30 16310 C 1640.78 1.35636 1.401 0
M  V30 16311 O 1640.05 0.502127 1.89355 0
M  V30 16312 H 1638.63 0.746258 0.0332943 0
M  V30 16313 H 1641.29 1.84671 -0.623099 0
M  V30 16314 H 1640.39 3.11232 0.232565 0
M  V30 16315 N 1640.69 0.205039 1.56261 0
M  V30 16316 C 1641.93 -0.433144 1.99758 0
M  V30 16317 C 1642.3 -1.58109 1.08929 0
M  V30 16318 O 1643.5 -2.28415 1.41703 0
M  V30 16319 C 1641.77 -0.872197 3.46594 0
M  V30 16320 S 1643.33 -1.50682 4.12117 0
M  V30 16321 H 1640.14 -0.138137 0.697452 0
M  V30 16322 H 1642.75 0.310446 1.93019 0
M  V30 16323 H 1641.45 -0.0267951 4.10391 0
M  V30 16324 H 1640.98 -1.64901 3.57171 0
M  V30 16325 H 1643 -2.79573 4.09943 0
M  V30 16326 N 1642.17 -1.57451 -0.0684915 0
M  V30 16327 C 1643.42 -1.87689 -0.768156 0
M  V30 16328 C 1643.75 -0.79776 -1.77058 0
M  V30 16329 O 1643.02 0.191614 -1.93554 0
M  V30 16330 C 1643.31 -3.28587 -1.47319 0
M  V30 16331 C 1643.16 -4.47156 -0.486954 0
M  V30 16332 C 1644.48 -3.67772 -2.41727 0
M  V30 16333 H 1641.6 -0.682642 -0.277793 0
M  V30 16334 H 1644.24 -1.89974 -0.0312968 0
M  V30 16335 H 1642.39 -3.26769 -2.10129 0
M  V30 16336 H 1644.06 -4.61099 0.136189 0
M  V30 16337 H 1642.3 -4.33351 0.197429 0
M  V30 16338 H 1642.98 -5.42533 -1.01795 0
M  V30 16339 H 1645.45 -3.70704 -1.88992 0
M  V30 16340 H 1644.33 -4.6724 -2.88059 0
M  V30 16341 H 1644.59 -2.97882 -3.26679 0
M  V30 16342 N 1643.65 0.339955 -1.5389 0
M  V30 16343 C 1644.56 1.441 -1.85128 0
M  V30 16344 C 1645.57 1.57399 -0.741733 0
M  V30 16345 O 1646.75 1.72807 -1.0344 0
M  V30 16346 C 1643.81 2.7904 -2.05761 0
M  V30 16347 C 1642.88 2.75055 -3.29611 0
M  V30 16348 C 1642.11 4.0356 -3.4925 0
M  V30 16349 O 1642.33 5.01015 -2.72653 0
M  V30 16350 O 1641.27 4.07813 -4.42687 0
M  V30 16351 H 1645.09 1.20616 -2.78721 0
M  V30 16352 H 1642.68 0.532468 -1.39589 0
M  V30 16353 H 1644.56 3.5895 -2.20756 0
M  V30 16354 H 1643.23 3.02447 -1.15357 0
M  V30 16355 H 1642.14 1.93753 -3.20016 0
M  V30 16356 H 1643.47 2.56602 -4.20019 0
M  V30 16357 N 1645.13 1.45684 0.601159 0
M  V30 16358 C 1646.04 1.57396 1.73965 0
M  V30 16359 C 1647.05 0.458133 1.6786 0
M  V30 16360 O 1648.23 0.719717 1.88101 0
M  V30 16361 C 1645.29 1.54363 3.1044 0
M  V30 16362 C 1644.35 2.77034 3.27949 0
M  V30 16363 C 1643.59 2.74136 4.57914 0
M  V30 16364 O 1643.81 1.81829 5.40643 0
M  V30 16365 O 1642.74 3.65428 4.78274 0
M  V30 16366 H 1646.57 2.5364 1.67034 0
M  V30 16367 H 1644.15 1.28267 0.766017 0
M  V30 16368 H 1646.04 1.55302 3.91739 0
M  V30 16369 H 1644.71 0.612723 3.17848 0
M  V30 16370 H 1643.62 2.81655 2.46214 0
M  V30 16371 H 1644.95 3.69272 3.25422 0
M  V30 16372 N 1646.6 -0.84422 1.33082 0
M  V30 16373 C 1647.83 -1.63133 1.27261 0
M  V30 16374 C 1648.25 -1.88142 -0.157479 0
M  V30 16375 O 1647.6 -1.4578 -1.09793 0
M  V30 16376 C 1647.65 -2.98462 2.03967 0
M  V30 16377 O 1647.38 -2.74555 3.41396 0
M  V30 16378 C 1648.88 -3.92899 2.05293 0
M  V30 16379 H 1646.1 -0.507769 0.438647 0
M  V30 16380 H 1648.64 -1.05194 1.75369 0
M  V30 16381 H 1646.8 -3.53017 1.59554 0
M  V30 16382 H 1647.21 -3.60694 3.80789 0
M  V30 16383 H 1648.68 -4.85088 2.63427 0
M  V30 16384 H 1649.16 -4.26665 1.04183 0
M  V30 16385 H 1649.77 -3.44281 2.49701 0
M  V30 16386 N 1648.08 -1.16463 -1.0618 0
M  V30 16387 C 1649.33 -0.944975 -1.78647 0
M  V30 16388 C 1649.65 0.528486 -1.87702 0
M  V30 16389 O 1648.92 1.38391 -1.38653 0
M  V30 16390 H 1647.5 -0.346637 -0.661704 0
M  V30 16391 H 1650.16 -1.46752 -1.28257 0
M  V30 16392 H 1649.26 -1.36469 -2.80683 0
M  V30 16393 N 1649.56 1.24734 -0.963288 0
M  V30 16394 C 1650.52 2.23795 -0.494824 0
M  V30 16395 C 1651.52 1.55584 0.406225 0
M  V30 16396 O 1652.71 1.73021 0.202302 0
M  V30 16397 C 1649.84 3.39715 0.283963 0
M  V30 16398 H 1651.04 2.66753 -1.37051 0
M  V30 16399 H 1648.59 1.37271 -0.747428 0
M  V30 16400 H 1649.33 3.0219 1.17693 0
M  V30 16401 H 1649.11 3.9042 -0.362586 0
M  V30 16402 H 1650.6 4.13254 0.600899 0
M  V30 16403 N 1651.04 0.732878 1.39523 0
M  V30 16404 C 1652.28 0.284541 2.0241 0
M  V30 16405 C 1652.64 -1.10672 1.56894 0
M  V30 16406 O 1653.84 -1.65302 2.11964 0
M  V30 16407 C 1652.11 0.380486 3.55369 0
M  V30 16408 S 1653.67 0.0116789 4.38798 0
M  V30 16409 H 1650.49 0.111634 0.702182 0
M  V30 16410 H 1653.09 0.958924 1.70367 0
M  V30 16411 H 1651.8 1.39437 3.85986 0
M  V30 16412 H 1651.33 -0.31179 3.92163 0
M  V30 16413 H 1653.34 -1.20519 4.81341 0
M  V30 16414 N 1652.52 -1.50101 0.480349 0
M  V30 16415 C 1653.93 -1.8668 0.0274773 0
M  V30 16416 C 1654.28 -1.39442 -1.38023 0
M  V30 16417 O 1653.4 -0.763363 -2.02489 0
M  V30 16418 C 1654 -3.38773 0.043087 0
M  V30 16419 C 1652.56 -3.74728 -0.354352 0
M  V30 16420 C 1651.7 -2.7403 0.424583 0
M  V30 16421 H 1654.65 -1.42713 0.694172 0
M  V30 16422 H 1654.68 -3.72894 -0.756989 0
M  V30 16423 H 1654.19 -3.73123 1.06775 0
M  V30 16424 H 1652.29 -3.45981 -1.38303 0
M  V30 16425 H 1652.4 -4.79075 -0.0492608 0
M  V30 16426 H 1650.77 -2.54403 -0.122927 0
M  V30 16427 H 1651.55 -3.11225 1.44894 0
M  V30 16428 N 1653.99 -0.213323 -1.5615 0
M  V30 16429 C 1655.23 0.422545 -1.99985 0
M  V30 16430 C 1655.6 1.57529 -1.09765 0
M  V30 16431 O 1656.8 2.27661 -1.42913 0
M  V30 16432 C 1655.07 0.853804 -3.47052 0
M  V30 16433 S 1656.63 1.48494 -4.1291 0
M  V30 16434 H 1653.45 0.134436 -0.698175 0
M  V30 16435 H 1656.05 -0.320678 -1.92852 0
M  V30 16436 H 1654.75 0.00503066 -4.104 0
M  V30 16437 H 1654.28 1.63004 -3.58041 0
M  V30 16438 H 1656.3 2.77395 -4.1142 0
M  V30 16439 N 1655.47 1.57485 0.0601405 0
M  V30 16440 C 1656.42 2.04487 1.07023 0
M  V30 16441 C 1657.39 0.927738 1.37776 0
M  V30 16442 O 1658.57 1.19621 1.48645 0
M  V30 16443 C 1655.71 2.50338 2.37539 0
M  V30 16444 C 1654.83 3.75717 2.13215 0
M  V30 16445 C 1653.96 4.10304 3.37378 0
M  V30 16446 C 1653 5.2869 3.0847 0
M  V30 16447 N 1652.14 5.58858 4.24996 0
M  V30 16448 H 1656.98 2.90544 0.662444 0
M  V30 16449 H 1654.52 1.43676 0.315515 0
M  V30 16450 H 1656.47 2.74978 3.13756 0
M  V30 16451 H 1655.1 1.67242 2.76098 0
M  V30 16452 H 1654.16 3.58348 1.27636 0
M  V30 16453 H 1655.47 4.62068 1.87869 0
M  V30 16454 H 1654.62 4.35907 4.21983 0
M  V30 16455 H 1653.36 3.22544 3.6581 0
M  V30 16456 H 1652.37 5.02871 2.22262 0
M  V30 16457 H 1653.59 6.18077 2.81349 0
M  V30 16458 H 1651.54 4.74058 4.53437 0
M  V30 16459 H 1651.45 6.39652 4.02965 0
M  V30 16460 H 1652.72 5.89019 5.10565 0
M  V30 16461 N 1656.95 -0.331789 1.54068 0
M  V30 16462 C 1657.86 -1.43116 1.8589 0
M  V30 16463 C 1658.88 -1.57003 0.75007 0
M  V30 16464 O 1660.05 -1.72256 1.04355 0
M  V30 16465 C 1657.12 -2.77945 2.07238 0
M  V30 16466 C 1656.18 -2.73303 3.31065 0
M  V30 16467 C 1655.41 -4.01702 3.51385 0
M  V30 16468 O 1655.63 -4.99562 2.75306 0
M  V30 16469 O 1654.57 -4.0546 4.44844 0
M  V30 16470 H 1658.39 -1.19137 2.79357 0
M  V30 16471 H 1655.98 -0.525057 1.3987 0
M  V30 16472 H 1657.86 -3.57774 2.22656 0
M  V30 16473 H 1656.54 -3.01831 1.16959 0
M  V30 16474 H 1655.44 -1.92054 3.21039 0
M  V30 16475 H 1656.78 -2.54371 4.21374 0
M  V30 16476 N 1658.43 -1.46001 -0.593424 0
M  V30 16477 C 1659.38 -1.56106 -1.72434 0
M  V30 16478 C 1660.37 -0.430155 -1.63848 0
M  V30 16479 O 1661.58 -0.606618 -1.6947 0
M  V30 16480 H 1657.95 -0.490601 -0.569925 0
M  V30 16481 H 1659.92 -2.51214 -1.6104 0
M  V30 16482 C 1658.67 -1.55836 -3.10822 0
M  V30 16483 H 1657.99 -2.42189 -3.18095 0
M  V30 16484 H 1659.43 -1.66962 -3.89743 0
M  V30 16485 C 1657.89 -0.285146 -3.35691 0
M  V30 16486 O 1658.42 0.629115 -3.96743 0
M  V30 16487 N 1656.63 -0.176401 -2.90064 0
M  V30 16488 H 1656.18 -0.921281 -2.40562 0
M  V30 16489 H 1656.13 0.674636 -3.07077 0
M  V30 16490 N 1659.91 0.83715 -1.33527 0
M  V30 16491 C 1661.15 1.59487 -1.25267 0
M  V30 16492 C 1661.49 1.93357 0.180741 0
M  V30 16493 O 1660.76 1.5884 1.12251 0
M  V30 16494 C 1661.04 2.90376 -2.12964 0
M  V30 16495 C 1660.9 2.63177 -3.64771 0
M  V30 16496 C 1662.22 3.9182 -2.00412 0
M  V30 16497 H 1659.33 0.578684 -0.456392 0
M  V30 16498 H 1661.98 0.965428 -1.63644 0
M  V30 16499 H 1660.13 3.44095 -1.80364 0
M  V30 16500 H 1661.8 2.15878 -4.0767 0
M  V30 16501 H 1660.04 1.96849 -3.86566 0
M  V30 16502 H 1660.71 3.56452 -4.21481 0
M  V30 16503 H 1663.19 3.47413 -2.29005 0
M  V30 16504 H 1662.06 4.81232 -2.64021 0
M  V30 16505 H 1662.33 4.31173 -0.976852 0
M  V30 16506 N 1661.38 1.17024 1.05561 0
M  V30 16507 C 1662.63 0.956325 1.78496 0
M  V30 16508 C 1662.96 -0.51532 1.87549 0
M  V30 16509 O 1662.21 -1.3986 1.36885 0
M  V30 16510 C 1662.51 1.53798 3.22616 0
M  V30 16511 C 1662.18 3.03321 3.33628 0
M  V30 16512 C 1660.84 3.44135 3.3634 0
M  V30 16513 C 1663.19 3.99325 3.34946 0
M  V30 16514 C 1660.52 4.79558 3.37995 0
M  V30 16515 C 1662.87 5.34644 3.3814 0
M  V30 16516 C 1661.54 5.74928 3.39138 0
M  V30 16517 H 1660.81 0.349944 0.653162 0
M  V30 16518 H 1663.45 1.45856 1.2409 0
M  V30 16519 H 1661.76 0.957374 3.79923 0
M  V30 16520 H 1663.46 1.34806 3.77662 0
M  V30 16521 H 1660.05 2.70782 3.32227 0
M  V30 16522 H 1664.23 3.68854 3.32055 0
M  V30 16523 H 1659.49 5.10088 3.37076 0
M  V30 16524 H 1663.66 6.08815 3.38108 0
M  V30 16525 H 1661.29 6.79843 3.40173 0
M  V30 16526 N 1662.86 -1.24221 0.969889 0
M  V30 16527 C 1664.11 -1.91973 0.631725 0
M  V30 16528 C 1664.43 -1.76169 -0.836032 0
M  V30 16529 O 1663.7 -1.13459 -1.597 0
M  V30 16530 H 1662.28 -0.710497 0.230658 0
M  V30 16531 H 1664.94 -1.51069 1.23143 0
M  V30 16532 H 1664.04 -2.99606 0.874223 0
M  V30 16533 N 1664.34 -0.740267 -1.39132 0
M  V30 16534 C 1665.75 -0.359866 -1.83199 0
M  V30 16535 C 1666.1 1.1095 -1.61816 0
M  V30 16536 O 1665.23 1.85635 -1.11215 0
M  V30 16537 C 1665.82 -0.64639 -3.32577 0
M  V30 16538 C 1664.38 -0.319423 -3.75042 0
M  V30 16539 C 1663.53 -0.906345 -2.6207 0
M  V30 16540 H 1666.48 -0.93749 -1.2805 0
M  V30 16541 H 1666.5 0.080033 -3.80416 0
M  V30 16542 H 1666.01 -1.71588 -3.48108 0
M  V30 16543 H 1664.11 0.744022 -3.65096 0
M  V30 16544 H 1664.23 -0.805664 -4.72277 0
M  V30 16545 H 1662.59 -0.332615 -2.52519 0
M  V30 16546 H 1663.37 -1.9806 -2.80405 0
M  V30 16547 N 1665.82 1.49844 -0.488302 0
M  V30 16548 C 1666.75 2.26762 0.333396 0
M  V30 16549 C 1667.76 1.32785 0.941918 0
M  V30 16550 O 1668.95 1.58165 0.827407 0
M  V30 16551 C 1666.05 3.04721 1.48318 0
M  V30 16552 C 1665.23 4.26181 0.984303 0
M  V30 16553 C 1664.28 4.8629 2.01018 0
M  V30 16554 O 1663.31 5.4672 1.58384 0
M  V30 16555 N 1664.51 4.74813 3.33965 0
M  V30 16556 H 1667.28 2.97921 -0.32609 0
M  V30 16557 H 1664.84 1.58704 -0.320092 0
M  V30 16558 H 1666.83 3.4181 2.16676 0
M  V30 16559 H 1665.4 2.36251 2.04705 0
M  V30 16560 H 1664.62 3.93998 0.126039 0
M  V30 16561 H 1665.91 5.04895 0.62919 0
M  V30 16562 H 1665.31 4.26793 3.71301 0
M  V30 16563 H 1663.86 5.16122 3.98072 0
M  V30 16564 N 1667.3 0.221601 1.56034 0
M  V30 16565 C 1668.54 -0.411933 2.00206 0
M  V30 16566 C 1668.9 -1.56945 1.10599 0
M  V30 16567 O 1670.1 -2.269 1.44118 0
M  V30 16568 C 1668.37 -0.835387 3.475 0
M  V30 16569 S 1669.93 -1.46302 4.13692 0
M  V30 16570 H 1666.75 -0.130732 0.698878 0
M  V30 16571 H 1669.35 0.330901 1.92679 0
M  V30 16572 H 1668.06 0.0167339 4.10397 0
M  V30 16573 H 1667.59 -1.61103 3.589 0
M  V30 16574 H 1669.6 -2.75209 4.12885 0
M  V30 16575 N 1668.77 -1.57515 -0.0517878 0
M  V30 16576 C 1669.72 -2.06114 -1.07795 0
M  V30 16577 C 1670.72 -0.97034 -1.38855 0
M  V30 16578 O 1671.92 -1.15536 -1.38027 0
M  V30 16579 H 1668.3 -0.657451 -0.365051 0
M  V30 16580 H 1670.27 -2.9141 -0.642068 0
M  V30 16581 C 1669.02 -2.53728 -2.37734 0
M  V30 16582 H 1668.34 -3.37266 -2.14689 0
M  V30 16583 H 1669.78 -2.91466 -3.07934 0
M  V30 16584 C 1668.24 -1.42868 -3.05107 0
M  V30 16585 O 1668.77 -0.782025 -3.94014 0
M  V30 16586 N 1666.98 -1.16882 -2.66058 0
M  V30 16587 H 1666.52 -1.6965 -1.93847 0
M  V30 16588 H 1666.48 -0.429164 -3.11457 0
M  V30 16589 N 1670.25 0.323614 -1.54242 0
M  V30 16590 C 1671.16 1.42128 -1.86646 0
M  V30 16591 C 1672.18 1.56603 -0.758385 0
M  V30 16592 O 1673.36 1.717 -1.05267 0
M  V30 16593 C 1670.42 2.76842 -2.08709 0
M  V30 16594 C 1669.48 2.71543 -3.3251 0
M  V30 16595 C 1668.71 3.99833 -3.5351 0
M  V30 16596 O 1668.94 4.98095 -2.77952 0
M  V30 16597 O 1667.87 4.03095 -4.46988 0
M  V30 16598 H 1671.7 1.17653 -2.79985 0
M  V30 16599 H 1669.28 0.517632 -1.40146 0
M  V30 16600 H 1671.16 3.56588 -2.24551 0
M  V30 16601 H 1669.84 3.01207 -1.18558 0
M  V30 16602 H 1668.75 1.90348 -3.22053 0
M  V30 16603 H 1670.08 2.52133 -4.22717 0
M  V30 16604 N 1671.73 1.46313 0.585673 0
M  V30 16605 C 1672.97 1.53027 1.35507 0
M  V30 16606 C 1673.34 0.176473 1.91187 0
M  V30 16607 O 1674.54 0.118349 2.68539 0
M  V30 16608 C 1672.81 2.59609 2.45638 0
M  V30 16609 S 1674.37 2.85706 3.33043 0
M  V30 16610 H 1671.18 0.540697 0.461701 0
M  V30 16611 H 1673.79 1.8353 0.673585 0
M  V30 16612 H 1672.49 3.5661 2.03119 0
M  V30 16613 H 1672.02 2.30829 3.18562 0
M  V30 16614 H 1674.04 2.20751 4.44391 0
M  V30 16615 N 1673.21 -0.830057 1.33969 0
M  V30 16616 C 1674.63 -1.12209 1.13496 0
M  V30 16617 C 1674.83 -2.01384 -0.0682972 0
M  V30 16618 O 1673.88 -2.4123 -0.745949 0
M  V30 16619 C 1675.19 -1.77568 2.42673 0
M  V30 16620 C 1676.74 -1.90095 2.48662 0
M  V30 16621 C 1677.22 -2.5887 3.77823 0
M  V30 16622 N 1678.71 -2.66375 3.78944 0
M  V30 16623 C 1679.44 -3.20301 4.75599 0
M  V30 16624 N 1678.94 -3.74846 5.82634 0
M  V30 16625 N 1680.73 -3.18636 4.63063 0
M  V30 16626 H 1672.88 -0.236752 2.11076 0
M  V30 16627 H 1675.15 -0.167572 0.933072 0
M  V30 16628 H 1674.85 -1.19505 3.30774 0
M  V30 16629 H 1674.73 -2.77505 2.55481 0
M  V30 16630 H 1677.11 -2.47308 1.61005 0
M  V30 16631 H 1677.19 -0.890808 2.39788 0
M  V30 16632 H 1676.84 -2.02313 4.65867 0
M  V30 16633 H 1676.77 -3.60373 3.83978 0
M  V30 16634 H 1679.26 -2.27705 3.01594 0
M  V30 16635 H 1679.57 -4.14224 6.52409 0
M  V30 16636 H 1677.92 -3.7311 5.86357 0
M  V30 16637 H 1681.11 -2.75286 3.78597 0
M  V30 16638 H 1681.28 -3.60359 5.38559 0
M  V30 16639 N 1674.69 -1.17582 -1.04939 0
M  V30 16640 C 1675.6 -0.909588 -2.16249 0
M  V30 16641 C 1676.61 0.123166 -1.73564 0
M  V30 16642 O 1677.79 -0.0566976 -2.0132 0
M  V30 16643 C 1674.85 -0.429342 -3.44031 0
M  V30 16644 C 1673.92 -1.529 -4.01149 0
M  V30 16645 C 1673.15 -1.07157 -5.22832 0
M  V30 16646 O 1673.37 0.0732634 -5.70353 0
M  V30 16647 O 1672.31 -1.86567 -5.72255 0
M  V30 16648 H 1676.13 -1.84074 -2.41558 0
M  V30 16649 H 1673.72 -0.956914 -1.14732 0
M  V30 16650 H 1675.6 -0.16917 -4.2106 0
M  V30 16651 H 1674.27 0.473629 -3.20216 0
M  V30 16652 H 1673.18 -1.84308 -3.25548 0
M  V30 16653 H 1674.51 -2.40777 -4.29287 0
M  V30 16654 N 1676.17 1.23705 -0.976463 0
M  V30 16655 C 1677.41 1.91635 -0.641897 0
M  V30 16656 C 1677.73 1.7661 0.826678 0
M  V30 16657 O 1677 1.14304 1.59096 0
M  V30 16658 H 1675.58 0.709264 -0.234422 0
M  V30 16659 H 1678.25 1.50414 -1.23943 0
M  V30 16660 H 1677.34 2.99138 -0.890099 0
M  V30 16661 N 1677.64 0.747635 1.38738 0
M  V30 16662 C 1678.87 0.311781 2.04537 0
M  V30 16663 C 1679.29 -1.05782 1.56383 0
M  V30 16664 O 1678.64 -1.67077 0.734259 0
M  V30 16665 C 1678.69 0.318675 3.60093 0
M  V30 16666 O 1678.42 1.63423 4.06478 0
M  V30 16667 C 1679.92 -0.131782 4.43104 0
M  V30 16668 H 1677.14 0.134141 0.657455 0
M  V30 16669 H 1679.68 1.01482 1.77543 0
M  V30 16670 H 1677.84 -0.335578 3.85944 0
M  V30 16671 H 1678.25 1.55636 5.00877 0
M  V30 16672 H 1679.72 -0.0757978 5.51948 0
M  V30 16673 H 1680.2 -1.17881 4.23085 0
M  V30 16674 H 1680.81 0.493375 4.22429 0
M  V30 16675 N 1679.12 -1.49583 0.496242 0
M  V30 16676 C 1680.37 -2.02438 -0.049963 0
M  V30 16677 C 1680.7 -1.37632 -1.37433 0
M  V30 16678 O 1679.95 -0.499552 -1.89217 0
M  V30 16679 C 1680.25 -3.56482 -0.255949 0
M  V30 16680 C 1679.92 -4.39901 0.989824 0
M  V30 16681 C 1678.58 -4.62417 1.33132 0
M  V30 16682 C 1680.93 -4.88461 1.81811 0
M  V30 16683 C 1678.26 -5.30737 2.50071 0
M  V30 16684 C 1680.61 -5.58067 2.97899 0
M  V30 16685 C 1679.27 -5.7883 3.32434 0
M  V30 16686 H 1678.54 -0.740774 -0.0182828 0
M  V30 16687 H 1681.19 -1.79934 0.655434 0
M  V30 16688 H 1679.5 -3.77639 -1.04383 0
M  V30 16689 H 1681.19 -3.94967 -0.692943 0
M  V30 16690 H 1677.78 -4.22614 0.713811 0
M  V30 16691 H 1681.97 -4.70898 1.56743 0
M  V30 16692 H 1677.22 -5.45015 2.77072 0
M  V30 16693 H 1681.4 -5.9467 3.6241 0
M  V30 16694 H 1679.02 -6.31544 4.23151 0
M  V30 16695 N 1680.6 -0.229873 -1.55915 0
M  V30 16696 C 1681.56 0.663347 -2.19391 0
M  V30 16697 C 1682.56 1.11548 -1.15818 0
M  V30 16698 O 1683.75 1.02294 -1.41002 0
M  V30 16699 C 1680.88 1.9097 -2.82389 0
M  V30 16700 H 1682.08 0.109797 -2.99699 0
M  V30 16701 H 1679.63 0.0197234 -1.56288 0
M  V30 16702 H 1680.37 2.50491 -2.05973 0
M  V30 16703 H 1680.15 1.59388 -3.58243 0
M  V30 16704 H 1681.64 2.5459 -3.31019 0
M  V30 16705 N 1682.08 1.5754 0.0434337 0
M  V30 16706 C 1683.01 2.08648 1.04824 0
M  V30 16707 C 1683.99 0.985894 1.38615 0
M  V30 16708 O 1685.17 1.2603 1.4775 0
M  V30 16709 C 1682.3 2.55399 2.35348 0
M  V30 16710 C 1681.26 3.69592 2.15837 0
M  V30 16711 C 1680.58 4.02497 3.51995 0
M  V30 16712 C 1681.88 4.98575 1.55629 0
M  V30 16713 H 1683.58 2.9285 0.622849 0
M  V30 16714 H 1681.12 1.40879 0.298158 0
M  V30 16715 H 1683.08 2.89771 3.05958 0
M  V30 16716 H 1681.8 1.68262 2.7992 0
M  V30 16717 H 1680.46 3.35546 1.47663 0
M  V30 16718 H 1680.11 3.12448 3.94189 0
M  V30 16719 H 1679.81 4.79406 3.39771 0
M  V30 16720 H 1681.33 4.39391 4.23991 0
M  V30 16721 H 1682.75 5.30996 2.16138 0
M  V30 16722 H 1681.14 5.79998 1.54021 0
M  V30 16723 H 1682.21 4.82098 0.520567 0
M  V30 16724 N 1683.56 -0.31543 1.54411 0
M  V30 16725 C 1684.97 -0.660254 1.45302 0
M  V30 16726 C 1685.17 -1.91316 0.632493 0
M  V30 16727 O 1684.23 -2.52142 0.134493 0
M  V30 16728 C 1685.54 -0.826685 2.89113 0
M  V30 16729 C 1687.09 -0.923503 2.99066 0
M  V30 16730 C 1687.56 -1.12204 4.44043 0
M  V30 16731 N 1689.05 -1.18859 4.47691 0
M  V30 16732 C 1689.79 -1.36024 5.57032 0
M  V30 16733 N 1689.29 -1.5018 6.76327 0
M  V30 16734 N 1691.08 -1.38797 5.44694 0
M  V30 16735 H 1683.23 0.507961 2.06237 0
M  V30 16736 H 1685.49 0.165515 0.933439 0
M  V30 16737 H 1685.2 0.0228371 3.51693 0
M  V30 16738 H 1685.07 -1.72007 3.35698 0
M  V30 16739 H 1687.46 -1.76352 2.36609 0
M  V30 16740 H 1687.54 -0.00641189 2.55799 0
M  V30 16741 H 1687.18 -0.286844 5.07089 0
M  V30 16742 H 1687.11 -2.05313 4.84927 0
M  V30 16743 H 1689.61 -1.0933 3.61739 0
M  V30 16744 H 1689.92 -1.62992 7.55416 0
M  V30 16745 H 1688.26 -1.47262 6.79219 0
M  V30 16746 H 1691.45 -1.27339 4.50447 0
M  V30 16747 H 1691.63 -1.51832 6.29961 0
M  V30 16748 N 1685.03 -1.46622 -0.577906 0
M  V30 16749 C 1686 -1.57126 -1.66865 0
M  V30 16750 C 1687 -0.448004 -1.54433 0
M  V30 16751 O 1688.19 -0.712459 -1.58964 0
M  V30 16752 C 1685.32 -1.49612 -3.06315 0
M  V30 16753 H 1686.51 -2.54338 -1.58909 0
M  V30 16754 H 1684.07 -1.34504 -0.796142 0
M  V30 16755 H 1684.8 -0.536976 -3.19823 0
M  V30 16756 H 1684.59 -2.31113 -3.16748 0
M  V30 16757 H 1686.08 -1.60058 -3.85709 0
M  V30 16758 N 1686.51 0.822941 -1.34408 0
M  V30 16759 C 1687.79 1.56492 -1.17345 0
M  V30 16760 C 1688.17 2.09567 0.253965 0
M  V30 16761 O 1687.52 1.90931 1.25529 0
M  V30 16762 C 1687.73 2.6863 -2.22797 0
M  V30 16763 C 1689.08 3.37399 -2.57773 0
M  V30 16764 O 1690.1 2.78887 -2.21587 0
M  V30 16765 O 1688.96 4.43063 -3.19934 0
M  V30 16766 H 1686.05 0.690664 -0.454876 0
M  V30 16767 H 1688.6 0.864315 -1.4604 0
M  V30 16768 H 1687.37 2.27166 -3.18608 0
M  V30 16769 H 1686.99 3.46341 -1.95279 0
M  V30 16770 N 1687.99 1.18137 1.04314 0
M  V30 16771 C 1688.94 0.902484 2.14378 0
M  V30 16772 C 1689.93 -0.136289 1.68851 0
M  V30 16773 O 1691.14 0.0116256 1.79996 0
M  V30 16774 H 1687.51 0.274358 0.700165 0
M  V30 16775 H 1689.48 1.83768 2.35099 0
M  V30 16776 C 1688.23 0.441975 3.4488 0
M  V30 16777 H 1687.56 1.23279 3.80319 0
M  V30 16778 H 1689 0.285808 4.23036 0
M  V30 16779 C 1687.46 -0.841797 3.26214 0
M  V30 16780 O 1687.99 -1.90658 3.53571 0
M  V30 16781 N 1686.19 -0.793425 2.79559 0
M  V30 16782 H 1685.74 0.0732997 2.57496 0
M  V30 16783 H 1685.7 -1.65281 2.6745 0
M  V30 16784 N 1689.47 -1.23186 0.98301 0
M  V30 16785 C 1690.88 -1.73484 0.689933 0
M  V30 16786 C 1691.23 -1.79428 -0.793724 0
M  V30 16787 O 1690.36 -1.43391 -1.62074 0
M  V30 16788 C 1690.95 -3.15068 1.24571 0
M  V30 16789 C 1689.51 -3.62812 1.00222 0
M  V30 16790 C 1688.66 -2.40988 1.37186 0
M  V30 16791 H 1691.61 -1.08672 1.15655 0
M  V30 16792 H 1691.63 -3.75425 0.619406 0
M  V30 16793 H 1691.14 -3.10709 2.32554 0
M  V30 16794 H 1689.24 -3.72549 -0.0614202 0
M  V30 16795 H 1689.35 -4.49473 1.65863 0
M  V30 16796 H 1687.72 -2.42127 0.79035 0
M  V30 16797 H 1688.5 -2.39299 2.46152 0
M  V30 16798 N 1690.95 -0.754982 -1.38339 0
M  V30 16799 C 1691.88 -0.143678 -2.33058 0
M  V30 16800 C 1692.86 0.702022 -1.54938 0
M  V30 16801 O 1694.04 0.642922 -1.83249 0
M  V30 16802 C 1691.17 0.749194 -3.39123 0
M  V30 16803 C 1690.13 0.00611459 -4.28 0
M  V30 16804 C 1689.45 1.01733 -5.24933 0
M  V30 16805 C 1690.75 -1.1631 -5.09185 0
M  V30 16806 H 1692.45 -0.934907 -2.84429 0
M  V30 16807 H 1689.99 -0.451023 -1.36754 0
M  V30 16808 H 1691.95 1.18653 -4.04351 0
M  V30 16809 H 1690.67 1.57276 -2.86237 0
M  V30 16810 H 1689.33 -0.411816 -3.6428 0
M  V30 16811 H 1688.98 1.83499 -4.68334 0
M  V30 16812 H 1688.68 0.524783 -5.85252 0
M  V30 16813 H 1690.2 1.45395 -5.93037 0
M  V30 16814 H 1691.61 -0.803244 -5.67645 0
M  V30 16815 H 1690.01 -1.5866 -5.78746 0
M  V30 16816 H 1691.08 -1.97533 -4.42842 0
M  V30 16817 N 1692.42 1.49318 -0.504168 0
M  V30 16818 C 1693.67 2.02062 0.039149 0
M  V30 16819 C 1693.99 1.38577 1.37191 0
M  V30 16820 O 1693.26 0.542179 1.88248 0
M  V30 16821 H 1691.84 0.746796 0.0174575 0
M  V30 16822 H 1694.51 1.83308 -0.66213 0
M  V30 16823 H 1693.6 3.11656 0.166496 0
M  V30 16824 N 1693.9 0.238138 1.5579 0
M  V30 16825 C 1695.14 -0.390675 2.00632 0
M  V30 16826 C 1695.51 -1.55763 1.12258 0
M  V30 16827 O 1696.71 -2.25358 1.46517 0
M  V30 16828 C 1694.98 -0.798483 3.48366 0
M  V30 16829 S 1696.54 -1.41906 4.15221 0
M  V30 16830 H 1693.36 -0.123312 0.700225 0
M  V30 16831 H 1695.96 0.351318 1.92317 0
M  V30 16832 H 1694.66 0.060261 4.10356 0
M  V30 16833 H 1694.19 -1.57288 3.60589 0
M  V30 16834 H 1696.21 -2.70814 4.15781 0
M  V30 16835 N 1695.38 -1.57561 -0.0350783 0
M  V30 16836 C 1696.61 -1.93644 -0.742753 0
M  V30 16837 C 1697.03 -0.837655 -1.68419 0
M  V30 16838 O 1696.39 0.207069 -1.80114 0
M  V30 16839 C 1696.44 -3.28779 -1.48111 0
M  V30 16840 O 1695.54 -3.20604 -2.59398 0
M  V30 16841 H 1694.88 -0.633103 -0.200192 0
M  V30 16842 H 1697.41 -2.04599 0.00765271 0
M  V30 16843 H 1697.42 -3.63527 -1.85236 0
M  V30 16844 H 1696.1 -4.08316 -0.790608 0
M  V30 16845 H 1694.67 -2.97477 -2.2486 0
M  V30 16846 N 1696.86 0.307236 -1.54576 0
M  V30 16847 C 1698.27 0.88064 -1.64626 0
M  V30 16848 C 1698.62 1.88308 -0.550865 0
M  V30 16849 O 1697.75 2.14116 0.313553 0
M  V30 16850 C 1698.34 1.60405 -2.98422 0
M  V30 16851 C 1696.9 2.12595 -3.10613 0
M  V30 16852 C 1696.05 0.956593 -2.60278 0
M  V30 16853 H 1699 0.0843939 -1.58475 0
M  V30 16854 H 1699.02 2.46925 -2.89496 0
M  V30 16855 H 1698.53 0.874209 -3.78126 0
M  V30 16856 H 1696.63 2.88644 -2.35617 0
M  V30 16857 H 1696.74 2.36475 -4.16673 0
M  V30 16858 H 1695.11 1.3404 -2.16576 0
M  V30 16859 H 1695.89 0.24081 -3.42454 0
M  V30 16860 N 1698.34 1.46926 0.570122 0
M  V30 16861 C 1699.58 1.54455 1.33876 0
M  V30 16862 C 1699.94 0.196741 1.90989 0
M  V30 16863 O 1701.14 0.146824 2.68399 0
M  V30 16864 C 1699.41 2.622 2.42871 0
M  V30 16865 S 1700.97 2.89222 3.29994 0
M  V30 16866 H 1697.79 0.545564 0.45594 0
M  V30 16867 H 1700.39 1.84234 0.654081 0
M  V30 16868 H 1699.1 3.58744 1.99325 0
M  V30 16869 H 1698.63 2.34194 3.16096 0
M  V30 16870 H 1700.64 2.25452 4.42025 0
M  V30 16871 N 1699.82 -0.815801 1.34842 0
M  V30 16872 C 1701.06 -1.57241 1.27599 0
M  V30 16873 C 1701.39 -1.93904 -0.152127 0
M  V30 16874 O 1700.65 -1.60819 -1.11515 0
M  V30 16875 C 1700.94 -2.87795 2.11917 0
M  V30 16876 C 1700.61 -2.70392 3.60831 0
M  V30 16877 C 1699.27 -2.65353 4.01424 0
M  V30 16878 C 1701.62 -2.53569 4.55359 0
M  V30 16879 C 1698.95 -2.41422 5.34726 0
M  V30 16880 C 1701.3 -2.31169 5.8885 0
M  V30 16881 C 1699.97 -2.24546 6.28598 0
M  V30 16882 H 1699.24 -0.575386 0.466918 0
M  V30 16883 H 1701.89 -0.943355 1.66653 0
M  V30 16884 H 1700.19 -3.5503 1.65714 0
M  V30 16885 H 1701.89 -3.45436 2.03654 0
M  V30 16886 H 1698.48 -2.75157 3.28613 0
M  V30 16887 H 1702.66 -2.5648 4.2489 0
M  V30 16888 H 1697.92 -2.34758 5.64534 0
M  V30 16889 H 1702.09 -2.1714 6.61682 0
M  V30 16890 H 1699.72 -2.05765 7.31823 0
M  V30 16891 N 1701.29 -1.18689 -1.03686 0
M  V30 16892 C 1702.53 -0.995625 -1.78512 0
M  V30 16893 C 1702.9 0.466151 -1.86255 0
M  V30 16894 O 1704.1 0.776976 -2.57326 0
M  V30 16895 C 1702.37 -1.63695 -3.17709 0
M  V30 16896 S 1703.93 -1.59397 -4.08825 0
M  V30 16897 H 1700.75 -0.357446 -0.614616 0
M  V30 16898 H 1703.35 -1.50899 -1.24297 0
M  V30 16899 H 1702.05 -2.69301 -3.09685 0
M  V30 16900 H 1701.58 -1.12404 -3.77 0
M  V30 16901 H 1703.6 -0.61254 -4.92405 0
M  V30 16902 N 1702.77 1.22662 -0.989529 0
M  V30 16903 C 1704 1.95883 -0.681511 0
M  V30 16904 C 1704.42 1.72646 0.746646 0
M  V30 16905 O 1703.78 1.00358 1.5099 0
M  V30 16906 C 1703.83 3.46773 -0.988975 0
M  V30 16907 O 1702.93 4.12311 -0.0858485 0
M  V30 16908 H 1702.27 0.612916 -0.255401 0
M  V30 16909 H 1704.8 1.5585 -1.32559 0
M  V30 16910 H 1704.81 3.97273 -0.929426 0
M  V30 16911 H 1703.49 3.63011 -2.02967 0
M  V30 16912 H 1702.06 3.7236 -0.200592 0
M  V30 16913 N 1704.25 0.762308 1.37937 0
M  V30 16914 C 1705.5 0.321732 1.99523 0
M  V30 16915 C 1705.82 -1.10286 1.60816 0
M  V30 16916 O 1705.09 -1.75565 0.869117 0
M  V30 16917 H 1703.67 0.115967 0.737943 0
M  V30 16918 H 1706.33 0.978339 1.68566 0
M  V30 16919 H 1705.43 0.391818 3.09631 0
M  V30 16920 N 1705.73 -1.49049 0.51208 0
M  V30 16921 C 1706.66 -2.32163 -0.249529 0
M  V30 16922 C 1707.64 -1.40957 -0.952114 0
M  V30 16923 O 1708.82 -1.69858 -0.94137 0
M  V30 16924 C 1705.95 -3.21737 -1.30776 0
M  V30 16925 C 1704.91 -4.21825 -0.724392 0
M  V30 16926 C 1704.23 -5.00411 -1.88396 0
M  V30 16927 C 1705.53 -5.21483 0.291975 0
M  V30 16928 H 1707.23 -2.96086 0.444253 0
M  V30 16929 H 1704.77 -1.42385 0.215093 0
M  V30 16930 H 1706.73 -3.78699 -1.84837 0
M  V30 16931 H 1705.45 -2.55779 -2.03088 0
M  V30 16932 H 1704.11 -3.66024 -0.205441 0
M  V30 16933 H 1703.76 -4.30891 -2.59502 0
M  V30 16934 H 1703.46 -5.68141 -1.49964 0
M  V30 16935 H 1704.98 -5.6022 -2.42869 0
M  V30 16936 H 1706.4 -5.73074 -0.160899 0
M  V30 16937 H 1704.79 -5.97166 0.592717 0
M  V30 16938 H 1705.86 -4.69714 1.20404 0
M  V30 16939 N 1707.21 -0.246397 -1.55662 0
M  V30 16940 C 1708.43 0.385607 -2.03784 0
M  V30 16941 C 1708.86 1.50786 -1.12451 0
M  V30 16942 O 1708.21 1.8092 -0.117371 0
M  V30 16943 C 1708.26 0.871204 -3.49918 0
M  V30 16944 O 1707.37 1.98082 -3.61715 0
M  V30 16945 H 1706.71 0.0841099 -0.658651 0
M  V30 16946 H 1709.24 -0.372306 -2.01184 0
M  V30 16947 H 1709.25 1.17455 -3.90728 0
M  V30 16948 H 1707.92 0.0499597 -4.1587 0
M  V30 16949 H 1706.5 1.6822 -3.32801 0
M  V30 16950 N 1708.68 1.57577 0.026722 0
M  V30 16951 C 1709.63 2.03179 1.03452 0
M  V30 16952 C 1710.62 0.921533 1.31896 0
M  V30 16953 O 1711.81 1.18542 1.31442 0
M  V30 16954 C 1708.94 2.51666 2.33493 0
M  V30 16955 C 1708.02 3.69517 2.08129 0
M  V30 16956 N 1708.42 4.82158 1.52832 0
M  V30 16957 C 1706.71 3.76936 2.38402 0
M  V30 16958 C 1707.41 5.63766 1.43327 0
M  V30 16959 N 1706.39 5.08953 1.90965 0
M  V30 16960 H 1710.19 2.87689 0.601036 0
M  V30 16961 H 1707.71 1.6072 0.232979 0
M  V30 16962 H 1709.7 2.82597 3.06503 0
M  V30 16963 H 1708.36 1.68564 2.77518 0
M  V30 16964 H 1709.37 5.0355 1.21071 0
M  V30 16965 H 1706.05 3.04637 2.85486 0
M  V30 16966 H 1707.44 6.64259 1.01043 0
M  V30 16967 N 1710.16 -0.299034 1.54737 0
M  V30 16968 C 1711.09 -1.37358 1.88826 0
M  V30 16969 C 1712.07 -1.52802 0.747367 0
M  V30 16970 O 1713.26 -1.66277 1.00327 0
M  V30 16971 C 1710.39 -2.73746 2.13729 0
M  V30 16972 C 1709.34 -2.73065 3.29575 0
M  V30 16973 C 1708.67 -4.12761 3.39901 0
M  V30 16974 C 1709.97 -2.34631 4.66632 0
M  V30 16975 H 1711.66 -1.09077 2.78824 0
M  V30 16976 H 1709.21 -0.523276 1.34156 0
M  V30 16977 H 1711.16 -3.49006 2.36162 0
M  V30 16978 H 1709.88 -3.03556 1.20504 0
M  V30 16979 H 1708.54 -2.00261 3.07068 0
M  V30 16980 H 1708.19 -4.39751 2.44189 0
M  V30 16981 H 1707.89 -4.13205 4.17774 0
M  V30 16982 H 1709.42 -4.89797 3.64597 0
M  V30 16983 H 1710.83 -2.99608 4.88782 0
M  V30 16984 H 1709.23 -2.46285 5.47233 0
M  V30 16985 H 1710.3 -1.29759 4.67216 0
M  V30 16986 N 1711.64 -1.47227 -0.562322 0
M  V30 16987 C 1712.88 -1.55163 -1.33056 0
M  V30 16988 C 1713.24 -0.206867 -1.90882 0
M  V30 16989 O 1714.44 -0.161056 -2.68317 0
M  V30 16990 C 1712.72 -2.63484 -2.41477 0
M  V30 16991 S 1714.27 -2.90968 -3.28455 0
M  V30 16992 H 1711.09 -0.547974 -0.45304 0
M  V30 16993 H 1713.69 -1.84578 -0.644301 0
M  V30 16994 H 1712.4 -3.59797 -1.9742 0
M  V30 16995 H 1711.93 -2.35867 -3.14849 0
M  V30 16996 H 1713.94 -2.27793 -4.40823 0
M  V30 16997 N 1713.12 0.808639 -1.35273 0
M  V30 16998 C 1714.34 1.60219 -1.31699 0
M  V30 16999 C 1714.77 1.87816 0.103386 0
M  V30 17000 O 1714.13 1.46389 1.06957 0
M  V30 17001 C 1714.17 2.9116 -2.12739 0
M  V30 17002 O 1713.28 3.83891 -1.5067 0
M  V30 17003 H 1712.62 0.486742 -0.45164 0
M  V30 17004 H 1715.15 1.00378 -1.78284 0
M  V30 17005 H 1715.16 3.40602 -2.2462 0
M  V30 17006 H 1713.83 2.70399 -3.16002 0
M  V30 17007 H 1712.41 3.42437 -1.47618 0
M  V30 17008 N 1714.6 1.19237 1.03055 0
M  V30 17009 C 1715.51 0.943876 2.14775 0
M  V30 17010 C 1716.52 -0.0955384 1.73738 0
M  V30 17011 O 1717.7 0.0887187 2.01204 0
M  V30 17012 C 1714.76 0.48402 3.43305 0
M  V30 17013 C 1713.82 1.59262 3.98665 0
M  V30 17014 C 1713.06 1.15461 5.21061 0
M  V30 17015 O 1713.28 0.0174841 5.70397 0
M  V30 17016 O 1712.21 1.95648 5.69215 0
M  V30 17017 H 1716.04 1.87894 2.38599 0
M  V30 17018 H 1713.63 0.975046 1.13195 0
M  V30 17019 H 1715.51 0.236135 4.20738 0
M  V30 17020 H 1714.18 -0.422626 3.20929 0
M  V30 17021 H 1713.09 1.89464 3.22574 0
M  V30 17022 H 1714.42 2.47576 4.25402 0
M  V30 17023 N 1716.07 -1.22136 0.99602 0
M  V30 17024 C 1717 -2.26463 0.568909 0
M  V30 17025 C 1717.99 -1.65189 -0.405783 0
M  V30 17026 O 1719.17 -1.91935 -0.295735 0
M  V30 17027 C 1716.3 -3.47112 -0.114166 0
M  V30 17028 C 1715.25 -4.20844 0.779387 0
M  V30 17029 C 1714.58 -5.34687 -0.0367787 0
M  V30 17030 C 1715.88 -4.79195 2.07773 0
M  V30 17031 H 1717.57 -2.62443 1.44097 0
M  V30 17032 H 1715.12 -1.26156 0.694314 0
M  V30 17033 H 1717.07 -4.19258 -0.424381 0
M  V30 17034 H 1715.8 -3.10238 -1.02079 0
M  V30 17035 H 1714.46 -3.50537 1.07329 0
M  V30 17036 H 1714.1 -4.94054 -0.94442 0
M  V30 17037 H 1713.8 -5.84944 0.558092 0
M  V30 17038 H 1715.33 -6.09647 -0.341016 0
M  V30 17039 H 1716.74 -5.43266 1.83126 0
M  V30 17040 H 1715.14 -5.39803 2.62169 0
M  V30 17041 H 1716.21 -3.99073 2.75442 0
M  V30 17042 N 1717.55 -0.769612 -1.37531 0
M  V30 17043 C 1718.46 -0.15514 -2.34086 0
M  V30 17044 C 1719.48 0.682108 -1.60073 0
M  V30 17045 O 1720.65 0.602527 -1.92176 0
M  V30 17046 C 1717.72 0.715344 -3.3924 0
M  V30 17047 C 1716.78 -0.138116 -4.29078 0
M  V30 17048 C 1716.01 0.690916 -5.29209 0
M  V30 17049 O 1716.24 1.92812 -5.36824 0
M  V30 17050 O 1715.17 0.101247 -6.01815 0
M  V30 17051 H 1719 -0.952968 -2.88361 0
M  V30 17052 H 1716.58 -0.530738 -1.39655 0
M  V30 17053 H 1718.46 1.21236 -4.03584 0
M  V30 17054 H 1717.14 1.4914 -2.87296 0
M  V30 17055 H 1716.05 -0.681443 -3.67841 0
M  V30 17056 H 1717.38 -0.877202 -4.8432 0
M  V30 17057 N 1719.03 1.48775 -0.519977 0
M  V30 17058 C 1720.31 1.95429 0.0816701 0
M  V30 17059 C 1720.69 1.46199 1.52279 0
M  V30 17060 O 1720.04 0.684057 2.1802 0
M  V30 17061 C 1720.25 3.48991 -0.0252472 0
M  V30 17062 C 1721.59 4.24372 0.139099 0
M  V30 17063 O 1722.62 3.56166 0.0490322 0
M  V30 17064 O 1721.48 5.45524 0.326426 0
M  V30 17065 H 1718.57 0.822637 0.0848378 0
M  V30 17066 H 1721.12 1.5934 -0.583865 0
M  V30 17067 H 1719.89 3.77514 -1.02951 0
M  V30 17068 H 1719.51 3.91749 0.679588 0
M  V30 17069 N 1720.51 0.254649 1.55529 0
M  V30 17070 C 1721.74 -0.371317 2.03236 0
M  V30 17071 C 1722.15 -1.5152 1.13306 0
M  V30 17072 O 1721.49 -1.83154 0.141468 0
M  V30 17073 C 1721.55 -0.933614 3.47166 0
M  V30 17074 C 1721.22 0.0790139 4.56932 0
M  V30 17075 C 1722.21 0.891314 5.12203 0
M  V30 17076 C 1719.9 0.207343 5.01872 0
M  V30 17077 C 1721.89 1.81833 6.10914 0
M  V30 17078 C 1719.58 1.13785 6.00413 0
M  V30 17079 C 1720.58 1.94186 6.54813 0
M  V30 17080 O 1720.26 2.85667 7.51432 0
M  V30 17081 H 1720 -0.0914583 0.669785 0
M  V30 17082 H 1722.55 0.378413 2.01884 0
M  V30 17083 H 1720.78 -1.73305 3.45691 0
M  V30 17084 H 1722.47 -1.47048 3.78327 0
M  V30 17085 H 1723.24 0.802797 4.7831 0
M  V30 17086 H 1719.11 -0.408414 4.59187 0
M  V30 17087 H 1722.66 2.4463 6.53301 0
M  V30 17088 H 1718.56 1.22726 6.33726 0
M  V30 17089 H 1719.32 2.80116 7.69075 0
M  V30 17090 N 1721.99 -1.57589 -0.0183649 0
M  V30 17091 C 1723.23 -1.90038 -0.708056 0
M  V30 17092 C 1723.57 -0.853686 -1.7443 0
M  V30 17093 O 1722.84 0.12994 -1.94065 0
M  V30 17094 C 1723.12 -3.33107 -1.3679 0
M  V30 17095 C 1722.98 -4.48479 -0.344448 0
M  V30 17096 C 1724.3 -3.75276 -2.29904 0
M  V30 17097 H 1721.41 -0.691134 -0.255934 0
M  V30 17098 H 1724.06 -1.89978 0.0291579 0
M  V30 17099 H 1722.21 -3.33289 -1.99626 0
M  V30 17100 H 1723.88 -4.60432 0.282816 0
M  V30 17101 H 1722.12 -4.32503 0.335196 0
M  V30 17102 H 1722.79 -5.45497 -0.844832 0
M  V30 17103 H 1725.27 -3.76529 -1.77103 0
M  V30 17104 H 1724.14 -4.76168 -2.73049 0
M  V30 17105 H 1724.41 -3.08124 -3.17036 0
M  V30 17106 N 1723.46 0.290824 -1.54893 0
M  V30 17107 C 1724.88 0.637054 -1.46334 0
M  V30 17108 C 1725.08 1.90285 -0.66285 0
M  V30 17109 O 1724.14 2.51896 -0.174589 0
M  V30 17110 C 1725.45 0.780585 -2.90392 0
M  V30 17111 C 1727 0.875807 -3.00497 0
M  V30 17112 C 1727.47 1.05126 -4.45772 0
M  V30 17113 N 1728.96 1.11721 -4.49525 0
M  V30 17114 C 1729.7 1.27145 -5.59126 0
M  V30 17115 N 1729.19 1.39401 -6.7863 0
M  V30 17116 N 1730.99 1.30114 -5.46833 0
M  V30 17117 H 1723.14 -0.540707 -2.05402 0
M  V30 17118 H 1725.4 -0.180344 -0.930688 0
M  V30 17119 H 1725.11 -0.0787855 -3.51612 0
M  V30 17120 H 1724.98 1.66644 -3.38392 0
M  V30 17121 H 1727.37 1.72566 -2.39385 0
M  V30 17122 H 1727.45 -0.0342844 -2.55777 0
M  V30 17123 H 1727.09 0.206135 -5.07482 0
M  V30 17124 H 1727.02 1.97573 -4.88132 0
M  V30 17125 H 1729.51 1.03562 -3.63433 0
M  V30 17126 H 1729.83 1.50953 -7.57914 0
M  V30 17127 H 1728.17 1.36438 -6.81476 0
M  V30 17128 H 1731.36 1.20157 -4.52416 0
M  V30 17129 H 1731.54 1.4179 -6.32297 0
M  V30 17130 N 1724.94 1.47523 0.554506 0
M  V30 17131 C 1726.17 1.57907 1.3369 0
M  V30 17132 C 1726.59 0.230244 1.87391 0
M  V30 17133 O 1725.94 -0.776917 1.65137 0
M  V30 17134 C 1725.99 2.60644 2.50493 0
M  V30 17135 O 1725.71 3.9029 1.99011 0
M  V30 17136 C 1727.22 2.81238 3.42666 0
M  V30 17137 H 1724.44 0.533139 0.407436 0
M  V30 17138 H 1726.98 1.93163 0.671445 0
M  V30 17139 H 1725.13 2.28315 3.12971 0
M  V30 17140 H 1725.55 4.46451 2.75285 0
M  V30 17141 H 1727.02 3.56981 4.21033 0
M  V30 17142 H 1727.5 1.89159 3.96378 0
M  V30 17143 H 1728.11 3.14775 2.86001 0
M  V30 17144 N 1726.42 -0.801453 1.357 0
M  V30 17145 C 1727.83 -1.37581 1.26208 0
M  V30 17146 C 1728.18 -1.95928 -0.103326 0
M  V30 17147 O 1727.31 -1.91676 -1.00445 0
M  V30 17148 C 1727.9 -2.50122 2.28527 0
M  V30 17149 C 1726.46 -3.03405 2.2276 0
M  V30 17150 C 1725.61 -1.76401 2.13958 0
M  V30 17151 H 1728.56 -0.60407 1.46754 0
M  V30 17152 H 1728.58 -3.28814 1.91472 0
M  V30 17153 H 1728.09 -2.07626 3.27892 0
M  V30 17154 H 1726.19 -3.50352 1.26822 0
M  V30 17155 H 1726.31 -3.61038 3.14942 0
M  V30 17156 H 1724.67 -1.98158 1.60017 0
M  V30 17157 H 1725.45 -1.3605 3.15191 0
M  V30 17158 N 1727.9 -1.19782 -1.02421 0
M  V30 17159 C 1729.14 -1.0048 -1.76158 0
M  V30 17160 C 1729.48 0.46281 -1.88605 0
M  V30 17161 O 1728.75 1.34366 -1.40628 0
M  V30 17162 C 1729.04 -1.67999 -3.1851 0
M  V30 17163 C 1728.89 -3.22155 -3.13905 0
M  V30 17164 C 1730.21 -1.40681 -4.17009 0
M  V30 17165 H 1727.33 -0.366436 -0.639448 0
M  V30 17166 H 1729.97 -1.47688 -1.19534 0
M  V30 17167 H 1728.12 -1.27862 -3.66856 0
M  V30 17168 H 1729.79 -3.71536 -2.7342 0
M  V30 17169 H 1728.03 -3.53456 -2.51498 0
M  V30 17170 H 1728.7 -3.64548 -4.14498 0
M  V30 17171 H 1731.18 -1.75488 -3.77284 0
M  V30 17172 H 1730.06 -1.90467 -5.14795 0
M  V30 17173 H 1730.32 -0.332889 -4.40845 0
M  V30 17174 N 1729.38 1.21606 -1.00248 0
M  V30 17175 C 1730.61 1.94609 -0.702502 0
M  V30 17176 C 1731.02 1.73928 0.734483 0
M  V30 17177 O 1730.38 1.04432 1.49667 0
M  V30 17178 C 1730.43 3.47077 -1.01092 0
M  V30 17179 O 1730.15 3.67071 -2.39145 0
M  V30 17180 C 1731.65 4.37248 -0.729988 0
M  V30 17181 H 1728.87 0.618962 -0.259088 0
M  V30 17182 H 1731.41 1.54494 -1.33985 0
M  V30 17183 H 1729.57 3.85125 -0.419215 0
M  V30 17184 H 1729.98 4.61188 -2.49811 0
M  V30 17185 H 1731.46 5.4294 -0.99598 0
M  V30 17186 H 1731.93 4.37913 0.33599 0
M  V30 17187 H 1732.54 4.04842 -1.30318 0
M  V30 17188 N 1730.86 0.776895 1.37121 0
M  V30 17189 C 1731.79 0.180738 2.32799 0
M  V30 17190 C 1732.77 -0.677284 1.56035 0
M  V30 17191 O 1733.95 -0.613687 1.84249 0
M  V30 17192 C 1731.08 -0.695148 3.40272 0
M  V30 17193 C 1730.04 0.0619772 4.27955 0
M  V30 17194 C 1729.36 -0.933688 5.26485 0
M  V30 17195 C 1730.66 1.24396 5.0727 0
M  V30 17196 H 1732.36 0.980039 2.82906 0
M  V30 17197 H 1729.9 0.472722 1.3602 0
M  V30 17198 H 1731.85 -1.12205 4.06187 0
M  V30 17199 H 1730.58 -1.52702 2.88703 0
M  V30 17200 H 1729.24 0.469717 3.63578 0
M  V30 17201 H 1728.89 -1.76025 4.71194 0
M  V30 17202 H 1728.59 -0.431608 5.86013 0
M  V30 17203 H 1730.11 -1.35942 5.95275 0
M  V30 17204 H 1731.52 0.89345 5.66295 0
M  V30 17205 H 1729.92 1.67848 5.76149 0
M  V30 17206 H 1730.99 2.04553 4.39643 0
M  V30 17207 N 1732.33 -1.48497 0.527859 0
M  V30 17208 C 1733.58 -2.02099 -0.00699772 0
M  V30 17209 C 1733.9 -1.40742 -1.34969 0
M  V30 17210 O 1733.17 -0.572059 -1.87361 0
M  V30 17211 H 1731.75 -0.746979 -0.00557445 0
M  V30 17212 H 1734.41 -1.82231 0.691209 0
M  V30 17213 H 1733.51 -3.11881 -0.116893 0
M  V30 17214 N 1733.81 -0.262893 -1.55392 0
M  V30 17215 C 1735.04 0.363972 -2.04181 0
M  V30 17216 C 1735.46 1.49585 -1.14044 0
M  V30 17217 O 1734.82 1.80785 -0.136553 0
M  V30 17218 C 1734.87 0.834041 -3.50822 0
M  V30 17219 O 1733.97 1.94234 -3.63795 0
M  V30 17220 H 1733.31 0.0771193 -0.659506 0
M  V30 17221 H 1735.84 -0.393623 -2.00778 0
M  V30 17222 H 1735.85 1.13304 -3.91952 0
M  V30 17223 H 1734.53 0.00584833 -4.159 0
M  V30 17224 H 1733.1 1.64681 -3.34566 0
M  V30 17225 N 1735.29 1.57597 0.0100073 0
M  V30 17226 C 1736.57 1.81329 0.733415 0
M  V30 17227 C 1736.95 0.865495 1.92542 0
M  V30 17228 O 1736.29 -0.088073 2.2833 0
M  V30 17229 C 1736.5 3.29559 1.14856 0
M  V30 17230 C 1737.85 3.95039 1.55658 0
M  V30 17231 O 1738.88 3.33822 1.24262 0
M  V30 17232 O 1737.74 5.02858 2.13999 0
M  V30 17233 H 1734.83 0.746334 0.35625 0
M  V30 17234 H 1737.38 1.69694 -0.0146791 0
M  V30 17235 H 1736.15 3.9016 0.298467 0
M  V30 17236 H 1735.77 3.46156 1.95607 0
M  V30 17237 N 1736.77 -0.282606 1.55045 0
M  V30 17238 C 1737.7 -1.37115 1.83663 0
M  V30 17239 C 1738.71 -1.45985 0.720563 0
M  V30 17240 O 1739.9 -1.47974 0.998294 0
M  V30 17241 C 1737 -2.7533 1.97603 0
M  V30 17242 C 1736.17 -2.89168 3.28177 0
M  V30 17243 C 1735.23 -4.07997 3.32302 0
M  V30 17244 O 1734.26 -3.9921 4.05734 0
M  V30 17245 N 1735.46 -5.19512 2.59013 0
M  V30 17246 H 1738.23 -1.12914 2.77616 0
M  V30 17247 H 1735.79 -0.472711 1.54845 0
M  V30 17248 H 1737.78 -3.531 1.97743 0
M  V30 17249 H 1736.35 -2.92396 1.1056 0
M  V30 17250 H 1735.57 -1.9836 3.40657 0
M  V30 17251 H 1736.86 -2.95338 4.1431 0
M  V30 17252 H 1736.26 -5.29536 1.99018 0
M  V30 17253 H 1734.81 -5.95549 2.64887 0
M  V30 17254 N 1738.25 -1.47815 -0.546675 0
M  V30 17255 C 1739.66 -1.48715 -1.12875 0
M  V30 17256 C 1740.01 -0.247647 -1.94631 0
M  V30 17257 O 1739.13 0.646615 -2.06514 0
M  V30 17258 C 1739.73 -2.69459 -2.05371 0
M  V30 17259 C 1738.29 -2.73285 -2.58829 0
M  V30 17260 C 1737.43 -2.4198 -1.35429 0
M  V30 17261 H 1740.38 -1.55172 -0.332746 0
M  V30 17262 H 1740.41 -2.47028 -2.89408 0
M  V30 17263 H 1739.92 -3.59656 -1.4584 0
M  V30 17264 H 1738.02 -1.87254 -3.22128 0
M  V30 17265 H 1738.13 -3.74265 -2.99103 0
M  V30 17266 H 1736.5 -1.92783 -1.66454 0
M  V30 17267 H 1737.28 -3.34397 -0.776753 0
M  V30 17268 N 1739.72 0.794246 -1.36123 0
M  V30 17269 C 1740.65 1.92105 -1.32732 0
M  V30 17270 C 1741.63 1.68925 -0.199603 0
M  V30 17271 O 1742.82 1.90109 -0.396498 0
M  V30 17272 C 1739.95 3.29051 -1.11098 0
M  V30 17273 C 1738.9 3.66743 -2.20643 0
M  V30 17274 C 1738.23 5.01986 -1.84159 0
M  V30 17275 C 1739.53 3.75831 -3.62696 0
M  V30 17276 H 1741.22 1.952 -2.27018 0
M  V30 17277 H 1738.77 0.937746 -1.09281 0
M  V30 17278 H 1740.72 4.07494 -1.07362 0
M  V30 17279 H 1739.45 3.26331 -0.132614 0
M  V30 17280 H 1738.11 2.90594 -2.23497 0
M  V30 17281 H 1737.75 4.95782 -0.849081 0
M  V30 17282 H 1737.45 5.28175 -2.57497 0
M  V30 17283 H 1738.98 5.82855 -1.8197 0
M  V30 17284 H 1740.39 4.44476 -3.62096 0
M  V30 17285 H 1738.79 4.135 -4.34899 0
M  V30 17286 H 1739.86 2.7706 -3.97952 0
M  V30 17287 N 1741.2 1.20323 1.01785 0
M  V30 17288 C 1742.13 0.974819 2.12178 0
M  V30 17289 C 1743.11 -0.0957637 1.6983 0
M  V30 17290 O 1744.3 0.0614963 1.94103 0
M  V30 17291 C 1741.43 0.524739 3.43313 0
M  V30 17292 C 1740.38 1.53842 3.99395 0
M  V30 17293 C 1739.71 0.945021 5.26283 0
M  V30 17294 C 1741.01 2.92179 4.3293 0
M  V30 17295 H 1742.7 1.8981 2.31544 0
M  V30 17296 H 1740.25 0.914025 1.11273 0
M  V30 17297 H 1742.2 0.352182 4.19926 0
M  V30 17298 H 1740.92 -0.434161 3.23701 0
M  V30 17299 H 1739.58 1.69832 3.24889 0
M  V30 17300 H 1739.23 -0.0217709 5.02995 0
M  V30 17301 H 1738.93 1.62201 5.64769 0
M  V30 17302 H 1740.46 0.783504 6.05552 0
M  V30 17303 H 1741.87 2.79708 5.00436 0
M  V30 17304 H 1740.27 3.56773 4.82528 0
M  V30 17305 H 1741.34 3.43997 3.41752 0
M  V30 17306 N 1742.68 -1.21073 1.00892 0
M  V30 17307 C 1744.1 -1.42314 0.72242 0
M  V30 17308 C 1744.3 -1.88917 -0.700908 0
M  V30 17309 O 1743.35 -2.05318 -1.46973 0
M  V30 17310 C 1744.66 -2.4513 1.74161 0
M  V30 17311 C 1746.21 -2.58907 1.75887 0
M  V30 17312 C 1746.69 -3.64959 2.76711 0
M  V30 17313 N 1748.18 -3.72434 2.75404 0
M  V30 17314 C 1748.91 -4.54129 3.50077 0
M  V30 17315 N 1748.41 -5.39691 4.34403 0
M  V30 17316 N 1750.2 -4.48589 3.38709 0
M  V30 17317 H 1742.35 -0.891353 1.92792 0
M  V30 17318 H 1744.62 -0.45372 0.832371 0
M  V30 17319 H 1744.32 -2.17868 2.76091 0
M  V30 17320 H 1744.2 -3.43996 1.54746 0
M  V30 17321 H 1746.58 -2.85503 0.746455 0
M  V30 17322 H 1746.66 -1.60261 1.99374 0
M  V30 17323 H 1746.31 -3.39107 3.78112 0
M  V30 17324 H 1746.24 -4.63209 2.50489 0
M  V30 17325 H 1748.73 -3.11311 2.14228 0
M  V30 17326 H 1749.04 -5.99092 4.88168 0
M  V30 17327 H 1747.39 -5.39219 4.38484 0
M  V30 17328 H 1750.58 -3.80778 2.7226 0
M  V30 17329 H 1750.75 -5.12023 3.97161 0
M  V30 17330 N 1744.16 -0.784156 -1.36707 0
M  V30 17331 C 1745.4 -0.354658 -1.99675 0
M  V30 17332 C 1745.74 1.06948 -1.62098 0
M  V30 17333 O 1745.01 1.73798 -0.873192 0
M  V30 17334 C 1745.3 -0.512421 -3.56435 0
M  V30 17335 C 1745.15 -1.97987 -4.03883 0
M  V30 17336 C 1746.47 0.075762 -4.40035 0
M  V30 17337 H 1743.59 -0.130338 -0.725383 0
M  V30 17338 H 1746.23 -0.989515 -1.62199 0
M  V30 17339 H 1744.38 0.0280323 -3.8849 0
M  V30 17340 H 1746.05 -2.58098 -3.82339 0
M  V30 17341 H 1744.29 -2.48433 -3.55617 0
M  V30 17342 H 1744.96 -2.04125 -5.12871 0
M  V30 17343 H 1747.44 -0.385522 -4.1431 0
M  V30 17344 H 1746.32 -0.0646832 -5.48862 0
M  V30 17345 H 1746.58 1.16735 -4.2641 0
M  V30 17346 N 1745.64 1.48215 -0.535727 0
M  V30 17347 C 1746.88 2.028 -0.00373305 0
M  V30 17348 C 1747.22 1.41143 1.33388 0
M  V30 17349 O 1746.49 0.559227 1.86287 0
M  V30 17350 C 1746.77 3.59925 0.112186 0
M  V30 17351 C 1746.63 4.32053 -1.251 0
M  V30 17352 C 1747.95 4.32083 0.836177 0
M  V30 17353 H 1745.06 0.736995 -0.00283063 0
M  V30 17354 H 1747.71 1.76877 -0.693868 0
M  V30 17355 H 1745.86 3.82142 0.69996 0
M  V30 17356 H 1747.53 4.21238 -1.88033 0
M  V30 17357 H 1745.77 3.93246 -1.83139 0
M  V30 17358 H 1746.44 5.4046 -1.12283 0
M  V30 17359 H 1748.92 4.1473 0.337333 0
M  V30 17360 H 1747.79 5.41699 0.886196 0
M  V30 17361 H 1748.06 3.99772 1.88771 0
M  V30 17362 N 1747.11 0.27113 1.5525 0
M  V30 17363 C 1748.34 -0.353138 2.04371 0
M  V30 17364 C 1748.76 -1.48978 1.14835 0
M  V30 17365 O 1748.12 -1.8071 0.146138 0
M  V30 17366 C 1748.17 -0.815425 3.51259 0
M  V30 17367 O 1747.27 -1.92302 3.6482 0
M  V30 17368 H 1746.62 -0.0736207 0.659906 0
M  V30 17369 H 1749.15 0.404266 2.00566 0
M  V30 17370 H 1749.16 -1.11224 3.92547 0
M  V30 17371 H 1747.83 0.0162079 4.15897 0
M  V30 17372 H 1746.41 -1.62904 3.35435 0
M  V30 17373 N 1748.59 -1.576 -0.00164943 0
M  V30 17374 C 1749.52 -2.05167 -1.02173 0
M  V30 17375 C 1750.54 -0.969293 -1.308 0
M  V30 17376 O 1751.73 -1.24612 -1.27805 0
M  V30 17377 C 1748.83 -2.43525 -2.35688 0
M  V30 17378 C 1748 -3.74475 -2.26025 0
M  V30 17379 C 1747.06 -3.99719 -3.42215 0
M  V30 17380 O 1746.08 -4.70408 -3.20476 0
M  V30 17381 N 1747.29 -3.47486 -4.65009 0
M  V30 17382 H 1750.05 -2.93299 -0.616095 0
M  V30 17383 H 1747.61 -1.60792 -0.189066 0
M  V30 17384 H 1749.6 -2.57528 -3.12188 0
M  V30 17385 H 1748.17 -1.6092 -2.67999 0
M  V30 17386 H 1747.39 -3.70564 -1.34447 0
M  V30 17387 H 1748.68 -4.60328 -2.16739 0
M  V30 17388 H 1748.08 -2.9024 -4.85569 0
M  V30 17389 H 1746.64 -3.66822 -5.38781 0
M  V30 17390 N 1750.07 0.274379 -1.55193 0
M  V30 17391 C 1751.3 1.02871 -1.8009 0
M  V30 17392 C 1751.72 1.79202 -0.571676 0
M  V30 17393 O 1751.08 1.74867 0.478679 0
M  V30 17394 C 1751.13 1.96406 -3.02418 0
M  V30 17395 O 1750.23 3.05154 -2.77408 0
M  V30 17396 H 1749.57 0.294181 -0.595276 0
M  V30 17397 H 1752.1 0.303708 -2.02333 0
M  V30 17398 H 1752.11 2.38385 -3.31114 0
M  V30 17399 H 1750.79 1.40261 -3.91535 0
M  V30 17400 H 1749.36 2.675 -2.59805 0
M  V30 17401 N 1751.55 1.48103 0.538828 0
M  V30 17402 C 1752.5 1.62398 1.66522 0
M  V30 17403 C 1753.49 0.490669 1.62138 0
M  V30 17404 O 1754.7 0.669098 1.67102 0
M  V30 17405 H 1751.07 0.511415 0.551324 0
M  V30 17406 H 1753.04 2.57018 1.51606 0
M  V30 17407 C 1751.79 1.67264 3.04824 0
M  V30 17408 H 1751.11 2.53828 3.08887 0
M  V30 17409 H 1752.55 1.81312 3.83278 0
M  V30 17410 C 1751.01 0.409539 3.34402 0
M  V30 17411 O 1751.54 -0.481433 3.98805 0
M  V30 17412 N 1749.75 0.283934 2.8921 0
M  V30 17413 H 1749.3 1.00993 2.36977 0
M  V30 17414 H 1749.25 -0.560201 3.09369 0
M  V30 17415 N 1753.03 -0.787016 1.36542 0
M  V30 17416 C 1753.96 -1.91399 1.33749 0
M  V30 17417 C 1754.94 -1.68817 0.208559 0
M  V30 17418 O 1756.12 -1.89896 0.406574 0
M  V30 17419 C 1753.25 -3.28457 1.12842 0
M  V30 17420 C 1752.21 -3.65568 2.22585 0
M  V30 17421 C 1751.53 -5.01002 1.86818 0
M  V30 17422 C 1752.83 -3.73902 3.64684 0
M  V30 17423 H 1754.53 -1.93993 2.2805 0
M  V30 17424 H 1752.07 -0.931937 1.09777 0
M  V30 17425 H 1754.03 -4.06919 1.09522 0
M  V30 17426 H 1752.75 -3.26256 0.149918 0
M  V30 17427 H 1751.41 -2.89405 2.25035 0
M  V30 17428 H 1751.06 -4.95325 0.875361 0
M  V30 17429 H 1750.76 -5.26802 2.60294 0
M  V30 17430 H 1752.28 -5.81881 1.85058 0
M  V30 17431 H 1753.69 -4.4255 3.64448 0
M  V30 17432 H 1752.09 -4.11188 4.37086 0
M  V30 17433 H 1753.16 -2.74946 3.99416 0
M  V30 17434 N 1754.5 -1.20861 -1.01145 0
M  V30 17435 C 1755.92 -0.964575 -1.27154 0
M  V30 17436 C 1756.12 0.352861 -1.98386 0
M  V30 17437 O 1755.18 1.08012 -2.28232 0
M  V30 17438 C 1756.49 -2.15074 -2.10151 0
M  V30 17439 C 1758.04 -2.19229 -2.234 0
M  V30 17440 C 1758.51 -3.37346 -3.09777 0
M  V30 17441 N 1760 -3.37392 -3.17365 0
M  V30 17442 C 1760.74 -4.25434 -3.84439 0
M  V30 17443 N 1760.23 -5.23664 -4.53595 0
M  V30 17444 N 1762.03 -4.13261 -3.81014 0
M  V30 17445 H 1754.18 -2.05595 -0.533346 0
M  V30 17446 H 1756.44 -0.899928 -0.298048 0
M  V30 17447 H 1756.15 -3.10511 -1.65153 0
M  V30 17448 H 1756.02 -2.13598 -3.10895 0
M  V30 17449 H 1758.41 -1.24352 -2.6762 0
M  V30 17450 H 1758.49 -2.24752 -1.22148 0
M  V30 17451 H 1758.13 -4.32513 -2.66261 0
M  V30 17452 H 1758.06 -3.29061 -4.11128 0
M  V30 17453 H 1760.55 -2.66299 -2.68129 0
M  V30 17454 H 1760.87 -5.87158 -5.02459 0
M  V30 17455 H 1759.21 -5.27595 -4.52403 0
M  V30 17456 H 1762.4 -3.35786 -3.26137 0
M  V30 17457 H 1762.58 -4.82085 -4.3301 0
M  V30 17458 N 1755.98 1.20536 -1.01532 0
M  V30 17459 C 1757.23 1.89496 -0.70254 0
M  V30 17460 C 1757.55 1.7915 0.770072 0
M  V30 17461 O 1756.82 1.19308 1.55379 0
M  V30 17462 H 1755.4 0.701447 -0.256868 0
M  V30 17463 H 1758.06 1.46394 -1.28665 0
M  V30 17464 H 1757.16 2.96155 -0.984817 0
M  V30 17465 N 1757.46 0.791395 1.36289 0
M  V30 17466 C 1758.69 0.376696 2.03442 0
M  V30 17467 C 1759.1 -1.00753 1.59669 0
M  V30 17468 O 1758.46 -1.64657 0.787042 0
M  V30 17469 C 1758.51 0.433074 3.58897 0
M  V30 17470 O 1758.23 1.76272 4.01073 0
M  V30 17471 C 1759.73 0.00925475 4.43299 0
M  V30 17472 H 1756.95 0.154989 0.652855 0
M  V30 17473 H 1759.5 1.07079 1.74225 0
M  V30 17474 H 1757.65 -0.212623 3.86816 0
M  V30 17475 H 1758.07 1.71492 4.95672 0
M  V30 17476 H 1759.54 0.0998386 5.5191 0
M  V30 17477 H 1760.02 -1.04362 4.26621 0
M  V30 17478 H 1760.62 0.627518 4.20645 0
M  V30 17479 N 1758.94 -1.47929 0.54358 0
M  V30 17480 C 1760.17 -2.06891 0.0189187 0
M  V30 17481 C 1760.58 -1.39822 -1.26867 0
M  V30 17482 O 1759.94 -0.490197 -1.75793 0
M  V30 17483 C 1759.99 -3.60976 -0.194595 0
M  V30 17484 O 1759.71 -4.25528 1.04199 0
M  V30 17485 C 1761.21 -4.3677 -0.758093 0
M  V30 17486 H 1758.43 -0.669827 0.0396625 0
M  V30 17487 H 1760.98 -1.90128 0.753105 0
M  V30 17488 H 1759.13 -3.77299 -0.878869 0
M  V30 17489 H 1759.55 -5.17872 0.831191 0
M  V30 17490 H 1761.02 -5.45309 -0.856846 0
M  V30 17491 H 1761.5 -4.02121 -1.76621 0
M  V30 17492 H 1762.1 -4.25158 -0.109953 0
M  V30 17493 N 1760.42 -0.27936 -1.55104 0
M  V30 17494 C 1761.33 0.616249 -2.26361 0
M  V30 17495 C 1762.34 1.16656 -1.29102 0
M  V30 17496 O 1763.52 1.19596 -1.62046 0
M  V30 17497 C 1760.58 1.78191 -2.97403 0
M  V30 17498 C 1759.65 1.26785 -4.10151 0
M  V30 17499 C 1758.88 2.37795 -4.77796 0
M  V30 17500 O 1759.1 3.57242 -4.44673 0
M  V30 17501 O 1758.04 2.05711 -5.65656 0
M  V30 17502 H 1761.86 0.0388715 -3.03675 0
M  V30 17503 H 1759.45 -0.0466058 -1.49327 0
M  V30 17504 H 1761.33 2.4615 -3.42036 0
M  V30 17505 H 1760 2.3463 -2.23003 0
M  V30 17506 H 1758.91 0.554608 -3.69966 0
M  V30 17507 H 1760.24 0.749157 -4.86465 0
M  V30 17508 N 1761.9 1.57599 -0.0067085 0
M  V30 17509 C 1763.14 1.90481 0.675393 0
M  V30 17510 C 1763.46 0.881481 1.73939 0
M  V30 17511 O 1762.73 -0.0801928 1.95736 0
M  V30 17512 H 1761.31 0.703048 0.252452 0
M  V30 17513 H 1763.98 1.94838 -0.04922 0
M  V30 17514 H 1763.07 2.90441 1.14239 0
M  V30 17515 N 1763.37 -0.266145 1.55336 0
M  V30 17516 C 1764.62 -0.998308 1.76527 0
M  V30 17517 C 1764.95 -1.85691 0.568535 0
M  V30 17518 O 1764.23 -1.89602 -0.433735 0
M  V30 17519 C 1764.51 -1.87509 3.07429 0
M  V30 17520 C 1764.36 -1.04596 4.3747 0
M  V30 17521 C 1765.68 -2.86099 3.34418 0
M  V30 17522 H 1762.8 -0.361514 0.642244 0
M  V30 17523 H 1765.44 -0.270186 1.88069 0
M  V30 17524 H 1763.59 -2.49591 2.97719 0
M  V30 17525 H 1765.27 -0.445323 4.59145 0
M  V30 17526 H 1763.51 -0.349641 4.32389 0
M  V30 17527 H 1764.18 -1.69279 5.25403 0
M  V30 17528 H 1766.66 -2.34153 3.43965 0
M  V30 17529 H 1765.53 -3.44584 4.27262 0
M  V30 17530 H 1765.79 -3.61577 2.5439 0
M  V30 17531 N 1764.85 -1.48386 -0.530967 0
M  V30 17532 C 1766.08 -1.59782 -1.30971 0
M  V30 17533 C 1766.49 -0.25683 -1.87449 0
M  V30 17534 O 1765.83 0.763845 -1.67066 0
M  V30 17535 C 1765.89 -2.58431 -2.49907 0
M  V30 17536 C 1765.56 -4.0352 -2.14524 0
M  V30 17537 C 1766.56 -4.91233 -1.70255 0
M  V30 17538 C 1764.24 -4.4905 -2.25077 0
M  V30 17539 C 1766.23 -6.22502 -1.37003 0
M  V30 17540 C 1763.92 -5.8034 -1.91437 0
M  V30 17541 C 1764.92 -6.66889 -1.47471 0
M  V30 17542 O 1764.61 -7.95737 -1.14272 0
M  V30 17543 H 1764.34 -0.541558 -0.404588 0
M  V30 17544 H 1766.89 -1.94932 -0.647349 0
M  V30 17545 H 1765.12 -2.184 -3.19121 0
M  V30 17546 H 1766.81 -2.59672 -3.1197 0
M  V30 17547 H 1767.58 -4.57296 -1.61572 0
M  V30 17548 H 1763.46 -3.81872 -2.58254 0
M  V30 17549 H 1767 -6.90012 -1.02613 0
M  V30 17550 H 1762.9 -6.13813 -1.9976 0
M  V30 17551 H 1763.67 -8.0848 -1.27679 0
M  V30 17552 N 1766.33 0.779763 -1.36958 0
M  V30 17553 C 1767.56 1.56648 -1.34704 0
M  V30 17554 C 1767.97 1.89065 0.071459 0
M  V30 17555 O 1767.31 1.51325 1.04146 0
M  V30 17556 C 1767.37 2.90862 -2.11281 0
M  V30 17557 C 1767.04 2.81123 -3.60304 0
M  V30 17558 C 1768.03 2.52702 -4.54354 0
M  V30 17559 C 1765.72 2.99397 -4.0332 0
M  V30 17560 C 1767.71 2.42671 -5.89398 0
M  V30 17561 C 1765.4 2.88987 -5.38451 0
M  V30 17562 C 1766.4 2.60663 -6.31303 0
M  V30 17563 O 1766.09 2.50264 -7.63952 0
M  V30 17564 H 1765.82 0.492209 -0.463364 0
M  V30 17565 H 1768.37 0.974946 -1.80787 0
M  V30 17566 H 1766.6 3.52104 -1.59875 0
M  V30 17567 H 1768.29 3.52203 -2.01762 0
M  V30 17568 H 1769.06 2.38277 -4.22432 0
M  V30 17569 H 1764.94 3.20446 -3.31414 0
M  V30 17570 H 1768.48 2.20484 -6.6184 0
M  V30 17571 H 1764.38 3.02977 -5.69978 0
M  V30 17572 H 1765.14 2.65674 -7.74183 0
M  V30 17573 N 1767.81 1.21396 1.00503 0
M  V30 17574 C 1768.74 0.930982 2.09441 0
M  V30 17575 C 1769.75 -0.0857912 1.62574 0
M  V30 17576 O 1770.94 0.146701 1.77896 0
M  V30 17577 C 1768.04 0.376344 3.36804 0
M  V30 17578 C 1767.21 1.44744 4.12756 0
M  V30 17579 C 1766.27 0.902051 5.18411 0
M  V30 17580 O 1765.3 1.58548 5.46673 0
M  V30 17581 N 1766.5 -0.282718 5.79811 0
M  V30 17582 H 1769.27 1.86879 2.343 0
M  V30 17583 H 1766.83 1.1192 1.16985 0
M  V30 17584 H 1768.82 -0.00292068 4.047 0
M  V30 17585 H 1767.39 -0.466283 3.09103 0
M  V30 17586 H 1766.61 2.00056 3.39664 0
M  V30 17587 H 1767.9 2.16846 4.60277 0
M  V30 17588 H 1767.3 -0.855 5.59201 0
M  V30 17589 H 1765.85 -0.603494 6.49 0
M  V30 17590 N 1769.29 -1.19996 1.0217 0
M  V30 17591 C 1770.25 -2.21179 0.601036 0
M  V30 17592 C 1771.25 -1.57345 -0.331531 0
M  V30 17593 O 1772.44 -1.73789 -0.119521 0
M  V30 17594 C 1769.57 -3.40683 -0.121557 0
M  V30 17595 H 1770.76 -2.5991 1.49622 0
M  V30 17596 H 1768.32 -1.33548 0.812071 0
M  V30 17597 H 1769.05 -3.07461 -1.03142 0
M  V30 17598 H 1768.84 -3.88245 0.548448 0
M  V30 17599 H 1770.33 -4.1565 -0.403046 0
M  V30 17600 N 1770.76 -0.798611 -1.35867 0
M  V30 17601 C 1772.17 -0.437243 -1.81508 0
M  V30 17602 C 1772.53 1.03987 -1.66376 0
M  V30 17603 O 1771.65 1.80751 -1.18988 0
M  V30 17604 C 1772.25 -0.786865 -3.29536 0
M  V30 17605 C 1770.8 -0.478204 -3.7335 0
M  V30 17606 C 1769.95 -1.01668 -2.5799 0
M  V30 17607 H 1772.9 -0.990957 -1.23959 0
M  V30 17608 H 1772.92 -0.0813864 -3.80413 0
M  V30 17609 H 1772.44 -1.86198 -3.40517 0
M  V30 17610 H 1770.54 0.588503 -3.67923 0
M  V30 17611 H 1770.65 -1.00525 -4.68435 0
M  V30 17612 H 1769.01 -0.439417 -2.50881 0
M  V30 17613 H 1769.8 -2.09775 -2.71753 0
M  V30 17614 N 1772.24 1.47639 -0.551417 0
M  V30 17615 C 1773.52 1.95559 0.0401983 0
M  V30 17616 C 1773.9 1.49396 1.49144 0
M  V30 17617 O 1773.25 0.730148 2.1652 0
M  V30 17618 C 1773.46 3.48859 -0.0992677 0
M  V30 17619 C 1774.8 4.24572 0.0490517 0
M  V30 17620 O 1775.83 3.5619 -0.026527 0
M  V30 17621 O 1774.69 5.46094 0.210638 0
M  V30 17622 H 1771.78 0.824251 0.0673694 0
M  V30 17623 H 1774.33 1.58065 -0.617532 0
M  V30 17624 H 1773.1 3.75245 -1.10936 0
M  V30 17625 H 1772.72 3.93102 0.596339 0
M  V30 17626 N 1773.72 0.287581 1.54954 0
M  V30 17627 C 1774.97 -0.32561 1.99865 0
M  V30 17628 C 1775.3 -1.54921 1.176 0
M  V30 17629 O 1774.55 -1.94262 0.236802 0
M  V30 17630 C 1774.85 -0.739779 3.4966 0
M  V30 17631 C 1774.52 0.380573 4.49291 0
M  V30 17632 C 1773.18 0.688172 4.76254 0
M  V30 17633 C 1775.53 1.13489 5.08694 0
M  V30 17634 C 1772.86 1.75344 5.59885 0
M  V30 17635 C 1775.21 2.18998 5.93484 0
M  V30 17636 C 1773.87 2.50379 6.18762 0
M  V30 17637 H 1773.14 -0.119149 0.731358 0
M  V30 17638 H 1775.79 0.403889 1.87192 0
M  V30 17639 H 1774.1 -1.54915 3.59873 0
M  V30 17640 H 1775.79 -1.22518 3.81825 0
M  V30 17641 H 1772.38 0.130718 4.28401 0
M  V30 17642 H 1776.57 0.910505 4.87877 0
M  V30 17643 H 1771.82 2.00145 5.77713 0
M  V30 17644 H 1776 2.77913 6.38543 0
M  V30 17645 H 1773.62 3.33057 6.83357 0
M  V30 17646 N 1775.2 -1.57593 0.0150662 0
M  V30 17647 C 1776.13 -2.12395 -0.970081 0
M  V30 17648 C 1777.11 -1.03666 -1.34861 0
M  V30 17649 O 1778.29 -1.31427 -1.4297 0
M  V30 17650 C 1775.42 -2.63958 -2.25707 0
M  V30 17651 C 1774.38 -3.77348 -2.01971 0
M  V30 17652 C 1773.7 -4.15284 -3.36814 0
M  V30 17653 C 1775 -5.04008 -1.37017 0
M  V30 17654 H 1776.7 -2.9496 -0.513731 0
M  V30 17655 H 1774.24 -1.41889 -0.245666 0
M  V30 17656 H 1776.2 -3.00927 -2.94993 0
M  V30 17657 H 1774.92 -1.78535 -2.73483 0
M  V30 17658 H 1773.58 -3.40795 -1.35107 0
M  V30 17659 H 1773.23 -3.26863 -3.82321 0
M  V30 17660 H 1772.93 -4.91686 -3.21744 0
M  V30 17661 H 1774.45 -4.54824 -4.07391 0
M  V30 17662 H 1775.87 -5.38652 -1.96282 0
M  V30 17663 H 1774.26 -5.85315 -1.32388 0
M  V30 17664 H 1775.33 -4.83698 -0.341281 0
M  V30 17665 N 1776.68 0.257904 -1.55475 0
M  V30 17666 C 1777.61 1.32303 -1.92401 0
M  V30 17667 C 1778.59 1.50767 -0.787617 0
M  V30 17668 O 1779.77 1.63559 -1.047 0
M  V30 17669 C 1776.9 2.67984 -2.20912 0
M  V30 17670 C 1775.86 2.64231 -3.36699 0
M  V30 17671 C 1775.18 4.03604 -3.50725 0
M  V30 17672 C 1776.48 2.22177 -4.72689 0
M  V30 17673 H 1778.18 1.01646 -2.81618 0
M  V30 17674 H 1775.72 0.487523 -1.35496 0
M  V30 17675 H 1777.68 3.42622 -2.45332 0
M  V30 17676 H 1776.4 3.00254 -1.2851 0
M  V30 17677 H 1775.06 1.92049 -3.1227 0
M  V30 17678 H 1774.71 4.33122 -2.55763 0
M  V30 17679 H 1774.41 4.01983 -4.28583 0
M  V30 17680 H 1775.93 4.79959 -3.77455 0
M  V30 17681 H 1777.34 2.86543 -4.96554 0
M  V30 17682 H 1775.74 2.3169 -5.5357 0
M  V30 17683 H 1776.81 1.17326 -4.70492 0
M  V30 17684 N 1778.15 1.48666 0.52309 0
M  V30 17685 C 1779.43 1.47526 1.28435 0
M  V30 17686 C 1779.81 0.190719 2.10237 0
M  V30 17687 O 1779.16 -0.827423 2.12993 0
M  V30 17688 C 1779.37 2.74132 2.15992 0
M  V30 17689 C 1780.72 3.22739 2.75907 0
M  V30 17690 O 1781.74 2.75097 2.26275 0
M  V30 17691 O 1780.6 4.05657 3.66203 0
M  V30 17692 H 1777.69 0.589478 0.580039 0
M  V30 17693 H 1780.24 1.60907 0.539176 0
M  V30 17694 H 1779.01 3.5913 1.55375 0
M  V30 17695 H 1778.64 2.63505 2.97743 0
M  V30 17696 N 1779.63 -0.772489 1.37369 0
M  V30 17697 C 1780.6 -1.86737 1.32898 0
M  V30 17698 C 1781.6 -1.591 0.23318 0
M  V30 17699 O 1782.79 -1.67196 0.488983 0
M  V30 17700 C 1779.92 -3.23859 1.06435 0
M  V30 17701 H 1781.11 -1.92114 2.30287 0
M  V30 17702 H 1778.66 -0.972158 1.22388 0
M  V30 17703 H 1779.4 -3.24159 0.0957365 0
M  V30 17704 H 1779.18 -3.4531 1.85751 0
M  V30 17705 H 1780.67 -4.03935 1.05954 0
M  V30 17706 N 1781.11 -1.21927 -0.998575 0
M  V30 17707 C 1782.07 -0.985744 -2.0692 0
M  V30 17708 C 1783.07 0.0456907 -1.60735 0
M  V30 17709 O 1784.26 -0.192241 -1.73136 0
M  V30 17710 C 1781.4 -0.48779 -3.37392 0
M  V30 17711 H 1782.59 -1.93563 -2.2907 0
M  V30 17712 H 1780.14 -1.03716 -1.1693 0
M  V30 17713 H 1780.88 0.466723 -3.20924 0
M  V30 17714 H 1780.66 -1.23186 -3.72247 0
M  V30 17715 H 1782.15 -0.344469 -4.16177 0
M  V30 17716 N 1782.59 1.19452 -1.02805 0
M  V30 17717 C 1783.82 1.93075 -0.743624 0
M  V30 17718 C 1784.23 1.75446 0.697425 0
M  V30 17719 O 1783.59 1.07583 1.47418 0
M  V30 17720 C 1783.64 3.44855 -1.08431 0
M  V30 17721 O 1783.36 3.61916 -2.46877 0
M  V30 17722 C 1784.86 4.35601 -0.822571 0
M  V30 17723 H 1782.08 0.613327 -0.272159 0
M  V30 17724 H 1784.63 1.51617 -1.37232 0
M  V30 17725 H 1782.78 3.84149 -0.500812 0
M  V30 17726 H 1783.19 4.55785 -2.59538 0
M  V30 17727 H 1784.67 5.40706 -1.11092 0
M  V30 17728 H 1785.15 4.38527 0.243026 0
M  V30 17729 H 1785.75 4.01987 -1.38876 0
M  V30 17730 N 1784.07 0.805805 1.35442 0
M  V30 17731 C 1785.31 0.386379 1.99085 0
M  V30 17732 C 1785.65 -1.04356 1.63779 0
M  V30 17733 O 1784.92 -1.72386 0.900731 0
M  V30 17734 C 1785.2 0.569062 3.55575 0
M  V30 17735 C 1785.06 2.04387 4.00682 0
M  V30 17736 C 1786.38 -0.00574668 4.401 0
M  V30 17737 H 1783.49 0.141862 0.723218 0
M  V30 17738 H 1786.14 1.01519 1.60605 0
M  V30 17739 H 1784.29 0.0337767 3.88485 0
M  V30 17740 H 1785.96 2.64148 3.78184 0
M  V30 17741 H 1784.2 2.54059 3.5162 0
M  V30 17742 H 1784.87 2.12258 5.09559 0
M  V30 17743 H 1787.35 0.451387 4.13644 0
M  V30 17744 H 1786.22 0.151994 5.4869 0
M  V30 17745 H 1786.49 -1.09937 4.28213 0
M  V30 17746 N 1785.54 -1.47344 0.559239 0
M  V30 17747 C 1786.96 -1.58088 0.219155 0
M  V30 17748 C 1787.16 -1.55758 -1.27834 0
M  V30 17749 O 1786.22 -1.46207 -2.05864 0
M  V30 17750 C 1787.53 -2.88507 0.847606 0
M  V30 17751 C 1789.08 -3.02094 0.819022 0
M  V30 17752 C 1789.55 -4.35216 1.42658 0
M  V30 17753 N 1791.04 -4.41857 1.38986 0
M  V30 17754 C 1791.78 -5.43429 1.82956 0
M  V30 17755 N 1791.27 -6.51801 2.34792 0
M  V30 17756 N 1793.07 -5.34486 1.74015 0
M  V30 17757 H 1785.22 -1.47102 1.53215 0
M  V30 17758 H 1787.48 -0.700228 0.63905 0
M  V30 17759 H 1787.19 -2.95954 1.90011 0
M  V30 17760 H 1787.06 -3.75648 0.341841 0
M  V30 17761 H 1789.45 -2.94243 -0.224794 0
M  V30 17762 H 1789.53 -2.1649 1.36257 0
M  V30 17763 H 1789.17 -4.43824 2.46947 0
M  V30 17764 H 1789.1 -5.19556 0.858462 0
M  V30 17765 H 1791.59 -3.64133 1.01071 0
M  V30 17766 H 1791.91 -7.25482 2.66262 0
M  V30 17767 H 1790.25 -6.52685 2.38804 0
M  V30 17768 H 1793.44 -4.48721 1.33294 0
M  V30 17769 H 1793.62 -6.13506 2.086 0
M  V30 17770 N 1787.02 -0.295795 -1.54799 0
M  V30 17771 C 1787.95 0.616191 -2.20762 0
M  V30 17772 C 1788.97 1.10157 -1.19872 0
M  V30 17773 O 1790.16 1.01992 -1.46492 0
M  V30 17774 C 1787.26 1.85497 -2.83627 0
M  V30 17775 C 1786.43 1.51295 -4.10401 0
M  V30 17776 C 1785.49 2.60633 -4.57118 0
M  V30 17777 O 1784.51 2.25945 -5.22434 0
M  V30 17778 N 1785.72 3.91078 -4.28997 0
M  V30 17779 H 1788.48 0.0515252 -2.99656 0
M  V30 17780 H 1786.04 -0.11777 -1.61471 0
M  V30 17781 H 1788.03 2.57979 -3.11816 0
M  V30 17782 H 1786.6 2.32816 -2.08604 0
M  V30 17783 H 1785.82 0.621 -3.89278 0
M  V30 17784 H 1787.11 1.25974 -4.92958 0
M  V30 17785 H 1786.51 4.22072 -3.76659 0
M  V30 17786 H 1785.07 4.59875 -4.61907 0
M  V30 17787 N 1788.5 1.57583 -0.0234236 0
M  V30 17788 C 1789.45 2.06367 0.969361 0
M  V30 17789 C 1790.44 0.963028 1.28898 0
M  V30 17790 O 1791.63 1.22663 1.27604 0
M  V30 17791 C 1788.76 2.58967 2.25368 0
M  V30 17792 C 1787.84 3.75952 1.96268 0
M  V30 17793 N 1788.23 4.86776 1.37415 0
M  V30 17794 C 1786.53 3.84329 2.2629 0
M  V30 17795 C 1787.23 5.68041 1.25318 0
M  V30 17796 N 1786.21 5.14771 1.74677 0
M  V30 17797 H 1790.01 2.89455 0.509205 0
M  V30 17798 H 1787.52 1.6138 0.181729 0
M  V30 17799 H 1789.52 2.92206 2.97358 0
M  V30 17800 H 1788.18 1.77307 2.72015 0
M  V30 17801 H 1789.19 5.07147 1.0499 0
M  V30 17802 H 1785.87 3.13566 2.7565 0
M  V30 17803 H 1787.26 6.67137 0.798588 0
M  V30 17804 N 1789.98 -0.249655 1.5561 0
M  V30 17805 C 1791.23 -0.975982 1.76515 0
M  V30 17806 C 1791.54 -1.86589 0.586843 0
M  V30 17807 O 1792.75 -2.62876 0.678844 0
M  V30 17808 C 1791.2 -1.7854 3.12492 0
M  V30 17809 C 1790.81 -0.943014 4.37963 0
M  V30 17810 C 1792.56 -2.50462 3.42737 0
M  V30 17811 C 1790.46 -1.74816 5.64972 0
M  V30 17812 H 1789.39 -0.368139 0.65802 0
M  V30 17813 H 1792.04 -0.230745 1.82043 0
M  V30 17814 H 1790.43 -2.57248 3.01064 0
M  V30 17815 H 1791.6 -0.198453 4.60372 0
M  V30 17816 H 1789.91 -0.337249 4.15032 0
M  V30 17817 H 1792.51 -3.1115 4.34845 0
M  V30 17818 H 1792.85 -3.21938 2.63935 0
M  V30 17819 H 1793.39 -1.78767 3.55369 0
M  V30 17820 H 1790.13 -1.07719 6.46589 0
M  V30 17821 H 1789.65 -2.46807 5.46668 0
M  V30 17822 H 1791.33 -2.31599 6.04128 0
M  V30 17823 N 1791.46 -1.48941 -0.515198 0
M  V30 17824 C 1792.87 -1.35389 -0.8451 0
M  V30 17825 C 1793.07 -0.376141 -1.97958 0
M  V30 17826 O 1792.13 0.197324 -2.51728 0
M  V30 17827 C 1793.44 -2.75775 -1.19868 0
M  V30 17828 C 1794.99 -2.84373 -1.30772 0
M  V30 17829 C 1795.47 -4.25494 -1.69466 0
M  V30 17830 N 1796.96 -4.28237 -1.76542 0
M  V30 17831 C 1797.69 -5.34384 -2.07898 0
M  V30 17832 N 1797.19 -6.50792 -2.37575 0
M  V30 17833 N 1798.98 -5.21789 -2.09029 0
M  V30 17834 H 1791.13 -2.11117 0.233118 0
M  V30 17835 H 1793.39 -0.947083 0.0416757 0
M  V30 17836 H 1793.1 -3.48955 -0.438565 0
M  V30 17837 H 1792.97 -3.10243 -2.14545 0
M  V30 17838 H 1795.36 -2.11439 -2.05858 0
M  V30 17839 H 1795.44 -2.53506 -0.341808 0
M  V30 17840 H 1795.09 -4.98949 -0.949358 0
M  V30 17841 H 1795.02 -4.53814 -2.67133 0
M  V30 17842 H 1797.51 -3.44278 -1.55824 0
M  V30 17843 H 1797.82 -7.27518 -2.60649 0
M  V30 17844 H 1796.17 -6.54042 -2.35062 0
M  V30 17845 H 1799.36 -4.29858 -1.85311 0
M  V30 17846 H 1799.53 -6.0461 -2.33133 0
M  V30 17847 N 1792.94 0.765193 -1.37777 0
M  V30 17848 C 1793.9 1.8603 -1.33886 0
M  V30 17849 C 1794.9 1.58974 -0.241614 0
M  V30 17850 O 1796.09 1.66935 -0.497843 0
M  V30 17851 C 1793.22 3.2329 -1.08151 0
M  V30 17852 H 1794.41 1.9089 -2.31303 0
M  V30 17853 H 1791.97 0.965653 -1.22902 0
M  V30 17854 H 1792.7 3.24103 -0.112926 0
M  V30 17855 H 1792.49 3.4432 -1.8758 0
M  V30 17856 H 1793.98 4.03367 -1.08095 0
M  V30 17857 N 1794.41 1.22455 0.992094 0
M  V30 17858 C 1795.32 1.01173 2.11663 0
M  V30 17859 C 1796.34 -0.0402168 1.73954 0
M  V30 17860 O 1797.52 0.152685 2.0082 0
M  V30 17861 C 1794.58 0.592995 3.41591 0
M  V30 17862 C 1793.64 1.71865 3.93397 0
M  V30 17863 C 1792.87 1.3198 5.17124 0
M  V30 17864 O 1793.1 0.198943 5.70053 0
M  V30 17865 O 1792.03 2.13658 5.62702 0
M  V30 17866 H 1795.86 1.9539 2.32501 0
M  V30 17867 H 1793.44 1.01056 1.10036 0
M  V30 17868 H 1795.32 0.36987 4.19774 0
M  V30 17869 H 1794 -0.320311 3.22111 0
M  V30 17870 H 1792.91 1.9963 3.16384 0
M  V30 17871 H 1794.24 2.60985 4.1731 0
M  V30 17872 N 1795.89 -1.18905 1.03437 0
M  V30 17873 C 1797.3 -1.70402 0.762893 0
M  V30 17874 C 1797.65 -1.82633 -0.716908 0
M  V30 17875 O 1796.78 -1.50136 -1.55847 0
M  V30 17876 C 1797.37 -3.09501 1.37822 0
M  V30 17877 C 1795.93 -3.58235 1.1552 0
M  V30 17878 C 1795.08 -2.34953 1.47284 0
M  V30 17879 H 1798.03 -1.03669 1.2016 0
M  V30 17880 H 1798.05 -3.7246 0.778079 0
M  V30 17881 H 1797.56 -3.00566 2.45523 0
M  V30 17882 H 1795.66 -3.72475 0.096646 0
M  V30 17883 H 1795.78 -4.42034 1.84778 0
M  V30 17884 H 1794.14 -2.38557 0.892333 0
M  V30 17885 H 1794.92 -2.28643 2.5608 0
M  V30 17886 N 1797.37 -0.812977 -1.35013 0
M  V30 17887 C 1798.62 -0.396345 -1.98583 0
M  V30 17888 C 1798.94 1.0381 -1.6448 0
M  V30 17889 O 1798.2 1.73604 -0.903344 0
M  V30 17890 C 1798.5 -0.534083 -3.53387 0
M  V30 17891 C 1798.16 -1.93278 -4.07375 0
M  V30 17892 C 1796.83 -2.31543 -4.21831 0
M  V30 17893 C 1799.18 -2.84756 -4.36535 0
M  V30 17894 C 1796.51 -3.60641 -4.62769 0
M  V30 17895 C 1798.86 -4.13308 -4.78915 0
M  V30 17896 C 1797.52 -4.51563 -4.91576 0
M  V30 17897 H 1796.79 -0.145033 -0.726668 0
M  V30 17898 H 1799.44 -1.035 -1.61121 0
M  V30 17899 H 1797.74 0.188002 -3.91349 0
M  V30 17900 H 1799.44 -0.192396 -4.00538 0
M  V30 17901 H 1796.03 -1.62551 -3.96579 0
M  V30 17902 H 1800.22 -2.56441 -4.24914 0
M  V30 17903 H 1795.47 -3.9012 -4.70761 0
M  V30 17904 H 1799.65 -4.84287 -5.00439 0
M  V30 17905 H 1797.27 -5.51649 -5.23056 0
M  V30 17906 N 1798.85 1.47045 -0.567045 0
M  V30 17907 C 1800.08 2.06535 -0.0517558 0
M  V30 17908 C 1800.49 1.41873 1.25174 0
M  V30 17909 O 1799.83 0.512695 1.764 0
M  V30 17910 C 1799.89 3.58917 0.204611 0
M  V30 17911 C 1799.55 4.45678 -1.01092 0
M  V30 17912 C 1800.55 4.83187 -1.91902 0
M  V30 17913 C 1798.24 4.87049 -1.22837 0
M  V30 17914 C 1800.23 5.60876 -3.02815 0
M  V30 17915 C 1797.92 5.645 -2.34058 0
M  V30 17916 C 1798.92 6.01325 -3.23878 0
M  V30 17917 O 1798.6 6.77214 -4.3317 0
M  V30 17918 H 1798.34 0.674342 -0.0473177 0
M  V30 17919 H 1800.89 1.89894 -0.782909 0
M  V30 17920 H 1799.12 3.73808 0.990192 0
M  V30 17921 H 1800.81 4.00391 0.666485 0
M  V30 17922 H 1801.57 4.51818 -1.76312 0
M  V30 17923 H 1797.45 4.57845 -0.538387 0
M  V30 17924 H 1801 5.89538 -3.72948 0
M  V30 17925 H 1796.89 5.95283 -2.49617 0
M  V30 17926 H 1797.66 6.9562 -4.31341 0
M  V30 17927 N 1800.33 0.304 1.5464 0
M  V30 17928 C 1801.57 -0.297701 2.0121 0
M  V30 17929 C 1801.93 -1.51295 1.18859 0
M  V30 17930 O 1801.22 -1.89859 0.257697 0
M  V30 17931 C 1801.41 -0.702651 3.50425 0
M  V30 17932 C 1801.24 0.47181 4.47218 0
M  V30 17933 C 1800.01 0.964773 4.96004 0
M  V30 17934 C 1802.21 1.31774 4.97132 0
M  V30 17935 N 1800.19 2.10568 5.76658 0
M  V30 17936 C 1801.56 2.3061 5.75516 0
M  V30 17937 C 1803.62 1.34777 4.79312 0
M  V30 17938 C 1802.32 3.32228 6.37979 0
M  V30 17939 C 1804.35 2.35255 5.42595 0
M  V30 17940 C 1803.71 3.3282 6.20814 0
M  V30 17941 H 1799.81 -0.073314 0.778556 0
M  V30 17942 H 1802.39 0.434597 1.89788 0
M  V30 17943 H 1800.56 -1.40412 3.62131 0
M  V30 17944 H 1802.3 -1.28415 3.83786 0
M  V30 17945 H 1799.05 0.539254 4.7052 0
M  V30 17946 H 1799.47 2.68063 6.21668 0
M  V30 17947 H 1804.12 0.607191 4.18417 0
M  V30 17948 H 1801.83 4.07203 6.98005 0
M  V30 17949 H 1805.42 2.38355 5.30733 0
M  V30 17950 H 1804.3 4.09296 6.68914 0
M  V30 17951 N 1801.8 -1.57568 0.0317802 0
M  V30 17952 C 1803.22 -1.56264 -0.324633 0
M  V30 17953 C 1803.42 -1.03765 -1.72728 0
M  V30 17954 O 1802.48 -0.685566 -2.43015 0
M  V30 17955 C 1803.79 -3.00214 -0.170806 0
M  V30 17956 C 1805.34 -3.12052 -0.243373 0
M  V30 17957 C 1805.81 -4.57847 -0.118304 0
M  V30 17958 N 1807.3 -4.62869 -0.175203 0
M  V30 17959 C 1808.04 -5.73309 -0.102252 0
M  V30 17960 N 1807.53 -6.92797 0.0219373 0
M  V30 17961 N 1809.33 -5.61882 -0.156432 0
M  V30 17962 H 1801.48 -1.90022 0.948968 0
M  V30 17963 H 1803.74 -0.874208 0.366693 0
M  V30 17964 H 1803.45 -3.42585 0.795517 0
M  V30 17965 H 1803.32 -3.65302 -0.939907 0
M  V30 17966 H 1805.71 -2.69593 -1.20016 0
M  V30 17967 H 1805.79 -2.49681 0.55615 0
M  V30 17968 H 1805.43 -5.00988 0.835072 0
M  V30 17969 H 1805.36 -5.18202 -0.936726 0
M  V30 17970 H 1807.85 -3.76925 -0.271225 0
M  V30 17971 H 1808.17 -7.72768 0.0708376 0
M  V30 17972 H 1806.51 -6.94977 0.0567564 0
M  V30 17973 H 1809.7 -4.67422 -0.251873 0
M  V30 17974 H 1809.88 -6.47929 -0.0961177 0
M  V30 17975 N 1803.28 0.241399 -1.5574 0
M  V30 17976 C 1804.21 1.30255 -1.93793 0
M  V30 17977 C 1805.19 1.49923 -0.803563 0
M  V30 17978 O 1806.38 1.62439 -1.06429 0
M  V30 17979 C 1803.51 2.65625 -2.23742 0
M  V30 17980 C 1802.46 2.60645 -3.39483 0
M  V30 17981 C 1801.79 3.99861 -3.54986 0
M  V30 17982 C 1803.09 2.17151 -4.75019 0
M  V30 17983 H 1804.78 0.986532 -2.8268 0
M  V30 17984 H 1802.33 0.473125 -1.36006 0
M  V30 17985 H 1804.28 3.40001 -2.48953 0
M  V30 17986 H 1803.01 2.98874 -1.31688 0
M  V30 17987 H 1801.66 1.88727 -3.14289 0
M  V30 17988 H 1801.31 4.30385 -2.60342 0
M  V30 17989 H 1801.01 3.97415 -4.32822 0
M  V30 17990 H 1802.54 4.75928 -3.82524 0
M  V30 17991 H 1803.95 2.8126 -4.99565 0
M  V30 17992 H 1802.35 2.25805 -5.55996 0
M  V30 17993 H 1803.42 1.12329 -4.7171 0
M  V30 17994 N 1804.76 1.49212 0.507292 0
M  V30 17995 C 1806.17 1.51655 1.08892 0
M  V30 17996 C 1806.52 0.299163 1.93906 0
M  V30 17997 O 1805.65 -0.591635 2.08155 0
M  V30 17998 C 1806.24 2.7481 1.98154 0
M  V30 17999 C 1804.8 2.80051 2.51492 0
M  V30 18000 C 1803.95 2.45486 1.28966 0
M  V30 18001 H 1806.9 1.56 0.291488 0
M  V30 18002 H 1806.92 2.54615 2.82757 0
M  V30 18003 H 1806.43 3.63396 1.36253 0
M  V30 18004 H 1804.53 1.95729 3.1705 0
M  V30 18005 H 1804.65 3.82064 2.89075 0
M  V30 18006 H 1803.01 1.97128 1.61284 0
M  V30 18007 H 1803.79 3.36339 0.687821 0
M  V30 18008 N 1806.24 -0.757876 1.38181 0
M  V30 18009 C 1807.17 -1.88108 1.3095 0
M  V30 18010 C 1808.18 -1.61272 0.222551 0
M  V30 18011 O 1809.37 -1.71931 0.479782 0
M  V30 18012 C 1806.47 -3.2365 1.00518 0
M  V30 18013 C 1805.65 -3.78024 2.20037 0
M  V30 18014 C 1804.7 -4.92073 1.86416 0
M  V30 18015 O 1803.73 -5.0693 2.58864 0
M  V30 18016 N 1804.93 -5.74728 0.816553 0
M  V30 18017 H 1807.7 -1.94823 2.27737 0
M  V30 18018 H 1805.26 -0.937616 1.31986 0
M  V30 18019 H 1807.25 -3.97483 0.760861 0
M  V30 18020 H 1805.82 -3.12348 0.125418 0
M  V30 18021 H 1805.04 -2.95807 2.60561 0
M  V30 18022 H 1806.33 -4.11085 2.99811 0
M  V30 18023 H 1805.73 -5.65289 0.215659 0
M  V30 18024 H 1804.28 -6.48728 0.63211 0
M  V30 18025 N 1807.72 -1.22979 -0.985586 0
M  V30 18026 C 1808.65 -0.964185 -2.07933 0
M  V30 18027 C 1809.66 0.0599162 -1.6269 0
M  V30 18028 O 1810.85 -0.174984 -1.7764 0
M  V30 18029 C 1807.95 -0.429879 -3.36163 0
M  V30 18030 C 1807.12 -1.51293 -4.10401 0
M  V30 18031 C 1806.18 -0.984411 -5.1691 0
M  V30 18032 O 1805.21 -1.67225 -5.44081 0
M  V30 18033 N 1806.41 0.190439 -5.80188 0
M  V30 18034 H 1809.18 -1.90582 -2.31297 0
M  V30 18035 H 1806.74 -1.13767 -1.15189 0
M  V30 18036 H 1808.73 -0.0614639 -4.04653 0
M  V30 18037 H 1807.3 0.417049 -3.09806 0
M  V30 18038 H 1806.52 -2.05434 -3.36438 0
M  V30 18039 H 1807.81 -2.24141 -4.56769 0
M  V30 18040 H 1807.2 0.765928 -5.60491 0
M  V30 18041 H 1805.76 0.500168 -6.49878 0
M  V30 18042 N 1809.19 1.18355 -1.04066 0
M  V30 18043 C 1810.44 1.88335 -0.744046 0
M  V30 18044 C 1810.77 1.80353 0.728219 0
M  V30 18045 O 1810.02 1.19839 1.54717 0
M  V30 18046 C 1810.32 3.38203 -1.15557 0
M  V30 18047 C 1809.99 3.66389 -2.62812 0
M  V30 18048 C 1808.65 3.73791 -3.03041 0
M  V30 18049 C 1811 3.78773 -3.58023 0
M  V30 18050 C 1808.33 3.91056 -4.37369 0
M  V30 18051 C 1810.68 3.97554 -4.92071 0
M  V30 18052 C 1809.35 4.03192 -5.3197 0
M  V30 18053 H 1808.62 0.689168 -0.272266 0
M  V30 18054 H 1811.26 1.40087 -1.30568 0
M  V30 18055 H 1809.57 3.8843 -0.512741 0
M  V30 18056 H 1811.27 3.90691 -0.903428 0
M  V30 18057 H 1807.86 3.61244 -2.30652 0
M  V30 18058 H 1812.04 3.72386 -3.28089 0
M  V30 18059 H 1807.3 3.93665 -4.67801 0
M  V30 18060 H 1811.47 4.06078 -5.65751 0
M  V30 18061 H 1809.1 4.16323 -6.36066 0
M  V30 18062 N 1810.67 0.820125 1.3458 0
M  V30 18063 C 1811.6 0.197556 2.28347 0
M  V30 18064 C 1812.62 -0.610956 1.50901 0
M  V30 18065 O 1813.81 -0.441096 1.72964 0
M  V30 18066 C 1810.91 -0.741893 3.3068 0
M  V30 18067 C 1810.08 0.0231854 4.37394 0
M  V30 18068 C 1809.14 -0.83677 5.19504 0
M  V30 18069 O 1808.16 -0.282772 5.68497 0
M  V30 18070 N 1809.37 -2.15696 5.38939 0
M  V30 18071 H 1812.13 1.00314 2.82413 0
M  V30 18072 H 1809.69 0.676827 1.47074 0
M  V30 18073 H 1811.68 -1.32173 3.82508 0
M  V30 18074 H 1810.25 -1.44823 2.77029 0
M  V30 18075 H 1809.47 0.784316 3.86319 0
M  V30 18076 H 1810.76 0.549958 5.05819 0
M  V30 18077 H 1810.16 -2.63083 5.00803 0
M  V30 18078 H 1808.72 -2.68572 5.93896 0
M  V30 18079 N 1812.15 -1.46743 0.574835 0
M  V30 18080 C 1813.4 -2.02019 0.057302 0
M  V30 18081 C 1813.72 -1.44965 -1.30423 0
M  V30 18082 O 1812.99 -0.631377 -1.85447 0
M  V30 18083 H 1811.57 -0.746778 0.018193 0
M  V30 18084 H 1814.23 -1.7994 0.748834 0
M  V30 18085 H 1813.33 -3.12095 -0.0176114 0
M  V30 18086 N 1813.63 -0.312197 -1.54477 0
M  V30 18087 C 1814.91 0.347462 -1.92489 0
M  V30 18088 C 1815.29 1.70797 -1.24063 0
M  V30 18089 O 1814.63 2.25313 -0.380296 0
M  V30 18090 C 1814.84 0.450992 -3.46074 0
M  V30 18091 C 1816.19 0.716618 -4.18509 0
M  V30 18092 O 1817.22 0.534364 -3.52169 0
M  V30 18093 O 1816.07 1.06744 -5.35974 0
M  V30 18094 H 1813.17 0.196248 -0.803378 0
M  V30 18095 H 1815.71 -0.361078 -1.65814 0
M  V30 18096 H 1814.49 -0.504982 -3.88028 0
M  V30 18097 H 1814.11 1.20756 -3.78819 0
M  V30 18098 N 1815.11 1.57549 -0.040136 0
M  V30 18099 C 1816.04 2.07803 0.966975 0
M  V30 18100 C 1817.05 1.00363 1.28184 0
M  V30 18101 O 1818.24 1.27957 1.24456 0
M  V30 18102 C 1815.34 2.49688 2.29149 0
M  V30 18103 C 1814.51 3.80336 2.16017 0
M  V30 18104 C 1813.57 4.08652 3.31497 0
M  V30 18105 O 1812.6 4.78739 3.07892 0
M  V30 18106 N 1813.8 3.59693 4.55633 0
M  V30 18107 H 1816.57 2.94829 0.538115 0
M  V30 18108 H 1814.13 1.61237 0.146368 0
M  V30 18109 H 1816.12 2.65715 3.0525 0
M  V30 18110 H 1814.69 1.67969 2.63638 0
M  V30 18111 H 1813.91 3.73998 1.24575 0
M  V30 18112 H 1815.2 4.65912 2.04458 0
M  V30 18113 H 1814.59 3.03012 4.77703 0
M  V30 18114 H 1813.15 3.80978 5.28866 0
M  V30 18115 N 1816.58 -0.233136 1.55866 0
M  V30 18116 C 1817.51 -1.29225 1.94482 0
M  V30 18117 C 1818.5 -1.49495 0.811503 0
M  V30 18118 O 1819.68 -1.61872 1.07289 0
M  V30 18119 C 1816.81 -2.64435 2.25147 0
M  V30 18120 C 1815.76 -2.5884 3.4086 0
M  V30 18121 C 1815.09 -3.97973 3.57102 0
M  V30 18122 C 1816.39 -2.14629 4.76164 0
M  V30 18123 H 1818.08 -0.971527 2.83199 0
M  V30 18124 H 1815.63 -0.465905 1.36255 0
M  V30 18125 H 1817.58 -3.38676 2.50752 0
M  V30 18126 H 1816.31 -2.98172 1.33271 0
M  V30 18127 H 1814.97 -1.87057 3.15286 0
M  V30 18128 H 1814.61 -4.28998 2.62621 0
M  V30 18129 H 1814.31 -3.95114 4.34924 0
M  V30 18130 H 1815.84 -4.73893 3.85043 0
M  V30 18131 H 1817.25 -2.78607 5.0105 0
M  V30 18132 H 1815.65 -2.22853 5.57186 0
M  V30 18133 H 1816.72 -1.09826 4.72299 0
M  V30 18134 N 1818.06 -1.49479 -0.499372 0
M  V30 18135 C 1819 -1.60874 -1.61848 0
M  V30 18136 C 1819.97 -0.457753 -1.56024 0
M  V30 18137 O 1821.16 -0.673516 -1.76057 0
M  V30 18138 C 1818.29 -1.56518 -3.00366 0
M  V30 18139 C 1817.33 -2.76834 -3.24446 0
M  V30 18140 S 1818.16 -4.38486 -3.07392 0
M  V30 18141 C 1819.32 -4.36779 -4.48303 0
M  V30 18142 H 1819.55 -2.55543 -1.51938 0
M  V30 18143 H 1817.09 -1.3839 -0.68465 0
M  V30 18144 H 1819.04 -1.54691 -3.80238 0
M  V30 18145 H 1817.71 -0.631341 -3.0769 0
M  V30 18146 H 1816.9 -2.70011 -4.2557 0
M  V30 18147 H 1816.5 -2.76082 -2.52299 0
M  V30 18148 H 1818.79 -4.08599 -5.4042 0
M  V30 18149 H 1819.74 -5.38186 -4.60175 0
M  V30 18150 H 1820.14 -3.66837 -4.29058 0
M  V30 18151 N 1819.54 0.750537 -1.38581 0
M  V30 18152 C 1820.5 1.84599 -1.35852 0
M  V30 18153 C 1821.5 1.58709 -0.258462 0
M  V30 18154 O 1822.69 1.66397 -0.51552 0
M  V30 18155 C 1819.83 3.22124 -1.11573 0
M  V30 18156 H 1821.02 1.88426 -2.33314 0
M  V30 18157 H 1818.57 0.952564 -1.23919 0
M  V30 18158 H 1819.31 3.23965 -0.147295 0
M  V30 18159 H 1819.09 3.42311 -1.91221 0
M  V30 18160 H 1820.58 4.02198 -1.12367 0
M  V30 18161 N 1821.02 1.235 0.979051 0
M  V30 18162 C 1822.25 1.09304 1.75318 0
M  V30 18163 C 1822.66 -0.358266 1.85777 0
M  V30 18164 O 1822 -1.25956 1.33719 0
M  V30 18165 C 1822.06 1.6457 3.1962 0
M  V30 18166 C 1821.73 3.1334 3.32666 0
M  V30 18167 C 1822.72 4.1062 3.18885 0
M  V30 18168 C 1820.41 3.53076 3.57271 0
M  V30 18169 C 1822.4 5.45617 3.29515 0
M  V30 18170 C 1820.09 4.88218 3.67541 0
M  V30 18171 C 1821.09 5.84298 3.53674 0
M  V30 18172 O 1820.78 7.16985 3.63577 0
M  V30 18173 H 1820.51 0.383087 0.556974 0
M  V30 18174 H 1823.06 1.6385 1.23864 0
M  V30 18175 H 1821.29 1.04446 3.72328 0
M  V30 18176 H 1822.98 1.4583 3.78799 0
M  V30 18177 H 1823.75 3.81264 2.99771 0
M  V30 18178 H 1819.63 2.78804 3.67136 0
M  V30 18179 H 1823.17 6.20592 3.18608 0
M  V30 18180 H 1819.07 5.17249 3.86165 0
M  V30 18181 H 1819.83 7.24752 3.80364 0
M  V30 18182 N 1822.5 -1.17802 1.04693 0
M  V30 18183 C 1823.75 -1.87567 0.752534 0
M  V30 18184 C 1824.07 -1.81129 -0.722303 0
M  V30 18185 O 1823.34 -1.23385 -1.52161 0
M  V30 18186 H 1821.92 -0.69439 0.275376 0
M  V30 18187 H 1824.58 -1.42932 1.32501 0
M  V30 18188 H 1823.67 -2.9344 1.06299 0
M  V30 18189 N 1823.98 -0.827251 -1.34143 0
M  V30 18190 C 1825.22 -0.41656 -1.9776 0
M  V30 18191 C 1825.54 1.02488 -1.65895 0
M  V30 18192 O 1824.81 1.71219 -0.951891 0
M  V30 18193 H 1823.39 -0.151044 -0.73157 0
M  V30 18194 H 1826.06 -1.05765 -1.63706 0
M  V30 18195 H 1825.15 -0.539101 -3.07409 0
M  V30 18196 N 1825.45 1.46436 -0.582609 0
M  V30 18197 C 1826.4 2.30308 0.150697 0
M  V30 18198 C 1827.37 1.40611 0.884185 0
M  V30 18199 O 1828.56 1.6956 0.874874 0
M  V30 18200 C 1825.7 3.25074 1.15847 0
M  V30 18201 C 1824.81 4.2987 0.428442 0
M  V30 18202 C 1823.94 5.11765 1.42373 0
M  V30 18203 C 1822.98 6.0831 0.680103 0
M  V30 18204 N 1822.12 6.83073 1.62345 0
M  V30 18205 H 1826.96 2.92487 -0.570583 0
M  V30 18206 H 1824.5 1.44148 -0.293195 0
M  V30 18207 H 1826.45 3.78462 1.75563 0
M  V30 18208 H 1825.08 2.64704 1.84747 0
M  V30 18209 H 1824.14 3.7934 -0.283744 0
M  V30 18210 H 1825.45 4.98566 -0.15291 0
M  V30 18211 H 1824.6 5.69429 2.09369 0
M  V30 18212 H 1823.34 4.4303 2.03902 0
M  V30 18213 H 1822.35 5.498 -0.00363067 0
M  V30 18214 H 1823.57 6.79064 0.0702152 0
M  V30 18215 H 1821.52 6.17048 2.22684 0
M  V30 18216 H 1821.43 7.48029 1.0949 0
M  V30 18217 H 1822.7 7.45295 2.28376 0
M  V30 18218 N 1826.93 0.320385 1.54309 0
M  V30 18219 C 1827.86 -0.539789 2.27175 0
M  V30 18220 C 1828.84 -1.12198 1.2785 0
M  V30 18221 O 1830.03 -1.1477 1.56657 0
M  V30 18222 C 1827.16 -1.70236 3.02716 0
M  V30 18223 C 1826.11 -1.24962 4.09351 0
M  V30 18224 C 1825.44 -2.49888 4.72715 0
M  V30 18225 C 1826.74 -0.366788 5.21011 0
M  V30 18226 H 1828.43 0.0680079 2.99323 0
M  V30 18227 H 1825.98 0.0341488 1.4396 0
M  V30 18228 H 1827.93 -2.31037 3.5242 0
M  V30 18229 H 1826.65 -2.33669 2.2818 0
M  V30 18230 H 1825.31 -0.664556 3.60526 0
M  V30 18231 H 1824.96 -3.11679 3.94798 0
M  V30 18232 H 1824.66 -2.20288 5.44745 0
M  V30 18233 H 1826.19 -3.11458 5.25192 0
M  V30 18234 H 1827.6 -0.881001 5.6649 0
M  V30 18235 H 1826 -0.163707 5.99877 0
M  V30 18236 H 1827.07 0.603185 4.81134 0
M  V30 18237 N 1828.41 -1.57525 0.0484906 0
M  V30 18238 C 1829.36 -2.11374 -0.926816 0
M  V30 18239 C 1830.33 -1.02045 -1.31058 0
M  V30 18240 O 1831.51 -1.29577 -1.40052 0
M  V30 18241 C 1828.65 -2.66107 -2.19729 0
M  V30 18242 C 1827.76 -3.89513 -1.86826 0
M  V30 18243 C 1826.9 -4.32571 -3.08312 0
M  V30 18244 C 1825.94 -5.48684 -2.71317 0
M  V30 18245 N 1825.08 -5.86808 -3.85488 0
M  V30 18246 H 1829.92 -2.94417 -0.460721 0
M  V30 18247 H 1827.45 -1.45509 -0.215789 0
M  V30 18248 H 1829.41 -2.95939 -2.94068 0
M  V30 18249 H 1828.04 -1.85865 -2.63921 0
M  V30 18250 H 1827.09 -3.66289 -1.02647 0
M  V30 18251 H 1828.4 -4.73912 -1.55592 0
M  V30 18252 H 1827.56 -4.63941 -3.90952 0
M  V30 18253 H 1826.3 -3.46978 -3.42721 0
M  V30 18254 H 1825.3 -5.16988 -1.87092 0
M  V30 18255 H 1826.53 -6.35991 -2.38102 0
M  V30 18256 H 1824.47 -5.04168 -4.19703 0
M  V30 18257 H 1824.39 -6.65892 -3.57944 0
M  V30 18258 H 1825.66 -6.22792 -4.68776 0
M  V30 18259 N 1829.89 0.224867 -1.55988 0
M  V30 18260 C 1831.12 0.965325 -1.82661 0
M  V30 18261 C 1831.53 1.78581 -0.624935 0
M  V30 18262 O 1830.87 1.7893 0.415886 0
M  V30 18263 C 1830.93 1.93444 -3.03018 0
M  V30 18264 C 1830.59 1.29879 -4.38156 0
M  V30 18265 C 1831.59 0.69031 -5.15297 0
M  V30 18266 C 1829.28 1.31155 -4.84875 0
M  V30 18267 C 1831.27 0.103067 -6.37317 0
M  V30 18268 C 1828.96 0.720461 -6.06838 0
M  V30 18269 C 1829.96 0.11727 -6.82899 0
M  V30 18270 O 1829.64 -0.464631 -8.02556 0
M  V30 18271 H 1829.38 0.288651 -0.611275 0
M  V30 18272 H 1831.93 0.246237 -2.03919 0
M  V30 18273 H 1830.16 2.69243 -2.7757 0
M  V30 18274 H 1831.85 2.54017 -3.16592 0
M  V30 18275 H 1832.61 0.672801 -4.80311 0
M  V30 18276 H 1828.49 1.77044 -4.25648 0
M  V30 18277 H 1832.04 -0.368366 -6.96627 0
M  V30 18278 H 1827.93 0.735372 -6.41298 0
M  V30 18279 H 1828.7 -0.358628 -8.17714 0
M  V30 18280 N 1831.37 1.49742 0.491438 0
M  V30 18281 C 1832.59 1.63703 1.27343 0
M  V30 18282 C 1833.02 0.312079 1.85493 0
M  V30 18283 O 1832.37 -0.721545 1.66323 0
M  V30 18284 C 1832.42 2.71549 2.37262 0
M  V30 18285 O 1831.53 2.31387 3.41371 0
M  V30 18286 H 1830.87 0.547605 0.375533 0
M  V30 18287 H 1833.4 1.95991 0.587243 0
M  V30 18288 H 1833.41 2.94009 2.82883 0
M  V30 18289 H 1832.08 3.6772 1.94306 0
M  V30 18290 H 1830.66 2.19295 3.01603 0
M  V30 18291 N 1832.84 -0.743177 1.38977 0
M  V30 18292 C 1834.09 -1.50479 1.35956 0
M  V30 18293 C 1834.42 -1.94143 -0.0471116 0
M  V30 18294 O 1833.7 -1.66195 -1.01042 0
M  V30 18295 C 1833.98 -2.75016 2.32461 0
M  V30 18296 C 1833.83 -2.37423 3.82034 0
M  V30 18297 C 1835.15 -3.77084 2.26927 0
M  V30 18298 H 1832.27 -0.545869 0.495172 0
M  V30 18299 H 1834.91 -0.850403 1.69906 0
M  V30 18300 H 1833.06 -3.30852 2.03639 0
M  V30 18301 H 1834.74 -1.87282 4.21572 0
M  V30 18302 H 1832.98 -1.69752 3.99208 0
M  V30 18303 H 1833.65 -3.2657 4.45035 0
M  V30 18304 H 1836.13 -3.30812 2.52394 0
M  V30 18305 H 1835 -4.61901 2.96545 0
M  V30 18306 H 1835.26 -4.23419 1.27156 0
M  V30 18307 N 1834.32 -1.24018 -0.972487 0
M  V30 18308 C 1835.29 -1.02941 -2.04782 0
M  V30 18309 C 1836.29 0.0115861 -1.60796 0
M  V30 18310 O 1837.48 -0.228922 -1.72689 0
M  V30 18311 C 1834.61 -0.559246 -3.36282 0
M  V30 18312 H 1835.8 -1.98379 -2.24913 0
M  V30 18313 H 1833.35 -1.06173 -1.14704 0
M  V30 18314 H 1834.09 0.398545 -3.21842 0
M  V30 18315 H 1833.87 -1.31054 -3.6955 0
M  V30 18316 H 1835.36 -0.432669 -4.15353 0
M  V30 18317 N 1835.8 1.17245 -1.05316 0
M  V30 18318 C 1837.05 1.87536 -0.76398 0
M  V30 18319 C 1837.38 1.81115 0.709049 0
M  V30 18320 O 1836.63 1.21473 1.53437 0
M  V30 18321 C 1836.93 3.36958 -1.19138 0
M  V30 18322 C 1836.6 3.63581 -2.66683 0
M  V30 18323 C 1835.26 3.70556 -3.06988 0
M  V30 18324 C 1837.61 3.74954 -3.62021 0
M  V30 18325 C 1834.94 3.86396 -4.41492 0
M  V30 18326 C 1837.29 3.92313 -4.9626 0
M  V30 18327 C 1835.95 3.97527 -5.36217 0
M  V30 18328 H 1835.22 0.686241 -0.27956 0
M  V30 18329 H 1837.87 1.38694 -1.32047 0
M  V30 18330 H 1836.18 3.87865 -0.55391 0
M  V30 18331 H 1837.87 3.8971 -0.944815 0
M  V30 18332 H 1834.46 3.58778 -2.34471 0
M  V30 18333 H 1838.65 3.68885 -3.3202 0
M  V30 18334 H 1833.9 3.88681 -4.7195 0
M  V30 18335 H 1838.08 4.00055 -5.70026 0
M  V30 18336 H 1835.7 4.09553 -6.40445 0
M  V30 18337 N 1837.28 0.834353 1.33702 0
M  V30 18338 C 1838.51 0.440589 2.01847 0
M  V30 18339 C 1838.92 -0.961513 1.62947 0
M  V30 18340 O 1838.26 -1.63556 0.836377 0
M  V30 18341 C 1838.32 0.476396 3.5633 0
M  V30 18342 C 1837.99 1.83382 4.18593 0
M  V30 18343 C 1838.98 2.79638 4.3829 0
M  V30 18344 C 1836.67 2.12543 4.55116 0
M  V30 18345 C 1838.66 4.0322 4.93652 0
M  V30 18346 C 1836.35 3.36382 5.10187 0
M  V30 18347 C 1837.35 4.31537 5.294 0
M  V30 18348 O 1837.03 5.53187 5.833 0
M  V30 18349 H 1836.77 0.173726 0.653296 0
M  V30 18350 H 1839.32 1.1272 1.71707 0
M  V30 18351 H 1837.55 -0.266969 3.85777 0
M  V30 18352 H 1839.24 0.101088 4.05774 0
M  V30 18353 H 1840.01 2.58409 4.10427 0
M  V30 18354 H 1835.88 1.39274 4.39459 0
M  V30 18355 H 1839.43 4.77502 5.08564 0
M  V30 18356 H 1835.33 3.5747 5.3748 0
M  V30 18357 H 1836.09 5.54864 6.01721 0
M  V30 18358 N 1838.76 -1.46125 0.590367 0
M  V30 18359 C 1839.98 -2.07234 0.0828625 0
M  V30 18360 C 1840.41 -1.43498 -1.21614 0
M  V30 18361 O 1839.76 -0.521488 -1.73638 0
M  V30 18362 C 1839.81 -3.60548 -0.0614302 0
M  V30 18363 O 1838.92 -3.97012 -1.11603 0
M  V30 18364 H 1838.26 -0.660685 0.0662654 0
M  V30 18365 H 1840.79 -1.87646 0.815486 0
M  V30 18366 H 1840.8 -4.07137 -0.265161 0
M  V30 18367 H 1839.47 -4.06328 0.887164 0
M  V30 18368 H 1838.05 -3.6212 -0.890146 0
M  V30 18369 N 1840.23 -0.328564 -1.54137 0
M  V30 18370 C 1841.16 0.527734 -2.27458 0
M  V30 18371 C 1842.15 1.11518 -1.28444 0
M  V30 18372 O 1843.33 1.13938 -1.57264 0
M  V30 18373 C 1840.46 1.68628 -3.03615 0
M  V30 18374 C 1839.41 1.22789 -4.10008 0
M  V30 18375 C 1838.74 2.47378 -4.74034 0
M  V30 18376 C 1840.04 0.339152 -5.21198 0
M  V30 18377 H 1841.73 -0.0838808 -2.99282 0
M  V30 18378 H 1839.28 -0.0417829 -1.43939 0
M  V30 18379 H 1841.23 2.29165 -3.5364 0
M  V30 18380 H 1839.96 2.32456 -2.29416 0
M  V30 18381 H 1838.62 0.645427 -3.60874 0
M  V30 18382 H 1838.26 3.09581 -3.96445 0
M  V30 18383 H 1837.96 2.17396 -5.45905 0
M  V30 18384 H 1839.49 3.08668 -5.26836 0
M  V30 18385 H 1840.9 0.850947 -5.6695 0
M  V30 18386 H 1839.3 0.131892 -5.99955 0
M  V30 18387 H 1840.37 -0.628692 -4.80807 0
M  V30 18388 N 1841.71 1.57497 -0.0568439 0
M  V30 18389 C 1842.99 1.84277 0.655847 0
M  V30 18390 C 1843.37 0.94638 1.88698 0
M  V30 18391 O 1842.72 0.00884889 2.28498 0
M  V30 18392 C 1842.93 3.34134 1.00775 0
M  V30 18393 C 1844.28 4.01286 1.38763 0
M  V30 18394 O 1845.3 3.38792 1.09992 0
M  V30 18395 O 1844.16 5.11482 1.92479 0
M  V30 18396 H 1841.25 0.760773 0.324275 0
M  V30 18397 H 1843.8 1.69479 -0.0866388 0
M  V30 18398 H 1842.57 3.91075 0.132718 0
M  V30 18399 H 1842.19 3.5414 1.80749 0
M  V30 18400 N 1843.19 -0.216591 1.56105 0
M  V30 18401 C 1844.44 -0.938392 1.78993 0
M  V30 18402 C 1844.76 -1.84671 0.626215 0
M  V30 18403 O 1844.03 -1.92626 -0.356636 0
M  V30 18404 H 1842.61 -0.349491 0.660201 0
M  V30 18405 H 1845.27 -0.227256 1.93571 0
M  V30 18406 H 1844.37 -1.54227 2.71331 0
M  V30 18407 N 1844.67 -1.5 -0.48349 0
M  V30 18408 C 1845.91 -1.60606 -1.23829 0
M  V30 18409 C 1846.25 -0.299778 -1.91872 0
M  V30 18410 O 1845.52 0.697925 -1.81547 0
M  V30 18411 C 1845.81 -2.77769 -2.29165 0
M  V30 18412 C 1845.66 -4.18243 -1.65507 0
M  V30 18413 C 1846.98 -2.90521 -3.30584 0
M  V30 18414 H 1844.1 -0.584561 -0.44884 0
M  V30 18415 H 1846.74 -1.82346 -0.533855 0
M  V30 18416 H 1844.89 -2.59364 -2.89245 0
M  V30 18417 H 1846.56 -4.48208 -1.09119 0
M  V30 18418 H 1844.8 -4.23077 -0.958577 0
M  V30 18419 H 1845.47 -4.96128 -2.41994 0
M  V30 18420 H 1847.95 -3.0733 -2.80513 0
M  V30 18421 H 1846.83 -3.74146 -4.0163 0
M  V30 18422 H 1847.09 -2.00609 -3.93965 0
M  V30 18423 N 1846.15 0.735796 -1.39369 0
M  V30 18424 C 1847.39 1.49239 -1.3628 0
M  V30 18425 C 1847.72 1.94957 0.0408659 0
M  V30 18426 O 1846.99 1.68929 0.991959 0
M  V30 18427 H 1845.57 0.553626 -0.501506 0
M  V30 18428 H 1848.23 0.873549 -1.74227 0
M  V30 18429 H 1847.32 2.37488 -2.02499 0
M  V30 18430 N 1847.63 1.24532 0.965897 0
M  V30 18431 C 1848.85 1.11318 1.74401 0
M  V30 18432 C 1849.27 -0.33411 1.8582 0
M  V30 18433 O 1848.63 -1.23044 1.34783 0
M  V30 18434 C 1848.68 1.74927 3.16358 0
M  V30 18435 O 1848.4 3.13998 3.05511 0
M  V30 18436 C 1849.9 1.67347 4.105 0
M  V30 18437 H 1847.12 0.388835 0.546853 0
M  V30 18438 H 1849.66 1.64674 1.21255 0
M  V30 18439 H 1847.82 1.2557 3.66485 0
M  V30 18440 H 1848.23 3.45097 3.94979 0
M  V30 18441 H 1849.71 2.16533 5.07757 0
M  V30 18442 H 1850.18 0.635036 4.34585 0
M  V30 18443 H 1850.79 2.16139 3.66284 0
M  V30 18444 N 1849.1 -1.16685 1.05936 0
M  V30 18445 C 1850.33 -1.91576 0.794558 0
M  V30 18446 C 1850.75 -1.76706 -0.644718 0
M  V30 18447 O 1850.11 -1.0899 -1.44882 0
M  V30 18448 C 1850.16 -3.40417 1.18947 0
M  V30 18449 O 1849.26 -4.11109 0.326091 0
M  V30 18450 H 1848.6 -0.596983 0.290702 0
M  V30 18451 H 1851.13 -1.47856 1.4142 0
M  V30 18452 H 1851.14 -3.91178 1.15947 0
M  V30 18453 H 1849.82 -3.5056 2.23786 0
M  V30 18454 H 1848.4 -3.70557 0.417347 0
M  V30 18455 N 1850.58 -0.841432 -1.33258 0
M  V30 18456 C 1851.53 -0.265077 -2.31085 0
M  V30 18457 C 1852.52 0.604339 -1.58253 0
M  V30 18458 O 1853.73 0.493615 -1.731 0
M  V30 18459 H 1850.1 -0.0669974 -0.74901 0
M  V30 18460 H 1852.08 -1.10464 -2.77201 0
M  V30 18461 C 1850.82 0.542926 -3.43435 0
M  V30 18462 H 1850.15 -0.116767 -3.99629 0
M  V30 18463 H 1851.59 0.912004 -4.14075 0
M  V30 18464 C 1850.05 1.72284 -2.89517 0
M  V30 18465 O 1850.58 2.82161 -2.85916 0
M  V30 18466 N 1848.78 1.54557 -2.4609 0
M  V30 18467 H 1848.33 0.651752 -2.49219 0
M  V30 18468 H 1848.29 2.33651 -2.10367 0
M  V30 18469 N 1852.06 1.4581 -0.598108 0
M  V30 18470 C 1853.31 2.02302 -0.0896112 0
M  V30 18471 C 1853.63 1.46772 1.27625 0
M  V30 18472 O 1852.89 0.628712 1.85326 0
M  V30 18473 C 1853.19 3.57399 0.00976809 0
M  V30 18474 C 1852.85 4.32038 -1.29051 0
M  V30 18475 C 1851.52 4.52147 -1.64671 0
M  V30 18476 C 1853.87 4.74776 -2.15028 0
M  V30 18477 C 1851.2 5.12249 -2.86038 0
M  V30 18478 C 1853.55 5.3622 -3.35635 0
M  V30 18479 C 1852.21 5.54554 -3.71519 0
M  V30 18480 H 1851.48 0.740274 -0.0327911 0
M  V30 18481 H 1854.13 1.74992 -0.77783 0
M  V30 18482 H 1852.43 3.83933 0.781201 0
M  V30 18483 H 1854.13 3.98803 0.419212 0
M  V30 18484 H 1850.72 4.16693 -1.00324 0
M  V30 18485 H 1854.91 4.58982 -1.8881 0
M  V30 18486 H 1850.16 5.24633 -3.13958 0
M  V30 18487 H 1854.34 5.68292 -4.02514 0
M  V30 18488 H 1851.96 6.00894 -4.65651 0
M  V30 18489 N 1853.54 0.336733 1.53961 0
M  V30 18490 C 1854.45 -0.531812 2.28493 0
M  V30 18491 C 1855.46 -1.11784 1.33343 0
M  V30 18492 O 1856.64 -1.13499 1.66373 0
M  V30 18493 C 1853.7 -1.67031 3.03812 0
M  V30 18494 C 1852.77 -1.11475 4.14574 0
M  V30 18495 C 1852 -2.19898 4.86292 0
M  V30 18496 O 1852.22 -3.40492 4.57625 0
M  V30 18497 O 1851.16 -1.84576 5.72901 0
M  V30 18498 H 1854.98 0.0738624 3.0361 0
M  V30 18499 H 1852.57 0.101996 1.49051 0
M  V30 18500 H 1854.45 -2.33286 3.50936 0
M  V30 18501 H 1853.12 -2.26192 2.31558 0
M  V30 18502 H 1852.03 -0.416915 3.7177 0
M  V30 18503 H 1853.36 -0.568092 4.88911 0
M  V30 18504 N 1855.02 -1.57465 0.0651956 0
M  V30 18505 C 1856.43 -1.80728 -0.468449 0
M  V30 18506 C 1856.78 -0.978581 -1.70054 0
M  V30 18507 O 1855.9 -0.199186 -2.15481 0
M  V30 18508 C 1856.5 -3.27791 -0.856641 0
M  V30 18509 C 1855.06 -3.51923 -1.33519 0
M  V30 18510 C 1854.2 -2.7548 -0.317147 0
M  V30 18511 H 1857.15 -1.5601 0.290955 0
M  V30 18512 H 1857.18 -3.39479 -1.71855 0
M  V30 18513 H 1856.69 -3.88079 0.0402823 0
M  V30 18514 H 1854.79 -2.96932 -2.25083 0
M  V30 18515 H 1854.9 -4.60624 -1.31767 0
M  V30 18516 H 1853.27 -2.4204 -0.793026 0
M  V30 18517 H 1854.05 -3.38502 0.571935 0
M  V30 18518 N 1856.49 0.20831 -1.56217 0
M  V30 18519 C 1857.43 1.28196 -1.89996 0
M  V30 18520 C 1858.44 1.42381 -0.789394 0
M  V30 18521 O 1859.63 1.43043 -1.06776 0
M  V30 18522 C 1856.73 2.65588 -2.10514 0
M  V30 18523 C 1855.9 2.73181 -3.416 0
M  V30 18524 C 1854.96 3.91678 -3.5139 0
M  V30 18525 O 1853.99 3.79397 -4.24319 0
M  V30 18526 N 1855.19 5.06562 -2.83505 0
M  V30 18527 H 1857.95 0.995403 -2.82687 0
M  V30 18528 H 1855.51 0.398294 -1.56924 0
M  V30 18529 H 1857.51 3.43264 -2.14365 0
M  V30 18530 H 1856.08 2.86788 -1.24385 0
M  V30 18531 H 1855.3 1.81881 -3.49733 0
M  V30 18532 H 1856.58 2.75234 -4.27929 0
M  V30 18533 H 1855.98 5.19437 -2.24056 0
M  V30 18534 H 1854.54 5.82232 -2.93 0
M  V30 18535 N 1857.97 1.50255 0.475528 0
M  V30 18536 C 1859.22 1.61261 1.22975 0
M  V30 18537 C 1859.55 0.309949 1.91711 0
M  V30 18538 O 1858.83 -0.688288 1.81914 0
M  V30 18539 C 1859.11 2.7898 2.27688 0
M  V30 18540 C 1858.96 4.19115 1.63287 0
M  V30 18541 C 1860.28 2.9227 3.29038 0
M  V30 18542 H 1857.4 0.586933 0.445734 0
M  V30 18543 H 1860.04 1.82626 0.524177 0
M  V30 18544 H 1858.19 2.60894 2.87865 0
M  V30 18545 H 1859.86 4.48781 1.06741 0
M  V30 18546 H 1858.11 4.23579 0.936127 0
M  V30 18547 H 1858.78 4.97405 2.39359 0
M  V30 18548 H 1861.25 3.08813 2.78879 0
M  V30 18549 H 1860.13 3.7627 3.9964 0
M  V30 18550 H 1860.39 2.02696 3.92895 0
M  V30 18551 N 1859.45 -0.728395 1.39758 0
M  V30 18552 C 1860.38 -1.85554 1.41747 0
M  V30 18553 C 1861.36 -1.6778 0.279972 0
M  V30 18554 O 1862.55 -1.88001 0.48675 0
M  V30 18555 C 1859.68 -3.23375 1.26671 0
M  V30 18556 C 1858.63 -3.55799 2.37889 0
M  V30 18557 C 1857.96 -4.92628 2.07899 0
M  V30 18558 C 1859.26 -3.58098 3.80215 0
M  V30 18559 H 1860.95 -1.84146 2.36073 0
M  V30 18560 H 1858.5 -0.884539 1.13631 0
M  V30 18561 H 1860.45 -4.01907 1.26682 0
M  V30 18562 H 1859.17 -3.25326 0.288159 0
M  V30 18563 H 1857.83 -2.796 2.37107 0
M  V30 18564 H 1857.48 -4.91166 1.08466 0
M  V30 18565 H 1857.18 -5.15288 2.82404 0
M  V30 18566 H 1858.7 -5.73509 2.09571 0
M  V30 18567 H 1860.12 -4.26694 3.82891 0
M  V30 18568 H 1858.51 -3.9228 4.54133 0
M  V30 18569 H 1859.58 -2.57758 4.10718 0
M  V30 18570 N 1860.93 -1.25042 -0.959279 0
M  V30 18571 C 1862.18 -1.08912 -1.69768 0
M  V30 18572 C 1862.49 0.370558 -1.92058 0
M  V30 18573 O 1863.7 0.652214 -2.6355 0
M  V30 18574 C 1862.15 -1.90075 -3.05613 0
M  V30 18575 C 1861.76 -3.40506 -2.91136 0
M  V30 18576 C 1863.5 -1.825 -3.83268 0
M  V30 18577 C 1861.41 -4.13982 -4.22343 0
M  V30 18578 H 1860.34 -0.403959 -0.636658 0
M  V30 18579 H 1862.99 -1.49198 -1.06828 0
M  V30 18580 H 1861.37 -1.42609 -3.6943 0
M  V30 18581 H 1862.55 -3.95612 -2.36279 0
M  V30 18582 H 1860.86 -3.49123 -2.2694 0
M  V30 18583 H 1863.46 -2.34693 -4.80441 0
M  V30 18584 H 1863.8 -0.791947 -4.08698 0
M  V30 18585 H 1864.34 -2.27691 -3.26192 0
M  V30 18586 H 1861.07 -5.17681 -4.02103 0
M  V30 18587 H 1860.59 -3.6366 -4.76982 0
M  V30 18588 H 1862.27 -4.21443 -4.90913 0
M  V30 18589 N 1862.41 1.16121 -1.06553 0
M  V30 18590 C 1863.35 2.20597 -0.678659 0
M  V30 18591 C 1864.32 1.6287 0.325988 0
M  V30 18592 O 1865.51 1.89593 0.214278 0
M  V30 18593 C 1862.65 3.45021 -0.0740442 0
M  V30 18594 C 1861.76 4.16981 -1.12919 0
M  V30 18595 C 1860.9 5.28931 -0.490435 0
M  V30 18596 C 1859.94 5.92697 -1.52893 0
M  V30 18597 N 1859.07 6.96134 -0.913346 0
M  V30 18598 H 1863.91 2.53041 -1.57398 0
M  V30 18599 H 1861.45 1.24282 -0.786923 0
M  V30 18600 H 1863.41 4.16162 0.294059 0
M  V30 18601 H 1862.04 3.13118 0.784671 0
M  V30 18602 H 1861.09 3.44417 -1.61496 0
M  V30 18603 H 1862.4 4.60495 -1.91693 0
M  V30 18604 H 1861.56 6.0666 -0.0695112 0
M  V30 18605 H 1860.29 4.86588 0.329154 0
M  V30 18606 H 1859.3 5.13688 -1.95972 0
M  V30 18607 H 1860.52 6.37119 -2.35066 0
M  V30 18608 H 1858.47 6.559 -0.114515 0
M  V30 18609 H 1858.39 7.38032 -1.63843 0
M  V30 18610 H 1859.66 7.77779 -0.517655 0
M  V30 18611 N 1863.88 0.848487 1.3281 0
M  V30 18612 C 1865.13 0.44797 1.97073 0
M  V30 18613 C 1865.45 -0.998358 1.67505 0
M  V30 18614 O 1864.72 -1.69683 0.97901 0
M  V30 18615 H 1863.3 0.162663 0.729075 0
M  V30 18616 H 1865.97 1.08356 1.62003 0
M  V30 18617 H 1865.06 0.587939 3.06512 0
M  V30 18618 N 1865.36 -1.4549 0.605832 0
M  V30 18619 C 1866.61 -2.01852 0.10014 0
M  V30 18620 C 1866.93 -1.47699 -1.27319 0
M  V30 18621 O 1866.2 -0.670571 -1.84066 0
M  V30 18622 H 1864.78 -0.746225 0.0340291 0
M  V30 18623 H 1867.44 -1.78311 0.786834 0
M  V30 18624 H 1866.54 -3.12062 0.0485925 0
M  V30 18625 N 1866.84 -0.344893 -1.5378 0
M  V30 18626 C 1868.26 0.00698009 -1.59598 0
M  V30 18627 C 1868.46 1.48608 -1.36081 0
M  V30 18628 O 1867.51 2.24498 -1.15573 0
M  V30 18629 C 1868.83 -0.430402 -2.97604 0
M  V30 18630 C 1870.37 -0.38286 -3.1065 0
M  V30 18631 C 1870.85 -0.795731 -4.51035 0
M  V30 18632 N 1872.34 -0.74997 -4.57088 0
M  V30 18633 C 1873.07 -1.04137 -5.63864 0
M  V30 18634 N 1872.57 -1.401 -6.78487 0
M  V30 18635 N 1874.36 -0.965521 -5.53746 0
M  V30 18636 H 1866.51 -1.30834 -1.67321 0
M  V30 18637 H 1868.78 -0.533422 -0.783686 0
M  V30 18638 H 1868.48 -1.46174 -3.19884 0
M  V30 18639 H 1868.36 0.193696 -3.76702 0
M  V30 18640 H 1870.74 0.639311 -2.88092 0
M  V30 18641 H 1870.83 -1.04218 -2.33607 0
M  V30 18642 H 1870.47 -1.81592 -4.74328 0
M  V30 18643 H 1870.4 -0.113876 -5.26477 0
M  V30 18644 H 1872.89 -0.48474 -3.74778 0
M  V30 18645 H 1873.2 -1.60815 -7.55882 0
M  V30 18646 H 1871.55 -1.43946 -6.7993 0
M  V30 18647 H 1874.74 -0.683902 -4.63077 0
M  V30 18648 H 1874.91 -1.19596 -6.36868 0
M  V30 18649 N 1868.32 1.57428 -0.0735454 0
M  V30 18650 C 1869.57 1.92732 0.594748 0
M  V30 18651 C 1869.88 0.955693 1.70663 0
M  V30 18652 O 1871.09 1.20162 2.43461 0
M  V30 18653 C 1869.54 3.42379 1.10927 0
M  V30 18654 C 1869.15 4.47991 0.0283008 0
M  V30 18655 C 1870.89 3.8668 1.75153 0
M  V30 18656 C 1868.8 5.88771 0.556965 0
M  V30 18657 H 1867.73 0.719355 0.22593 0
M  V30 18658 H 1870.38 1.82918 -0.146063 0
M  V30 18659 H 1868.76 3.47272 1.9031 0
M  V30 18660 H 1869.94 4.54716 -0.74634 0
M  V30 18661 H 1868.25 4.13168 -0.517835 0
M  V30 18662 H 1870.85 4.89244 2.15741 0
M  V30 18663 H 1871.19 3.24144 2.61221 0
M  V30 18664 H 1871.73 3.84397 1.02389 0
M  V30 18665 H 1868.47 6.54958 -0.266602 0
M  V30 18666 H 1867.99 5.85563 1.29909 0
M  V30 18667 H 1869.66 6.38703 1.03281 0
M  V30 18668 N 1869.8 -0.200022 1.56326 0
M  V30 18669 C 1871.21 -0.550653 1.498 0
M  V30 18670 C 1871.41 -1.86097 0.772664 0
M  V30 18671 O 1870.47 -2.50449 0.321155 0
M  V30 18672 C 1871.78 -0.60995 2.94449 0
M  V30 18673 C 1873.33 -0.699119 3.05092 0
M  V30 18674 C 1873.8 -0.78957 4.51143 0
M  V30 18675 N 1875.3 -0.853228 4.55274 0
M  V30 18676 C 1876.03 -0.943298 5.65588 0
M  V30 18677 N 1875.53 -0.995976 6.85603 0
M  V30 18678 N 1877.32 -0.980106 5.53489 0
M  V30 18679 H 1869.47 0.659543 2.019 0
M  V30 18680 H 1871.73 0.234299 0.91859 0
M  V30 18681 H 1871.44 0.283651 3.50554 0
M  V30 18682 H 1871.31 -1.46632 3.47533 0
M  V30 18683 H 1873.7 -1.58315 2.49039 0
M  V30 18684 H 1873.78 0.183351 2.55142 0
M  V30 18685 H 1873.43 0.0900924 5.0782 0
M  V30 18686 H 1873.36 -1.68777 4.9882 0
M  V30 18687 H 1875.85 -0.821964 3.68853 0
M  V30 18688 H 1876.16 -1.06508 7.65425 0
M  V30 18689 H 1874.5 -0.964738 6.88272 0
M  V30 18690 H 1877.7 -0.935755 4.58652 0
M  V30 18691 H 1877.87 -1.04684 6.39488 0
M  V30 18692 N 1871.27 -1.50505 -0.467553 0
M  V30 18693 C 1872.22 -1.69626 -1.56511 0
M  V30 18694 C 1873.19 -0.537594 -1.5716 0
M  V30 18695 O 1874.38 -0.768574 -1.74636 0
M  V30 18696 C 1871.52 -1.79965 -2.9446 0
M  V30 18697 C 1870.63 -3.07356 -3.03572 0
M  V30 18698 C 1869.76 -3.08469 -4.32458 0
M  V30 18699 C 1868.8 -4.303 -4.35326 0
M  V30 18700 N 1867.94 -4.29132 -5.55689 0
M  V30 18701 H 1872.78 -2.63326 -1.39511 0
M  V30 18702 H 1870.32 -1.30531 -0.678239 0
M  V30 18703 H 1872.28 -1.8394 -3.74462 0
M  V30 18704 H 1870.91 -0.897013 -3.10086 0
M  V30 18705 H 1869.96 -3.12836 -2.16421 0
M  V30 18706 H 1871.27 -3.97327 -3.01551 0
M  V30 18707 H 1870.42 -3.11193 -5.20811 0
M  V30 18708 H 1869.16 -2.16335 -4.37093 0
M  V30 18709 H 1868.17 -4.27784 -3.4537 0
M  V30 18710 H 1869.39 -5.23665 -4.3238 0
M  V30 18711 H 1867.34 -3.39853 -5.61102 0
M  V30 18712 H 1867.26 -5.12875 -5.55423 0
M  V30 18713 H 1868.52 -4.36007 -6.46156 0
M  V30 18714 N 1872.75 0.720973 -1.40142 0
M  V30 18715 C 1873.68 1.8457 -1.35891 0
M  V30 18716 C 1874.7 1.60625 -0.265232 0
M  V30 18717 O 1875.89 1.70599 -0.525198 0
M  V30 18718 C 1872.99 3.20871 -1.09064 0
M  V30 18719 C 1872.16 3.72058 -2.29982 0
M  V30 18720 C 1871.22 4.86957 -1.99397 0
M  V30 18721 O 1870.24 4.99888 -2.72213 0
M  V30 18722 N 1871.45 5.72361 -0.968645 0
M  V30 18723 H 1874.21 1.88717 -2.32822 0
M  V30 18724 H 1871.77 0.902293 -1.34426 0
M  V30 18725 H 1873.76 3.95326 -0.865979 0
M  V30 18726 H 1872.33 3.11906 -0.208188 0
M  V30 18727 H 1871.55 2.88795 -2.68312 0
M  V30 18728 H 1872.84 4.02991 -3.10605 0
M  V30 18729 H 1872.24 5.64518 -0.36546 0
M  V30 18730 H 1870.8 6.46824 -0.803886 0
M  V30 18731 N 1874.23 1.25549 0.952634 0
M  V30 18732 C 1875.48 1.1058 1.7 0
M  V30 18733 C 1875.81 -0.35206 1.90982 0
M  V30 18734 O 1875.08 -1.25938 1.48222 0
M  V30 18735 C 1875.37 1.86283 3.08173 0
M  V30 18736 C 1875.22 3.39909 2.94588 0
M  V30 18737 C 1876.54 1.64755 4.08098 0
M  V30 18738 H 1873.66 0.403095 0.616996 0
M  V30 18739 H 1876.3 1.54406 1.1072 0
M  V30 18740 H 1874.45 1.49033 3.58778 0
M  V30 18741 H 1876.12 3.86845 2.51294 0
M  V30 18742 H 1874.37 3.67518 2.30462 0
M  V30 18743 H 1875.04 3.88094 3.92539 0
M  V30 18744 H 1877.51 1.97186 3.66411 0
M  V30 18745 H 1876.39 2.20157 5.02814 0
M  V30 18746 H 1876.65 0.589348 4.38154 0
M  V30 18747 N 1875.71 -1.15554 1.07168 0
M  V30 18748 C 1876.96 -1.85639 0.788727 0
M  V30 18749 C 1877.27 -1.83114 -0.687656 0
M  V30 18750 O 1878.48 -2.48864 -1.08531 0
M  V30 18751 C 1876.93 -3.3318 1.36084 0
M  V30 18752 C 1876.54 -3.44157 2.8681 0
M  V30 18753 C 1878.28 -4.08462 1.15582 0
M  V30 18754 C 1876.19 -4.85835 3.37222 0
M  V30 18755 H 1875.12 -0.695427 0.29137 0
M  V30 18756 H 1877.77 -1.30354 1.29151 0
M  V30 18757 H 1876.15 -3.88125 0.785802 0
M  V30 18758 H 1877.33 -2.99328 3.50342 0
M  V30 18759 H 1875.64 -2.82318 3.06081 0
M  V30 18760 H 1878.24 -5.13017 1.50725 0
M  V30 18761 H 1878.58 -4.16192 0.0947449 0
M  V30 18762 H 1879.12 -3.59781 1.69712 0
M  V30 18763 H 1875.86 -4.83287 4.42847 0
M  V30 18764 H 1875.38 -5.31253 2.78443 0
M  V30 18765 H 1877.05 -5.54684 3.33068 0
M  V30 18766 N 1877.19 -0.855519 -1.32358 0
M  V30 18767 C 1878.42 -0.472645 -2.01121 0
M  V30 18768 C 1878.83 0.935468 -1.64456 0
M  V30 18769 O 1878.17 1.62204 -0.862292 0
M  V30 18770 C 1878.23 -0.533025 -3.55527 0
M  V30 18771 C 1877.89 -1.90018 -4.15622 0
M  V30 18772 C 1878.89 -2.86576 -4.33786 0
M  V30 18773 C 1876.58 -2.19756 -4.51677 0
M  V30 18774 C 1878.57 -4.11023 -4.87175 0
M  V30 18775 C 1876.26 -3.44456 -5.0477 0
M  V30 18776 C 1877.26 -4.39905 -5.22468 0
M  V30 18777 O 1876.94 -5.62397 -5.74426 0
M  V30 18778 H 1876.68 -0.184097 -0.650449 0
M  V30 18779 H 1879.23 -1.15437 -1.69892 0
M  V30 18780 H 1877.46 0.205561 -3.86153 0
M  V30 18781 H 1879.15 -0.165631 -4.05562 0
M  V30 18782 H 1879.91 -2.64905 -4.06264 0
M  V30 18783 H 1875.79 -1.46247 -4.37187 0
M  V30 18784 H 1879.34 -4.85532 -5.00903 0
M  V30 18785 H 1875.23 -3.65976 -5.31725 0
M  V30 18786 H 1876 -5.64367 -5.92817 0
M  V30 18787 N 1878.67 1.45167 -0.61354 0
M  V30 18788 C 1879.6 2.27701 0.150791 0
M  V30 18789 C 1880.58 1.37493 0.868012 0
M  V30 18790 O 1881.76 1.66926 0.875677 0
M  V30 18791 C 1878.89 3.16008 1.21887 0
M  V30 18792 C 1877.93 4.222 0.604131 0
M  V30 18793 S 1878.77 5.32212 -0.592512 0
M  V30 18794 C 1879.92 6.24087 0.476016 0
M  V30 18795 H 1880.16 2.92179 -0.549425 0
M  V30 18796 H 1877.69 1.49096 -0.401218 0
M  V30 18797 H 1879.65 3.67441 1.83022 0
M  V30 18798 H 1878.31 2.50784 1.89119 0
M  V30 18799 H 1877.5 4.83934 1.40797 0
M  V30 18800 H 1877.1 3.73939 0.0677896 0
M  V30 18801 H 1879.39 6.63843 1.35346 0
M  V30 18802 H 1880.34 7.08022 -0.105315 0
M  V30 18803 H 1880.75 5.58888 0.794018 0
M  V30 18804 N 1880.14 0.353044 1.53595 0
M  V30 18805 C 1881.42 -0.296304 1.93343 0
M  V30 18806 C 1881.8 -1.67448 1.28548 0
M  V30 18807 O 1881.15 -2.24226 0.4399 0
M  V30 18808 C 1881.36 -0.359079 3.47148 0
M  V30 18809 C 1882.71 -0.605406 4.20262 0
M  V30 18810 O 1883.73 -0.440805 3.53462 0
M  V30 18811 O 1882.59 -0.92496 5.38616 0
M  V30 18812 H 1879.68 -0.174879 0.808298 0
M  V30 18813 H 1882.23 0.404914 1.64798 0
M  V30 18814 H 1881 0.607684 3.86553 0
M  V30 18815 H 1880.62 -1.1067 3.81887 0
M  V30 18816 N 1881.62 -1.57387 0.0818932 0
M  V30 18817 C 1882.58 -2.12162 -0.86718 0
M  V30 18818 C 1883.58 -1.04788 -1.21967 0
M  V30 18819 O 1884.77 -1.30733 -1.15128 0
M  V30 18820 C 1881.91 -2.63132 -2.16736 0
M  V30 18821 H 1883.1 -2.9733 -0.391788 0
M  V30 18822 H 1880.65 -1.55406 -0.166944 0
M  V30 18823 H 1881.39 -1.81446 -2.6879 0
M  V30 18824 H 1881.17 -3.41625 -1.92445 0
M  V30 18825 H 1882.66 -3.05549 -2.84657 0
M  V30 18826 N 1883.1 0.191729 -1.56429 0
M  V30 18827 C 1884.51 0.756099 -1.70705 0
M  V30 18828 C 1884.86 1.83703 -0.689029 0
M  V30 18829 O 1883.99 2.15852 0.153863 0
M  V30 18830 C 1884.58 1.37827 -3.09498 0
M  V30 18831 C 1883.14 1.88968 -3.25527 0
M  V30 18832 C 1882.29 0.76089 -2.66657 0
M  V30 18833 H 1885.24 -0.0333918 -1.58665 0
M  V30 18834 H 1885.26 2.24771 -3.07015 0
M  V30 18835 H 1884.77 0.591316 -3.83569 0
M  V30 18836 H 1882.87 2.70372 -2.56378 0
M  V30 18837 H 1882.99 2.04916 -4.33066 0
M  V30 18838 H 1881.35 1.17606 -2.25923 0
M  V30 18839 H 1882.13 -0.0138776 -3.43297 0
M  V30 18840 N 1884.58 1.50751 0.459565 0
M  V30 18841 C 1885.54 1.69889 1.53852 0
M  V30 18842 C 1886.54 0.569308 1.50385 0
M  V30 18843 O 1887.73 0.836527 1.528 0
M  V30 18844 C 1884.86 1.73481 2.93457 0
M  V30 18845 H 1886.06 2.66162 1.38195 0
M  V30 18846 H 1883.61 1.40405 0.686741 0
M  V30 18847 H 1884.34 0.789426 3.14545 0
M  V30 18848 H 1884.13 2.55553 2.97381 0
M  V30 18849 H 1885.62 1.90202 3.7177 0
M  V30 18850 N 1886.06 -0.713531 1.40522 0
M  V30 18851 C 1887.47 -1.29276 1.34702 0
M  V30 18852 C 1887.82 -1.96188 0.0214862 0
M  V30 18853 O 1886.94 -1.97676 -0.880513 0
M  V30 18854 C 1887.54 -2.35082 2.43971 0
M  V30 18855 C 1886.1 -2.88624 2.41605 0
M  V30 18856 C 1885.24 -1.62437 2.24743 0
M  V30 18857 H 1888.19 -0.509517 1.50298 0
M  V30 18858 H 1888.22 -3.15971 2.11996 0
M  V30 18859 H 1887.73 -1.86353 3.40432 0
M  V30 18860 H 1885.83 -3.41578 1.48847 0
M  V30 18861 H 1885.94 -3.40278 3.37265 0
M  V30 18862 H 1884.31 -1.8758 1.72296 0
M  V30 18863 H 1885.09 -1.1573 3.23205 0
M  V30 18864 N 1887.53 -1.26053 -0.945962 0
M  V30 18865 C 1888.44 -1.08959 -2.07762 0
M  V30 18866 C 1889.46 -0.0243726 -1.73983 0
M  V30 18867 O 1890.64 -0.227113 -2.00115 0
M  V30 18868 C 1887.7 -0.719365 -3.39155 0
M  V30 18869 C 1886.76 -1.86347 -3.86747 0
M  V30 18870 C 1885.99 -1.51082 -5.11869 0
M  V30 18871 O 1886.22 -0.410377 -5.68922 0
M  V30 18872 O 1885.15 -2.34395 -5.54385 0
M  V30 18873 H 1888.98 -2.03884 -2.25089 0
M  V30 18874 H 1886.56 -1.05071 -1.0621 0
M  V30 18875 H 1888.44 -0.525412 -4.18112 0
M  V30 18876 H 1887.12 0.20054 -3.23078 0
M  V30 18877 H 1886.03 -2.11235 -3.08756 0
M  V30 18878 H 1887.36 -2.76293 -4.07336 0
M  V30 18879 N 1889.01 1.14984 -1.07779 0
M  V30 18880 C 1889.96 2.2193 -0.696405 0
M  V30 18881 C 1890.95 1.66815 0.294832 0
M  V30 18882 O 1892.16 1.79305 0.158081 0
M  V30 18883 H 1888.53 0.722908 -0.207143 0
M  V30 18884 H 1890.51 2.51374 -1.60791 0
M  V30 18885 C 1889.25 3.4751 -0.114943 0
M  V30 18886 H 1888.58 3.90245 -0.86883 0
M  V30 18887 H 1890.02 4.23846 0.114195 0
M  V30 18888 C 1888.48 3.16827 1.14552 0
M  V30 18889 O 1889.01 3.34026 2.23135 0
M  V30 18890 N 1887.21 2.70836 1.05339 0
M  V30 18891 H 1886.76 2.5704 0.169728 0
M  V30 18892 H 1886.72 2.50681 1.89754 0
M  V30 18893 N 1890.49 0.862526 1.31902 0
M  V30 18894 C 1891.74 0.468847 1.96586 0
M  V30 18895 C 1892.06 -0.980535 1.68554 0
M  V30 18896 O 1891.33 -1.68635 0.996952 0
M  V30 18897 H 1889.91 0.170387 0.727308 0
M  V30 18898 H 1892.57 1.10068 1.60845 0
M  V30 18899 H 1891.67 0.620415 3.05871 0
M  V30 18900 N 1891.97 -1.4484 0.62123 0
M  V30 18901 C 1893.21 -2.02433 0.121965 0
M  V30 18902 C 1893.55 -1.48679 -1.24932 0
M  V30 18903 O 1892.82 -0.666887 -1.8271 0
M  V30 18904 C 1893.11 -3.59967 0.0978513 0
M  V30 18905 C 1892.96 -4.24025 1.50077 0
M  V30 18906 C 1894.28 -4.36224 -0.582838 0
M  V30 18907 H 1891.4 -0.735576 0.0457947 0
M  V30 18908 H 1894.04 -1.72531 0.795812 0
M  V30 18909 H 1892.19 -3.85573 -0.47597 0
M  V30 18910 H 1893.86 -4.09558 2.12272 0
M  V30 18911 H 1892.1 -3.819 2.05754 0
M  V30 18912 H 1892.77 -5.32994 1.43602 0
M  V30 18913 H 1895.25 -4.15992 -0.0949595 0
M  V30 18914 H 1894.13 -5.45944 -0.568863 0
M  V30 18915 H 1894.39 -4.10098 -1.65142 0
M  V30 18916 N 1893.45 -0.361184 -1.53405 0
M  V30 18917 C 1894.86 -0.00994785 -1.59597 0
M  V30 18918 C 1895.06 1.47156 -1.37649 0
M  V30 18919 O 1894.12 2.23259 -1.17947 0
M  V30 18920 C 1895.43 -0.461942 -2.97131 0
M  V30 18921 C 1896.98 -0.415787 -3.10226 0
M  V30 18922 C 1897.45 -0.843524 -4.50165 0
M  V30 18923 N 1898.95 -0.798408 -4.56267 0
M  V30 18924 C 1899.68 -1.10112 -5.62728 0
M  V30 18925 N 1899.18 -1.47288 -6.76962 0
M  V30 18926 N 1900.97 -1.0242 -5.5269 0
M  V30 18927 H 1893.12 -1.32601 -1.65924 0
M  V30 18928 H 1895.38 -0.541705 -0.777985 0
M  V30 18929 H 1895.09 -1.49559 -3.18316 0
M  V30 18930 H 1894.96 0.15373 -3.76887 0
M  V30 18931 H 1897.35 0.608719 -2.88754 0
M  V30 18932 H 1897.43 -1.0669 -2.32489 0
M  V30 18933 H 1897.08 -1.86612 -4.72375 0
M  V30 18934 H 1897.01 -0.16971 -5.26326 0
M  V30 18935 H 1899.5 -0.524463 -3.74243 0
M  V30 18936 H 1899.81 -1.68824 -7.54134 0
M  V30 18937 H 1898.15 -1.51149 -6.78365 0
M  V30 18938 H 1901.35 -0.732979 -4.62326 0
M  V30 18939 H 1901.52 -1.26344 -6.35564 0
M  V30 18940 N 1894.92 1.57341 -0.0902386 0
M  V30 18941 C 1895.86 2.10775 0.900374 0
M  V30 18942 C 1896.87 1.0439 1.24926 0
M  V30 18943 O 1898.06 1.31851 1.20322 0
M  V30 18944 C 1895.16 2.56852 2.21089 0
M  V30 18945 C 1894.33 3.87016 2.03808 0
M  V30 18946 C 1893.39 4.18991 3.18328 0
M  V30 18947 O 1892.42 4.88292 2.92505 0
M  V30 18948 N 1893.62 3.74006 4.43959 0
M  V30 18949 H 1896.38 2.96392 0.444045 0
M  V30 18950 H 1893.94 1.61621 0.0949979 0
M  V30 18951 H 1895.94 2.75292 2.96642 0
M  V30 18952 H 1894.51 1.76271 2.58161 0
M  V30 18953 H 1893.73 3.77772 1.12613 0
M  V30 18954 H 1895.01 4.72181 1.89532 0
M  V30 18955 H 1894.41 3.18056 4.67821 0
M  V30 18956 H 1892.97 3.97611 5.16477 0
M  V30 18957 N 1896.4 -0.183431 1.56529 0
M  V30 18958 C 1897.31 -1.24746 1.98684 0
M  V30 18959 C 1898.33 -1.49139 0.8963 0
M  V30 18960 O 1899.5 -1.61525 1.20298 0
M  V30 18961 C 1896.57 -2.56927 2.32786 0
M  V30 18962 C 1895.63 -2.40503 3.55607 0
M  V30 18963 C 1894.86 -3.66381 3.88073 0
M  V30 18964 O 1895.09 -4.71048 3.21668 0
M  V30 18965 O 1894.02 -3.61214 4.81465 0
M  V30 18966 H 1897.85 -0.919676 2.8944 0
M  V30 18967 H 1895.43 -0.389352 1.44237 0
M  V30 18968 H 1897.31 -3.34923 2.55744 0
M  V30 18969 H 1895.99 -2.89309 1.45196 0
M  V30 18970 H 1894.9 -1.6058 3.37883 0
M  V30 18971 H 1896.23 -2.1305 4.43701 0
M  V30 18972 N 1897.88 -1.50992 -0.451564 0
M  V30 18973 C 1898.81 -1.67453 -1.56499 0
M  V30 18974 C 1899.83 -0.555481 -1.5303 0
M  V30 18975 O 1901.01 -0.829335 -1.58064 0
M  V30 18976 C 1898.11 -1.66093 -2.95409 0
M  V30 18977 C 1897.29 -2.94351 -3.23537 0
M  V30 18978 C 1896.35 -2.8537 -4.42098 0
M  V30 18979 O 1895.37 -3.59323 -4.41447 0
M  V30 18980 N 1896.57 -2.0025 -5.44867 0
M  V30 18981 H 1899.34 -2.63499 -1.42788 0
M  V30 18982 H 1896.9 -1.48701 -0.640293 0
M  V30 18983 H 1898.89 -1.57672 -3.72722 0
M  V30 18984 H 1897.46 -0.777014 -3.02789 0
M  V30 18985 H 1896.68 -3.16751 -2.34654 0
M  V30 18986 H 1897.97 -3.79281 -3.39151 0
M  V30 18987 H 1897.37 -1.39517 -5.48226 0
M  V30 18988 H 1895.93 -1.97719 -6.21088 0
M  V30 18989 N 1899.36 0.706069 -1.40899 0
M  V30 18990 C 1900.27 1.85007 -1.44255 0
M  V30 18991 C 1901.28 1.70761 -0.334174 0
M  V30 18992 O 1902.46 1.9286 -0.580258 0
M  V30 18993 C 1899.53 3.20896 -1.31251 0
M  V30 18994 C 1898.59 3.47327 -2.52314 0
M  V30 18995 C 1897.82 4.76732 -2.39922 0
M  V30 18996 O 1898.04 5.5249 -1.41813 0
M  V30 18997 O 1896.98 5.03713 -3.2948 0
M  V30 18998 H 1900.8 1.85132 -2.40748 0
M  V30 18999 H 1898.39 0.857751 -1.22323 0
M  V30 19000 H 1900.27 4.02045 -1.26244 0
M  V30 19001 H 1898.94 3.21477 -0.378684 0
M  V30 19002 H 1897.85 2.66149 -2.62899 0
M  V30 19003 H 1899.18 3.5155 -3.4449 0
M  V30 19004 N 1900.84 1.26553 0.939264 0
M  V30 19005 C 1902.08 1.12376 1.68818 0
M  V30 19006 C 1902.42 -0.331784 1.91345 0
M  V30 19007 O 1901.69 -1.24359 1.4955 0
M  V30 19008 C 1901.97 1.89541 3.0618 0
M  V30 19009 C 1901.83 3.43014 2.90966 0
M  V30 19010 C 1903.15 1.69074 4.06327 0
M  V30 19011 H 1900.26 0.409616 0.612686 0
M  V30 19012 H 1902.91 1.55571 1.09076 0
M  V30 19013 H 1901.06 1.5283 3.57177 0
M  V30 19014 H 1902.73 3.89489 2.47176 0
M  V30 19015 H 1900.97 3.69942 2.26551 0
M  V30 19016 H 1901.64 3.92236 3.88401 0
M  V30 19017 H 1904.12 2.01061 3.64299 0
M  V30 19018 H 1902.99 2.25478 5.00451 0
M  V30 19019 H 1903.26 0.635787 4.37504 0
M  V30 19020 N 1902.31 -1.14411 1.08387 0
M  V30 19021 C 1903.28 -2.17682 0.717433 0
M  V30 19022 C 1904.28 -1.58881 -0.24766 0
M  V30 19023 O 1905.47 -1.74179 -0.027231 0
M  V30 19024 C 1902.6 -3.40849 0.0592022 0
M  V30 19025 H 1903.79 -2.51614 1.63188 0
M  V30 19026 H 1901.35 -1.29056 0.88172 0
M  V30 19027 H 1902.08 -3.12496 -0.866987 0
M  V30 19028 H 1901.87 -3.84792 0.753477 0
M  V30 19029 H 1903.36 -4.17203 -0.182152 0
M  V30 19030 N 1903.79 -0.869509 -1.31443 0
M  V30 19031 C 1904.73 -0.269612 -2.26602 0
M  V30 19032 C 1905.7 0.600966 -1.51087 0
M  V30 19033 O 1906.89 0.554491 -1.8016 0
M  V30 19034 C 1904.01 0.618287 -3.33009 0
M  V30 19035 C 1903.06 -0.180883 -4.26116 0
M  V30 19036 S 1903.89 -1.55908 -5.12302 0
M  V30 19037 C 1905.05 -0.677295 -6.22225 0
M  V30 19038 H 1905.28 -1.07626 -2.77135 0
M  V30 19039 H 1902.82 -0.668003 -1.39202 0
M  V30 19040 H 1904.77 1.12488 -3.94787 0
M  V30 19041 H 1903.43 1.39888 -2.8123 0
M  V30 19042 H 1902.63 0.496021 -5.01553 0
M  V30 19043 H 1902.23 -0.619555 -3.68833 0
M  V30 19044 H 1904.52 0.1123 -6.77407 0
M  V30 19045 H 1905.46 -1.40278 -6.94066 0
M  V30 19046 H 1905.87 -0.245049 -5.63968 0
M  V30 19047 N 1905.27 1.44508 -0.628902 0
M  V30 19048 C 1906.69 1.56863 -0.294332 0
M  V30 19049 C 1906.89 1.6168 1.20257 0
M  V30 19050 O 1905.94 1.55862 1.98653 0
M  V30 19051 C 1907.26 2.84134 -0.984291 0
M  V30 19052 C 1908.8 2.97843 -0.962223 0
M  V30 19053 C 1909.28 4.27914 -1.6326 0
M  V30 19054 N 1910.77 4.34722 -1.59909 0
M  V30 19055 C 1911.5 5.34081 -2.08675 0
M  V30 19056 N 1911 6.39857 -2.65623 0
M  V30 19057 N 1912.79 5.25575 -1.99317 0
M  V30 19058 H 1904.94 1.39624 -1.60059 0
M  V30 19059 H 1907.21 0.66894 -0.671731 0
M  V30 19060 H 1906.91 2.86551 -2.03915 0
M  V30 19061 H 1906.79 3.73589 -0.520679 0
M  V30 19062 H 1909.17 2.9498 0.0841512 0
M  V30 19063 H 1909.26 2.09742 -1.4643 0
M  V30 19064 H 1908.9 4.31536 -2.67842 0
M  V30 19065 H 1908.83 5.14868 -1.10537 0
M  V30 19066 H 1911.32 3.58896 -1.18329 0
M  V30 19067 H 1911.63 7.11952 -3.00572 0
M  V30 19068 H 1909.98 6.40548 -2.69672 0
M  V30 19069 H 1913.17 4.4185 -1.54551 0
M  V30 19070 H 1913.34 6.02855 -2.37634 0
M  V30 19071 N 1906.75 0.369315 1.53212 0
M  V30 19072 C 1907.66 -0.483226 2.29569 0
M  V30 19073 C 1908.68 -1.08931 1.35684 0
M  V30 19074 O 1909.85 -1.09944 1.68743 0
M  V30 19075 C 1906.92 -1.60549 3.07286 0
M  V30 19076 C 1905.98 -1.02656 4.16846 0
M  V30 19077 C 1905.21 -2.09534 4.90847 0
M  V30 19078 O 1905.43 -3.30709 4.64745 0
M  V30 19079 O 1904.37 -1.72382 5.76687 0
M  V30 19080 H 1908.19 0.138246 3.03385 0
M  V30 19081 H 1905.78 0.133589 1.48802 0
M  V30 19082 H 1907.66 -2.25789 3.55805 0
M  V30 19083 H 1906.34 -2.21229 2.36303 0
M  V30 19084 H 1905.24 -0.337963 3.7257 0
M  V30 19085 H 1906.58 -0.464259 4.90006 0
M  V30 19086 N 1908.23 -1.57291 0.0985816 0
M  V30 19087 C 1909.18 -2.1545 -0.876584 0
M  V30 19088 C 1910.17 -1.09827 -1.28974 0
M  V30 19089 O 1911.38 -1.28166 -1.26386 0
M  V30 19090 H 1907.75 -0.689252 -0.300725 0
M  V30 19091 H 1909.72 -2.96204 -0.36139 0
M  V30 19092 C 1908.47 -2.75232 -2.12468 0
M  V30 19093 H 1907.79 -3.56194 -1.81565 0
M  V30 19094 H 1909.23 -3.19489 -2.78752 0
M  V30 19095 C 1907.69 -1.71298 -2.90101 0
M  V30 19096 O 1908.22 -1.15402 -3.84767 0
M  V30 19097 N 1906.43 -1.41709 -2.53706 0
M  V30 19098 H 1905.98 -1.87354 -1.76794 0
M  V30 19099 H 1905.93 -0.724072 -3.05949 0
M  V30 19100 N 1909.71 0.175127 -1.56624 0
M  V30 19101 C 1910.95 0.892368 -1.81777 0
M  V30 19102 C 1911.28 1.8241 -0.675051 0
M  V30 19103 O 1910.54 1.9276 0.337944 0
M  V30 19104 C 1910.83 1.72397 -3.13072 0
M  V30 19105 C 1910.5 0.941494 -4.40961 0
M  V30 19106 C 1909.16 0.725524 -4.75699 0
M  V30 19107 C 1911.51 0.392358 -5.19721 0
M  V30 19108 C 1908.84 -0.0507428 -5.86678 0
M  V30 19109 C 1911.19 -0.370801 -6.31512 0
M  V30 19110 C 1909.86 -0.597606 -6.64819 0
M  V30 19111 H 1909.13 0.326541 -0.665171 0
M  V30 19112 H 1911.78 0.157524 -1.90851 0
M  V30 19113 H 1910.08 2.52809 -2.99324 0
M  V30 19114 H 1911.78 2.28189 -3.29743 0
M  V30 19115 H 1908.37 1.11986 -4.13711 0
M  V30 19116 H 1912.55 0.546561 -4.93281 0
M  V30 19117 H 1907.81 -0.236241 -6.10943 0
M  V30 19118 H 1911.98 -0.803585 -6.91748 0
M  V30 19119 H 1909.61 -1.201 -7.50653 0
M  V30 19120 N 1911.18 1.5123 0.44355 0
M  V30 19121 C 1912.43 1.64796 1.19222 0
M  V30 19122 C 1912.78 0.356753 1.89064 0
M  V30 19123 O 1912.08 -0.64708 1.80343 0
M  V30 19124 C 1912.27 2.78511 2.23978 0
M  V30 19125 C 1912.1 4.18565 1.64418 0
M  V30 19126 C 1910.87 4.8459 1.43181 0
M  V30 19127 C 1913.07 5.01871 1.12383 0
M  V30 19128 N 1911.05 6.08776 0.791531 0
M  V30 19129 C 1912.42 6.17007 0.608446 0
M  V30 19130 C 1914.48 4.87445 1.015 0
M  V30 19131 C 1913.18 7.193 -0.00507306 0
M  V30 19132 C 1915.21 5.89939 0.415381 0
M  V30 19133 C 1914.57 7.04343 -0.0894936 0
M  V30 19134 H 1910.67 0.656973 0.424159 0
M  V30 19135 H 1913.25 1.88439 0.489793 0
M  V30 19136 H 1911.42 2.56543 2.91616 0
M  V30 19137 H 1913.15 2.8129 2.9096 0
M  V30 19138 H 1909.91 4.42351 1.69182 0
M  V30 19139 H 1910.33 6.75232 0.489009 0
M  V30 19140 H 1914.97 3.99256 1.39121 0
M  V30 19141 H 1912.69 8.07142 -0.393432 0
M  V30 19142 H 1916.28 5.80845 0.333158 0
M  V30 19143 H 1915.16 7.82296 -0.546186 0
M  V30 19144 N 1912.66 -0.698586 1.41271 0
M  V30 19145 C 1913.61 -1.81256 1.42881 0
M  V30 19146 C 1914.58 -1.63662 0.283562 0
M  V30 19147 O 1915.76 -1.84555 0.48416 0
M  V30 19148 C 1912.9 -3.19113 1.31381 0
M  V30 19149 C 1912.02 -3.4816 2.55751 0
M  V30 19150 C 1911.15 -4.75615 2.36566 0
M  V30 19151 C 1910.19 -4.9762 3.56427 0
M  V30 19152 N 1909.33 -6.16299 3.36332 0
M  V30 19153 H 1914.17 -1.79214 2.38089 0
M  V30 19154 H 1911.7 -0.875213 1.1823 0
M  V30 19155 H 1913.66 -3.98744 1.22716 0
M  V30 19156 H 1912.29 -3.20339 0.397831 0
M  V30 19157 H 1911.34 -2.62957 2.74878 0
M  V30 19158 H 1912.66 -3.60323 3.44918 0
M  V30 19159 H 1911.81 -5.63295 2.25352 0
M  V30 19160 H 1910.55 -4.65693 1.44851 0
M  V30 19161 H 1909.55 -4.0839 3.681 0
M  V30 19162 H 1910.78 -5.09404 4.49093 0
M  V30 19163 H 1908.73 -6.07595 2.47314 0
M  V30 19164 H 1908.64 -6.29216 4.19074 0
M  V30 19165 H 1909.91 -7.06722 3.28884 0
M  V30 19166 N 1914.14 -1.27049 -0.93254 0
M  V30 19167 C 1915.37 -1.15735 -1.7114 0
M  V30 19168 C 1915.78 0.289069 -1.86979 0
M  V30 19169 O 1915.12 1.20906 -1.38302 0
M  V30 19170 C 1915.18 -1.76319 -3.13292 0
M  V30 19171 C 1914.85 -3.25471 -3.20808 0
M  V30 19172 C 1915.84 -4.22172 -3.03425 0
M  V30 19173 C 1913.53 -3.66092 -3.43921 0
M  V30 19174 C 1915.52 -5.57471 -3.09038 0
M  V30 19175 C 1913.21 -5.01522 -3.49168 0
M  V30 19176 C 1914.21 -5.97022 -3.31744 0
M  V30 19177 O 1913.9 -7.29985 -3.36716 0
M  V30 19178 H 1913.63 -0.403495 -0.542372 0
M  V30 19179 H 1916.18 -1.68334 -1.17698 0
M  V30 19180 H 1914.41 -1.18192 -3.68195 0
M  V30 19181 H 1916.1 -1.59788 -3.73125 0
M  V30 19182 H 1916.87 -3.92127 -2.85415 0
M  V30 19183 H 1912.75 -2.92238 -3.56536 0
M  V30 19184 H 1916.29 -6.3199 -2.95356 0
M  V30 19185 H 1912.19 -5.31225 -3.66702 0
M  V30 19186 H 1912.95 -7.3837 -3.53203 0
M  V30 19187 N 1915.62 1.13835 -1.08993 0
M  V30 19188 C 1916.86 1.8501 -0.823256 0
M  V30 19189 C 1917.19 1.83279 0.65107 0
M  V30 19190 O 1916.45 1.26293 1.49495 0
M  V30 19191 C 1916.75 3.32997 -1.29798 0
M  V30 19192 C 1916.41 3.54912 -2.78115 0
M  V30 19193 C 1915.07 3.60602 -3.18622 0
M  V30 19194 C 1917.43 3.63247 -3.73766 0
M  V30 19195 C 1914.75 3.72154 -4.53562 0
M  V30 19196 C 1917.11 3.76326 -5.0849 0
M  V30 19197 C 1915.77 3.80267 -5.48592 0
M  V30 19198 H 1915.04 0.677 -0.301251 0
M  V30 19199 H 1917.69 1.34423 -1.36392 0
M  V30 19200 H 1915.99 3.85906 -0.677026 0
M  V30 19201 H 1917.69 3.86507 -1.06832 0
M  V30 19202 H 1914.28 3.51136 -2.45767 0
M  V30 19203 H 1918.46 3.58135 -3.43588 0
M  V30 19204 H 1913.72 3.7347 -4.84077 0
M  V30 19205 H 1917.89 3.81717 -5.82465 0
M  V30 19206 H 1915.52 3.8897 -6.53151 0
M  V30 19207 N 1917.1 0.876467 1.3098 0
M  V30 19208 C 1918.04 0.326251 2.30301 0
M  V30 19209 C 1919.04 -0.562168 1.598 0
M  V30 19210 O 1920.24 -0.447547 1.74347 0
M  V30 19211 H 1916.62 0.0868325 0.74697 0
M  V30 19212 H 1918.59 1.17775 2.74175 0
M  V30 19213 C 1917.34 -0.451679 3.44754 0
M  V30 19214 H 1916.66 0.222681 3.99179 0
M  V30 19215 H 1918.1 -0.801899 4.16348 0
M  V30 19216 C 1916.56 -1.64547 2.93983 0
M  V30 19217 O 1917.09 -2.74482 2.93296 0
M  V30 19218 N 1915.3 -1.47978 2.50102 0
M  V30 19219 H 1914.84 -0.585447 2.50859 0
M  V30 19220 H 1914.8 -2.27992 2.16488 0
M  V30 19221 N 1918.57 -1.44173 0.636557 0
M  V30 19222 C 1919.8 -2.06866 0.148751 0
M  V30 19223 C 1920.22 -1.47295 -1.16987 0
M  V30 19224 O 1919.58 -0.576466 -1.71891 0
M  V30 19225 C 1919.63 -3.60561 0.0533064 0
M  V30 19226 O 1918.73 -4.00361 -0.989163 0
M  V30 19227 H 1918.07 -0.658243 0.087251 0
M  V30 19228 H 1920.6 -1.84956 0.874772 0
M  V30 19229 H 1920.61 -4.07775 -0.135499 0
M  V30 19230 H 1919.29 -4.033 1.01599 0
M  V30 19231 H 1917.87 -3.64769 -0.77449 0
M  V30 19232 N 1920.05 -0.377435 -1.53014 0
M  V30 19233 C 1921.3 0.208838 -2.01722 0
M  V30 19234 C 1921.63 1.47446 -1.26385 0
M  V30 19235 O 1920.91 1.91122 -0.360903 0
M  V30 19236 C 1921.19 0.4888 -3.56767 0
M  V30 19237 C 1921.04 -0.791285 -4.42785 0
M  V30 19238 C 1922.36 1.28443 -4.2094 0
M  V30 19239 H 1919.48 0.0744281 -0.733232 0
M  V30 19240 H 1922.12 -0.504664 -1.83175 0
M  V30 19241 H 1920.27 1.09662 -3.72702 0
M  V30 19242 H 1921.94 -1.42848 -4.38625 0
M  V30 19243 H 1920.19 -1.40914 -4.10275 0
M  V30 19244 H 1920.86 -0.550199 -5.49251 0
M  V30 19245 H 1923.33 0.770147 -4.08911 0
M  V30 19246 H 1922.21 1.44906 -5.29427 0
M  V30 19247 H 1922.47 2.29631 -3.77786 0
M  V30 19248 N 1921.53 1.57237 -0.106922 0
M  V30 19249 C 1922.76 1.99545 0.565392 0
M  V30 19250 C 1923.18 0.985887 1.60193 0
M  V30 19251 O 1922.54 -0.0440657 1.81246 0
M  V30 19252 C 1922.59 3.40779 1.17908 0
M  V30 19253 O 1921.69 3.42656 2.29479 0
M  V30 19254 H 1921.03 0.648556 0.142379 0
M  V30 19255 H 1923.56 2.03699 -0.191829 0
M  V30 19256 H 1923.57 3.78728 1.51754 0
M  V30 19257 H 1922.25 4.13776 0.419776 0
M  V30 19258 H 1920.82 3.16514 1.97164 0
M  V30 19259 N 1923.01 -0.166818 1.56715 0
M  V30 19260 C 1923.92 -1.22632 1.99996 0
M  V30 19261 C 1924.93 -1.4818 0.912068 0
M  V30 19262 O 1926.11 -1.6024 1.22005 0
M  V30 19263 C 1923.18 -2.54444 2.35498 0
M  V30 19264 C 1922.24 -2.36718 3.58138 0
M  V30 19265 C 1921.47 -3.62244 3.91937 0
M  V30 19266 O 1921.69 -4.67609 3.26646 0
M  V30 19267 O 1920.63 -3.56087 4.85269 0
M  V30 19268 H 1924.45 -0.888926 2.90399 0
M  V30 19269 H 1922.04 -0.374032 1.44642 0
M  V30 19270 H 1923.92 -3.32191 2.59281 0
M  V30 19271 H 1922.59 -2.87753 1.48256 0
M  V30 19272 H 1921.5 -1.56987 3.39567 0
M  V30 19273 H 1922.83 -2.08332 4.45936 0
M  V30 19274 N 1924.49 -1.51463 -0.435524 0
M  V30 19275 C 1925.43 -1.72908 -1.52877 0
M  V30 19276 C 1926.4 -0.570809 -1.55984 0
M  V30 19277 O 1927.59 -0.805443 -1.72966 0
M  V30 19278 C 1924.73 -1.8617 -2.90576 0
M  V30 19279 C 1923.84 -3.13726 -2.96985 0
M  V30 19280 C 1922.98 -3.17573 -4.25818 0
M  V30 19281 C 1922.02 -4.39437 -4.26101 0
M  V30 19282 N 1921.15 -4.40823 -5.46461 0
M  V30 19283 H 1925.99 -2.66226 -1.33894 0
M  V30 19284 H 1923.53 -1.3194 -0.650399 0
M  V30 19285 H 1925.49 -1.91841 -3.70476 0
M  V30 19286 H 1924.12 -0.962585 -3.08114 0
M  V30 19287 H 1923.17 -3.17356 -2.09737 0
M  V30 19288 H 1924.48 -4.03634 -2.93055 0
M  V30 19289 H 1923.64 -3.2217 -5.14093 0
M  V30 19290 H 1922.37 -2.25558 -4.32406 0
M  V30 19291 H 1921.38 -4.35014 -3.36219 0
M  V30 19292 H 1922.6 -5.32718 -4.21175 0
M  V30 19293 H 1920.55 -3.51679 -5.53767 0
M  V30 19294 H 1920.47 -5.24541 -5.44419 0
M  V30 19295 H 1921.74 -4.49615 -6.36763 0
M  V30 19296 N 1925.96 0.691085 -1.4164 0
M  V30 19297 C 1927.38 1.27116 -1.36742 0
M  V30 19298 C 1927.73 1.96129 -0.0526953 0
M  V30 19299 O 1926.85 1.99052 0.848953 0
M  V30 19300 C 1927.45 2.31171 -2.4768 0
M  V30 19301 C 1926.01 2.84744 -2.46166 0
M  V30 19302 C 1925.15 1.58841 -2.27299 0
M  V30 19303 H 1928.1 0.485541 -1.5109 0
M  V30 19304 H 1928.12 3.12559 -2.16996 0
M  V30 19305 H 1927.64 1.80913 -3.43354 0
M  V30 19306 H 1925.74 3.39167 -1.54262 0
M  V30 19307 H 1925.85 3.34869 -3.42636 0
M  V30 19308 H 1924.21 1.84815 -1.75258 0
M  V30 19309 H 1925 1.10573 -3.25005 0
M  V30 19310 N 1927.44 1.27542 0.925789 0
M  V30 19311 C 1928.69 1.14161 1.67616 0
M  V30 19312 C 1929.02 -0.311471 1.91686 0
M  V30 19313 O 1928.3 -1.22766 1.5086 0
M  V30 19314 C 1928.58 1.92778 3.04152 0
M  V30 19315 C 1928.43 3.46081 2.87312 0
M  V30 19316 C 1929.75 1.73374 4.04511 0
M  V30 19317 H 1926.87 0.416091 0.608307 0
M  V30 19318 H 1929.51 1.56719 1.0742 0
M  V30 19319 H 1927.66 1.5661 3.55536 0
M  V30 19320 H 1929.33 3.92089 2.43031 0
M  V30 19321 H 1927.58 3.72324 2.22615 0
M  V30 19322 H 1928.25 3.96333 3.84219 0
M  V30 19323 H 1930.72 2.04914 3.62146 0
M  V30 19324 H 1929.6 2.30773 4.98031 0
M  V30 19325 H 1929.86 0.682154 4.36806 0
M  V30 19326 N 1928.92 -1.13255 1.09595 0
M  V30 19327 C 1930.15 -1.88411 0.854927 0
M  V30 19328 C 1930.56 -1.79214 -0.593949 0
M  V30 19329 O 1929.92 -1.15995 -1.40895 0
M  V30 19330 C 1929.97 -3.37946 1.28353 0
M  V30 19331 O 1929.69 -3.46907 2.67558 0
M  V30 19332 C 1931.19 -4.30065 1.07514 0
M  V30 19333 H 1928.41 -0.596416 0.307455 0
M  V30 19334 H 1930.96 -1.43358 1.45838 0
M  V30 19335 H 1929.11 -3.80576 0.72393 0
M  V30 19336 H 1929.53 -4.39878 2.8567 0
M  V30 19337 H 1931 -5.33309 1.42428 0
M  V30 19338 H 1931.48 -4.39198 0.0130611 0
M  V30 19339 H 1932.08 -3.93206 1.62077 0
M  V30 19340 N 1930.4 -0.883401 -1.30514 0
M  V30 19341 C 1931.81 -0.577183 -1.48798 0
M  V30 19342 C 1932.01 0.885462 -1.81002 0
M  V30 19343 O 1931.07 1.66679 -1.89669 0
M  V30 19344 C 1932.38 -1.48898 -2.61247 0
M  V30 19345 C 1933.93 -1.49244 -2.75128 0
M  V30 19346 C 1934.41 -2.39012 -3.90688 0
M  V30 19347 N 1935.9 -2.36967 -3.97996 0
M  V30 19348 C 1936.63 -3.03138 -4.86718 0
M  V30 19349 N 1936.13 -3.78529 -5.80248 0
M  V30 19350 N 1937.92 -2.92378 -4.80074 0
M  V30 19351 H 1930.07 -1.82963 -1.07882 0
M  V30 19352 H 1932.34 -0.783078 -0.534315 0
M  V30 19353 H 1932.04 -2.53035 -2.44266 0
M  V30 19354 H 1931.92 -1.19739 -3.5769 0
M  V30 19355 H 1934.3 -0.458579 -2.91515 0
M  V30 19356 H 1934.38 -1.82432 -1.7931 0
M  V30 19357 H 1934.03 -3.42482 -3.75058 0
M  V30 19358 H 1933.96 -2.03141 -4.85841 0
M  V30 19359 H 1936.45 -1.82179 -3.31088 0
M  V30 19360 H 1936.76 -4.26115 -6.44706 0
M  V30 19361 H 1935.11 -3.82636 -5.80185 0
M  V30 19362 H 1938.3 -2.33008 -4.05986 0
M  V30 19363 H 1938.47 -3.44225 -5.49011 0
M  V30 19364 N 1931.88 1.43833 -0.644194 0
M  V30 19365 C 1932.79 2.34538 0.0537504 0
M  V30 19366 C 1933.8 1.53369 0.821825 0
M  V30 19367 O 1934.98 1.86053 0.771123 0
M  V30 19368 C 1932.04 3.3153 1.01434 0
M  V30 19369 C 1931.1 4.28605 0.244198 0
M  V30 19370 C 1930.34 5.20963 1.15903 0
M  V30 19371 O 1930.56 5.1754 2.3981 0
M  V30 19372 O 1929.49 5.98527 0.636302 0
M  V30 19373 H 1933.32 2.95696 -0.692624 0
M  V30 19374 H 1930.91 1.43823 -0.404377 0
M  V30 19375 H 1932.79 3.91196 1.56663 0
M  V30 19376 H 1931.46 2.72887 1.7411 0
M  V30 19377 H 1930.37 3.72445 -0.351459 0
M  V30 19378 H 1931.7 4.90204 -0.442806 0
M  V30 19379 N 1933.35 0.385544 1.52811 0
M  V30 19380 C 1934.63 -0.255227 1.93928 0
M  V30 19381 C 1935.01 -1.64683 1.32071 0
M  V30 19382 O 1934.36 -2.23242 0.487363 0
M  V30 19383 C 1934.57 -0.285363 3.47831 0
M  V30 19384 C 1935.92 -0.516126 4.21451 0
M  V30 19385 O 1936.94 -0.365732 3.54317 0
M  V30 19386 O 1935.8 -0.810503 5.40456 0
M  V30 19387 H 1932.89 -0.157694 0.811826 0
M  V30 19388 H 1935.44 0.439779 1.63903 0
M  V30 19389 H 1934.21 0.68954 3.85177 0
M  V30 19390 H 1933.84 -1.02545 3.84149 0
M  V30 19391 N 1934.83 -1.57178 0.115259 0
M  V30 19392 C 1936.08 -1.95066 -0.543645 0
M  V30 19393 C 1936.41 -0.998318 -1.66925 0
M  V30 19394 O 1935.66 -0.0215177 -1.95688 0
M  V30 19395 C 1935.96 -3.39391 -1.12019 0
M  V30 19396 C 1935.63 -4.5075 -0.116323 0
M  V30 19397 C 1934.29 -4.80935 0.159725 0
M  V30 19398 C 1936.64 -5.18096 0.568016 0
M  V30 19399 C 1933.97 -5.75784 1.12646 0
M  V30 19400 C 1936.32 -6.13984 1.52336 0
M  V30 19401 C 1934.99 -6.42564 1.80743 0
M  V30 19402 H 1934.26 -0.713797 -0.198934 0
M  V30 19403 H 1936.9 -1.90501 0.195371 0
M  V30 19404 H 1935.21 -3.40633 -1.93589 0
M  V30 19405 H 1936.9 -3.66018 -1.63805 0
M  V30 19406 H 1933.49 -4.27236 -0.341664 0
M  V30 19407 H 1937.68 -4.94934 0.367913 0
M  V30 19408 H 1932.93 -5.96234 1.35334 0
M  V30 19409 H 1937.11 -6.65255 2.05933 0
M  V30 19410 H 1934.74 -7.15867 2.55808 0
M  V30 19411 N 1936.31 0.158505 -1.56801 0
M  V30 19412 C 1937.24 1.22518 -1.92522 0
M  V30 19413 C 1938.22 1.42142 -0.789589 0
M  V30 19414 O 1939.41 1.56941 -1.04412 0
M  V30 19415 C 1936.53 2.58604 -2.18728 0
M  V30 19416 C 1935.58 2.55642 -3.41394 0
M  V30 19417 S 1936.41 2.03464 -4.95341 0
M  V30 19418 C 1937.57 3.41302 -5.24656 0
M  V30 19419 H 1937.8 0.920362 -2.82695 0
M  V30 19420 H 1935.33 0.363629 -1.50057 0
M  V30 19421 H 1937.29 3.36923 -2.34506 0
M  V30 19422 H 1935.95 2.8628 -1.29239 0
M  V30 19423 H 1935.15 3.55792 -3.56971 0
M  V30 19424 H 1934.75 1.85426 -3.24797 0
M  V30 19425 H 1937.04 4.37361 -5.17418 0
M  V30 19426 H 1937.98 3.30588 -6.26192 0
M  V30 19427 H 1938.39 3.37906 -4.52194 0
M  V30 19428 N 1937.79 1.51692 0.427485 0
M  V30 19429 C 1939.01 1.68956 1.20285 0
M  V30 19430 C 1939.44 0.390472 1.84003 0
M  V30 19431 O 1938.8 -0.650352 1.69234 0
M  V30 19432 C 1938.85 2.81368 2.25532 0
M  V30 19433 O 1937.95 2.45657 3.3125 0
M  V30 19434 H 1937.29 0.56304 0.351969 0
M  V30 19435 H 1939.82 1.98306 0.503588 0
M  V30 19436 H 1939.83 3.05742 2.70158 0
M  V30 19437 H 1938.51 3.7563 1.78535 0
M  V30 19438 H 1937.08 2.31889 2.9203 0
M  V30 19439 N 1939.27 -0.683564 1.42004 0
M  V30 19440 C 1940.51 -1.44577 1.42216 0
M  V30 19441 C 1940.85 -1.94168 0.0352735 0
M  V30 19442 O 1940.12 -1.70331 -0.939023 0
M  V30 19443 C 1940.4 -2.64909 2.43916 0
M  V30 19444 C 1940.26 -2.21006 3.9176 0
M  V30 19445 C 1941.58 -3.6712 2.42716 0
M  V30 19446 H 1938.7 -0.524376 0.517879 0
M  V30 19447 H 1941.34 -0.777575 1.7336 0
M  V30 19448 H 1939.49 -3.21918 2.17489 0
M  V30 19449 H 1941.16 -1.69233 4.29136 0
M  V30 19450 H 1939.4 -1.52667 4.06048 0
M  V30 19451 H 1940.07 -3.07401 4.58485 0
M  V30 19452 H 1942.55 -3.1981 2.66197 0
M  V30 19453 H 1941.43 -4.48907 3.15869 0
M  V30 19454 H 1941.69 -4.17645 1.45 0
M  V30 19455 N 1940.75 -1.28031 -0.919012 0
M  V30 19456 C 1941.68 -1.14034 -2.03761 0
M  V30 19457 C 1942.66 -0.039495 -1.70054 0
M  V30 19458 O 1943.84 -0.215546 -1.93 0
M  V30 19459 C 1940.97 -0.795894 -3.38057 0
M  V30 19460 C 1939.93 -1.85093 -3.85907 0
M  V30 19461 C 1939.25 -1.36024 -5.17109 0
M  V30 19462 C 1940.55 -3.25658 -4.08343 0
M  V30 19463 H 1942.25 -2.07609 -2.15729 0
M  V30 19464 H 1939.79 -0.999558 -1.03657 0
M  V30 19465 H 1941.74 -0.684762 -4.15799 0
M  V30 19466 H 1940.47 0.175558 -3.26128 0
M  V30 19467 H 1939.13 -1.95112 -3.10366 0
M  V30 19468 H 1938.78 -0.378004 -5.01578 0
M  V30 19469 H 1938.48 -2.06568 -5.50094 0
M  V30 19470 H 1940 -1.26223 -5.97411 0
M  V30 19471 H 1941.41 -3.1859 -4.76627 0
M  V30 19472 H 1939.81 -3.93989 -4.52651 0
M  V30 19473 H 1940.88 -3.70066 -3.13335 0
M  V30 19474 N 1942.22 1.12672 -1.10194 0
M  V30 19475 C 1943.45 1.88496 -0.865112 0
M  V30 19476 C 1943.87 1.78977 0.578691 0
M  V30 19477 O 1943.23 1.14292 1.40737 0
M  V30 19478 C 1943.28 3.35768 -1.315 0
M  V30 19479 O 1942.38 4.09615 -0.478447 0
M  V30 19480 H 1941.72 0.585782 -0.312658 0
M  V30 19481 H 1944.25 1.42506 -1.46811 0
M  V30 19482 H 1944.26 3.86605 -1.30385 0
M  V30 19483 H 1942.94 3.42013 -2.36643 0
M  V30 19484 H 1941.52 3.68753 -0.554589 0
M  V30 19485 N 1943.7 0.89031 1.30043 0
M  V30 19486 C 1944.98 0.43131 1.90785 0
M  V30 19487 C 1945.36 -1.08836 1.80881 0
M  V30 19488 O 1944.71 -1.92605 1.22946 0
M  V30 19489 C 1944.92 0.935377 3.36232 0
M  V30 19490 C 1946.26 0.973504 4.13289 0
M  V30 19491 O 1947.29 0.882404 3.45097 0
M  V30 19492 O 1946.15 1.10893 5.35131 0
M  V30 19493 H 1943.24 0.132845 0.816261 0
M  V30 19494 H 1945.79 0.979561 1.38574 0
M  V30 19495 H 1944.56 1.97928 3.3755 0
M  V30 19496 H 1944.18 0.366596 3.95906 0
M  V30 19497 N 1945.18 -1.43489 0.651812 0
M  V30 19498 C 1946.43 -2.01049 0.161972 0
M  V30 19499 C 1946.74 -1.52018 -1.23085 0
M  V30 19500 O 1947.95 -2.01842 -1.81583 0
M  V30 19501 C 1946.4 -3.59107 0.238761 0
M  V30 19502 C 1946.01 -4.17131 1.63419 0
M  V30 19503 C 1947.76 -4.24059 -0.193548 0
M  V30 19504 C 1945.66 -5.67479 1.66498 0
M  V30 19505 H 1944.59 -0.751858 0.0567901 0
M  V30 19506 H 1947.24 -1.64475 0.813641 0
M  V30 19507 H 1945.63 -3.93075 -0.48039 0
M  V30 19508 H 1946.8 -3.94665 2.37858 0
M  V30 19509 H 1945.11 -3.64546 2.01235 0
M  V30 19510 H 1947.71 -5.34361 -0.190368 0
M  V30 19511 H 1948.05 -3.97877 -1.22472 0
M  V30 19512 H 1948.59 -3.94968 0.473805 0
M  V30 19513 H 1945.33 -5.98426 2.6752 0
M  V30 19514 H 1944.85 -5.92006 0.963819 0
M  V30 19515 H 1946.53 -6.31492 1.40809 0
M  V30 19516 N 1946.66 -0.393643 -1.52605 0
M  V30 19517 C 1947.57 0.446642 -2.30309 0
M  V30 19518 C 1948.58 1.06758 -1.374 0
M  V30 19519 O 1949.76 1.07246 -1.70471 0
M  V30 19520 C 1946.82 1.5564 -3.09802 0
M  V30 19521 C 1945.89 0.960113 -4.18426 0
M  V30 19522 C 1945.12 2.01698 -4.94119 0
M  V30 19523 O 1945.34 3.23273 -4.69947 0
M  V30 19524 O 1944.28 1.63186 -5.79357 0
M  V30 19525 H 1948.1 -0.186494 -3.03127 0
M  V30 19526 H 1945.69 -0.157245 -1.4857 0
M  V30 19527 H 1947.57 2.201 -3.59352 0
M  V30 19528 H 1946.24 2.17442 -2.39793 0
M  V30 19529 H 1945.15 0.278648 -3.73061 0
M  V30 19530 H 1946.48 0.386245 -4.90682 0
M  V30 19531 N 1948.14 1.57115 -0.123593 0
M  V30 19532 C 1949.37 1.99415 0.540103 0
M  V30 19533 C 1949.77 1.00228 1.60471 0
M  V30 19534 O 1949.12 -0.0123101 1.83696 0
M  V30 19535 C 1949.18 3.38134 1.22088 0
M  V30 19536 C 1948.84 4.5599 0.30367 0
M  V30 19537 C 1949.84 5.17865 -0.459524 0
M  V30 19538 C 1947.52 5.01846 0.213401 0
M  V30 19539 C 1949.52 6.23988 -1.30067 0
M  V30 19540 C 1947.21 6.0783 -0.631375 0
M  V30 19541 C 1948.2 6.68768 -1.38704 0
M  V30 19542 O 1947.89 7.72703 -2.21778 0
M  V30 19543 H 1947.62 0.659781 0.147192 0
M  V30 19544 H 1950.18 2.04343 -0.208128 0
M  V30 19545 H 1948.41 3.29975 2.01628 0
M  V30 19546 H 1950.1 3.64694 1.78195 0
M  V30 19547 H 1950.86 4.8335 -0.399683 0
M  V30 19548 H 1946.74 4.54158 0.791276 0
M  V30 19549 H 1950.29 6.71482 -1.89097 0
M  V30 19550 H 1946.18 6.41774 -0.692592 0
M  V30 19551 H 1946.95 7.8982 -2.1477 0
M  V30 19552 N 1949.61 -0.150187 1.56883 0
M  V30 19553 C 1950.86 -0.861749 1.82364 0
M  V30 19554 C 1951.18 -1.82479 0.704319 0
M  V30 19555 O 1952.38 -2.58027 0.844649 0
M  V30 19556 C 1950.84 -1.58305 3.23214 0
M  V30 19557 C 1950.45 -0.662577 4.43073 0
M  V30 19558 C 1952.19 -2.28159 3.57972 0
M  V30 19559 C 1950.1 -1.38532 5.74946 0
M  V30 19560 H 1949.03 -0.325546 0.6801 0
M  V30 19561 H 1951.68 -0.114505 1.83142 0
M  V30 19562 H 1950.06 -2.37581 3.16814 0
M  V30 19563 H 1951.23 0.0947281 4.60703 0
M  V30 19564 H 1949.55 -0.0726217 4.16337 0
M  V30 19565 H 1952.15 -2.82865 4.53753 0
M  V30 19566 H 1952.49 -3.04501 2.83874 0
M  V30 19567 H 1953.02 -1.55805 3.66019 0
M  V30 19568 H 1949.76 -0.663808 6.5213 0
M  V30 19569 H 1949.28 -2.11542 5.61258 0
M  V30 19570 H 1950.96 -1.9271 6.17634 0
M  V30 19571 N 1951.09 -1.51916 -0.419434 0
M  V30 19572 C 1952.02 -1.77475 -1.5174 0
M  V30 19573 C 1953 -0.625263 -1.58191 0
M  V30 19574 O 1954.19 -0.869815 -1.73631 0
M  V30 19575 C 1951.32 -1.91608 -2.89661 0
M  V30 19576 C 1950.27 -3.07151 -2.98064 0
M  V30 19577 C 1949.6 -3.06493 -4.3814 0
M  V30 19578 C 1950.9 -4.46799 -2.70495 0
M  V30 19579 H 1952.59 -2.69413 -1.30602 0
M  V30 19580 H 1950.14 -1.2964 -0.626849 0
M  V30 19581 H 1952.09 -2.08072 -3.66448 0
M  V30 19582 H 1950.82 -0.963332 -3.1207 0
M  V30 19583 H 1949.47 -2.90422 -2.2372 0
M  V30 19584 H 1949.12 -2.08959 -4.57542 0
M  V30 19585 H 1948.82 -3.84091 -4.44689 0
M  V30 19586 H 1950.35 -3.25072 -5.16876 0
M  V30 19587 H 1951.76 -4.63787 -3.37008 0
M  V30 19588 H 1950.16 -5.26238 -2.88432 0
M  V30 19589 H 1951.23 -4.55604 -1.65991 0
M  V30 19590 N 1952.57 0.676023 -1.42365 0
M  V30 19591 C 1953.82 1.43183 -1.42062 0
M  V30 19592 C 1954.13 1.95559 -0.0400321 0
M  V30 19593 O 1955.34 2.71365 0.0855959 0
M  V30 19594 C 1953.79 2.5901 -2.49884 0
M  V30 19595 C 1953.4 2.13338 -3.93943 0
M  V30 19596 C 1955.15 3.36528 -2.58746 0
M  V30 19597 C 1953.05 3.2624 -4.93276 0
M  V30 19598 H 1951.98 0.537899 -0.528376 0
M  V30 19599 H 1954.63 0.732001 -1.68268 0
M  V30 19600 H 1953.02 3.31355 -2.16841 0
M  V30 19601 H 1954.19 1.48154 -4.36334 0
M  V30 19602 H 1952.51 1.48761 -3.8892 0
M  V30 19603 H 1955.1 4.2061 -3.30138 0
M  V30 19604 H 1955.45 3.83036 -1.63061 0
M  V30 19605 H 1955.98 2.71252 -2.90977 0
M  V30 19606 H 1952.72 2.84724 -5.90434 0
M  V30 19607 H 1952.24 3.90209 -4.55518 0
M  V30 19608 H 1953.92 3.91725 -5.14938 0
M  V30 19609 N 1954.05 1.28517 0.912209 0
M  V30 19610 C 1955 1.12575 2.01483 0
M  V30 19611 C 1955.97 0.0224628 1.66085 0
M  V30 19612 O 1957.15 0.18768 1.89875 0
M  V30 19613 C 1954.29 0.795229 3.35813 0
M  V30 19614 C 1953.4 1.97772 3.84071 0
M  V30 19615 C 1952.54 1.58768 5.06918 0
M  V30 19616 C 1951.58 2.73672 5.47513 0
M  V30 19617 N 1950.71 2.3515 6.6155 0
M  V30 19618 H 1955.55 2.06918 2.1445 0
M  V30 19619 H 1953.09 1.02983 1.05037 0
M  V30 19620 H 1955.05 0.584339 4.13088 0
M  V30 19621 H 1953.68 -0.111266 3.22608 0
M  V30 19622 H 1952.73 2.30069 3.0294 0
M  V30 19623 H 1954.04 2.83913 4.10115 0
M  V30 19624 H 1953.2 1.33894 5.91741 0
M  V30 19625 H 1951.94 0.697566 4.82686 0
M  V30 19626 H 1950.94 2.99242 4.61231 0
M  V30 19627 H 1952.17 3.63328 5.73733 0
M  V30 19628 H 1950.11 1.4861 6.38945 0
M  V30 19629 H 1950.03 3.14827 6.87328 0
M  V30 19630 H 1951.3 2.13564 7.49674 0
M  V30 19631 N 1955.53 -1.12086 1.1079 0
M  V30 19632 C 1956.49 -2.16111 0.763446 0
M  V30 19633 C 1957.49 -1.59371 -0.213903 0
M  V30 19634 O 1958.68 -1.74197 0.00972099 0
M  V30 19635 C 1955.81 -3.40646 0.131488 0
M  V30 19636 H 1957 -2.48096 1.68489 0
M  V30 19637 H 1954.56 -1.27156 0.908896 0
M  V30 19638 H 1955.29 -3.14265 -0.800507 0
M  V30 19639 H 1955.08 -3.83108 0.834928 0
M  V30 19640 H 1956.57 -4.17495 -0.0936165 0
M  V30 19641 N 1957 -0.897194 -1.29569 0
M  V30 19642 C 1958.23 -0.536465 -2.00342 0
M  V30 19643 C 1958.65 0.87088 -1.66725 0
M  V30 19644 O 1958.01 1.57924 -0.890492 0
M  V30 19645 C 1958.06 -0.732781 -3.53076 0
M  V30 19646 O 1957.16 0.215848 -4.11835 0
M  V30 19647 H 1956.51 -0.209904 -0.62995 0
M  V30 19648 H 1959.04 -1.20809 -1.65125 0
M  V30 19649 H 1959.05 -0.636468 -4.03005 0
M  V30 19650 H 1957.72 -1.75882 -3.7688 0
M  V30 19651 H 1956.3 0.0722012 -3.7283 0
M  V30 19652 N 1958.48 1.43142 -0.659413 0
M  V30 19653 C 1959.71 2.05788 -0.183 0
M  V30 19654 C 1960.12 1.49547 1.15898 0
M  V30 19655 O 1959.46 0.623841 1.72783 0
M  V30 19656 C 1959.53 3.59492 -0.0240613 0
M  V30 19657 C 1959.19 4.38347 -1.29231 0
M  V30 19658 C 1960.19 4.70005 -2.22242 0
M  V30 19659 C 1957.87 4.78251 -1.53562 0
M  V30 19660 C 1959.87 5.40482 -3.37872 0
M  V30 19661 C 1957.55 5.48472 -2.69484 0
M  V30 19662 C 1958.55 5.79511 -3.61464 0
M  V30 19663 O 1958.24 6.48295 -4.75361 0
M  V30 19664 H 1957.97 0.669968 -0.0901075 0
M  V30 19665 H 1960.52 1.84531 -0.902089 0
M  V30 19666 H 1958.75 3.79348 0.75046 0
M  V30 19667 H 1960.44 4.03819 0.410502 0
M  V30 19668 H 1961.21 4.3969 -2.04689 0
M  V30 19669 H 1957.09 4.53495 -0.828469 0
M  V30 19670 H 1960.63 5.64627 -4.09686 0
M  V30 19671 H 1956.53 5.78203 -2.86969 0
M  V30 19672 H 1957.3 6.66781 -4.74706 0
M  V30 19673 N 1959.96 0.40173 1.52394 0
M  V30 19674 C 1961.21 -0.17611 2.01331 0
M  V30 19675 C 1961.53 -1.46274 1.28953 0
M  V30 19676 O 1960.8 -1.91492 0.413249 0
M  V30 19677 H 1959.38 -0.0680697 0.743892 0
M  V30 19678 H 1962.04 0.536274 1.87377 0
M  V30 19679 H 1961.14 -0.377497 3.09809 0
M  V30 19680 N 1961.44 -1.57047 0.131923 0
M  V30 19681 C 1962.37 -2.13088 -0.844174 0
M  V30 19682 C 1963.38 -1.07666 -1.22114 0
M  V30 19683 O 1964.57 -1.34995 -1.16784 0
M  V30 19684 C 1961.67 -2.62623 -2.14201 0
M  V30 19685 C 1960.85 -3.92283 -1.93475 0
M  V30 19686 C 1959.9 -4.27284 -3.07107 0
M  V30 19687 O 1958.93 -4.95876 -2.79456 0
M  V30 19688 N 1960.13 -3.85646 -4.33887 0
M  V30 19689 H 1962.9 -2.97465 -0.365306 0
M  V30 19690 H 1960.46 -1.61816 -0.0521136 0
M  V30 19691 H 1962.45 -2.8306 -2.89239 0
M  V30 19692 H 1961.02 -1.83054 -2.53397 0
M  V30 19693 H 1960.24 -3.80625 -1.02558 0
M  V30 19694 H 1961.53 -4.7704 -1.76947 0
M  V30 19695 H 1960.93 -3.30348 -4.59224 0
M  V30 19696 H 1959.48 -4.11165 -5.05754 0
M  V30 19697 N 1962.92 0.141865 -1.5696 0
M  V30 19698 C 1964.16 0.851923 -1.83267 0
M  V30 19699 C 1964.49 1.81473 -0.713611 0
M  V30 19700 O 1963.76 1.94109 0.264326 0
M  V30 19701 H 1962.34 0.317594 -0.676124 0
M  V30 19702 H 1965 0.134643 -1.94434 0
M  V30 19703 H 1964.09 1.41106 -2.7838 0
M  V30 19704 N 1964.39 1.52136 0.411372 0
M  V30 19705 C 1965.32 1.78277 1.50796 0
M  V30 19706 C 1966.31 0.633643 1.57857 0
M  V30 19707 O 1967.49 0.879011 1.73168 0
M  V30 19708 C 1964.62 1.93142 2.88641 0
M  V30 19709 C 1963.57 3.08727 2.96431 0
M  V30 19710 C 1962.9 3.08812 4.36508 0
M  V30 19711 C 1964.2 4.48228 2.68122 0
M  V30 19712 H 1965.89 2.70102 1.29171 0
M  V30 19713 H 1963.44 1.29971 0.619965 0
M  V30 19714 H 1965.39 2.10012 3.65339 0
M  V30 19715 H 1964.12 0.979869 3.11554 0
M  V30 19716 H 1962.78 2.91604 2.22177 0
M  V30 19717 H 1962.42 2.11383 4.56428 0
M  V30 19718 H 1962.12 3.86444 4.42645 0
M  V30 19719 H 1963.65 3.27809 5.15144 0
M  V30 19720 H 1965.06 4.65568 3.34544 0
M  V30 19721 H 1963.46 5.27761 2.85638 0
M  V30 19722 H 1964.53 4.56478 1.63572 0
M  V30 19723 N 1965.87 -0.668464 1.42721 0
M  V30 19724 C 1966.81 -1.794 1.42648 0
M  V30 19725 C 1967.82 -1.5953 0.324664 0
M  V30 19726 O 1969.01 -1.68532 0.588153 0
M  V30 19727 C 1966.11 -3.16602 1.20898 0
M  V30 19728 C 1965.28 -3.63266 2.43632 0
M  V30 19729 C 1964.34 -4.79221 2.17333 0
M  V30 19730 O 1963.37 -4.89441 2.90579 0
M  V30 19731 N 1964.57 -5.68372 1.18041 0
M  V30 19732 H 1967.33 -1.79946 2.39666 0
M  V30 19733 H 1964.89 -0.85178 1.37682 0
M  V30 19734 H 1966.89 -3.9184 1.01211 0
M  V30 19735 H 1965.46 -3.10918 0.323806 0
M  V30 19736 H 1964.68 -2.78638 2.78845 0
M  V30 19737 H 1965.96 -3.91186 3.25348 0
M  V30 19738 H 1965.36 -5.62773 0.574725 0
M  V30 19739 H 1963.92 -6.43394 1.0434 0
M  V30 19740 N 1967.35 -1.28999 -0.905381 0
M  V30 19741 C 1968.28 -1.09447 -2.0138 0
M  V30 19742 C 1969.3 -0.0436697 -1.62741 0
M  V30 19743 O 1970.49 -0.287603 -1.76168 0
M  V30 19744 C 1967.59 -0.642796 -3.32748 0
M  V30 19745 C 1966.76 -1.77086 -3.99949 0
M  V30 19746 C 1965.82 -1.31115 -5.09603 0
M  V30 19747 O 1964.84 -2.01488 -5.32345 0
M  V30 19748 N 1966.05 -0.178924 -5.80224 0
M  V30 19749 H 1968.81 -2.04906 -2.18709 0
M  V30 19750 H 1966.37 -1.20863 -1.07721 0
M  V30 19751 H 1968.36 -0.318684 -4.03443 0
M  V30 19752 H 1966.93 0.21918 -3.11831 0
M  V30 19753 H 1966.15 -2.26414 -3.22692 0
M  V30 19754 H 1967.44 -2.52736 -4.4159 0
M  V30 19755 H 1966.84 0.407926 -5.64227 0
M  V30 19756 H 1965.4 0.085857 -6.51743 0
M  V30 19757 N 1968.83 1.11497 -1.11383 0
M  V30 19758 C 1970.05 1.87567 -0.885056 0
M  V30 19759 C 1970.48 1.79581 0.559675 0
M  V30 19760 O 1969.84 1.15779 1.39517 0
M  V30 19761 C 1969.89 3.34354 -1.35053 0
M  V30 19762 O 1968.99 4.09085 -0.521865 0
M  V30 19763 H 1968.33 0.582433 -0.318853 0
M  V30 19764 H 1970.86 1.4094 -1.48314 0
M  V30 19765 H 1970.87 3.85201 -1.34478 0
M  V30 19766 H 1969.55 3.39484 -2.40257 0
M  V30 19767 H 1968.12 3.68144 -0.593669 0
M  V30 19768 N 1970.31 0.904053 1.29092 0
M  V30 19769 C 1971.72 0.600783 1.47861 0
M  V30 19770 C 1971.92 -0.856554 1.82388 0
M  V30 19771 O 1970.98 -1.6364 1.92297 0
M  V30 19772 C 1972.29 1.53035 2.58845 0
M  V30 19773 C 1973.84 1.53602 2.72719 0
M  V30 19774 C 1974.32 2.45197 3.86836 0
M  V30 19775 N 1975.81 2.43269 3.94176 0
M  V30 19776 C 1976.54 3.10843 4.81834 0
M  V30 19777 N 1976.04 3.87712 5.74153 0
M  V30 19778 N 1977.83 2.99979 4.75362 0
M  V30 19779 H 1969.98 1.84656 1.04957 0
M  V30 19780 H 1972.24 0.791479 0.52179 0
M  V30 19781 H 1971.95 2.5689 2.4021 0
M  V30 19782 H 1971.82 1.25414 3.5574 0
M  V30 19783 H 1974.21 0.504899 2.90749 0
M  V30 19784 H 1974.29 1.85262 1.76385 0
M  V30 19785 H 1973.94 3.48406 3.69562 0
M  V30 19786 H 1973.87 2.10844 4.82548 0
M  V30 19787 H 1976.36 1.87423 3.28148 0
M  V30 19788 H 1976.67 4.36317 6.37846 0
M  V30 19789 H 1975.02 3.91818 5.74024 0
M  V30 19790 H 1978.21 2.39437 4.02228 0
M  V30 19791 H 1978.38 3.52916 5.43465 0
M  V30 19792 N 1971.79 -1.4279 0.666995 0
M  V30 19793 C 1973.03 -2.00866 0.183286 0
M  V30 19794 C 1973.35 -1.53315 -1.21465 0
M  V30 19795 O 1974.55 -2.03756 -1.79432 0
M  V30 19796 C 1973.01 -3.58834 0.276836 0
M  V30 19797 C 1972.62 -4.15374 1.67834 0
M  V30 19798 C 1974.36 -4.2424 -0.14856 0
M  V30 19799 C 1972.27 -5.65681 1.72507 0
M  V30 19800 H 1971.2 -0.751214 0.0647613 0
M  V30 19801 H 1973.85 -1.63603 0.83104 0
M  V30 19802 H 1972.23 -3.93563 -0.438672 0
M  V30 19803 H 1973.41 -3.9212 2.4203 0
M  V30 19804 H 1971.72 -3.62391 2.0509 0
M  V30 19805 H 1974.32 -5.34533 -0.133681 0
M  V30 19806 H 1974.66 -3.99154 -1.18245 0
M  V30 19807 H 1975.19 -3.94444 0.51567 0
M  V30 19808 H 1971.93 -5.95555 2.73852 0
M  V30 19809 H 1971.45 -5.9095 1.02655 0
M  V30 19810 H 1973.13 -6.29963 1.47499 0
M  V30 19811 N 1973.26 -0.409806 -1.52179 0
M  V30 19812 C 1974.49 0.167702 -2.06721 0
M  V30 19813 C 1974.91 1.38034 -1.27782 0
M  V30 19814 O 1974.27 1.7866 -0.308244 0
M  V30 19815 C 1974.32 0.495862 -3.57174 0
M  V30 19816 O 1973.42 1.58675 -3.80652 0
M  V30 19817 H 1972.76 0.013908 -0.663854 0
M  V30 19818 H 1975.29 -0.583201 -1.96112 0
M  V30 19819 H 1975.3 0.754301 -4.00967 0
M  V30 19820 H 1973.98 -0.390588 -4.14062 0
M  V30 19821 H 1972.56 1.32042 -3.48739 0
M  V30 19822 N 1974.74 1.56975 -0.14025 0
M  V30 19823 C 1976.02 1.87494 0.557244 0
M  V30 19824 C 1976.4 1.04507 1.83416 0
M  V30 19825 O 1975.75 0.129958 2.2813 0
M  V30 19826 C 1975.96 3.39006 0.829213 0
M  V30 19827 C 1977.3 4.08077 1.17296 0
M  V30 19828 O 1978.33 3.44146 0.918788 0
M  V30 19829 O 1977.19 5.20966 1.65096 0
M  V30 19830 H 1974.28 0.776892 0.283492 0
M  V30 19831 H 1976.83 1.68781 -0.176354 0
M  V30 19832 H 1975.6 3.91229 -0.0747688 0
M  V30 19833 H 1975.22 3.63224 1.61723 0
M  V30 19834 N 1976.22 -0.133539 1.57033 0
M  V30 19835 C 1977.47 -0.842358 1.83268 0
M  V30 19836 C 1977.78 -1.81722 0.723634 0
M  V30 19837 O 1978.99 -2.57117 0.871969 0
M  V30 19838 C 1977.44 -1.54868 3.24875 0
M  V30 19839 C 1977.05 -0.615546 4.43751 0
M  V30 19840 C 1978.8 -2.24349 3.60372 0
M  V30 19841 C 1976.7 -1.32426 5.76383 0
M  V30 19842 H 1975.63 -0.318314 0.683515 0
M  V30 19843 H 1978.28 -0.0950741 1.83254 0
M  V30 19844 H 1976.67 -2.34207 3.19316 0
M  V30 19845 H 1977.84 0.143586 4.60576 0
M  V30 19846 H 1976.15 -0.0284595 4.1639 0
M  V30 19847 H 1978.75 -2.78037 4.56727 0
M  V30 19848 H 1979.09 -3.01473 2.87088 0
M  V30 19849 H 1979.63 -1.51914 3.67651 0
M  V30 19850 H 1976.37 -0.594603 6.52798 0
M  V30 19851 H 1975.89 -2.05577 5.6347 0
M  V30 19852 H 1977.57 -1.86148 6.19643 0
M  V30 19853 N 1977.7 -1.52352 -0.403298 0
M  V30 19854 C 1978.92 -1.70849 -1.17582 0
M  V30 19855 C 1979.35 -0.419696 -1.83358 0
M  V30 19856 O 1978.71 0.623346 -1.70247 0
M  V30 19857 C 1978.75 -2.8492 -2.21027 0
M  V30 19858 O 1977.86 -2.50896 -3.273 0
M  V30 19859 H 1977.2 -0.568568 -0.342967 0
M  V30 19860 H 1979.73 -1.99082 -0.471975 0
M  V30 19861 H 1979.74 -3.10002 -2.6526 0
M  V30 19862 H 1978.41 -3.78423 -1.72536 0
M  V30 19863 H 1976.99 -2.36506 -2.88304 0
M  V30 19864 N 1979.18 0.660885 -1.43074 0
M  V30 19865 C 1980.11 1.78574 -1.4208 0
M  V30 19866 C 1981.09 1.60114 -0.283219 0
M  V30 19867 O 1982.27 1.82401 -0.475618 0
M  V30 19868 C 1979.4 3.1577 -1.22503 0
M  V30 19869 C 1978.44 3.52948 -2.39436 0
M  V30 19870 S 1979.28 3.53793 -4.01983 0
M  V30 19871 C 1980.43 4.93659 -3.84775 0
M  V30 19872 H 1980.67 1.79145 -2.37264 0
M  V30 19873 H 1978.2 0.832831 -1.30013 0
M  V30 19874 H 1980.16 3.94956 -1.11894 0
M  V30 19875 H 1978.82 3.1277 -0.288797 0
M  V30 19876 H 1978.01 4.52707 -2.21523 0
M  V30 19877 H 1977.61 2.81157 -2.46631 0
M  V30 19878 H 1979.9 5.82114 -3.46626 0
M  V30 19879 H 1980.85 5.16623 -4.84259 0
M  V30 19880 H 1981.26 4.66833 -3.17376 0
M  V30 19881 N 1980.65 1.29477 0.898527 0
M  V30 19882 C 1981.56 1.16595 2.03575 0
M  V30 19883 C 1982.58 0.0889285 1.73773 0
M  V30 19884 O 1983.76 0.301228 1.99135 0
M  V30 19885 C 1980.82 0.844745 3.36251 0
M  V30 19886 C 1979.88 2.00573 3.79564 0
M  V30 19887 C 1979.12 1.69975 5.05909 0
M  V30 19888 O 1979.34 0.621246 5.67007 0
M  V30 19889 O 1978.27 2.54809 5.45303 0
M  V30 19890 H 1982.1 2.12098 2.17367 0
M  V30 19891 H 1979.68 1.0894 1.02237 0
M  V30 19892 H 1981.57 0.680229 4.15874 0
M  V30 19893 H 1980.24 -0.080494 3.236 0
M  V30 19894 H 1979.15 2.22549 3.00704 0
M  V30 19895 H 1980.48 2.91221 3.96801 0
M  V30 19896 N 1982.13 -1.10905 1.11972 0
M  V30 19897 C 1983.38 -1.83033 0.873311 0
M  V30 19898 C 1983.71 -1.84716 -0.599472 0
M  V30 19899 O 1982.99 -1.30427 -1.44288 0
M  V30 19900 C 1983.27 -3.29941 1.44261 0
M  V30 19901 C 1983.12 -3.36619 2.98341 0
M  V30 19902 C 1984.44 -4.26179 1.09815 0
M  V30 19903 H 1981.56 -0.664529 0.318701 0
M  V30 19904 H 1984.2 -1.30012 1.38553 0
M  V30 19905 H 1982.35 -3.75223 1.00697 0
M  V30 19906 H 1984.02 -2.99854 3.5055 0
M  V30 19907 H 1982.27 -2.76668 3.34122 0
M  V30 19908 H 1982.94 -4.40043 3.33266 0
M  V30 19909 H 1985.41 -3.89105 1.47433 0
M  V30 19910 H 1984.29 -5.27343 1.52318 0
M  V30 19911 H 1984.55 -4.42099 0.00966838 0
M  V30 19912 N 1983.61 -0.910886 -1.2861 0
M  V30 19913 C 1984.86 -0.541485 -1.94711 0
M  V30 19914 C 1985.18 0.917302 -1.72077 0
M  V30 19915 O 1984.45 1.64818 -1.05885 0
M  V30 19916 H 1983.03 -0.197263 -0.720483 0
M  V30 19917 H 1985.69 -1.15962 -1.56649 0
M  V30 19918 H 1984.79 -0.73351 -3.03358 0
M  V30 19919 N 1985.09 1.42434 -0.674558 0
M  V30 19920 C 1986.5 1.55847 -0.344087 0
M  V30 19921 C 1986.7 1.65424 1.15053 0
M  V30 19922 O 1985.76 1.62103 1.93594 0
M  V30 19923 C 1987.07 2.80859 -1.07419 0
M  V30 19924 C 1988.62 2.94631 -1.05649 0
M  V30 19925 C 1989.1 4.22503 -1.76791 0
M  V30 19926 N 1990.59 4.29415 -1.73658 0
M  V30 19927 C 1991.32 5.27171 -2.25561 0
M  V30 19928 N 1990.82 6.31082 -2.85845 0
M  V30 19929 N 1992.61 5.18968 -2.15937 0
M  V30 19930 H 1984.76 1.34461 -1.6442 0
M  V30 19931 H 1987.03 0.647231 -0.692673 0
M  V30 19932 H 1986.73 2.79919 -2.12928 0
M  V30 19933 H 1986.61 3.71743 -0.63927 0
M  V30 19934 H 1988.99 2.95098 -0.00973704 0
M  V30 19935 H 1989.07 2.04977 -1.53029 0
M  V30 19936 H 1988.72 4.22796 -2.81435 0
M  V30 19937 H 1988.65 5.11091 -1.26861 0
M  V30 19938 H 1991.14 3.5495 -1.29687 0
M  V30 19939 H 1991.45 7.02029 -3.2307 0
M  V30 19940 H 1989.8 6.31644 -2.89914 0
M  V30 19941 H 1992.99 4.3671 -1.6853 0
M  V30 19942 H 1993.16 5.9499 -2.56693 0
M  V30 19943 N 1986.57 0.417871 1.51959 0
M  V30 19944 C 1987.51 -0.403305 2.27249 0
M  V30 19945 C 1988.48 -1.0336 1.30023 0
M  V30 19946 O 1989.67 -1.05621 1.58899 0
M  V30 19947 C 1986.81 -1.50928 3.10346 0
M  V30 19948 C 1985.92 -0.899043 4.22541 0
M  V30 19949 C 1985.06 -1.97844 4.92982 0
M  V30 19950 C 1984.1 -1.3456 5.97126 0
M  V30 19951 N 1983.23 -2.36552 6.6105 0
M  V30 19952 H 1988.07 0.245143 2.9699 0
M  V30 19953 H 1985.61 0.132733 1.465 0
M  V30 19954 H 1987.57 -2.16157 3.56836 0
M  V30 19955 H 1986.2 -2.12763 2.42759 0
M  V30 19956 H 1985.25 -0.135561 3.80158 0
M  V30 19957 H 1986.56 -0.396845 4.97219 0
M  V30 19958 H 1985.72 -2.7078 5.42921 0
M  V30 19959 H 1984.45 -2.51432 4.17892 0
M  V30 19960 H 1983.46 -0.601616 5.46499 0
M  V30 19961 H 1984.68 -0.817308 6.74164 0
M  V30 19962 H 1982.63 -2.89256 5.88784 0
M  V30 19963 H 1982.55 -1.91169 7.3143 0
M  V30 19964 H 1983.82 -3.09031 7.15626 0
M  V30 19965 N 1988.04 -1.56898 0.148573 0
M  V30 19966 C 1989.01 -2.15649 -0.776414 0
M  V30 19967 C 1990.01 -1.09867 -1.17413 0
M  V30 19968 O 1991.2 -1.35498 -1.0948 0
M  V30 19969 C 1988.33 -2.72087 -2.05381 0
M  V30 19970 H 1989.52 -2.98724 -0.265327 0
M  V30 19971 H 1987.08 -1.55974 -0.100881 0
M  V30 19972 H 1987.81 -1.92683 -2.60852 0
M  V30 19973 H 1987.6 -3.49479 -1.77782 0
M  V30 19974 H 1989.09 -3.17348 -2.71441 0
M  V30 19975 N 1989.52 0.125209 -1.57102 0
M  V30 19976 C 1990.43 1.17286 -2.03177 0
M  V30 19977 C 1991.45 1.4571 -0.951035 0
M  V30 19978 O 1992.62 1.56949 -1.2621 0
M  V30 19979 C 1989.69 2.4811 -2.42161 0
M  V30 19980 C 1988.75 2.2714 -3.64288 0
M  V30 19981 C 1987.98 3.51726 -4.01404 0
M  V30 19982 O 1988.21 4.58785 -3.38929 0
M  V30 19983 O 1987.14 3.43096 -4.94539 0
M  V30 19984 H 1990.97 0.811619 -2.92654 0
M  V30 19985 H 1988.55 0.335551 -1.45583 0
M  V30 19986 H 1990.43 3.252 -2.67998 0
M  V30 19987 H 1989.11 2.83721 -1.55833 0
M  V30 19988 H 1988.02 1.47929 -3.4361 0
M  V30 19989 H 1989.35 1.96435 -4.51303 0
M  V30 19990 N 1991 1.52564 0.395213 0
M  V30 19991 C 1991.95 1.769 1.48239 0
M  V30 19992 C 1992.92 0.611965 1.54416 0
M  V30 19993 O 1994.1 0.851019 1.7077 0
M  V30 19994 C 1991.24 1.93809 2.85538 0
M  V30 19995 C 1990.36 3.2149 2.88562 0
M  V30 19996 C 1989.49 3.28751 4.17248 0
M  V30 19997 C 1988.53 4.5058 4.143 0
M  V30 19998 N 1987.67 4.55156 5.34581 0
M  V30 19999 H 1992.51 2.69683 1.26788 0
M  V30 20000 H 1990.04 1.33618 0.615189 0
M  V30 20001 H 1992 2.01597 3.6526 0
M  V30 20002 H 1990.63 1.04394 3.05453 0
M  V30 20003 H 1989.68 3.22805 2.01249 0
M  V30 20004 H 1991 4.11262 2.82251 0
M  V30 20005 H 1990.15 3.35687 5.0537 0
M  V30 20006 H 1988.89 2.36943 4.26274 0
M  V30 20007 H 1987.89 4.43775 3.24567 0
M  V30 20008 H 1989.12 5.43698 4.06902 0
M  V30 20009 H 1987.06 3.66237 5.44248 0
M  V30 20010 H 1986.98 5.38791 5.30321 0
M  V30 20011 H 1988.25 4.6634 6.24618 0
M  V30 20012 N 1992.48 -0.653289 1.43422 0
M  V30 20013 C 1993.41 -1.77779 1.51383 0
M  V30 20014 C 1994.39 -1.6606 0.368515 0
M  V30 20015 O 1995.57 -1.85157 0.585721 0
M  V30 20016 C 1992.7 -3.16206 1.43635 0
M  V30 20017 C 1991.66 -3.42688 2.56415 0
M  V30 20018 C 1990.98 -4.80915 2.3372 0
M  V30 20019 C 1992.28 -3.3744 3.98662 0
M  V30 20020 H 1993.98 -1.71374 2.45502 0
M  V30 20021 H 1991.52 -0.823062 1.1816 0
M  V30 20022 H 1993.48 -3.94627 1.47808 0
M  V30 20023 H 1992.2 -3.23341 0.460202 0
M  V30 20024 H 1990.86 -2.66638 2.51594 0
M  V30 20025 H 1990.51 -4.84726 1.34349 0
M  V30 20026 H 1990.21 -4.99594 3.09321 0
M  V30 20027 H 1991.73 -5.61594 2.39677 0
M  V30 20028 H 1993.15 -4.05798 4.0497 0
M  V30 20029 H 1991.54 -3.67656 4.74288 0
M  V30 20030 H 1992.61 -2.35624 4.23803 0
M  V30 20031 N 1993.96 -1.29952 -0.891648 0
M  V30 20032 C 1994.91 -1.12384 -1.98378 0
M  V30 20033 C 1995.89 -0.0409187 -1.60848 0
M  V30 20034 O 1997.08 -0.263515 -1.75027 0
M  V30 20035 C 1994.21 -0.81081 -3.33588 0
M  V30 20036 C 1993.3 -1.93366 -3.77452 0
M  V30 20037 N 1993.69 -3.17821 -3.93476 0
M  V30 20038 C 1991.99 -1.82852 -4.06794 0
M  V30 20039 C 1992.69 -3.9113 -4.30572 0
M  V30 20040 N 1991.66 -3.19131 -4.40064 0
M  V30 20041 H 1995.47 -2.06784 -2.08848 0
M  V30 20042 H 1992.98 -1.21194 -1.08101 0
M  V30 20043 H 1994.98 -0.665983 -4.11546 0
M  V30 20044 H 1993.64 0.125193 -3.24459 0
M  V30 20045 H 1994.65 -3.53185 -3.78788 0
M  V30 20046 H 1991.32 -0.965759 -4.06176 0
M  V30 20047 H 1992.71 -4.98273 -4.50748 0
M  V30 20048 N 1995.44 1.1031 -1.12559 0
M  V30 20049 C 1996.85 1.63801 -0.895891 0
M  V30 20050 C 1997.2 1.87753 0.569511 0
M  V30 20051 O 1996.32 1.62046 1.43423 0
M  V30 20052 C 1996.92 2.9757 -1.6198 0
M  V30 20053 C 1995.48 3.47922 -1.43622 0
M  V30 20054 C 1994.62 2.22506 -1.65489 0
M  V30 20055 H 1997.57 0.937927 -1.28018 0
M  V30 20056 H 1997.6 3.65099 -1.07159 0
M  V30 20057 H 1997.11 2.80105 -2.68631 0
M  V30 20058 H 1995.21 3.70529 -0.392328 0
M  V30 20059 H 1995.32 4.25953 -2.1932 0
M  V30 20060 H 1993.69 2.30712 -1.07908 0
M  V30 20061 H 1994.47 2.07571 -2.7344 0
M  V30 20062 N 1996.91 0.917694 1.28125 0
M  V30 20063 C 1997.82 0.414339 2.30912 0
M  V30 20064 C 1998.84 -0.49998 1.66662 0
M  V30 20065 O 2000.02 -0.385213 1.97682 0
M  V30 20066 C 1997.08 -0.333886 3.45089 0
M  V30 20067 C 1996.14 0.614131 4.24885 0
M  V30 20068 C 1995.37 -0.0984806 5.33609 0
M  V30 20069 O 1995.6 -1.31956 5.54927 0
M  V30 20070 O 1994.53 0.568228 5.99212 0
M  V30 20071 H 1998.36 1.26755 2.75984 0
M  V30 20072 H 1995.94 0.682661 1.32891 0
M  V30 20073 H 1997.82 -0.756311 4.14557 0
M  V30 20074 H 1996.5 -1.16286 3.02091 0
M  V30 20075 H 1995.41 1.08603 3.57989 0
M  V30 20076 H 1996.74 1.41003 4.71571 0
M  V30 20077 N 1998.39 -1.42074 0.682102 0
M  V30 20078 C 1999.3 -2.34598 0.00845226 0
M  V30 20079 C 2000.32 -1.55494 -0.780873 0
M  V30 20080 O 2001.49 -1.88032 -0.721524 0
M  V30 20081 C 1998.56 -3.34103 -0.926085 0
M  V30 20082 C 1997.62 -4.29102 -0.130475 0
M  V30 20083 C 1996.85 -5.23853 -1.0205 0
M  V30 20084 O 1997.08 -5.23716 -2.26004 0
M  V30 20085 O 1996.01 -6.00004 -0.47739 0
M  V30 20086 H 1999.84 -2.93756 0.770779 0
M  V30 20087 H 1997.42 -1.42701 0.442368 0
M  V30 20088 H 1999.3 -3.95212 -1.46236 0
M  V30 20089 H 1997.98 -2.77408 -1.66814 0
M  V30 20090 H 1996.88 -3.71383 0.450082 0
M  V30 20091 H 1998.22 -4.88858 0.57262 0
M  V30 20092 N 1999.87 -0.425924 -1.51735 0
M  V30 20093 C 2000.78 0.39769 -2.31205 0
M  V30 20094 C 2001.8 1.0382 -1.39633 0
M  V30 20095 O 2002.97 1.03606 -1.72707 0
M  V30 20096 C 2000.04 1.49033 -3.13033 0
M  V30 20097 C 1999.1 0.871143 -4.20368 0
M  V30 20098 C 1998.33 1.91172 -4.98286 0
M  V30 20099 O 1998.55 3.13232 -4.76699 0
M  V30 20100 O 1997.49 1.5086 -5.82688 0
M  V30 20101 H 2001.31 -0.25075 -3.02663 0
M  V30 20102 H 1998.9 -0.188723 -1.48203 0
M  V30 20103 H 2000.78 2.12428 -3.6394 0
M  V30 20104 H 1999.46 2.12307 -2.44351 0
M  V30 20105 H 1998.36 0.199453 -3.73568 0
M  V30 20106 H 1999.7 0.282077 -4.91391 0
M  V30 20107 N 2001.35 1.56817 -0.156891 0
M  V30 20108 C 2002.59 1.9673 0.492464 0
M  V30 20109 C 2002.93 1.04226 1.63862 0
M  V30 20110 O 2002.2 0.0865469 1.94307 0
M  V30 20111 C 2002.48 3.46246 0.989218 0
M  V30 20112 C 2002.34 4.49529 -0.156119 0
M  V30 20113 C 2003.66 3.98502 1.86773 0
M  V30 20114 H 2000.78 0.715297 0.177537 0
M  V30 20115 H 2003.42 1.88477 -0.240116 0
M  V30 20116 H 2001.57 3.53411 1.61348 0
M  V30 20117 H 2003.24 4.54437 -0.792781 0
M  V30 20118 H 2001.48 4.26098 -0.813797 0
M  V30 20119 H 2002.15 5.51507 0.233341 0
M  V30 20120 H 2004.63 3.93879 1.34159 0
M  V30 20121 H 2003.51 5.03564 2.18436 0
M  V30 20122 H 2003.77 3.4145 2.80828 0
M  V30 20123 N 2002.83 -0.116876 1.57166 0
M  V30 20124 C 2003.79 -1.12735 1.99558 0
M  V30 20125 C 2004.79 -1.34188 0.886016 0
M  V30 20126 O 2005.98 -1.30669 1.15201 0
M  V30 20127 C 2003.11 -2.48135 2.33756 0
M  V30 20128 H 2004.3 -0.762948 2.90033 0
M  V30 20129 H 2001.86 -0.36124 1.52068 0
M  V30 20130 H 2002.59 -2.89492 1.46167 0
M  V30 20131 H 2002.38 -2.33918 3.14682 0
M  V30 20132 H 2003.87 -3.20855 2.67286 0
M  V30 20133 N 2004.3 -1.52772 -0.387116 0
M  V30 20134 C 2005.53 -1.72086 -1.15763 0
M  V30 20135 C 2005.95 -0.43912 -1.82903 0
M  V30 20136 O 2005.31 0.605254 -1.70899 0
M  V30 20137 C 2005.36 -2.87248 -2.17992 0
M  V30 20138 O 2004.46 -2.54353 -3.2462 0
M  V30 20139 H 2003.8 -0.572174 -0.336918 0
M  V30 20140 H 2006.33 -1.99571 -0.450833 0
M  V30 20141 H 2006.34 -3.12798 -2.61957 0
M  V30 20142 H 2005.02 -3.80232 -1.68513 0
M  V30 20143 H 2003.6 -2.39551 -2.8578 0
M  V30 20144 N 2005.78 0.645673 -1.43767 0
M  V30 20145 C 2006.71 1.76974 -1.52324 0
M  V30 20146 C 2007.69 1.65862 -0.377316 0
M  V30 20147 O 2008.88 1.84843 -0.595532 0
M  V30 20148 C 2006.01 3.1544 -1.4531 0
M  V30 20149 C 2004.96 3.41324 -2.58229 0
M  V30 20150 C 2004.29 4.79669 -2.36267 0
M  V30 20151 C 2005.59 3.35321 -4.00446 0
M  V30 20152 H 2007.28 1.70069 -2.46408 0
M  V30 20153 H 2004.83 0.816784 -1.18594 0
M  V30 20154 H 2006.78 3.93838 -1.49899 0
M  V30 20155 H 2005.5 3.23093 -0.477344 0
M  V30 20156 H 2004.16 2.653 -2.53005 0
M  V30 20157 H 2003.81 4.84007 -1.36918 0
M  V30 20158 H 2003.51 4.97947 -3.11966 0
M  V30 20159 H 2005.04 5.60315 -2.42652 0
M  V30 20160 H 2006.45 4.03644 -4.07117 0
M  V30 20161 H 2004.85 3.65135 -4.76231 0
M  V30 20162 H 2005.92 2.33373 -4.25047 0
M  V30 20163 N 2007.26 1.30423 0.884744 0
M  V30 20164 C 2008.19 1.19397 2.00666 0
M  V30 20165 C 2009.17 0.084568 1.6989 0
M  V30 20166 O 2010.36 0.266641 1.92361 0
M  V30 20167 C 2007.49 0.885244 3.35828 0
M  V30 20168 C 2006.44 1.9526 3.80864 0
M  V30 20169 C 2005.77 1.49687 5.13321 0
M  V30 20170 C 2007.07 3.3637 3.99566 0
M  V30 20171 H 2008.76 2.13256 2.10148 0
M  V30 20172 H 2006.31 1.02669 1.00971 0
M  V30 20173 H 2008.26 0.794764 4.13837 0
M  V30 20174 H 2006.98 -0.0890295 3.26479 0
M  V30 20175 H 2005.64 2.03272 3.05084 0
M  V30 20176 H 2005.29 0.510855 5.00399 0
M  V30 20177 H 2004.99 2.2108 5.44424 0
M  V30 20178 H 2006.51 1.42018 5.93855 0
M  V30 20179 H 2007.93 3.31115 4.68012 0
M  V30 20180 H 2006.32 4.05852 4.42046 0
M  V30 20181 H 2007.39 3.78244 3.03414 0
M  V30 20182 N 2008.74 -1.09711 1.13142 0
M  V30 20183 C 2009.65 -2.19825 0.819391 0
M  V30 20184 C 2010.66 -1.72906 -0.19483 0
M  V30 20185 O 2011.84 -2.01382 -0.0265972 0
M  V30 20186 C 2008.9 -3.45512 0.286717 0
M  V30 20187 C 2007.97 -4.07128 1.36181 0
M  V30 20188 C 2007.2 -5.26816 0.854462 0
M  V30 20189 O 2007.42 -5.69562 -0.309043 0
M  V30 20190 O 2006.36 -5.79481 1.62745 0
M  V30 20191 H 2010.18 -2.48963 1.73928 0
M  V30 20192 H 2007.77 -1.18591 0.908654 0
M  V30 20193 H 2009.65 -4.214 -0.00508436 0
M  V30 20194 H 2008.32 -3.17984 -0.605634 0
M  V30 20195 H 2007.23 -3.32891 1.70689 0
M  V30 20196 H 2008.56 -4.38876 2.2282 0
M  V30 20197 N 2010.22 -0.924476 -1.27637 0
M  V30 20198 C 2011.16 -0.411501 -2.28931 0
M  V30 20199 C 2012.16 0.502472 -1.61776 0
M  V30 20200 O 2013.36 0.382531 -1.75888 0
M  V30 20201 H 2009.74 -0.114496 -0.743233 0
M  V30 20202 H 2011.71 -1.27869 -2.69615 0
M  V30 20203 C 2010.46 0.323415 -3.46193 0
M  V30 20204 H 2009.78 -0.37068 -3.98078 0
M  V30 20205 H 2011.22 0.646821 -4.19037 0
M  V30 20206 C 2009.68 1.53523 -2.99887 0
M  V30 20207 O 2010.21 2.63407 -3.03281 0
M  V30 20208 N 2008.42 1.38594 -2.55421 0
M  V30 20209 H 2007.96 0.491939 -2.52859 0
M  V30 20210 H 2007.92 2.198 -2.24801 0
M  V30 20211 N 2011.69 1.41711 -0.689627 0
M  V30 20212 C 2012.93 2.03189 -0.222164 0
M  V30 20213 C 2013.3 1.53416 1.15445 0
M  V30 20214 O 2014.5 2.06781 1.71742 0
M  V30 20215 C 2012.77 3.56371 -0.271028 0
M  V30 20216 S 2014.33 4.38627 0.12326 0
M  V30 20217 H 2011.15 0.705282 -0.0899882 0
M  V30 20218 H 2013.75 1.73235 -0.906082 0
M  V30 20219 H 2012.45 3.90091 -1.27502 0
M  V30 20220 H 2011.98 3.91018 0.432235 0
M  V30 20221 H 2014 4.77408 1.35264 0
M  V30 20222 N 2013.17 0.433965 1.51507 0
M  V30 20223 C 2014.42 -0.133827 2.02358 0
M  V30 20224 C 2014.75 -1.42654 1.3177 0
M  V30 20225 O 2014.03 -1.89651 0.431588 0
M  V30 20226 C 2014.31 -0.356052 3.58335 0
M  V30 20227 C 2014.16 0.955077 4.39543 0
M  V30 20228 C 2015.48 -1.12732 4.25417 0
M  V30 20229 H 2012.6 -0.0471634 0.735489 0
M  V30 20230 H 2015.24 0.572301 1.81176 0
M  V30 20231 H 2013.39 -0.957541 3.76515 0
M  V30 20232 H 2015.06 1.59029 4.33021 0
M  V30 20233 H 2013.31 1.56044 4.04762 0
M  V30 20234 H 2013.98 0.753671 5.46831 0
M  V30 20235 H 2016.45 -0.617852 4.11487 0
M  V30 20236 H 2015.33 -1.25157 5.34441 0
M  V30 20237 H 2015.59 -2.15452 3.86048 0
M  V30 20238 N 2014.65 -1.56732 0.165206 0
M  V30 20239 C 2015.89 -1.98591 -0.483841 0
M  V30 20240 C 2016.25 -1.04869 -1.6083 0
M  V30 20241 O 2017.46 -1.35844 -2.31948 0
M  V30 20242 C 2015.73 -3.44262 -0.960121 0
M  V30 20243 S 2017.29 -4.08149 -1.61121 0
M  V30 20244 H 2014.1 -0.693711 -0.155842 0
M  V30 20245 H 2016.71 -1.93747 0.261223 0
M  V30 20246 H 2015.41 -4.1019 -0.131229 0
M  V30 20247 H 2014.94 -3.52859 -1.73937 0
M  V30 20248 H 2016.96 -4.02695 -2.89915 0
M  V30 20249 N 2016.13 0.10854 -1.57226 0
M  V30 20250 C 2017.54 0.664549 -1.74472 0
M  V30 20251 C 2017.89 1.79792 -0.785438 0
M  V30 20252 O 2017.02 2.16364 0.0392281 0
M  V30 20253 C 2017.61 1.21227 -3.16369 0
M  V30 20254 C 2016.17 1.71447 -3.35086 0
M  V30 20255 C 2015.32 0.618471 -2.70315 0
M  V30 20256 H 2018.27 -0.11745 -1.58265 0
M  V30 20257 H 2018.29 2.08181 -3.18498 0
M  V30 20258 H 2017.8 0.387164 -3.86164 0
M  V30 20259 H 2015.9 2.56402 -2.7035 0
M  V30 20260 H 2016.01 1.81672 -4.4332 0
M  V30 20261 H 2014.38 1.05465 -2.31839 0
M  V30 20262 H 2015.16 -0.195832 -3.42741 0
M  V30 20263 N 2017.61 1.52975 0.379009 0
M  V30 20264 C 2019.02 1.60338 0.956477 0
M  V30 20265 C 2019.37 0.462422 1.90673 0
M  V30 20266 O 2018.49 -0.413093 2.12421 0
M  V30 20267 C 2019.09 2.90615 1.74151 0
M  V30 20268 C 2017.65 3.00358 2.26853 0
M  V30 20269 C 2016.79 2.55532 1.07697 0
M  V30 20270 H 2019.75 1.57909 0.158228 0
M  V30 20271 H 2019.77 2.77662 2.60161 0
M  V30 20272 H 2019.28 3.73636 1.04965 0
M  V30 20273 H 2017.38 2.21895 2.99321 0
M  V30 20274 H 2017.49 4.05188 2.55655 0
M  V30 20275 H 2015.86 2.10088 1.43997 0
M  V30 20276 H 2016.64 3.40958 0.400297 0
M  V30 20277 N 2019.08 -0.63804 1.44107 0
M  V30 20278 C 2020.33 -1.39496 1.46237 0
M  V30 20279 C 2020.65 -1.94776 0.093533 0
M  V30 20280 O 2019.92 -1.75361 -0.873231 0
M  V30 20281 H 2018.5 -0.517763 0.538452 0
M  V30 20282 H 2021.17 -0.751452 1.79831 0
M  V30 20283 H 2020.26 -2.22974 2.18378 0
M  V30 20284 N 2020.56 -1.3089 -0.877815 0
M  V30 20285 C 2021.79 -1.23068 -1.66319 0
M  V30 20286 C 2022.21 0.205309 -1.8768 0
M  V30 20287 O 2021.56 1.13467 -1.42939 0
M  V30 20288 C 2021.61 -1.96305 -3.03557 0
M  V30 20289 O 2021.33 -3.34298 -2.83154 0
M  V30 20290 C 2022.84 -1.95228 -3.97996 0
M  V30 20291 H 2020.06 -0.425583 -0.518768 0
M  V30 20292 H 2022.6 -1.72636 -1.09623 0
M  V30 20293 H 2020.75 -1.50518 -3.56964 0
M  V30 20294 H 2021.17 -3.71486 -3.70268 0
M  V30 20295 H 2022.64 -2.50997 -4.91635 0
M  V30 20296 H 2023.12 -0.932904 -4.29178 0
M  V30 20297 H 2023.73 -2.40858 -3.50525 0
M  V30 20298 N 2022.04 1.0911 -1.13723 0
M  V30 20299 C 2023.29 1.81621 -0.902319 0
M  V30 20300 C 2023.62 1.85646 0.570009 0
M  V30 20301 O 2022.89 1.32706 1.42195 0
M  V30 20302 C 2023.18 3.27604 -1.49492 0
M  V30 20303 C 2023.03 3.3183 -3.03659 0
M  V30 20304 C 2024.35 4.24378 -1.16581 0
M  V30 20305 H 2021.47 0.659374 -0.329233 0
M  V30 20306 H 2024.11 1.27792 -1.40603 0
M  V30 20307 H 2022.26 3.73574 -1.06653 0
M  V30 20308 H 2023.93 2.94239 -3.55276 0
M  V30 20309 H 2022.18 2.71317 -3.38481 0
M  V30 20310 H 2022.85 4.34686 -3.40224 0
M  V30 20311 H 2025.32 3.8671 -1.53604 0
M  V30 20312 H 2024.2 5.24853 -1.60688 0
M  V30 20313 H 2024.46 4.42028 -0.0800013 0
M  V30 20314 N 2023.52 0.931232 1.27145 0
M  V30 20315 C 2024.77 0.572394 1.93825 0
M  V30 20316 C 2025.09 -0.88981 1.73515 0
M  V30 20317 O 2024.36 -1.63113 1.08494 0
M  V30 20318 H 2022.94 0.2087 0.717254 0
M  V30 20319 H 2025.6 1.18439 1.54784 0
M  V30 20320 H 2024.7 0.781679 3.02153 0
M  V30 20321 N 2025 -1.41343 0.697132 0
M  V30 20322 C 2026.24 -2.01204 0.22876 0
M  V30 20323 C 2026.57 -1.55215 -1.17211 0
M  V30 20324 O 2025.83 -0.754886 -1.80555 0
M  V30 20325 C 2026.13 -3.56617 0.236459 0
M  V30 20326 C 2025.79 -4.22121 1.58507 0
M  V30 20327 C 2024.45 -4.39729 1.95427 0
M  V30 20328 C 2026.81 -4.58835 2.47224 0
M  V30 20329 C 2024.13 -4.91328 3.20646 0
M  V30 20330 C 2026.49 -5.11825 3.71777 0
M  V30 20331 C 2025.15 -5.27643 4.08838 0
M  V30 20332 H 2024.42 -0.736257 0.0837091 0
M  V30 20333 H 2027.07 -1.69218 0.89653 0
M  V30 20334 H 2025.37 -3.88402 -0.514862 0
M  V30 20335 H 2027.07 -4.00743 -0.14349 0
M  V30 20336 H 2023.66 -4.08792 1.28791 0
M  V30 20337 H 2027.84 -4.44885 2.1998 0
M  V30 20338 H 2023.1 -5.01759 3.49353 0
M  V30 20339 H 2027.27 -5.39213 4.40706 0
M  V30 20340 H 2024.9 -5.67388 5.05939 0
M  V30 20341 N 2026.48 -0.441993 -1.51275 0
M  V30 20342 C 2027.7 0.123815 -2.0703 0
M  V30 20343 C 2028.13 1.35293 -1.30681 0
M  V30 20344 O 2027.48 1.77966 -0.346072 0
M  V30 20345 C 2027.53 0.419988 -3.58146 0
M  V30 20346 O 2026.64 1.50565 -3.83932 0
M  V30 20347 H 2025.98 -0.00017643 -0.664 0
M  V30 20348 H 2028.51 -0.624668 -1.94831 0
M  V30 20349 H 2028.52 0.66908 -4.02476 0
M  V30 20350 H 2027.19 -0.478329 -4.1314 0
M  V30 20351 H 2025.77 1.24615 -3.51462 0
M  V30 20352 N 2027.95 1.56642 -0.173515 0
M  V30 20353 C 2029.19 1.98845 0.473303 0
M  V30 20354 C 2029.56 1.05721 1.60272 0
M  V30 20355 O 2030.76 1.37073 2.31224 0
M  V30 20356 C 2029.03 3.44767 0.94185 0
M  V30 20357 S 2030.59 4.08998 1.58954 0
M  V30 20358 H 2027.41 0.694527 0.152161 0
M  V30 20359 H 2030.01 1.93606 -0.271494 0
M  V30 20360 H 2028.71 4.10254 0.109473 0
M  V30 20361 H 2028.24 3.53776 1.72063 0
M  V30 20362 H 2030.26 4.04227 2.87775 0
M  V30 20363 N 2029.43 -0.1002 1.57281 0
M  V30 20364 C 2030.36 -1.14803 1.98376 0
M  V30 20365 C 2031.38 -1.36605 0.885602 0
M  V30 20366 O 2032.57 -1.35347 1.16376 0
M  V30 20367 C 2029.67 -2.50456 2.2831 0
M  V30 20368 C 2028.84 -2.49 3.59608 0
M  V30 20369 C 2027.9 -3.66541 3.77537 0
M  V30 20370 O 2026.92 -3.49266 4.49447 0
M  V30 20371 N 2028.13 -4.85829 3.17727 0
M  V30 20372 H 2030.89 -0.798301 2.88872 0
M  V30 20373 H 2028.45 -0.289246 1.59295 0
M  V30 20374 H 2030.44 -3.27681 2.37502 0
M  V30 20375 H 2029.01 -2.77538 1.43846 0
M  V30 20376 H 2028.23 -1.57357 3.61431 0
M  V30 20377 H 2029.52 -2.45101 4.45873 0
M  V30 20378 H 2028.92 -5.02769 2.59307 0
M  V30 20379 H 2027.48 -5.60665 3.32412 0
M  V30 20380 N 2030.91 -1.53174 -0.370891 0
M  V30 20381 C 2032.19 -1.59697 -1.12943 0
M  V30 20382 C 2032.57 -0.401233 -2.07252 0
M  V30 20383 O 2031.91 0.608973 -2.20236 0
M  V30 20384 C 2032.12 -2.94469 -1.87321 0
M  V30 20385 C 2033.47 -3.48856 -2.42043 0
M  V30 20386 O 2034.5 -2.96463 -1.97455 0
M  V30 20387 O 2033.36 -4.40436 -3.2354 0
M  V30 20388 H 2030.45 -0.644835 -0.5178 0
M  V30 20389 H 2033 -1.65514 -0.374583 0
M  V30 20390 H 2031.77 -3.72938 -1.18462 0
M  V30 20391 H 2031.39 -2.92119 -2.69727 0
M  V30 20392 N 2032.39 0.630389 -1.44443 0
M  V30 20393 C 2033.63 1.40149 -1.48787 0
M  V30 20394 C 2033.99 1.9164 -0.117598 0
M  V30 20395 O 2035.19 2.68776 -0.0357153 0
M  V30 20396 C 2033.46 2.53505 -2.51933 0
M  V30 20397 S 2035.02 3.41671 -2.7533 0
M  V30 20398 H 2031.84 0.478109 -0.526244 0
M  V30 20399 H 2034.44 0.729702 -1.81371 0
M  V30 20400 H 2033.15 2.13989 -3.50196 0
M  V30 20401 H 2032.68 3.25509 -2.20923 0
M  V30 20402 H 2034.69 4.50969 -2.06981 0
M  V30 20403 N 2033.87 1.31354 0.870861 0
M  V30 20404 C 2034.83 1.18889 1.95954 0
M  V30 20405 C 2035.83 0.116227 1.60379 0
M  V30 20406 O 2037.02 0.365426 1.70324 0
M  V30 20407 C 2034.15 0.824704 3.30774 0
M  V30 20408 H 2035.34 2.15624 2.08438 0
M  V30 20409 H 2032.9 1.14952 1.05904 0
M  V30 20410 H 2033.63 -0.141533 3.23991 0
M  V30 20411 H 2033.42 1.60006 3.57967 0
M  V30 20412 H 2034.91 0.761361 4.10601 0
M  V30 20413 N 2035.34 -1.08505 1.143 0
M  V30 20414 C 2036.75 -1.62355 0.921836 0
M  V30 20415 C 2037.11 -1.88635 -0.539569 0
M  V30 20416 O 2036.23 -1.64307 -1.40827 0
M  V30 20417 C 2036.83 -2.94955 1.66694 0
M  V30 20418 C 2035.38 -3.45593 1.49139 0
M  V30 20419 C 2034.53 -2.19845 1.69008 0
M  V30 20420 H 2037.48 -0.917442 1.29494 0
M  V30 20421 H 2037.5 -3.63348 1.12954 0
M  V30 20422 H 2037.02 -2.75796 2.73053 0
M  V30 20423 H 2035.12 -3.69858 0.451226 0
M  V30 20424 H 2035.23 -4.2241 2.26068 0
M  V30 20425 H 2033.59 -2.28966 1.11565 0
M  V30 20426 H 2034.38 -2.03194 2.76707 0
M  V30 20427 N 2036.82 -0.937962 -1.26649 0
M  V30 20428 C 2038.07 -0.582665 -1.93519 0
M  V30 20429 C 2038.39 0.880595 -1.73984 0
M  V30 20430 O 2037.66 1.62535 -1.09358 0
M  V30 20431 H 2036.24 -0.212501 -0.716137 0
M  V30 20432 H 2038.9 -1.19259 -1.54154 0
M  V30 20433 H 2038 -0.797692 -3.01734 0
M  V30 20434 N 2038.3 1.40971 -0.704618 0
M  V30 20435 C 2039.53 2.05102 -0.248377 0
M  V30 20436 C 2039.94 1.53158 1.11082 0
M  V30 20437 O 2039.28 0.678495 1.70711 0
M  V30 20438 C 2039.34 3.59233 -0.138419 0
M  V30 20439 C 2039.01 4.34014 -1.43112 0
M  V30 20440 C 2040 4.62696 -2.37082 0
M  V30 20441 C 2037.69 4.73123 -1.687 0
M  V30 20442 C 2039.68 5.2946 -3.54896 0
M  V30 20443 C 2037.37 5.39621 -2.86797 0
M  V30 20444 C 2038.37 5.67718 -3.79718 0
M  V30 20445 O 2038.06 6.32844 -4.95745 0
M  V30 20446 H 2037.79 0.666762 -0.111376 0
M  V30 20447 H 2040.34 1.81567 -0.96034 0
M  V30 20448 H 2038.57 3.81544 0.629393 0
M  V30 20449 H 2040.26 4.0492 0.281822 0
M  V30 20450 H 2041.03 4.32956 -2.18574 0
M  V30 20451 H 2036.91 4.50629 -0.972326 0
M  V30 20452 H 2040.45 5.51307 -4.27442 0
M  V30 20453 H 2036.35 5.68781 -3.05219 0
M  V30 20454 H 2037.11 6.51341 -4.95679 0
M  V30 20455 N 2039.78 0.45001 1.51039 0
M  V30 20456 C 2040.73 -0.373216 2.24925 0
M  V30 20457 C 2041.71 -0.979411 1.27657 0
M  V30 20458 O 2042.9 -0.895452 1.52678 0
M  V30 20459 C 2040.03 -1.46669 3.10392 0
M  V30 20460 C 2039.12 -0.869269 4.15096 0
M  V30 20461 N 2039.51 -0.00218012 5.058 0
M  V30 20462 C 2037.81 -1.1355 4.31303 0
M  V30 20463 C 2038.51 0.334694 5.80736 0
M  V30 20464 N 2037.49 -0.284884 5.42853 0
M  V30 20465 H 2041.29 0.295074 2.92415 0
M  V30 20466 H 2038.8 0.262851 1.60259 0
M  V30 20467 H 2040.8 -2.06943 3.61912 0
M  V30 20468 H 2039.46 -2.13719 2.44447 0
M  V30 20469 H 2040.47 0.365173 5.16611 0
M  V30 20470 H 2037.15 -1.80255 3.76582 0
M  V30 20471 H 2038.54 1.04106 6.63786 0
M  V30 20472 N 2041.26 -1.56548 0.18182 0
M  V30 20473 C 2042.67 -1.58646 -0.174214 0
M  V30 20474 C 2042.87 -1.19756 -1.62052 0
M  V30 20475 O 2041.93 -0.914071 -2.35374 0
M  V30 20476 C 2043.24 -3.00476 0.116117 0
M  V30 20477 C 2044.79 -3.12951 0.0551643 0
M  V30 20478 C 2045.26 -4.5689 0.318626 0
M  V30 20479 N 2046.76 -4.62431 0.266773 0
M  V30 20480 C 2047.49 -5.71673 0.444657 0
M  V30 20481 N 2046.99 -6.89433 0.682169 0
M  V30 20482 N 2048.78 -5.60815 0.379832 0
M  V30 20483 H 2040.93 -1.80112 1.12576 0
M  V30 20484 H 2043.19 -0.835277 0.448348 0
M  V30 20485 H 2042.9 -3.33443 1.11843 0
M  V30 20486 H 2042.77 -3.72598 -0.587444 0
M  V30 20487 H 2045.16 -2.79805 -0.937734 0
M  V30 20488 H 2045.24 -2.43243 0.791599 0
M  V30 20489 H 2044.89 -4.90748 1.30878 0
M  V30 20490 H 2044.82 -5.24771 -0.438543 0
M  V30 20491 H 2047.31 -3.77795 0.0892717 0
M  V30 20492 H 2047.62 -7.68574 0.80707 0
M  V30 20493 H 2045.96 -6.91272 0.718908 0
M  V30 20494 H 2049.16 -4.67695 0.194792 0
M  V30 20495 H 2049.33 -6.45895 0.521886 0
M  V30 20496 N 2042.73 0.0918577 -1.57332 0
M  V30 20497 C 2043.98 0.793187 -1.85884 0
M  V30 20498 C 2044.3 1.79111 -0.770985 0
M  V30 20499 O 2043.57 1.94851 0.202438 0
M  V30 20500 H 2042.15 0.295923 -0.685885 0
M  V30 20501 H 2044.82 0.0727166 -1.94764 0
M  V30 20502 H 2043.91 1.32178 -2.82728 0
M  V30 20503 N 2044.21 1.53368 0.362763 0
M  V30 20504 C 2045.16 1.80005 1.44454 0
M  V30 20505 C 2046.13 0.644581 1.53083 0
M  V30 20506 O 2047.31 0.887051 1.68926 0
M  V30 20507 C 2044.45 1.99822 2.81363 0
M  V30 20508 C 2043.57 3.27539 2.81678 0
M  V30 20509 C 2042.7 3.37528 4.10181 0
M  V30 20510 C 2041.74 4.59266 4.04649 0
M  V30 20511 N 2040.88 4.66393 5.24806 0
M  V30 20512 H 2045.72 2.72311 1.2104 0
M  V30 20513 H 2043.26 1.34893 0.586708 0
M  V30 20514 H 2045.21 2.09299 3.60901 0
M  V30 20515 H 2043.84 1.10849 3.0317 0
M  V30 20516 H 2042.9 3.27001 1.94356 0
M  V30 20517 H 2044.21 4.17156 2.73464 0
M  V30 20518 H 2043.36 3.46331 4.98136 0
M  V30 20519 H 2042.1 2.45932 4.21152 0
M  V30 20520 H 2041.11 4.5056 3.15081 0
M  V30 20521 H 2042.33 5.52206 3.95278 0
M  V30 20522 H 2040.28 3.77699 5.36358 0
M  V30 20523 H 2040.19 5.49919 5.18773 0
M  V30 20524 H 2041.46 4.79484 6.14586 0
M  V30 20525 N 2045.69 -0.62272 1.44776 0
M  V30 20526 C 2046.62 -1.74528 1.5512 0
M  V30 20527 C 2047.6 -1.65241 0.403656 0
M  V30 20528 O 2048.79 -1.83873 0.624863 0
M  V30 20529 C 2045.92 -3.13088 1.5031 0
M  V30 20530 C 2044.87 -3.37172 2.63626 0
M  V30 20531 C 2044.2 -4.75849 2.43868 0
M  V30 20532 C 2045.5 -3.28908 4.0573 0
M  V30 20533 H 2047.19 -1.66128 2.49082 0
M  V30 20534 H 2044.74 -0.797813 1.19879 0
M  V30 20535 H 2046.69 -3.91403 1.56146 0
M  V30 20536 H 2045.41 -3.22293 0.528684 0
M  V30 20537 H 2044.07 -2.61241 2.57194 0
M  V30 20538 H 2043.72 -4.81767 1.446 0
M  V30 20539 H 2043.42 -4.92921 3.19849 0
M  V30 20540 H 2044.94 -5.56383 2.51535 0
M  V30 20541 H 2046.36 -3.97117 4.13487 0
M  V30 20542 H 2044.76 -3.57513 4.8198 0
M  V30 20543 H 2045.83 -2.26581 4.28706 0
M  V30 20544 N 2047.17 -1.31814 -0.863883 0
M  V30 20545 C 2048.58 -1.19653 -1.43318 0
M  V30 20546 C 2048.93 0.19461 -1.95232 0
M  V30 20547 O 2048.06 1.09277 -1.86782 0
M  V30 20548 C 2048.65 -2.1661 -2.6051 0
M  V30 20549 C 2047.21 -2.08364 -3.13466 0
M  V30 20550 C 2046.36 -2.05496 -1.8619 0
M  V30 20551 H 2049.31 -1.43776 -0.67187 0
M  V30 20552 H 2049.33 -1.75925 -3.37388 0
M  V30 20553 H 2048.84 -3.1785 -2.22695 0
M  V30 20554 H 2046.94 -1.10341 -3.55887 0
M  V30 20555 H 2047.05 -2.97757 -3.75336 0
M  V30 20556 H 2045.42 -1.50599 -2.05407 0
M  V30 20557 H 2046.2 -3.08501 -1.50605 0
M  V30 20558 N 2048.65 1.07897 -1.14873 0
M  V30 20559 C 2049.61 2.13129 -0.843128 0
M  V30 20560 C 2050.61 1.60055 0.154606 0
M  V30 20561 O 2051.8 1.74041 -0.0743665 0
M  V30 20562 C 2048.93 3.39924 -0.257826 0
M  V30 20563 H 2050.12 2.41671 -1.77581 0
M  V30 20564 H 2047.68 1.23696 -0.955463 0
M  V30 20565 H 2048.41 3.17019 0.683318 0
M  V30 20566 H 2048.2 3.79745 -0.97654 0
M  V30 20567 H 2049.69 4.17555 -0.0613986 0
M  V30 20568 N 2050.12 0.944665 1.2615 0
M  V30 20569 C 2051.37 0.592919 1.93207 0
M  V30 20570 C 2051.69 -0.871356 1.74449 0
M  V30 20571 O 2050.96 -1.61953 1.10218 0
M  V30 20572 H 2049.54 0.216296 0.715 0
M  V30 20573 H 2052.21 1.20074 1.53519 0
M  V30 20574 H 2051.3 0.813682 3.01307 0
M  V30 20575 N 2051.6 -1.40596 0.712085 0
M  V30 20576 C 2052.83 -2.05787 0.258197 0
M  V30 20577 C 2053.25 -1.53289 -1.09015 0
M  V30 20578 O 2052.61 -0.666771 -1.68594 0
M  V30 20579 C 2052.66 -3.59771 0.244357 0
M  V30 20580 O 2051.76 -4.05042 -0.77555 0
M  V30 20581 H 2051.1 -0.652692 0.12202 0
M  V30 20582 H 2053.63 -1.80059 0.971583 0
M  V30 20583 H 2053.64 -4.0792 0.0808437 0
M  V30 20584 H 2052.32 -3.97347 1.22834 0
M  V30 20585 H 2050.9 -3.68361 -0.580045 0
M  V30 20586 N 2053.08 -0.458013 -1.50798 0
M  V30 20587 C 2054.36 0.162411 -1.94925 0
M  V30 20588 C 2054.74 1.58194 -1.39777 0
M  V30 20589 O 2054.09 2.20663 -0.59332 0
M  V30 20590 C 2054.3 0.119083 -3.48797 0
M  V30 20591 C 2055.64 0.314458 -4.23434 0
M  V30 20592 O 2056.67 0.196266 -3.55659 0
M  V30 20593 O 2055.53 0.551722 -5.43708 0
M  V30 20594 H 2052.62 0.118781 -0.818425 0
M  V30 20595 H 2055.17 -0.517478 -1.61618 0
M  V30 20596 H 2053.94 -0.872528 -3.81448 0
M  V30 20597 H 2053.56 0.840995 -3.88604 0
M  V30 20598 N 2054.56 1.56449 -0.190119 0
M  V30 20599 C 2055.98 1.58736 0.165798 0
M  V30 20600 C 2056.18 1.20613 1.61414 0
M  V30 20601 O 2055.23 0.926541 2.34886 0
M  V30 20602 C 2056.54 3.0041 -0.132051 0
M  V30 20603 C 2058.09 3.12918 -0.0717601 0
M  V30 20604 C 2058.57 4.56715 -0.342852 0
M  V30 20605 N 2060.06 4.62283 -0.291293 0
M  V30 20606 C 2060.79 5.71429 -0.474968 0
M  V30 20607 N 2060.29 6.89062 -0.718722 0
M  V30 20608 N 2062.08 5.60606 -0.409568 0
M  V30 20609 H 2054.23 1.79512 -1.1353 0
M  V30 20610 H 2056.5 0.832888 -0.452771 0
M  V30 20611 H 2056.2 3.32845 -1.13609 0
M  V30 20612 H 2056.08 3.72904 0.567676 0
M  V30 20613 H 2058.46 2.80298 0.922882 0
M  V30 20614 H 2058.54 2.4282 -0.804488 0
M  V30 20615 H 2058.19 4.90047 -1.33479 0
M  V30 20616 H 2058.12 5.24996 0.410707 0
M  V30 20617 H 2060.61 3.77742 -0.109306 0
M  V30 20618 H 2060.92 7.68135 -0.847818 0
M  V30 20619 H 2059.27 6.90881 -0.755557 0
M  V30 20620 H 2062.46 4.67585 -0.219592 0
M  V30 20621 H 2062.63 6.45609 -0.556132 0
M  V30 20622 N 2056.04 -0.0835127 1.57379 0
M  V30 20623 C 2057.29 -0.783318 1.86302 0
M  V30 20624 C 2057.61 -1.787 0.780472 0
M  V30 20625 O 2056.88 -1.94956 -0.192101 0
M  V30 20626 H 2055.46 -0.292281 0.687445 0
M  V30 20627 H 2058.12 -0.0623868 1.948 0
M  V30 20628 H 2057.21 -1.30677 2.83425 0
M  V30 20629 N 2057.52 -1.53558 -0.354624 0
M  V30 20630 C 2058.93 -1.6184 -0.930847 0
M  V30 20631 C 2059.28 -0.492698 -1.89913 0
M  V30 20632 O 2058.4 0.379247 -2.13051 0
M  V30 20633 C 2059 -2.93348 -1.69506 0
M  V30 20634 C 2057.56 -3.03929 -2.22046 0
M  V30 20635 C 2056.7 -2.57213 -1.03618 0
M  V30 20636 H 2059.65 -1.58141 -0.133086 0
M  V30 20637 H 2059.68 -2.81766 -2.55711 0
M  V30 20638 H 2059.19 -3.75259 -0.990072 0
M  V30 20639 H 2057.29 -2.26629 -2.95753 0
M  V30 20640 H 2057.4 -4.09204 -2.49176 0
M  V30 20641 H 2055.77 -2.12352 -1.40636 0
M  V30 20642 H 2056.55 -3.41552 -0.346003 0
M  V30 20643 N 2058.99 0.615033 -1.45104 0
M  V30 20644 C 2060.41 0.934983 -1.29345 0
M  V30 20645 C 2060.61 2.00053 -0.241008 0
M  V30 20646 O 2059.67 2.4981 0.367607 0
M  V30 20647 C 2060.98 1.38297 -2.6701 0
M  V30 20648 C 2062.53 1.49759 -2.74848 0
M  V30 20649 C 2063 1.97936 -4.1302 0
M  V30 20650 N 2064.49 2.05181 -4.15277 0
M  V30 20651 C 2065.23 2.43664 -5.19052 0
M  V30 20652 N 2064.72 2.81169 -6.33179 0
M  V30 20653 N 2066.52 2.43938 -5.06409 0
M  V30 20654 H 2058.67 -0.0893888 -2.12212 0
M  V30 20655 H 2060.93 0.0226574 -0.947729 0
M  V30 20656 H 2060.64 0.674238 -3.45177 0
M  V30 20657 H 2060.51 2.35093 -2.94976 0
M  V30 20658 H 2062.9 2.19725 -1.9699 0
M  V30 20659 H 2062.98 0.512965 -2.50604 0
M  V30 20660 H 2062.62 1.28559 -4.9136 0
M  V30 20661 H 2062.55 2.97298 -4.34651 0
M  V30 20662 H 2065.04 1.78817 -3.32916 0
M  V30 20663 H 2065.36 3.09393 -7.08164 0
M  V30 20664 H 2063.7 2.78882 -6.36592 0
M  V30 20665 H 2066.89 2.1404 -4.16299 0
M  V30 20666 H 2067.07 2.73604 -5.87405 0
M  V30 20667 N 2060.47 1.3227 0.85688 0
M  V30 20668 C 2061.88 1.20411 1.42682 0
M  V30 20669 C 2062.23 -0.184254 1.95333 0
M  V30 20670 O 2061.36 -1.08285 1.87359 0
M  V30 20671 C 2061.95 2.17989 2.59358 0
M  V30 20672 C 2060.51 2.10024 3.12357 0
M  V30 20673 C 2059.66 2.0648 1.85098 0
M  V30 20674 H 2062.61 1.4413 0.664236 0
M  V30 20675 H 2062.63 1.77712 3.3645 0
M  V30 20676 H 2062.14 3.19026 2.21007 0
M  V30 20677 H 2060.24 1.12227 3.55297 0
M  V30 20678 H 2060.36 2.99744 3.73752 0
M  V30 20679 H 2058.72 1.51687 2.04605 0
M  V30 20680 H 2059.5 3.09296 1.48967 0
M  V30 20681 N 2061.95 -1.07287 1.15444 0
M  V30 20682 C 2062.88 -2.16494 0.87478 0
M  V30 20683 C 2063.86 -1.69199 -0.174882 0
M  V30 20684 O 2065.05 -1.94178 -0.0291162 0
M  V30 20685 C 2062.18 -3.45387 0.364018 0
M  V30 20686 C 2061.13 -4.06137 1.35043 0
M  V30 20687 C 2060.46 -5.30118 0.69849 0
M  V30 20688 C 2061.76 -4.46089 2.71665 0
M  V30 20689 H 2063.45 -2.40146 1.78802 0
M  V30 20690 H 2061 -1.15415 0.861124 0
M  V30 20691 H 2062.95 -4.21111 0.15591 0
M  V30 20692 H 2061.67 -3.21324 -0.58469 0
M  V30 20693 H 2060.33 -3.32458 1.54491 0
M  V30 20694 H 2059.98 -5.02346 -0.256386 0
M  V30 20695 H 2059.68 -5.71721 1.35679 0
M  V30 20696 H 2061.2 -6.08548 0.500171 0
M  V30 20697 H 2062.62 -5.12939 2.56059 0
M  V30 20698 H 2061.01 -4.98645 3.33876 0
M  V30 20699 H 2062.08 -3.57427 3.2768 0
M  V30 20700 N 2063.43 -0.951342 -1.25647 0
M  V30 20701 C 2064.67 -0.605246 -1.93558 0
M  V30 20702 C 2065.01 0.85507 -1.74362 0
M  V30 20703 O 2064.28 1.61308 -1.08674 0
M  V30 20704 C 2064.56 -0.960718 -3.47048 0
M  V30 20705 C 2064.42 -2.47652 -3.75484 0
M  V30 20706 C 2065.74 -0.483409 -4.37437 0
M  V30 20707 H 2062.86 -0.22136 -0.702971 0
M  V30 20708 H 2065.5 -1.1874 -1.48327 0
M  V30 20709 H 2063.65 -0.465324 -3.85703 0
M  V30 20710 H 2065.32 -3.04543 -3.46484 0
M  V30 20711 H 2063.56 -2.91564 -3.21205 0
M  V30 20712 H 2064.23 -2.67575 -4.82812 0
M  V30 20713 H 2066.71 -0.908309 -4.06065 0
M  V30 20714 H 2065.59 -0.760858 -5.43601 0
M  V30 20715 H 2065.85 0.616645 -4.37778 0
M  V30 20716 N 2064.91 1.40216 -0.719531 0
M  V30 20717 C 2065.87 2.29067 -0.078186 0
M  V30 20718 C 2066.87 1.45561 0.683282 0
M  V30 20719 O 2068.06 1.66426 0.514598 0
M  V30 20720 C 2065.19 3.28832 0.899035 0
M  V30 20721 H 2066.38 2.87281 -0.860786 0
M  V30 20722 H 2063.94 1.48604 -0.48442 0
M  V30 20723 H 2064.67 2.75643 1.70855 0
M  V30 20724 H 2064.46 3.90482 0.355853 0
M  V30 20725 H 2065.95 3.95353 1.34483 0
M  V30 20726 N 2066.38 0.466004 1.50553 0
M  V30 20727 C 2067.79 0.00966264 1.86697 0
M  V30 20728 C 2068.15 -1.39347 1.38119 0
M  V30 20729 O 2067.27 -2.03208 0.744006 0
M  V30 20730 C 2067.87 0.0107586 3.38798 0
M  V30 20731 C 2066.42 -0.390094 3.74373 0
M  V30 20732 C 2065.57 0.398415 2.74423 0
M  V30 20733 H 2068.52 0.680522 1.43369 0
M  V30 20734 H 2068.54 -0.792537 3.72155 0
M  V30 20735 H 2068.06 1.0321 3.74125 0
M  V30 20736 H 2066.16 -1.41598 3.44646 0
M  V30 20737 H 2066.27 -0.0949729 4.79006 0
M  V30 20738 H 2064.63 -0.147197 2.54274 0
M  V30 20739 H 2065.42 1.41917 3.12593 0
M  V30 20740 N 2067.86 -1.56346 0.198413 0
M  V30 20741 C 2069.1 -1.99572 -0.441608 0
M  V30 20742 C 2069.47 -1.08257 -1.5857 0
M  V30 20743 O 2070.67 -1.40734 -2.29014 0
M  V30 20744 C 2068.94 -3.46221 -0.886882 0
M  V30 20745 S 2070.5 -4.11475 -1.52427 0
M  V30 20746 H 2067.31 -0.69686 -0.141092 0
M  V30 20747 H 2069.92 -1.93149 0.302261 0
M  V30 20748 H 2068.62 -4.10376 -0.0441917 0
M  V30 20749 H 2068.15 -3.56469 -1.66413 0
M  V30 20750 H 2070.17 -4.08754 -2.81308 0
M  V30 20751 N 2069.34 0.0751653 -1.57421 0
M  V30 20752 C 2070.59 0.776106 -1.87362 0
M  V30 20753 C 2070.92 1.77394 -0.790247 0
M  V30 20754 O 2070.19 1.93471 0.199817 0
M  V30 20755 C 2070.48 1.4871 -3.27959 0
M  V30 20756 C 2070.33 0.505905 -4.46946 0
M  V30 20757 C 2071.65 2.43284 -3.66744 0
M  V30 20758 H 2068.77 0.280684 -0.681458 0
M  V30 20759 H 2071.41 0.0393497 -1.89959 0
M  V30 20760 H 2069.56 2.11512 -3.25876 0
M  V30 20761 H 2071.23 -0.116642 -4.61153 0
M  V30 20762 H 2069.48 -0.179057 -4.3343 0
M  V30 20763 H 2070.15 1.04094 -5.42096 0
M  V30 20764 H 2072.62 1.90562 -3.69899 0
M  V30 20765 H 2071.5 2.90037 -4.66015 0
M  V30 20766 H 2071.76 3.27938 -2.96494 0
M  V30 20767 N 2070.82 1.53744 0.346476 0
M  V30 20768 C 2072.23 1.62331 0.922251 0
M  V30 20769 C 2072.58 0.502763 1.89649 0
M  V30 20770 O 2071.71 -0.367943 2.13249 0
M  V30 20771 C 2072.3 2.94243 1.67948 0
M  V30 20772 C 2070.86 3.05102 2.20431 0
M  V30 20773 C 2070.01 2.57759 1.02252 0
M  V30 20774 H 2072.96 1.58209 0.124698 0
M  V30 20775 H 2072.98 2.83118 2.54213 0
M  V30 20776 H 2072.49 3.75779 0.970157 0
M  V30 20777 H 2070.59 2.28194 2.94547 0
M  V30 20778 H 2070.7 4.1052 2.47003 0
M  V30 20779 H 2069.07 2.13095 1.39508 0
M  V30 20780 H 2069.85 3.41731 0.327885 0
M  V30 20781 N 2072.3 -0.607329 1.45428 0
M  V30 20782 C 2073.54 -1.37764 1.50998 0
M  V30 20783 C 2073.9 -1.91428 0.148071 0
M  V30 20784 O 2075.1 -2.68685 0.0784708 0
M  V30 20785 C 2073.37 -2.49465 2.55934 0
M  V30 20786 S 2074.93 -3.37247 2.8073 0
M  V30 20787 H 2071.75 -0.469677 0.533783 0
M  V30 20788 H 2074.35 -0.700755 1.82509 0
M  V30 20789 H 2073.06 -2.08391 3.53556 0
M  V30 20790 H 2072.59 -3.21954 2.26074 0
M  V30 20791 H 2074.6 -4.47619 2.14129 0
M  V30 20792 N 2073.77 -1.32722 -0.849853 0
M  V30 20793 C 2075 -1.2671 -1.64193 0
M  V30 20794 C 2075.42 0.161092 -1.87409 0
M  V30 20795 O 2074.78 1.11408 -1.43031 0
M  V30 20796 C 2074.83 -2.03686 -2.97564 0
M  V30 20797 O 2073.93 -1.38794 -3.88343 0
M  V30 20798 H 2073.28 -0.436459 -0.5004 0
M  V30 20799 H 2075.81 -1.75113 -1.05813 0
M  V30 20800 H 2075.82 -2.1404 -3.47349 0
M  V30 20801 H 2074.49 -3.07537 -2.79989 0
M  V30 20802 H 2073.07 -1.37018 -3.46815 0
M  V30 20803 N 2075.25 1.06673 -1.16011 0
M  V30 20804 C 2076.49 1.80988 -0.949872 0
M  V30 20805 C 2076.86 1.85009 0.513401 0
M  V30 20806 O 2078.06 2.55265 0.842212 0
M  V30 20807 C 2076.33 3.21772 -1.55556 0
M  V30 20808 S 2077.89 4.12749 -1.48941 0
M  V30 20809 H 2074.71 0.623514 -0.341689 0
M  V30 20810 H 2077.31 1.28097 -1.47687 0
M  V30 20811 H 2076.01 3.16438 -2.61333 0
M  V30 20812 H 2075.54 3.79738 -1.02773 0
M  V30 20813 H 2077.56 4.93804 -0.487028 0
M  V30 20814 N 2076.73 0.957992 1.25141 0
M  V30 20815 C 2077.68 0.472054 2.2776 0
M  V30 20816 C 2078.67 -0.459404 1.63052 0
M  V30 20817 O 2079.88 -0.335763 1.76841 0
M  V30 20818 H 2076.25 0.134161 0.739936 0
M  V30 20819 H 2078.22 1.34973 2.6613 0
M  V30 20820 C 2076.97 -0.231515 3.46928 0
M  V30 20821 H 2076.3 0.476093 3.96955 0
M  V30 20822 H 2077.74 -0.535494 4.20605 0
M  V30 20823 C 2076.2 -1.45518 3.03852 0
M  V30 20824 O 2076.73 -2.55274 3.10159 0
M  V30 20825 N 2074.93 -1.31773 2.59006 0
M  V30 20826 H 2074.48 -0.424725 2.54074 0
M  V30 20827 H 2074.44 -2.13762 2.30549 0
M  V30 20828 N 2078.21 -1.39832 0.726957 0
M  V30 20829 C 2079.16 -2.32492 0.0707517 0
M  V30 20830 C 2080.15 -1.5264 -0.734661 0
M  V30 20831 O 2081.36 -1.68361 -0.63675 0
M  V30 20832 H 2077.73 -0.751989 0.00407767 0
M  V30 20833 H 2079.7 -2.85473 0.868774 0
M  V30 20834 C 2078.45 -3.37686 -0.828442 0
M  V30 20835 H 2077.77 -3.99205 -0.218093 0
M  V30 20836 H 2079.21 -4.0499 -1.25534 0
M  V30 20837 C 2077.67 -2.74083 -1.95909 0
M  V30 20838 O 2078.2 -2.61299 -3.051 0
M  V30 20839 N 2076.41 -2.32292 -1.7461 0
M  V30 20840 H 2075.96 -2.4289 -0.858037 0
M  V30 20841 H 2075.91 -1.90075 -2.50437 0
M  V30 20842 N 2079.69 -0.473982 -1.50304 0
M  V30 20843 C 2080.64 0.337385 -2.2549 0
M  V30 20844 C 2081.62 0.958978 -1.29199 0
M  V30 20845 O 2082.81 0.871049 -1.54084 0
M  V30 20846 C 2079.94 1.41713 -3.12686 0
M  V30 20847 C 2079.03 0.803121 -4.16426 0
M  V30 20848 N 2079.42 -0.0782885 -5.05739 0
M  V30 20849 C 2077.72 1.06674 -4.33055 0
M  V30 20850 C 2078.42 -0.427042 -5.8013 0
M  V30 20851 N 2077.39 0.198485 -5.43238 0
M  V30 20852 H 2081.2 -0.341558 -2.91909 0
M  V30 20853 H 2078.71 -0.288313 -1.5982 0
M  V30 20854 H 2080.71 2.0116 -3.65158 0
M  V30 20855 H 2079.37 2.09803 -2.47816 0
M  V30 20856 H 2080.38 -0.447316 -5.15965 0
M  V30 20857 H 2077.05 1.74241 -3.79402 0
M  V30 20858 H 2078.44 -1.14653 -6.62046 0
M  V30 20859 N 2081.16 1.56239 -0.206702 0
M  V30 20860 C 2082.39 2.02736 0.437344 0
M  V30 20861 C 2082.81 1.08577 1.53599 0
M  V30 20862 O 2082.17 0.0712895 1.8116 0
M  V30 20863 C 2082.22 3.47587 0.959974 0
M  V30 20864 O 2081.32 3.56556 2.07223 0
M  V30 20865 H 2080.67 0.656297 0.100845 0
M  V30 20866 H 2083.2 2.02066 -0.320985 0
M  V30 20867 H 2083.21 3.87612 1.27361 0
M  V30 20868 H 2081.88 4.15608 0.15578 0
M  V30 20869 H 2080.46 3.28412 1.76635 0
M  V30 20870 N 2082.64 -0.0668159 1.57458 0
M  V30 20871 C 2083.92 -0.798309 1.78568 0
M  V30 20872 C 2084.3 -1.95537 0.79552 0
M  V30 20873 O 2083.65 -2.27864 -0.170331 0
M  V30 20874 C 2083.86 -1.26662 3.25204 0
M  V30 20875 C 2085.21 -1.69798 3.89171 0
M  V30 20876 O 2086.23 -1.36216 3.29125 0
M  V30 20877 O 2085.09 -2.31989 4.94817 0
M  V30 20878 H 2082.18 -0.382924 0.733006 0
M  V30 20879 H 2084.73 -0.0465065 1.69636 0
M  V30 20880 H 2083.5 -0.438929 3.8883 0
M  V30 20881 H 2083.12 -2.07959 3.38879 0
M  V30 20882 N 2084.12 -1.53926 -0.338317 0
M  V30 20883 C 2085.35 -1.75368 -1.09789 0
M  V30 20884 C 2085.76 -0.495294 -1.82187 0
M  V30 20885 O 2085.12 0.533316 -1.74534 0
M  V30 20886 C 2085.17 -2.93722 -2.10736 0
M  V30 20887 O 2084.89 -4.14695 -1.4128 0
M  V30 20888 C 2086.39 -3.27258 -2.99027 0
M  V30 20889 H 2083.61 -0.585824 -0.327188 0
M  V30 20890 H 2086.16 -2.00767 -0.388932 0
M  V30 20891 H 2084.31 -2.70639 -2.77188 0
M  V30 20892 H 2084.73 -4.81165 -2.08759 0
M  V30 20893 H 2086.2 -4.13409 -3.65783 0
M  V30 20894 H 2086.68 -2.43786 -3.65329 0
M  V30 20895 H 2087.28 -3.52366 -2.38156 0
M  V30 20896 N 2085.6 0.599608 -1.45748 0
M  V30 20897 C 2086.84 1.36961 -1.51727 0
M  V30 20898 C 2087.2 1.91347 -0.158221 0
M  V30 20899 O 2088.4 2.6864 -0.0927187 0
M  V30 20900 C 2086.68 2.48104 -2.57253 0
M  V30 20901 S 2088.23 3.35754 -2.82515 0
M  V30 20902 H 2085.05 0.466839 -0.536267 0
M  V30 20903 H 2087.65 0.691067 -1.82878 0
M  V30 20904 H 2086.36 2.06513 -3.54656 0
M  V30 20905 H 2085.89 3.2075 -2.27778 0
M  V30 20906 H 2087.9 4.46478 -2.165 0
M  V30 20907 N 2087.08 1.33171 0.842803 0
M  V30 20908 C 2088.35 1.15008 1.58216 0
M  V30 20909 C 2088.73 -0.285047 2.09167 0
M  V30 20910 O 2088.08 -1.28349 1.89047 0
M  V30 20911 C 2088.29 2.18785 2.71908 0
M  V30 20912 C 2089.64 2.52736 3.41188 0
M  V30 20913 O 2090.66 2.17422 2.82146 0
M  V30 20914 O 2089.52 3.13321 4.47763 0
M  V30 20915 H 2086.62 0.444573 0.69734 0
M  V30 20916 H 2089.16 1.44741 0.8859 0
M  V30 20917 H 2087.94 3.15201 2.31871 0
M  V30 20918 H 2087.56 1.90116 3.49202 0
M  V30 20919 N 2088.56 -1.06056 1.16576 0
M  V30 20920 C 2089.97 -1.60363 0.956067 0
M  V30 20921 C 2090.32 -1.89737 -0.499436 0
M  V30 20922 O 2089.44 -1.67257 -1.3731 0
M  V30 20923 C 2090.04 -2.91353 1.72913 0
M  V30 20924 C 2088.6 -3.42352 1.56436 0
M  V30 20925 C 2087.74 -2.1621 1.73633 0
M  V30 20926 H 2090.69 -0.889768 1.31411 0
M  V30 20927 H 2090.72 -3.6087 1.20636 0
M  V30 20928 H 2090.23 -2.69942 2.78842 0
M  V30 20929 H 2088.33 -3.68817 0.529577 0
M  V30 20930 H 2088.44 -4.17519 2.34978 0
M  V30 20931 H 2086.81 -2.26548 1.16396 0
M  V30 20932 H 2087.59 -1.97279 2.80955 0
M  V30 20933 N 2090.03 -0.964615 -1.24631 0
M  V30 20934 C 2090.98 -0.484126 -2.27506 0
M  V30 20935 C 2091.98 0.45075 -1.63293 0
M  V30 20936 O 2093.18 0.32638 -1.77016 0
M  V30 20937 H 2089.56 -0.138083 -0.739214 0
M  V30 20938 H 2091.53 -1.36382 -2.6541 0
M  V30 20939 C 2090.28 0.213113 -3.47046 0
M  V30 20940 H 2089.6 -0.497138 -3.96697 0
M  V30 20941 H 2091.04 0.513181 -4.20883 0
M  V30 20942 C 2089.5 1.43904 -3.0462 0
M  V30 20943 O 2090.03 2.53625 -3.11508 0
M  V30 20944 N 2088.23 1.30398 -2.59701 0
M  V30 20945 H 2087.78 0.411244 -2.54296 0
M  V30 20946 H 2087.74 2.12537 -2.3168 0
M  V30 20947 N 2091.51 1.39445 -0.734362 0
M  V30 20948 C 2092.74 2.04826 -0.29225 0
M  V30 20949 C 2093.15 1.55366 1.0727 0
M  V30 20950 O 2092.51 0.718282 1.67771 0
M  V30 20951 C 2092.56 3.6038 -0.2843 0
M  V30 20952 O 2092.28 4.08019 -1.59536 0
M  V30 20953 C 2093.78 4.42958 0.174058 0
M  V30 20954 H 2091 0.658705 -0.127861 0
M  V30 20955 H 2093.55 1.78504 -0.997833 0
M  V30 20956 H 2091.7 3.85606 0.372391 0
M  V30 20957 H 2092.12 5.02339 -1.50849 0
M  V30 20958 H 2093.59 5.5185 0.128462 0
M  V30 20959 H 2094.07 4.21941 1.21913 0
M  V30 20960 H 2094.67 4.2288 -0.453043 0
M  V30 20961 N 2092.99 0.481946 1.5005 0
M  V30 20962 C 2094.24 -0.069141 2.01982 0
M  V30 20963 C 2094.56 -1.39233 1.36525 0
M  V30 20964 O 2093.83 -1.89032 0.514174 0
M  V30 20965 H 2092.41 -0.0285419 0.746455 0
M  V30 20966 H 2095.07 0.634845 1.84271 0
M  V30 20967 H 2094.17 -0.212743 3.11374 0
M  V30 20968 N 2094.47 -1.56127 0.214985 0
M  V30 20969 C 2095.41 -2.19998 -0.697834 0
M  V30 20970 C 2096.38 -1.15346 -1.19518 0
M  V30 20971 O 2097.57 -1.43676 -1.25547 0
M  V30 20972 C 2094.71 -2.87874 -1.90323 0
M  V30 20973 C 2093.82 -4.07102 -1.44539 0
M  V30 20974 C 2092.96 -4.6278 -2.60784 0
M  V30 20975 C 2092 -5.74324 -2.11705 0
M  V30 20976 N 2091.13 -6.24321 -3.21198 0
M  V30 20977 H 2095.97 -2.9764 -0.146443 0
M  V30 20978 H 2093.51 -1.46975 -0.0605317 0
M  V30 20979 H 2095.47 -3.25408 -2.61085 0
M  V30 20980 H 2094.1 -2.12761 -2.42761 0
M  V30 20981 H 2093.15 -3.75098 -0.632926 0
M  V30 20982 H 2094.46 -4.87721 -1.04546 0
M  V30 20983 H 2093.62 -5.02723 -3.39639 0
M  V30 20984 H 2092.36 -3.8131 -3.04062 0
M  V30 20985 H 2091.36 -5.33889 -1.31309 0
M  V30 20986 H 2092.59 -6.57624 -1.69434 0
M  V30 20987 H 2090.53 -5.45767 -3.6397 0
M  V30 20988 H 2090.45 -7.00044 -2.85437 0
M  V30 20989 H 2091.72 -6.6892 -4.00208 0
M  V30 20990 N 2095.95 0.0584645 -1.57492 0
M  V30 20991 C 2097.19 0.760259 -1.89735 0
M  V30 20992 C 2097.55 1.74063 -0.810311 0
M  V30 20993 O 2098.75 2.48851 -1.0162 0
M  V30 20994 C 2097.02 1.43807 -3.27191 0
M  V30 20995 S 2098.58 2.17309 -3.81211 0
M  V30 20996 H 2095.4 0.252532 -0.664642 0
M  V30 20997 H 2098 0.0158457 -1.95494 0
M  V30 20998 H 2096.7 0.710924 -4.04196 0
M  V30 20999 H 2096.24 2.22165 -3.24664 0
M  V30 21000 H 2098.25 3.44032 -3.5757 0
M  V30 21001 N 2097.42 1.54103 0.330149 0
M  V30 21002 C 2098.35 1.8602 1.41134 0
M  V30 21003 C 2099.33 0.716429 1.54277 0
M  V30 21004 O 2100.52 0.969568 1.68265 0
M  V30 21005 C 2097.65 2.08171 2.77997 0
M  V30 21006 C 2096.6 3.24007 2.79649 0
M  V30 21007 C 2095.93 3.31516 4.19525 0
M  V30 21008 C 2097.23 4.6181 2.43985 0
M  V30 21009 H 2098.92 2.76569 1.14672 0
M  V30 21010 H 2096.47 1.33074 0.550199 0
M  V30 21011 H 2098.42 2.29083 3.53694 0
M  V30 21012 H 2097.15 1.14364 3.05922 0
M  V30 21013 H 2095.81 3.02971 2.06407 0
M  V30 21014 H 2095.45 2.3528 4.44581 0
M  V30 21015 H 2095.15 4.09364 4.21538 0
M  V30 21016 H 2096.68 3.54655 4.97044 0
M  V30 21017 H 2098.09 4.82647 3.09395 0
M  V30 21018 H 2096.49 5.4216 2.5726 0
M  V30 21019 H 2097.56 4.64507 1.39146 0
M  V30 21020 N 2098.9 -0.59187 1.46064 0
M  V30 21021 C 2099.85 -1.72268 1.5629 0
M  V30 21022 C 2100.84 -1.63802 0.431898 0
M  V30 21023 O 2102.05 -1.69406 0.608421 0
M  V30 21024 H 2098.43 -0.569403 0.491207 0
M  V30 21025 H 2100.4 -1.60773 2.51385 0
M  V30 21026 C 2099.15 -3.10656 1.56166 0
M  V30 21027 H 2098.47 -3.17837 2.42527 0
M  V30 21028 H 2099.91 -3.89565 1.67377 0
M  V30 21029 C 2098.37 -3.35661 0.288718 0
M  V30 21030 O 2098.9 -3.9681 -0.624892 0
M  V30 21031 N 2097.1 -2.90045 0.179487 0
M  V30 21032 H 2096.65 -2.40464 0.92384 0
M  V30 21033 H 2096.61 -3.07148 -0.671367 0
M  V30 21034 N 2100.38 -1.33616 -0.835729 0
M  V30 21035 C 2101.62 -1.26586 -1.60484 0
M  V30 21036 C 2101.98 0.165184 -1.91288 0
M  V30 21037 O 2103.19 0.359488 -2.66385 0
M  V30 21038 C 2101.46 -2.11961 -2.87762 0
M  V30 21039 S 2103.02 -2.22154 -3.78409 0
M  V30 21040 H 2099.83 -0.450304 -0.550225 0
M  V30 21041 H 2102.44 -1.68685 -0.98821 0
M  V30 21042 H 2101.14 -3.14963 -2.63109 0
M  V30 21043 H 2100.67 -1.70712 -3.54431 0
M  V30 21044 H 2102.69 -1.38491 -4.76482 0
M  V30 21045 N 2101.86 1.05436 -1.17136 0
M  V30 21046 C 2103.11 1.78041 -0.956331 0
M  V30 21047 C 2103.43 1.88035 0.516524 0
M  V30 21048 O 2102.7 1.39532 1.37505 0
M  V30 21049 H 2101.28 0.659483 -0.350843 0
M  V30 21050 H 2103.94 1.2732 -1.47566 0
M  V30 21051 H 2103.04 2.79808 -1.38253 0
M  V30 21052 N 2103.34 0.971211 1.24118 0
M  V30 21053 C 2104.61 0.551769 1.87656 0
M  V30 21054 C 2104.99 -0.97112 1.87437 0
M  V30 21055 O 2104.34 -1.84396 1.34946 0
M  V30 21056 C 2104.55 1.14731 3.29602 0
M  V30 21057 C 2105.9 1.23437 4.06262 0
M  V30 21058 O 2106.92 1.10009 3.38787 0
M  V30 21059 O 2105.78 1.44701 5.26995 0
M  V30 21060 H 2102.88 0.184487 0.80616 0
M  V30 21061 H 2105.42 1.06571 1.32064 0
M  V30 21062 H 2104.19 2.18994 3.2428 0
M  V30 21063 H 2103.82 0.617636 3.92773 0
M  V30 21064 N 2104.81 -1.39054 0.741747 0
M  V30 21065 C 2105.76 -2.32404 0.0954067 0
M  V30 21066 C 2106.76 -1.53411 -0.71843 0
M  V30 21067 O 2107.96 -1.69027 -0.618858 0
M  V30 21068 H 2104.34 -0.751903 0.0120533 0
M  V30 21069 H 2106.31 -2.84536 0.899003 0
M  V30 21070 C 2105.06 -3.38546 -0.79258 0
M  V30 21071 H 2104.38 -3.99414 -0.175739 0
M  V30 21072 H 2105.82 -4.06299 -1.21232 0
M  V30 21073 C 2104.28 -2.76145 -1.92991 0
M  V30 21074 O 2104.81 -2.6452 -3.02311 0
M  V30 21075 N 2103.02 -2.34131 -1.72137 0
M  V30 21076 H 2102.56 -2.43786 -0.832227 0
M  V30 21077 H 2102.52 -1.92721 -2.48407 0
M  V30 21078 N 2106.29 -0.489897 -1.49792 0
M  V30 21079 C 2107.52 0.0556798 -2.06825 0
M  V30 21080 C 2107.94 1.31825 -1.35158 0
M  V30 21081 O 2107.29 1.77446 -0.426503 0
M  V30 21082 C 2107.34 0.324604 -3.6004 0
M  V30 21083 O 2107.06 -0.887904 -4.29008 0
M  V30 21084 C 2108.57 0.91506 -4.33753 0
M  V30 21085 H 2105.79 -0.0154889 -0.670821 0
M  V30 21086 H 2108.33 -0.684073 -1.92719 0
M  V30 21087 H 2106.48 1.01432 -3.73885 0
M  V30 21088 H 2106.9 -0.643954 -5.20532 0
M  V30 21089 H 2108.37 1.05288 -5.41866 0
M  V30 21090 H 2108.85 1.91003 -3.95493 0
M  V30 21091 H 2109.46 0.263155 -4.24485 0
M  V30 21092 N 2107.77 1.56011 -0.223262 0
M  V30 21093 C 2108.73 2.19108 0.672641 0
M  V30 21094 C 2109.73 1.15344 1.12038 0
M  V30 21095 O 2110.92 1.40567 1.0289 0
M  V30 21096 C 2108.06 2.81576 1.92165 0
M  V30 21097 H 2109.25 2.9965 0.1225 0
M  V30 21098 H 2106.8 1.56278 0.0263484 0
M  V30 21099 H 2107.54 2.04909 2.51362 0
M  V30 21100 H 2107.32 3.57564 1.60906 0
M  V30 21101 H 2108.81 3.29937 2.55991 0
M  V30 21102 N 2109.25 -0.0501116 1.5752 0
M  V30 21103 C 2110.5 -0.743624 1.87922 0
M  V30 21104 C 2110.82 -1.77004 0.818202 0
M  V30 21105 O 2110.09 -1.95319 -0.150705 0
M  V30 21106 H 2108.67 -0.277634 0.69349 0
M  V30 21107 H 2111.33 -0.0210527 1.94889 0
M  V30 21108 H 2110.43 -1.24635 2.86134 0
M  V30 21109 N 2110.73 -1.54276 -0.321972 0
M  V30 21110 C 2112 -1.63209 -1.07806 0
M  V30 21111 C 2112.38 -0.466965 -2.0587 0
M  V30 21112 O 2111.73 0.538598 -2.22062 0
M  V30 21113 C 2111.94 -3.00279 -1.77858 0
M  V30 21114 C 2113.29 -3.5638 -2.30822 0
M  V30 21115 O 2114.31 -3.02594 -1.87923 0
M  V30 21116 O 2113.17 -4.50507 -3.09364 0
M  V30 21117 H 2110.27 -0.660982 -0.497023 0
M  V30 21118 H 2112.81 -1.66622 -0.321736 0
M  V30 21119 H 2111.58 -3.76518 -1.06537 0
M  V30 21120 H 2111.21 -3.00552 -2.60297 0
M  V30 21121 N 2112.2 0.584116 -1.46376 0
M  V30 21122 C 2113.15 1.68815 -1.5325 0
M  V30 21123 C 2114.14 1.56013 -0.393561 0
M  V30 21124 O 2115.33 1.64951 -0.641886 0
M  V30 21125 C 2112.46 3.07599 -1.5244 0
M  V30 21126 C 2111.55 3.25703 -2.71622 0
M  V30 21127 N 2111.94 3.13972 -3.96555 0
M  V30 21128 C 2110.23 3.56638 -2.67816 0
M  V30 21129 C 2110.94 3.34042 -4.76226 0
M  V30 21130 N 2109.91 3.59131 -4.08075 0
M  V30 21131 H 2113.71 1.58273 -2.47642 0
M  V30 21132 H 2111.23 0.788103 -1.41995 0
M  V30 21133 H 2113.22 3.86834 -1.55452 0
M  V30 21134 H 2111.88 3.19272 -0.591231 0
M  V30 21135 H 2112.9 2.91868 -4.27824 0
M  V30 21136 H 2109.57 3.75004 -1.83516 0
M  V30 21137 H 2110.96 3.30167 -5.85183 0
M  V30 21138 N 2113.68 1.34058 0.828631 0
M  V30 21139 C 2114.92 1.27436 1.59811 0
M  V30 21140 C 2115.29 -0.155038 1.91373 0
M  V30 21141 O 2116.49 -0.345356 2.66572 0
M  V30 21142 C 2114.76 2.13484 2.86634 0
M  V30 21143 S 2116.32 2.24157 3.77225 0
M  V30 21144 H 2113.14 0.453216 0.547829 0
M  V30 21145 H 2115.74 1.69207 0.979251 0
M  V30 21146 H 2114.44 3.16354 2.61435 0
M  V30 21147 H 2113.97 1.72589 3.5352 0
M  V30 21148 H 2115.99 1.41016 4.7574 0
M  V30 21149 N 2115.16 -1.04814 1.17694 0
M  V30 21150 C 2116.44 -1.74812 0.877499 0
M  V30 21151 C 2116.82 -2.01747 -0.621383 0
M  V30 21152 O 2116.17 -1.6566 -1.57382 0
M  V30 21153 C 2116.38 -3.03866 1.71658 0
M  V30 21154 C 2117.72 -3.77745 1.93891 0
M  V30 21155 O 2118.75 -3.13746 1.68648 0
M  V30 21156 O 2117.61 -4.92753 2.3634 0
M  V30 21157 H 2114.7 -0.760352 0.32526 0
M  V30 21158 H 2117.25 -1.10947 1.28409 0
M  V30 21159 H 2116.02 -2.8004 2.73301 0
M  V30 21160 H 2115.64 -3.75469 1.30801 0
M  V30 21161 N 2116.64 -0.977779 -1.23601 0
M  V30 21162 C 2117.89 -0.646167 -1.9223 0
M  V30 21163 C 2118.22 0.817893 -1.76137 0
M  V30 21164 O 2117.49 1.58966 -1.12071 0
M  V30 21165 C 2117.78 -1.03412 -3.44932 0
M  V30 21166 C 2117.63 -2.55561 -3.70147 0
M  V30 21167 C 2118.95 -0.576087 -4.36313 0
M  V30 21168 H 2116.07 -0.236222 -0.698118 0
M  V30 21169 H 2118.71 -1.21859 -1.45775 0
M  V30 21170 H 2116.86 -0.547033 -3.84629 0
M  V30 21171 H 2118.53 -3.11824 -3.39947 0
M  V30 21172 H 2116.77 -2.98312 -3.14949 0
M  V30 21173 H 2117.45 -2.77756 -4.77028 0
M  V30 21174 H 2119.92 -0.994237 -4.04047 0
M  V30 21175 H 2118.8 -0.875993 -5.41865 0
M  V30 21176 H 2119.06 0.523647 -4.38988 0
M  V30 21177 N 2118.12 1.38658 -0.749111 0
M  V30 21178 C 2119.36 2.02064 -0.308144 0
M  V30 21179 C 2119.72 1.58175 1.08834 0
M  V30 21180 O 2120.92 2.13879 1.62817 0
M  V30 21181 C 2119.19 3.54901 -0.421933 0
M  V30 21182 S 2120.75 4.38755 -0.0628878 0
M  V30 21183 H 2117.57 0.700831 -0.119821 0
M  V30 21184 H 2120.17 1.69236 -0.978742 0
M  V30 21185 H 2118.88 3.84333 -1.43933 0
M  V30 21186 H 2118.41 3.925 0.266002 0
M  V30 21187 H 2120.42 4.82715 1.14894 0
M  V30 21188 N 2119.6 0.497834 1.49531 0
M  V30 21189 C 2120.82 -0.0447105 2.06852 0
M  V30 21190 C 2121.24 -1.31106 1.35855 0
M  V30 21191 O 2120.6 -1.77218 0.435907 0
M  V30 21192 C 2120.65 -0.305505 3.60207 0
M  V30 21193 O 2120.37 0.910643 4.28531 0
M  V30 21194 C 2121.87 -0.892044 4.34232 0
M  V30 21195 H 2119.09 0.0190462 0.67073 0
M  V30 21196 H 2121.63 0.694284 1.92354 0
M  V30 21197 H 2119.79 -0.994475 3.74418 0
M  V30 21198 H 2120.2 0.67155 5.20183 0
M  V30 21199 H 2121.68 -1.02413 5.42416 0
M  V30 21200 H 2122.15 -1.88903 3.965 0
M  V30 21201 H 2122.76 -0.24064 4.24619 0
M  V30 21202 N 2121.07 -1.5589 0.231532 0
M  V30 21203 C 2122.3 -2.03407 -0.405035 0
M  V30 21204 C 2122.72 -1.11007 -1.51852 0
M  V30 21205 O 2122.08 -0.100101 -1.81023 0
M  V30 21206 C 2122.13 -3.4907 -0.904554 0
M  V30 21207 O 2121.23 -3.59808 -2.01524 0
M  V30 21208 H 2120.57 -0.657819 -0.090391 0
M  V30 21209 H 2123.1 -2.0153 0.353092 0
M  V30 21210 H 2123.11 -3.89589 -1.21178 0
M  V30 21211 H 2121.79 -4.15803 -0.0896407 0
M  V30 21212 H 2120.37 -3.3118 -1.71388 0
M  V30 21213 N 2122.55 0.0417572 -1.57545 0
M  V30 21214 C 2123.8 0.733648 -1.88314 0
M  V30 21215 C 2124.12 1.76568 -0.827577 0
M  V30 21216 O 2123.39 1.95397 0.140345 0
M  V30 21217 H 2121.97 0.273952 -0.694953 0
M  V30 21218 H 2124.63 0.010717 -1.94897 0
M  V30 21219 H 2123.73 1.23116 -2.8679 0
M  V30 21220 N 2124.03 1.54445 0.313786 0
M  V30 21221 C 2125.26 1.76836 1.0683 0
M  V30 21222 C 2125.67 0.52169 1.81865 0
M  V30 21223 O 2125.01 -0.517625 1.76256 0
M  V30 21224 C 2125.07 2.91448 2.10471 0
M  V30 21225 C 2124.74 4.30003 1.54746 0
M  V30 21226 C 2125.73 5.10501 0.984136 0
M  V30 21227 C 2123.42 4.76573 1.58694 0
M  V30 21228 C 2125.41 6.35682 0.467701 0
M  V30 21229 C 2123.1 6.01719 1.06664 0
M  V30 21230 C 2124.1 6.81108 0.507972 0
M  V30 21231 O 2123.79 8.039 -0.00448226 0
M  V30 21232 H 2123.52 0.59375 0.323167 0
M  V30 21233 H 2126.07 2.02175 0.362557 0
M  V30 21234 H 2124.3 2.61703 2.8469 0
M  V30 21235 H 2125.99 3.01533 2.71722 0
M  V30 21236 H 2126.76 4.75672 0.94663 0
M  V30 21237 H 2122.64 4.14816 2.01118 0
M  V30 21238 H 2126.18 6.97593 0.0309903 0
M  V30 21239 H 2122.08 6.36037 1.10125 0
M  V30 21240 H 2122.84 8.18426 0.110023 0
M  V30 21241 N 2125.51 -0.576345 1.46683 0
M  V30 21242 C 2126.74 -1.35822 1.55679 0
M  V30 21243 C 2127.15 -1.8815 0.199067 0
M  V30 21244 O 2126.49 -1.64638 -0.814857 0
M  V30 21245 C 2126.55 -2.57736 2.50624 0
M  V30 21246 C 2126.21 -2.26831 3.96733 0
M  V30 21247 C 2127.21 -1.8528 4.85765 0
M  V30 21248 C 2124.9 -2.38779 4.41916 0
M  V30 21249 C 2126.89 -1.5608 6.17995 0
M  V30 21250 C 2124.58 -2.09192 5.74179 0
M  V30 21251 C 2125.58 -1.67909 6.62039 0
M  V30 21252 O 2125.26 -1.38688 7.91847 0
M  V30 21253 H 2125 -0.42105 0.52886 0
M  V30 21254 H 2127.55 -0.706986 1.92849 0
M  V30 21255 H 2125.78 -3.25686 2.08484 0
M  V30 21256 H 2127.47 -3.19807 2.49956 0
M  V30 21257 H 2128.23 -1.75558 4.52111 0
M  V30 21258 H 2124.11 -2.69874 3.7375 0
M  V30 21259 H 2127.66 -1.23783 6.8653 0
M  V30 21260 H 2123.55 -2.1854 6.0738 0
M  V30 21261 H 2124.32 -1.5248 8.04172 0
M  V30 21262 N 2126.99 -1.34495 -0.82151 0
M  V30 21263 C 2128.23 -1.26681 -1.57469 0
M  V30 21264 C 2128.55 0.162701 -1.9432 0
M  V30 21265 O 2127.82 1.09566 -1.62395 0
M  V30 21266 H 2126.4 -0.465903 -0.583903 0
M  V30 21267 H 2129.07 -1.68424 -0.980791 0
M  V30 21268 H 2128.16 -1.87251 -2.49686 0
M  V30 21269 N 2128.46 1.04188 -1.18248 0
M  V30 21270 C 2129.41 2.12172 -0.908383 0
M  V30 21271 C 2130.38 1.65406 0.151732 0
M  V30 21272 O 2131.57 1.90796 0.0123583 0
M  V30 21273 C 2128.71 3.42298 -0.43889 0
M  V30 21274 C 2127.82 4.02684 -1.56428 0
M  V30 21275 C 2126.95 5.20767 -1.04764 0
M  V30 21276 C 2125.99 5.7318 -2.14781 0
M  V30 21277 N 2125.13 6.82553 -1.64519 0
M  V30 21278 H 2129.97 2.34956 -1.83302 0
M  V30 21279 H 2127.51 1.15252 -0.914073 0
M  V30 21280 H 2129.47 4.16937 -0.14817 0
M  V30 21281 H 2128.1 3.19665 0.448774 0
M  V30 21282 H 2127.15 3.25384 -1.97051 0
M  V30 21283 H 2128.46 4.37613 -2.39366 0
M  V30 21284 H 2127.61 6.02515 -0.711371 0
M  V30 21285 H 2126.35 4.87338 -0.18783 0
M  V30 21286 H 2125.36 4.90054 -2.49253 0
M  V30 21287 H 2126.58 6.08653 -3.01195 0
M  V30 21288 H 2124.53 6.51002 -0.808251 0
M  V30 21289 H 2124.45 7.16539 -2.41056 0
M  V30 21290 H 2125.71 7.67928 -1.33815 0
M  V30 21291 N 2129.94 0.98432 1.23081 0
M  V30 21292 C 2131.19 0.656352 1.91885 0
M  V30 21293 C 2131.52 -0.808541 1.76568 0
M  V30 21294 O 2130.8 -1.5837 1.12912 0
M  V30 21295 C 2131.08 1.05239 3.44379 0
M  V30 21296 C 2130.93 2.57521 3.68786 0
M  V30 21297 C 2132.25 0.599218 4.36002 0
M  V30 21298 H 2129.37 0.23992 0.696855 0
M  V30 21299 H 2132.01 1.22631 1.45127 0
M  V30 21300 H 2130.16 0.567423 3.84334 0
M  V30 21301 H 2131.83 3.13622 3.38288 0
M  V30 21302 H 2130.08 2.99978 3.13362 0
M  V30 21303 H 2130.75 2.80282 4.75548 0
M  V30 21304 H 2133.22 1.01565 4.03514 0
M  V30 21305 H 2132.1 0.904717 5.41393 0
M  V30 21306 H 2132.36 -0.500359 4.39259 0
M  V30 21307 N 2131.42 -1.38259 0.756453 0
M  V30 21308 C 2132.65 -2.04335 0.324799 0
M  V30 21309 C 2133.06 -1.57053 -1.04784 0
M  V30 21310 O 2132.42 -0.744882 -1.66607 0
M  V30 21311 C 2132.47 -3.59882 0.341597 0
M  V30 21312 O 2132.19 -4.0543 1.66008 0
M  V30 21313 C 2133.69 -4.43179 -0.103565 0
M  V30 21314 H 2130.91 -0.656588 0.138324 0
M  V30 21315 H 2133.46 -1.76894 1.02611 0
M  V30 21316 H 2131.61 -3.8615 -0.310997 0
M  V30 21317 H 2132.03 -4.99876 1.58822 0
M  V30 21318 H 2133.5 -5.51985 -0.0406515 0
M  V30 21319 H 2133.98 -4.23827 -1.15185 0
M  V30 21320 H 2134.58 -4.22106 0.520263 0
M  V30 21321 N 2132.9 -0.505757 -1.49264 0
M  V30 21322 C 2134.15 0.0369987 -2.02066 0
M  V30 21323 C 2134.47 1.37044 -1.38723 0
M  V30 21324 O 2133.74 1.8819 -0.544182 0
M  V30 21325 H 2132.32 0.0166628 -0.746814 0
M  V30 21326 H 2134.98 -0.66408 -1.83238 0
M  V30 21327 H 2134.08 0.163179 -3.11673 0
M  V30 21328 N 2134.38 1.55765 -0.239796 0
M  V30 21329 C 2135.6 2.03618 0.394243 0
M  V30 21330 C 2136.03 1.1181 1.51261 0
M  V30 21331 O 2135.38 0.1097 1.80968 0
M  V30 21332 C 2135.43 3.49545 0.886029 0
M  V30 21333 O 2134.54 3.60872 1.99613 0
M  V30 21334 H 2133.88 0.658289 0.0869012 0
M  V30 21335 H 2136.41 2.0134 -0.363774 0
M  V30 21336 H 2136.42 3.90226 1.1911 0
M  V30 21337 H 2135.09 4.15845 0.0675883 0
M  V30 21338 H 2133.67 3.32085 1.6963 0
M  V30 21339 N 2135.85 -0.0334016 1.57565 0
M  V30 21340 C 2136.82 -1.01998 2.05253 0
M  V30 21341 C 2137.82 -1.29303 0.955901 0
M  V30 21342 O 2139.01 -1.24379 1.21965 0
M  V30 21343 C 2136.14 -2.35395 2.4658 0
M  V30 21344 H 2137.33 -0.608136 2.93669 0
M  V30 21345 H 2134.89 -0.280124 1.53769 0
M  V30 21346 H 2135.62 -2.81337 1.61307 0
M  V30 21347 H 2135.41 -2.16908 3.26639 0
M  V30 21348 H 2136.9 -3.06235 2.83918 0
M  V30 21349 N 2137.33 -1.54609 -0.305591 0
M  V30 21350 C 2138.56 -1.77981 -1.06479 0
M  V30 21351 C 2138.98 -0.535455 -1.80318 0
M  V30 21352 O 2138.34 0.513813 -1.73867 0
M  V30 21353 C 2138.39 -2.984 -2.0246 0
M  V30 21354 O 2137.49 -2.71203 -3.10681 0
M  V30 21355 H 2136.83 -0.589228 -0.306114 0
M  V30 21356 H 2139.36 -2.0168 -0.344411 0
M  V30 21357 H 2139.37 -3.26244 -2.45008 0
M  V30 21358 H 2138.05 -3.8863 -1.48121 0
M  V30 21359 H 2136.63 -2.54362 -2.7268 0
M  V30 21360 N 2138.81 0.568558 -1.46987 0
M  V30 21361 C 2140.09 1.3291 -1.43507 0
M  V30 21362 C 2140.47 2.10724 -0.12598 0
M  V30 21363 O 2139.82 2.10348 0.892528 0
M  V30 21364 C 2140.03 2.2432 -2.6736 0
M  V30 21365 C 2141.37 2.85701 -3.14102 0
M  V30 21366 O 2142.4 2.34627 -2.68009 0
M  V30 21367 O 2141.26 3.78504 -3.94204 0
M  V30 21368 H 2138.35 0.597891 -0.571363 0
M  V30 21369 H 2140.9 0.588401 -1.59173 0
M  V30 21370 H 2139.67 1.66345 -3.54182 0
M  V30 21371 H 2139.29 3.05705 -2.54224 0
M  V30 21372 N 2140.29 1.34929 0.814366 0
M  V30 21373 C 2141.53 1.29124 1.5845 0
M  V30 21374 C 2141.89 -0.134731 1.91527 0
M  V30 21375 O 2143.09 -0.317063 2.66923 0
M  V30 21376 C 2141.36 2.16513 2.84354 0
M  V30 21377 S 2142.92 2.28146 3.74827 0
M  V30 21378 H 2139.74 0.459 0.542991 0
M  V30 21379 H 2142.34 1.70236 0.961249 0
M  V30 21380 H 2141.05 3.19109 2.58065 0
M  V30 21381 H 2140.58 1.76329 3.5167 0
M  V30 21382 H 2142.59 1.46054 4.74218 0
M  V30 21383 N 2141.77 -1.0356 1.18799 0
M  V30 21384 C 2142.73 -2.09853 0.921649 0
M  V30 21385 C 2143.73 -1.60519 -0.095096 0
M  V30 21386 O 2144.92 -1.73645 0.138909 0
M  V30 21387 C 2142.05 -3.38733 0.383809 0
M  V30 21388 H 2143.24 -2.34914 1.86428 0
M  V30 21389 H 2140.8 -1.20064 1.00071 0
M  V30 21390 H 2141.53 -3.19337 -0.565188 0
M  V30 21391 H 2141.32 -3.75859 1.11681 0
M  V30 21392 H 2142.81 -4.17039 0.216329 0
M  V30 21393 N 2143.25 -0.990834 -1.22557 0
M  V30 21394 C 2144.18 -0.559304 -2.26703 0
M  V30 21395 C 2145.16 0.412782 -1.65016 0
M  V30 21396 O 2146.34 0.303868 -1.91808 0
M  V30 21397 C 2143.47 0.12888 -3.47061 0
M  V30 21398 C 2142.43 -0.76154 -4.2117 0
M  V30 21399 C 2141.75 0.0594442 -5.34667 0
M  V30 21400 C 2143.05 -2.0574 -4.80071 0
M  V30 21401 H 2144.75 -1.42983 -2.63052 0
M  V30 21402 H 2142.29 -0.68896 -1.26449 0
M  V30 21403 H 2144.24 0.44215 -4.19074 0
M  V30 21404 H 2142.97 1.03394 -3.09802 0
M  V30 21405 H 2141.63 -1.05842 -3.50989 0
M  V30 21406 H 2141.28 0.965355 -4.9365 0
M  V30 21407 H 2140.98 -0.533291 -5.85175 0
M  V30 21408 H 2142.5 0.366857 -6.09497 0
M  V30 21409 H 2143.91 -1.80821 -5.44037 0
M  V30 21410 H 2142.31 -2.59878 -5.4091 0
M  V30 21411 H 2143.38 -2.73748 -4.00237 0
M  V30 21412 N 2144.72 1.37856 -0.763775 0
M  V30 21413 C 2145.96 2.01726 -0.329558 0
M  V30 21414 C 2146.33 1.5932 1.0715 0
M  V30 21415 O 2147.53 2.15594 1.60539 0
M  V30 21416 C 2145.8 3.54433 -0.459551 0
M  V30 21417 S 2147.36 4.38664 -0.10942 0
M  V30 21418 H 2144.18 0.699521 -0.127247 0
M  V30 21419 H 2146.78 1.68189 -0.996636 0
M  V30 21420 H 2145.48 3.82784 -1.48001 0
M  V30 21421 H 2145.01 3.9276 0.224357 0
M  V30 21422 H 2147.03 4.83907 1.09767 0
M  V30 21423 N 2146.2 0.513665 1.48994 0
M  V30 21424 C 2147.16 -0.247066 2.27864 0
M  V30 21425 C 2148.16 -0.882574 1.34415 0
M  V30 21426 O 2149.35 -0.745145 1.57459 0
M  V30 21427 C 2146.49 -1.35575 3.12782 0
M  V30 21428 H 2147.68 0.445185 2.96577 0
M  V30 21429 H 2145.23 0.269045 1.53967 0
M  V30 21430 H 2145.97 -2.08176 2.48663 0
M  V30 21431 H 2145.75 -0.905368 3.81504 0
M  V30 21432 H 2147.24 -1.89127 3.72318 0
M  V30 21433 N 2147.68 -1.55636 0.248053 0
M  V30 21434 C 2148.92 -2.00876 -0.377892 0
M  V30 21435 C 2149.28 -1.13247 -1.55045 0
M  V30 21436 O 2150.48 -1.47949 -2.24421 0
M  V30 21437 C 2148.76 -3.48868 -0.776285 0
M  V30 21438 S 2150.31 -4.16116 -1.39259 0
M  V30 21439 H 2147.13 -0.700996 -0.118851 0
M  V30 21440 H 2149.73 -1.9209 0.363557 0
M  V30 21441 H 2148.44 -4.10309 0.0863888 0
M  V30 21442 H 2147.97 -3.61583 -1.54988 0
M  V30 21443 H 2149.98 -4.17497 -2.68162 0
M  V30 21444 N 2149.16 0.0250451 -1.5758 0
M  V30 21445 C 2150.57 0.571131 -1.7775 0
M  V30 21446 C 2150.92 1.75376 -0.879637 0
M  V30 21447 O 2150.04 2.16268 -0.0755171 0
M  V30 21448 C 2150.64 1.04287 -3.2235 0
M  V30 21449 C 2149.2 1.53444 -3.43703 0
M  V30 21450 C 2148.35 0.474313 -2.73213 0
M  V30 21451 H 2151.3 -0.201177 -1.5742 0
M  V30 21452 H 2151.32 1.91005 -3.29085 0
M  V30 21453 H 2150.83 0.181922 -3.87673 0
M  V30 21454 H 2148.93 2.41711 -2.83561 0
M  V30 21455 H 2149.04 1.57917 -4.52326 0
M  V30 21456 H 2147.41 0.93027 -2.37103 0
M  V30 21457 H 2148.19 -0.377237 -3.41221 0
M  V30 21458 N 2150.64 1.54769 0.297388 0
M  V30 21459 C 2151.59 1.82354 1.36861 0
M  V30 21460 C 2152.57 0.680909 1.45782 0
M  V30 21461 O 2153.76 0.941639 1.49874 0
M  V30 21462 C 2150.89 2.0775 2.73304 0
M  V30 21463 C 2149.98 3.28207 2.68591 0
M  V30 21464 N 2150.37 4.4868 2.33494 0
M  V30 21465 C 2148.67 3.30307 2.99689 0
M  V30 21466 C 2149.37 5.30707 2.38169 0
M  V30 21467 N 2148.34 4.68517 2.75669 0
M  V30 21468 H 2152.14 2.73061 1.08696 0
M  V30 21469 H 2149.66 1.54317 0.505976 0
M  V30 21470 H 2151.66 2.2566 3.50547 0
M  V30 21471 H 2150.32 1.18312 3.02378 0
M  V30 21472 H 2151.33 4.75217 2.05887 0
M  V30 21473 H 2148 2.50987 3.33634 0
M  V30 21474 H 2149.39 6.36976 2.13802 0
M  V30 21475 N 2152.11 -0.560755 1.47286 0
M  V30 21476 C 2153.34 -1.34841 1.57584 0
M  V30 21477 C 2153.76 -1.86747 0.22521 0
M  V30 21478 O 2153.12 -1.62776 -0.798346 0
M  V30 21479 C 2153.17 -2.49671 2.60186 0
M  V30 21480 O 2152.27 -3.51793 2.1521 0
M  V30 21481 H 2151.61 -0.400669 0.529491 0
M  V30 21482 H 2154.14 -0.67803 1.93039 0
M  V30 21483 H 2154.15 -2.9629 2.80493 0
M  V30 21484 H 2152.83 -2.11248 3.58256 0
M  V30 21485 H 2151.41 -3.11504 2.04987 0
M  V30 21486 N 2153.59 -1.35359 -0.807199 0
M  V30 21487 C 2155 -1.25624 -1.38114 0
M  V30 21488 C 2155.35 0.11163 -1.95882 0
M  V30 21489 O 2154.48 1.01256 -1.91249 0
M  V30 21490 C 2155.07 -2.27464 -2.51088 0
M  V30 21491 C 2153.63 -2.21472 -3.04347 0
M  V30 21492 C 2152.78 -2.13208 -1.77307 0
M  V30 21493 H 2155.73 -1.46496 -0.610285 0
M  V30 21494 H 2155.75 -1.90077 -3.29623 0
M  V30 21495 H 2155.26 -3.27009 -2.09014 0
M  V30 21496 H 2153.36 -1.25336 -3.50887 0
M  V30 21497 H 2153.48 -3.13409 -3.6237 0
M  V30 21498 H 2151.84 -1.59176 -1.98834 0
M  V30 21499 H 2152.62 -3.14611 -1.37385 0
M  V30 21500 N 2155.07 1.02928 -1.19346 0
M  V30 21501 C 2156.48 1.57772 -0.998248 0
M  V30 21502 C 2156.83 1.90994 0.448955 0
M  V30 21503 O 2155.96 1.70839 1.32827 0
M  V30 21504 C 2156.55 2.86666 -1.80577 0
M  V30 21505 C 2155.11 3.38084 -1.65457 0
M  V30 21506 C 2154.26 2.11531 -1.79304 0
M  V30 21507 H 2157.21 0.854614 -1.33724 0
M  V30 21508 H 2157.23 3.57545 -1.30161 0
M  V30 21509 H 2156.74 2.62455 -2.85901 0
M  V30 21510 H 2154.84 3.67284 -0.627176 0
M  V30 21511 H 2154.96 4.11143 -2.45965 0
M  V30 21512 H 2153.32 2.23382 -1.22362 0
M  V30 21513 H 2154.1 1.89761 -2.86087 0
M  V30 21514 N 2156.55 0.997319 1.2203 0
M  V30 21515 C 2157.51 0.556352 2.22345 0
M  V30 21516 C 2158.51 -0.363165 1.56645 0
M  V30 21517 O 2159.7 -0.154511 1.73513 0
M  V30 21518 C 2156.83 -0.190172 3.40369 0
M  V30 21519 H 2158.03 1.44355 2.62872 0
M  V30 21520 H 2155.58 0.784999 1.35157 0
M  V30 21521 H 2156.31 -1.09315 3.05321 0
M  V30 21522 H 2156.1 0.470115 3.89272 0
M  V30 21523 H 2157.59 -0.486708 4.14754 0
M  V30 21524 N 2158.03 -1.37449 0.771075 0
M  V30 21525 C 2159.25 -2.04506 0.345245 0
M  V30 21526 C 2159.68 -1.57774 -1.02415 0
M  V30 21527 O 2159.03 -0.737677 -1.65614 0
M  V30 21528 C 2159.08 -3.58411 0.396728 0
M  V30 21529 O 2158.19 -4.07967 -0.60306 0
M  V30 21530 H 2157.53 -0.64693 0.149593 0
M  V30 21531 H 2160.06 -1.75777 1.04708 0
M  V30 21532 H 2160.07 -4.0721 0.253784 0
M  V30 21533 H 2158.74 -3.9178 1.39576 0
M  V30 21534 H 2157.32 -3.7049 -0.423289 0
M  V30 21535 N 2159.5 -0.52156 -1.4872 0
M  V30 21536 C 2160.75 0.0155956 -2.02494 0
M  V30 21537 C 2161.08 1.35077 -1.39944 0
M  V30 21538 O 2160.33 1.88342 -0.531596 0
M  V30 21539 C 2160.63 0.195406 -3.56865 0
M  V30 21540 C 2160.3 -1.06435 -4.38158 0
M  V30 21541 C 2158.96 -1.40962 -4.6009 0
M  V30 21542 C 2161.31 -1.90076 -4.85305 0
M  V30 21543 C 2158.64 -2.59043 -5.26416 0
M  V30 21544 C 2160.99 -3.07328 -5.5293 0
M  V30 21545 C 2159.66 -3.42211 -5.73104 0
M  V30 21546 H 2158.93 0.00570684 -0.740978 0
M  V30 21547 H 2161.57 -0.68588 -1.78796 0
M  V30 21548 H 2159.88 0.979581 -3.79357 0
M  V30 21549 H 2161.58 0.625805 -3.96087 0
M  V30 21550 H 2158.17 -0.785439 -4.21342 0
M  V30 21551 H 2162.35 -1.64713 -4.6817 0
M  V30 21552 H 2157.61 -2.86282 -5.40234 0
M  V30 21553 H 2161.78 -3.72451 -5.88433 0
M  V30 21554 H 2159.41 -4.33809 -6.24271 0
M  V30 21555 N 2160.98 1.55502 -0.256304 0
M  V30 21556 C 2162.21 2.04025 0.372624 0
M  V30 21557 C 2162.63 1.13408 1.50067 0
M  V30 21558 O 2161.99 0.128888 1.80841 0
M  V30 21559 C 2162.04 3.50465 0.848906 0
M  V30 21560 O 2161.14 3.62969 1.95774 0
M  V30 21561 H 2160.48 0.659174 0.0799143 0
M  V30 21562 H 2163.01 2.00943 -0.385109 0
M  V30 21563 H 2163.02 3.91468 1.14965 0
M  V30 21564 H 2161.7 4.15893 0.0234786 0
M  V30 21565 H 2160.28 3.33865 1.66098 0
M  V30 21566 N 2162.46 -0.0166879 1.57591 0
M  V30 21567 C 2163.87 -0.561696 1.7805 0
M  V30 21568 C 2164.22 -1.74907 0.888926 0
M  V30 21569 O 2163.35 -2.16225 0.0869853 0
M  V30 21570 C 2163.94 -1.02576 3.22899 0
M  V30 21571 C 2162.5 -1.51619 3.44512 0
M  V30 21572 C 2161.65 -0.459817 2.73461 0
M  V30 21573 H 2164.6 0.209523 1.57311 0
M  V30 21574 H 2164.62 -1.89257 3.30094 0
M  V30 21575 H 2164.13 -0.16136 3.87764 0
M  V30 21576 H 2162.23 -2.40203 2.84839 0
M  V30 21577 H 2162.35 -1.55516 4.53157 0
M  V30 21578 H 2160.71 -0.917683 2.37594 0
M  V30 21579 H 2161.49 0.395327 3.41016 0
M  V30 21580 N 2163.94 -1.54924 -0.289176 0
M  V30 21581 C 2165.17 -1.78772 -1.04154 0
M  V30 21582 C 2165.58 -0.553005 -1.8052 0
M  V30 21583 O 2164.94 0.47752 -1.76142 0
M  V30 21584 C 2164.99 -3.00278 -2.01284 0
M  V30 21585 O 2164.71 -4.18979 -1.28015 0
M  V30 21586 C 2166.21 -3.36605 -2.88464 0
M  V30 21587 H 2163.43 -0.595936 -0.308384 0
M  V30 21588 H 2165.98 -2.01903 -0.324862 0
M  V30 21589 H 2164.13 -2.79321 -2.68438 0
M  V30 21590 H 2164.54 -4.87563 -1.93345 0
M  V30 21591 H 2166.02 -4.24837 -3.52446 0
M  V30 21592 H 2166.5 -2.55285 -3.57388 0
M  V30 21593 H 2167.1 -3.59764 -2.26825 0
M  V30 21594 N 2165.42 0.552936 -1.47582 0
M  V30 21595 C 2166.66 1.32065 -1.56007 0
M  V30 21596 C 2167.02 1.90747 -0.219017 0
M  V30 21597 O 2168.22 2.68209 -0.178138 0
M  V30 21598 C 2166.49 2.39794 -2.65016 0
M  V30 21599 S 2168.05 3.26596 -2.93054 0
M  V30 21600 H 2164.87 0.449542 -0.550847 0
M  V30 21601 H 2167.47 0.632535 -1.84984 0
M  V30 21602 H 2166.18 1.95125 -3.61046 0
M  V30 21603 H 2165.71 3.13341 -2.37867 0
M  V30 21604 H 2167.72 4.39364 -2.30595 0
M  V30 21605 N 2166.89 1.35785 0.800009 0
M  V30 21606 C 2168.14 1.29617 1.55972 0
M  V30 21607 C 2168.47 -0.12735 1.93782 0
M  V30 21608 O 2167.75 -1.07828 1.61875 0
M  V30 21609 C 2168.03 2.2089 2.84393 0
M  V30 21610 C 2167.88 3.7189 2.53018 0
M  V30 21611 C 2169.2 2.11141 3.86145 0
M  V30 21612 H 2166.32 0.472177 0.565878 0
M  V30 21613 H 2168.96 1.66245 0.919932 0
M  V30 21614 H 2167.11 1.89784 3.3899 0
M  V30 21615 H 2168.79 4.13468 2.04553 0
M  V30 21616 H 2167.03 3.91847 1.86114 0
M  V30 21617 H 2167.7 4.3115 3.44693 0
M  V30 21618 H 2170.18 2.38498 3.40966 0
M  V30 21619 H 2169.05 2.77192 4.73768 0
M  V30 21620 H 2169.31 1.09538 4.28315 0
M  V30 21621 N 2168.37 -1.02294 1.19891 0
M  V30 21622 C 2169.3 -2.12589 0.965816 0
M  V30 21623 C 2170.28 -1.69788 -0.102962 0
M  V30 21624 O 2171.47 -1.94127 0.0532676 0
M  V30 21625 C 2168.6 -3.43532 0.510181 0
M  V30 21626 C 2167.55 -4.00044 1.52147 0
M  V30 21627 C 2166.88 -5.26679 0.922703 0
M  V30 21628 C 2168.18 -4.34165 2.90341 0
M  V30 21629 H 2169.87 -2.32347 1.88826 0
M  V30 21630 H 2167.42 -1.11659 0.9093 0
M  V30 21631 H 2169.37 -4.20071 0.334377 0
M  V30 21632 H 2168.1 -3.23514 -0.447879 0
M  V30 21633 H 2166.75 -3.25606 1.68453 0
M  V30 21634 H 2166.4 -5.02982 -0.0430931 0
M  V30 21635 H 2166.1 -5.65452 1.59806 0
M  V30 21636 H 2167.63 -6.05879 0.757827 0
M  V30 21637 H 2169.04 -5.01617 2.77584 0
M  V30 21638 H 2167.44 -4.84036 3.54724 0
M  V30 21639 H 2168.51 -3.43207 3.42545 0
M  V30 21640 N 2169.85 -1.00378 -1.21499 0
M  V30 21641 C 2170.76 -0.572425 -2.27509 0
M  V30 21642 C 2171.78 0.383982 -1.6971 0
M  V30 21643 O 2172.95 0.248119 -1.99866 0
M  V30 21644 C 2170.02 0.0953686 -3.46569 0
M  V30 21645 C 2169.08 -0.905366 -4.19645 0
M  V30 21646 C 2168.31 -0.269345 -5.3302 0
M  V30 21647 O 2168.53 0.934144 -5.62699 0
M  V30 21648 O 2167.47 -0.979662 -5.93874 0
M  V30 21649 H 2171.29 -1.45465 -2.66596 0
M  V30 21650 H 2168.88 -0.772585 -1.27873 0
M  V30 21651 H 2170.76 0.468934 -4.18783 0
M  V30 21652 H 2169.44 0.951993 -3.09385 0
M  V30 21653 H 2168.34 -1.33007 -3.49657 0
M  V30 21654 H 2169.68 -1.73154 -4.60737 0
M  V30 21655 N 2171.33 1.37038 -0.778354 0
M  V30 21656 C 2172.58 1.99134 -0.344995 0
M  V30 21657 C 2172.9 1.62093 1.08402 0
M  V30 21658 O 2172.17 0.889547 1.74539 0
M  V30 21659 H 2170.75 0.73654 -0.124572 0
M  V30 21660 H 2173.41 1.67413 -0.997945 0
M  V30 21661 H 2172.51 3.09152 -0.427927 0
M  V30 21662 N 2172.81 0.529439 1.48441 0
M  V30 21663 C 2174.08 -0.0692247 1.95477 0
M  V30 21664 C 2174.46 -1.51345 1.47166 0
M  V30 21665 O 2173.81 -2.1758 0.697925 0
M  V30 21666 C 2174.02 0.0474683 3.48968 0
M  V30 21667 C 2175.37 -0.112074 4.24452 0
M  V30 21668 O 2176.39 -0.0263527 3.5619 0
M  V30 21669 O 2175.25 -0.291683 5.45721 0
M  V30 21670 H 2172.35 -0.079598 0.82316 0
M  V30 21671 H 2174.89 0.593999 1.58965 0
M  V30 21672 H 2173.67 1.05353 3.76851 0
M  V30 21673 H 2173.29 -0.65463 3.92174 0
M  V30 21674 N 2174.29 -1.55364 0.264547 0
M  V30 21675 C 2175.24 -2.18781 -0.641787 0
M  V30 21676 C 2176.22 -1.14912 -1.12624 0
M  V30 21677 O 2177.41 -1.40763 -1.07307 0
M  V30 21678 C 2174.54 -2.90435 -1.83037 0
M  V30 21679 C 2173.63 -4.0158 -1.3636 0
M  V30 21680 N 2174.02 -5.02081 -0.612243 0
M  V30 21681 C 2172.32 -4.14458 -1.64744 0
M  V30 21682 C 2173.02 -5.80533 -0.368214 0
M  V30 21683 N 2171.99 -5.35454 -0.937575 0
M  V30 21684 H 2175.79 -2.93839 -0.0597811 0
M  V30 21685 H 2173.31 -1.62259 0.067633 0
M  V30 21686 H 2175.31 -3.34309 -2.49085 0
M  V30 21687 H 2173.97 -2.16884 -2.41643 0
M  V30 21688 H 2174.98 -5.17244 -0.260611 0
M  V30 21689 H 2171.65 -3.52091 -2.24361 0
M  V30 21690 H 2173.04 -6.71497 0.23282 0
M  V30 21691 N 2175.76 0.00833021 -1.57598 0
M  V30 21692 C 2177.04 0.731485 -1.81407 0
M  V30 21693 C 2177.42 1.9245 -0.867544 0
M  V30 21694 O 2176.77 2.28339 0.0856431 0
M  V30 21695 C 2176.98 1.14505 -3.29681 0
M  V30 21696 C 2178.33 1.55237 -3.95205 0
M  V30 21697 O 2179.35 1.23907 -3.33954 0
M  V30 21698 O 2178.21 2.13464 -5.03086 0
M  V30 21699 H 2175.3 0.355455 -0.746713 0
M  V30 21700 H 2177.85 -0.0164849 -1.69692 0
M  V30 21701 H 2176.62 0.294315 -3.90192 0
M  V30 21702 H 2176.24 1.95238 -3.46364 0
M  V30 21703 N 2177.24 1.55075 0.280956 0
M  V30 21704 C 2178.49 1.75306 1.01361 0
M  V30 21705 C 2178.82 0.549775 1.86568 0
M  V30 21706 O 2178.07 -0.467908 1.90024 0
M  V30 21707 C 2178.37 3.00658 1.93234 0
M  V30 21708 C 2178.04 4.3356 1.23841 0
M  V30 21709 C 2176.7 4.69683 1.0465 0
M  V30 21710 C 2179.05 5.15863 0.743962 0
M  V30 21711 C 2176.38 5.85671 0.347296 0
M  V30 21712 C 2178.73 6.32573 0.0583841 0
M  V30 21713 C 2177.39 6.67342 -0.145308 0
M  V30 21714 H 2176.66 0.641491 0.370905 0
M  V30 21715 H 2179.31 1.89343 0.286608 0
M  V30 21716 H 2177.62 2.81488 2.72529 0
M  V30 21717 H 2179.31 3.13507 2.50029 0
M  V30 21718 H 2175.9 4.05163 1.39788 0
M  V30 21719 H 2180.09 4.88438 0.879877 0
M  V30 21720 H 2175.34 6.11139 0.178683 0
M  V30 21721 H 2179.52 6.95606 -0.332548 0
M  V30 21722 H 2177.14 7.5707 -0.689091 0
M  V30 21723 N 2178.72 -0.545102 1.47873 0
M  V30 21724 C 2180.14 -0.872206 1.33659 0
M  V30 21725 C 2180.34 -1.98676 0.336181 0
M  V30 21726 O 2179.39 -2.51279 -0.248001 0
M  V30 21727 C 2180.7 -1.254 2.73304 0
M  V30 21728 C 2182.25 -1.36475 2.8168 0
M  V30 21729 C 2182.73 -1.78005 4.21993 0
M  V30 21730 N 2184.22 -1.85134 4.24593 0
M  V30 21731 C 2184.95 -2.18622 5.30087 0
M  V30 21732 N 2184.45 -2.50639 6.45873 0
M  V30 21733 N 2186.24 -2.19499 5.17471 0
M  V30 21734 H 2178.39 0.190536 2.11544 0
M  V30 21735 H 2180.66 0.0225858 0.947731 0
M  V30 21736 H 2180.36 -0.508782 3.48 0
M  V30 21737 H 2180.24 -2.20752 3.05857 0
M  V30 21738 H 2182.62 -2.10076 2.07249 0
M  V30 21739 H 2182.7 -0.392814 2.52766 0
M  V30 21740 H 2182.35 -1.04969 4.96935 0
M  V30 21741 H 2182.28 -2.76222 4.4834 0
M  V30 21742 H 2184.77 -1.62729 3.41068 0
M  V30 21743 H 2185.08 -2.75253 7.22119 0
M  V30 21744 H 2183.43 -2.48192 6.49173 0
M  V30 21745 H 2186.62 -1.93934 4.26037 0
M  V30 21746 H 2186.79 -2.45267 5.9979 0
M  V30 21747 N 2180.2 -1.36208 -0.792797 0
M  V30 21748 C 2181.44 -1.31628 -1.56376 0
M  V30 21749 C 2181.8 0.104244 -1.91717 0
M  V30 21750 O 2183 0.274558 -2.67394 0
M  V30 21751 C 2181.27 -2.21009 -2.80873 0
M  V30 21752 S 2182.83 -2.3408 -3.7115 0
M  V30 21753 H 2179.65 -0.467581 -0.53562 0
M  V30 21754 H 2182.25 -1.71744 -0.934044 0
M  V30 21755 H 2180.96 -3.23174 -2.52956 0
M  V30 21756 H 2180.49 -1.81901 -3.4882 0
M  V30 21757 H 2182.5 -1.5358 -4.71834 0
M  V30 21758 N 2181.68 1.01656 -1.20431 0
M  V30 21759 C 2182.95 1.72424 -0.923539 0
M  V30 21760 C 2183.33 2.03324 0.567675 0
M  V30 21761 O 2182.68 1.69774 1.52935 0
M  V30 21762 C 2182.89 2.99208 -1.79654 0
M  V30 21763 C 2184.24 3.72472 -2.03838 0
M  V30 21764 O 2185.26 3.09164 -1.76907 0
M  V30 21765 O 2184.12 4.86314 -2.49321 0
M  V30 21766 H 2181.22 0.751461 -0.345305 0
M  V30 21767 H 2183.76 1.07504 -1.31305 0
M  V30 21768 H 2182.53 2.72695 -2.80629 0
M  V30 21769 H 2182.16 3.71869 -1.4071 0
M  V30 21770 N 2183.15 1.01021 1.20965 0
M  V30 21771 C 2184.12 0.579903 2.21743 0
M  V30 21772 C 2185.12 -0.34653 1.57022 0
M  V30 21773 O 2186.31 -0.136099 1.73668 0
M  V30 21774 C 2183.44 -0.154061 3.40552 0
M  V30 21775 H 2184.63 1.47135 2.61326 0
M  V30 21776 H 2182.18 0.79929 1.34317 0
M  V30 21777 H 2182.92 -1.06071 3.06463 0
M  V30 21778 H 2182.7 0.511376 3.88751 0
M  V30 21779 H 2184.19 -0.44269 4.15247 0
M  V30 21780 N 2184.63 -1.36623 0.78561 0
M  V30 21781 C 2185.87 -2.01176 0.361609 0
M  V30 21782 C 2186.24 -1.61005 -1.04602 0
M  V30 21783 O 2187.44 -2.1812 -1.57089 0
M  V30 21784 C 2185.71 -3.53657 0.515881 0
M  V30 21785 S 2187.27 -4.38434 0.179194 0
M  V30 21786 H 2184.08 -0.697408 0.13836 0
M  V30 21787 H 2186.69 -1.66582 1.02327 0
M  V30 21788 H 2185.39 -3.80381 1.54072 0
M  V30 21789 H 2184.92 -3.93067 -0.161844 0
M  V30 21790 H 2186.94 -4.85592 -1.02055 0
M  V30 21791 N 2186.11 -0.537304 -1.48158 0
M  V30 21792 C 2187.04 0.210088 -2.32553 0
M  V30 21793 C 2188.02 0.928052 -1.42552 0
M  V30 21794 O 2189.21 0.912405 -1.71432 0
M  V30 21795 C 2186.34 1.25296 -3.23911 0
M  V30 21796 C 2185.29 0.65269 -4.22994 0
M  V30 21797 C 2184.62 1.79875 -5.03537 0
M  V30 21798 C 2185.92 -0.380445 -5.20913 0
M  V30 21799 H 2187.61 -0.494444 -2.95289 0
M  V30 21800 H 2185.16 -0.239229 -1.41999 0
M  V30 21801 H 2187.11 1.78383 -3.81782 0
M  V30 21802 H 2185.83 1.98717 -2.59189 0
M  V30 21803 H 2184.49 0.143286 -3.6632 0
M  V30 21804 H 2184.14 2.52152 -4.35234 0
M  V30 21805 H 2183.84 1.40299 -5.70605 0
M  V30 21806 H 2185.36 2.33326 -5.64262 0
M  V30 21807 H 2186.78 0.0636068 -5.73265 0
M  V30 21808 H 2185.17 -0.693989 -5.96074 0
M  V30 21809 H 2186.24 -1.28359 -4.67602 0
M  V30 21810 N 2187.59 1.55221 -0.272782 0
M  V30 21811 C 2188.52 2.25408 0.609392 0
M  V30 21812 C 2189.5 1.2434 1.16076 0
M  V30 21813 O 2190.68 1.53054 1.19533 0
M  V30 21814 C 2187.81 2.97338 1.79464 0
M  V30 21815 C 2186.77 4.05315 1.37491 0
M  V30 21816 C 2186.09 4.64808 2.64307 0
M  V30 21817 C 2187.39 5.19636 0.526828 0
M  V30 21818 H 2189.09 2.9939 0.0240678 0
M  V30 21819 H 2186.63 1.43996 0.0101357 0
M  V30 21820 H 2188.59 3.45149 2.41765 0
M  V30 21821 H 2187.31 2.20887 2.40576 0
M  V30 21822 H 2185.97 3.58312 0.775106 0
M  V30 21823 H 2185.62 3.85027 3.23672 0
M  V30 21824 H 2185.32 5.37713 2.36935 0
M  V30 21825 H 2186.84 5.15366 3.2746 0
M  V30 21826 H 2188.26 5.63513 1.05478 0
M  V30 21827 H 2186.65 5.9909 0.348095 0
M  V30 21828 H 2187.72 4.82761 -0.454948 0
M  V30 21829 N 2189.07 2.77022e-05 1.576 0
M  V30 21830 C 2190.31 -0.683462 1.90193 0
M  V30 21831 C 2190.64 -1.74311 0.8741 0
M  V30 21832 O 2189.91 -1.957 -0.0884894 0
M  V30 21833 H 2188.49 -0.25543 0.701972 0
M  V30 21834 H 2191.15 0.0409602 1.94857 0
M  V30 21835 H 2190.24 -1.15469 2.89954 0
M  V30 21836 N 2190.54 -1.55222 -0.272728 0
M  V30 21837 C 2191.77 -1.79606 -1.02104 0
M  V30 21838 C 2192.18 -0.569725 -1.80418 0
M  V30 21839 O 2191.53 0.470712 -1.77567 0
M  V30 21840 C 2191.59 -2.96926 -2.0267 0
M  V30 21841 C 2191.25 -4.33955 -1.43291 0
M  V30 21842 C 2192.25 -5.1293 -0.84844 0
M  V30 21843 C 2189.93 -4.80613 -1.46003 0
M  V30 21844 C 2191.93 -6.36698 -0.298997 0
M  V30 21845 C 2189.61 -6.04336 -0.906727 0
M  V30 21846 C 2190.61 -6.82216 -0.32721 0
M  V30 21847 O 2190.3 -8.03605 0.217621 0
M  V30 21848 H 2190.03 -0.602109 -0.307311 0
M  V30 21849 H 2192.59 -2.03065 -0.308827 0
M  V30 21850 H 2190.82 -2.69159 -2.77651 0
M  V30 21851 H 2192.51 -3.08631 -2.63632 0
M  V30 21852 H 2193.27 -4.78015 -0.820181 0
M  V30 21853 H 2189.15 -4.20003 -1.90049 0
M  V30 21854 H 2192.69 -6.9743 0.153975 0
M  V30 21855 H 2188.59 -6.38733 -0.932227 0
M  V30 21856 H 2189.36 -8.1843 0.107007 0
M  V30 21857 N 2192.02 0.537252 -1.4816 0
M  V30 21858 C 2192.93 1.66957 -1.6481 0
M  V30 21859 C 2193.95 1.6571 -0.53068 0
M  V30 21860 O 2195.12 1.84794 -0.800816 0
M  V30 21861 C 2192.19 3.03435 -1.67714 0
M  V30 21862 C 2191.25 3.15595 -2.9103 0
M  V30 21863 C 2190.48 4.45562 -2.93786 0
M  V30 21864 O 2190.71 5.32226 -2.05162 0
M  V30 21865 O 2189.64 4.61934 -3.85876 0
M  V30 21866 H 2193.47 1.55849 -2.60662 0
M  V30 21867 H 2191.05 0.709526 -1.31477 0
M  V30 21868 H 2192.93 3.84616 -1.72187 0
M  V30 21869 H 2191.61 3.14884 -0.750333 0
M  V30 21870 H 2190.52 2.33736 -2.92093 0
M  V30 21871 H 2191.85 3.09059 -3.83071 0
M  V30 21872 N 2193.5 1.36626 0.785562 0
M  V30 21873 C 2194.75 1.30811 1.54055 0
M  V30 21874 C 2195.07 -0.111123 1.94683 0
M  V30 21875 O 2194.34 -1.05221 1.65243 0
M  V30 21876 H 2192.92 0.481221 0.571345 0
M  V30 21877 H 2195.58 1.70965 0.935791 0
M  V30 21878 H 2194.68 1.93806 2.44634 0
M  V30 21879 N 2194.98 -1.01016 1.20969 0
M  V30 21880 C 2195.93 -2.09689 0.964317 0
M  V30 21881 C 2196.9 -1.6575 -0.107824 0
M  V30 21882 O 2198.08 -1.90762 0.0382323 0
M  V30 21883 C 2195.22 -3.41014 0.52949 0
M  V30 21884 C 2194.33 -3.98395 1.6705 0
M  V30 21885 C 2193.47 -5.17806 1.18534 0
M  V30 21886 C 2192.51 -5.67284 2.29902 0
M  V30 21887 N 2191.64 -6.77951 1.82558 0
M  V30 21888 H 2196.48 -2.30013 1.89467 0
M  V30 21889 H 2194.02 -1.12788 0.944309 0
M  V30 21890 H 2195.98 -4.16397 0.258662 0
M  V30 21891 H 2194.61 -3.20743 -0.363862 0
M  V30 21892 H 2193.66 -3.20046 2.05609 0
M  V30 21893 H 2194.97 -4.31113 2.50885 0
M  V30 21894 H 2194.13 -6.00417 0.870867 0
M  V30 21895 H 2192.87 -4.86669 0.316973 0
M  V30 21896 H 2191.87 -4.83273 2.62158 0
M  V30 21897 H 2193.1 -6.00453 3.17226 0
M  V30 21898 H 2191.04 -6.4863 0.980568 0
M  V30 21899 H 2190.96 -7.09896 2.59969 0
M  V30 21900 H 2192.23 -7.6411 1.54129 0
M  V30 21901 N 2196.46 -1.01661 -1.20428 0
M  V30 21902 C 2197.41 -0.557662 -2.21075 0
M  V30 21903 C 2198.39 0.387001 -1.56177 0
M  V30 21904 O 2199.58 0.209965 -1.7575 0
M  V30 21905 C 2196.71 0.102647 -3.43147 0
M  V30 21906 C 2195.8 -0.863725 -4.15212 0
M  V30 21907 N 2196.19 -2.02125 -4.63659 0
M  V30 21908 C 2194.49 -0.684549 -4.40715 0
M  V30 21909 C 2195.19 -2.62975 -5.18863 0
M  V30 21910 N 2194.16 -1.91036 -5.08927 0
M  V30 21911 H 2197.97 -1.44012 -2.56198 0
M  V30 21912 H 2195.48 -0.881955 -1.36365 0
M  V30 21913 H 2197.48 0.448981 -4.14475 0
M  V30 21914 H 2196.14 0.980949 -3.09528 0
M  V30 21915 H 2197.15 -2.40118 -4.58873 0
M  V30 21916 H 2193.82 0.145697 -4.17246 0
M  V30 21917 H 2195.21 -3.60934 -5.66724 0
M  V30 21918 N 2197.93 1.36205 -0.792844 0
M  V30 21919 C 2199.17 2.00981 -0.372273 0
M  V30 21920 C 2199.54 1.61557 1.03746 0
M  V30 21921 O 2200.74 2.1895 1.5593 0
M  V30 21922 C 2199.01 3.53379 -0.534629 0
M  V30 21923 S 2200.57 4.38333 -0.202442 0
M  V30 21924 H 2197.39 0.696664 -0.142056 0
M  V30 21925 H 2199.99 1.66037 -1.03209 0
M  V30 21926 H 2198.69 3.79559 -1.56087 0
M  V30 21927 H 2198.22 3.93147 0.140996 0
M  V30 21928 H 2200.24 4.86126 0.994783 0
M  V30 21929 N 2199.41 0.545154 1.47871 0
M  V30 21930 C 2200.32 -0.212705 2.33634 0
M  V30 21931 C 2201.34 -0.923957 1.47442 0
M  V30 21932 O 2202.51 -0.89554 1.80394 0
M  V30 21933 C 2199.58 -1.23687 3.23886 0
M  V30 21934 C 2198.64 -0.534342 4.25962 0
M  V30 21935 C 2197.87 -1.50971 5.11902 0
M  V30 21936 O 2198.1 -2.74361 5.00082 0
M  V30 21937 O 2197.03 -1.0408 5.92833 0
M  V30 21938 H 2200.86 0.490469 2.99713 0
M  V30 21939 H 2198.44 0.305896 1.46235 0
M  V30 21940 H 2200.32 -1.82836 3.7967 0
M  V30 21941 H 2199 -1.92218 2.6045 0
M  V30 21942 H 2197.91 0.0980336 3.73972 0
M  V30 21943 H 2199.24 0.1093 4.92079 0
M  V30 21944 N 2200.89 -1.55074 0.28101 0
M  V30 21945 C 2202.31 -1.59433 -0.0729684 0
M  V30 21946 C 2202.51 -1.29819 -1.54108 0
M  V30 21947 O 2201.56 -1.06191 -2.29085 0
M  V30 21948 C 2202.88 -2.99129 0.306974 0
M  V30 21949 C 2204.42 -3.11967 0.254078 0
M  V30 21950 C 2204.9 -4.53939 0.608547 0
M  V30 21951 N 2206.39 -4.59798 0.560322 0
M  V30 21952 C 2207.12 -5.67688 0.807319 0
M  V30 21953 N 2206.62 -6.83699 1.11924 0
M  V30 21954 N 2208.41 -5.57264 0.735721 0
M  V30 21955 H 2200.56 -1.72588 1.23803 0
M  V30 21956 H 2202.83 -0.805073 0.500561 0
M  V30 21957 H 2202.53 -3.25655 1.32822 0
M  V30 21958 H 2202.41 -3.75579 -0.349297 0
M  V30 21959 H 2204.79 -2.85202 -0.75789 0
M  V30 21960 H 2204.88 -2.37717 0.94469 0
M  V30 21961 H 2204.52 -4.81431 1.61823 0
M  V30 21962 H 2204.45 -5.26497 -0.10392 0
M  V30 21963 H 2206.94 -3.76462 0.329354 0
M  V30 21964 H 2207.25 -7.61886 1.29422 0
M  V30 21965 H 2205.6 -6.853 1.15708 0
M  V30 21966 H 2208.79 -4.65509 0.491834 0
M  V30 21967 H 2208.96 -6.41269 0.931595 0
M  V30 21968 N 2202.37 -0.00838561 -1.57598 0
M  V30 21969 C 2203.61 0.679102 -1.92789 0
M  V30 21970 C 2203.97 1.7047 -0.883408 0
M  V30 21971 O 2205.17 2.44317 -1.12083 0
M  V30 21972 C 2203.45 1.29801 -3.32996 0
M  V30 21973 S 2205 2.00945 -3.90085 0
M  V30 21974 H 2201.82 0.224115 -0.674754 0
M  V30 21975 H 2204.42 -0.0670841 -1.95385 0
M  V30 21976 H 2203.13 0.538851 -4.06847 0
M  V30 21977 H 2202.66 2.08195 -3.33794 0
M  V30 21978 H 2204.67 3.28557 -3.7184 0
M  V30 21979 N 2203.85 1.55365 0.264492 0
M  V30 21980 C 2205.07 1.80741 1.01722 0
M  V30 21981 C 2205.5 0.583075 1.78835 0
M  V30 21982 O 2204.86 -0.467535 1.75168 0
M  V30 21983 C 2204.9 3.03663 1.94477 0
M  V30 21984 O 2204.01 2.79345 3.03381 0
M  V30 21985 H 2203.35 0.597137 0.290384 0
M  V30 21986 H 2205.88 2.02523 0.290818 0
M  V30 21987 H 2205.89 3.32625 2.36272 0
M  V30 21988 H 2204.56 3.9242 1.37765 0
M  V30 21989 H 2203.14 2.61503 2.6584 0
M  V30 21990 N 2205.33 -0.529387 1.48443 0
M  V30 21991 C 2206.55 -1.31468 1.60409 0
M  V30 21992 C 2206.98 -1.86227 0.264771 0
M  V30 21993 O 2206.33 -1.64433 -0.763639 0
M  V30 21994 C 2206.38 -2.44096 2.65423 0
M  V30 21995 O 2205.49 -3.47149 2.22624 0
M  V30 21996 H 2204.83 -0.389348 0.53787 0
M  V30 21997 H 2207.36 -0.636931 1.94433 0
M  V30 21998 H 2207.37 -2.90274 2.86715 0
M  V30 21999 H 2206.04 -2.03601 3.62656 0
M  V30 22000 H 2204.62 -3.07086 2.11548 0
M  V30 22001 N 2206.8 -1.37041 -0.778305 0
M  V30 22002 C 2208.03 -1.35235 -1.57246 0
M  V30 22003 C 2208.45 0.0615238 -1.87999 0
M  V30 22004 O 2207.81 1.0367 -1.48736 0
M  V30 22005 C 2207.86 -2.19172 -2.86349 0
M  V30 22006 O 2206.96 -1.59184 -3.80439 0
M  V30 22007 H 2206.3 -0.46237 -0.47656 0
M  V30 22008 H 2208.83 -1.80476 -0.963821 0
M  V30 22009 H 2208.84 -2.32151 -3.35514 0
M  V30 22010 H 2207.52 -3.21947 -2.63293 0
M  V30 22011 H 2206.1 -1.55209 -3.39064 0
M  V30 22012 N 2208.28 1.00373 -1.21503 0
M  V30 22013 C 2209.51 1.77484 -1.05749 0
M  V30 22014 C 2209.92 1.85017 0.395623 0
M  V30 22015 O 2209.26 1.31155 1.28624 0
M  V30 22016 C 2209.32 3.22871 -1.58097 0
M  V30 22017 C 2208.99 3.38912 -3.06574 0
M  V30 22018 C 2209.99 3.27093 -4.04112 0
M  V30 22019 C 2207.67 3.64313 -3.45806 0
M  V30 22020 C 2209.66 3.40441 -5.38868 0
M  V30 22021 C 2207.35 3.77303 -4.80714 0
M  V30 22022 C 2208.35 3.65374 -5.77054 0
M  V30 22023 O 2208.04 3.77949 -7.09514 0
M  V30 22024 H 2207.77 0.564579 -0.371788 0
M  V30 22025 H 2210.32 1.2714 -1.61321 0
M  V30 22026 H 2208.55 3.74357 -0.969229 0
M  V30 22027 H 2210.24 3.8166 -1.38168 0
M  V30 22028 H 2211.01 3.07392 -3.75147 0
M  V30 22029 H 2206.89 3.72679 -2.71351 0
M  V30 22030 H 2210.43 3.31047 -6.14047 0
M  V30 22031 H 2206.33 3.96508 -5.09364 0
M  V30 22032 H 2207.1 3.94888 -7.16942 0
M  V30 22033 N 2209.76 1.02298 1.19887 0
M  V30 22034 C 2210.99 0.734366 1.93108 0
M  V30 22035 C 2211.4 -0.709859 1.75379 0
M  V30 22036 O 2210.74 -1.49382 1.06915 0
M  V30 22037 C 2210.8 0.99833 3.4536 0
M  V30 22038 C 2210.47 2.43293 3.86856 0
M  V30 22039 C 2211.46 3.41404 3.92096 0
M  V30 22040 C 2209.15 2.77537 4.18663 0
M  V30 22041 C 2211.14 4.71817 4.28565 0
M  V30 22042 C 2208.83 4.08161 4.54806 0
M  V30 22043 C 2209.83 5.05111 4.5973 0
M  V30 22044 O 2209.52 6.33397 4.95039 0
M  V30 22045 H 2209.25 0.268467 0.620404 0
M  V30 22046 H 2211.8 1.36883 1.53141 0
M  V30 22047 H 2210.03 0.306713 3.85482 0
M  V30 22048 H 2211.72 0.700304 3.99813 0
M  V30 22049 H 2212.49 3.16286 3.67679 0
M  V30 22050 H 2208.37 2.02757 4.14018 0
M  V30 22051 H 2211.91 5.47487 4.32323 0
M  V30 22052 H 2207.81 4.33055 4.78679 0
M  V30 22053 H 2208.57 6.37781 5.13009 0
M  V30 22054 N 2211.24 -1.35782 0.800057 0
M  V30 22055 C 2212.49 -1.9856 0.376632 0
M  V30 22056 C 2212.81 -1.63797 -1.0581 0
M  V30 22057 O 2212.08 -0.917202 -1.73102 0
M  V30 22058 H 2210.66 -0.734465 0.136274 0
M  V30 22059 H 2213.32 -1.65804 1.02445 0
M  V30 22060 H 2212.41 -3.08432 0.477056 0
M  V30 22061 N 2212.72 -0.552988 -1.4758 0
M  V30 22062 C 2213.66 0.210189 -2.31648 0
M  V30 22063 C 2214.66 0.913407 -1.42665 0
M  V30 22064 O 2215.86 0.835173 -1.59452 0
M  V30 22065 H 2212.24 0.0866545 -0.746991 0
M  V30 22066 H 2214.21 -0.518103 -2.93868 0
M  V30 22067 C 2212.96 1.2297 -3.25229 0
M  V30 22068 H 2212.28 0.698008 -3.9366 0
M  V30 22069 H 2213.72 1.73467 -3.86892 0
M  V30 22070 C 2212.18 2.27538 -2.48452 0
M  V30 22071 O 2212.71 3.34389 -2.22591 0
M  V30 22072 N 2210.92 2.01354 -2.09535 0
M  V30 22073 H 2210.46 1.14474 -2.30767 0
M  V30 22074 H 2210.42 2.71535 -1.5848 0
M  V30 22075 N 2214.19 1.54923 -0.28923 0
M  V30 22076 C 2215.6 1.85563 0.205758 0
M  V30 22077 C 2215.96 1.21123 1.54349 0
M  V30 22078 O 2215.08 0.504638 2.10434 0
M  V30 22079 C 2215.68 3.36661 0.380118 0
M  V30 22080 C 2214.23 3.67374 0.819331 0
M  V30 22081 C 2213.38 2.77187 -0.0792077 0
M  V30 22082 H 2216.33 1.50262 -0.510603 0
M  V30 22083 H 2216.35 3.60529 1.21653 0
M  V30 22084 H 2215.87 3.83533 -0.593657 0
M  V30 22085 H 2213.97 3.26012 1.80408 0
M  V30 22086 H 2214.08 4.74713 0.646874 0
M  V30 22087 H 2212.44 2.50879 0.439521 0
M  V30 22088 H 2213.23 3.26877 -1.04912 0
M  V30 22089 N 2215.67 0.0167433 1.57591 0
M  V30 22090 C 2216.6 -0.997717 2.06345 0
M  V30 22091 C 2217.62 -1.2966 0.984492 0
M  V30 22092 O 2218.81 -1.26342 1.26095 0
M  V30 22093 C 2215.91 -2.3283 2.46259 0
M  V30 22094 C 2215.08 -2.21639 3.77087 0
M  V30 22095 C 2214.14 -3.37527 4.03686 0
M  V30 22096 O 2213.16 -3.14965 4.74116 0
M  V30 22097 N 2214.37 -4.60922 3.52889 0
M  V30 22098 H 2217.13 -0.581823 2.93998 0
M  V30 22099 H 2214.69 -0.170288 1.61002 0
M  V30 22100 H 2216.68 -3.09161 2.61154 0
M  V30 22101 H 2215.25 -2.66103 1.64037 0
M  V30 22102 H 2214.47 -1.30113 3.72108 0
M  V30 22103 H 2215.76 -2.11352 4.62826 0
M  V30 22104 H 2215.16 -4.82149 2.95887 0
M  V30 22105 H 2213.72 -5.34463 3.73085 0
M  V30 22106 N 2217.15 -1.55503 -0.256249 0
M  V30 22107 C 2218.38 -1.80941 -1.00339 0
M  V30 22108 C 2218.79 -0.591171 -1.79306 0
M  V30 22109 O 2218.15 0.44005 -1.77115 0
M  V30 22110 C 2218.2 -3.0448 -1.9487 0
M  V30 22111 O 2217.92 -4.216 -1.19099 0
M  V30 22112 C 2219.42 -3.42648 -2.81259 0
M  V30 22113 H 2216.64 -0.602344 -0.295674 0
M  V30 22114 H 2219.19 -2.02547 -0.281962 0
M  V30 22115 H 2217.34 -2.84952 -2.62452 0
M  V30 22116 H 2217.76 -4.91555 -1.8296 0
M  V30 22117 H 2219.23 -4.32217 -3.43355 0
M  V30 22118 H 2219.71 -2.62808 -3.51893 0
M  V30 22119 H 2220.31 -3.64495 -2.19143 0
M  V30 22120 N 2218.63 0.521507 -1.48721 0
M  V30 22121 C 2220.04 1.10334 -1.50609 0
M  V30 22122 C 2220.39 1.94182 -0.280646 0
M  V30 22123 O 2219.52 2.07581 0.61147 0
M  V30 22124 C 2220.11 2.00768 -2.72906 0
M  V30 22125 C 2218.67 2.54153 -2.77639 0
M  V30 22126 C 2217.82 1.31302 -2.44244 0
M  V30 22127 H 2220.77 0.30636 -1.55715 0
M  V30 22128 H 2220.79 2.85174 -2.51905 0
M  V30 22129 H 2220.3 1.39714 -3.62079 0
M  V30 22130 H 2218.4 3.18903 -1.92695 0
M  V30 22131 H 2218.51 2.92707 -3.79288 0
M  V30 22132 H 2216.88 1.63158 -1.9558 0
M  V30 22133 H 2217.66 0.719884 -3.35667 0
M  V30 22134 N 2220.11 1.37452 0.771027 0
M  V30 22135 C 2221.35 1.32438 1.52659 0
M  V30 22136 C 2221.68 -0.0904681 1.9479 0
M  V30 22137 O 2220.95 -1.03463 1.6635 0
M  V30 22138 H 2219.53 0.487254 0.566209 0
M  V30 22139 H 2222.19 1.71948 0.917606 0
M  V30 22140 H 2221.28 1.96389 2.42565 0
M  V30 22141 N 2221.58 -0.997276 1.22033 0
M  V30 22142 C 2222.83 -1.73276 1.04019 0
M  V30 22143 C 2223.15 -1.90285 -0.426222 0
M  V30 22144 O 2222.42 -1.45933 -1.30691 0
M  V30 22145 H 2221 -0.641993 0.381908 0
M  V30 22146 H 2223.67 -1.20135 1.53472 0
M  V30 22147 H 2222.76 -2.72893 1.51446 0
M  V30 22148 N 2223.06 -1.02932 -1.19343 0
M  V30 22149 C 2224.29 -0.745545 -1.93537 0
M  V30 22150 C 2224.71 0.68948 -1.75008 0
M  V30 22151 O 2224.07 1.47609 -1.05268 0
M  V30 22152 C 2224.12 -1.10245 -3.43334 0
M  V30 22153 O 2223.22 -0.221361 -4.11805 0
M  V30 22154 H 2222.56 -0.275415 -0.604188 0
M  V30 22155 H 2225.09 -1.37612 -1.51407 0
M  V30 22156 H 2225.1 -1.05954 -3.94002 0
M  V30 22157 H 2223.78 -2.14792 -3.56142 0
M  V30 22158 H 2222.36 -0.322907 -3.71499 0
M  V30 22159 N 2224.54 1.35356 -0.807246 0
M  V30 22160 C 2225.78 2.00575 -0.393569 0
M  V30 22161 C 2226.14 1.62648 1.02027 0
M  V30 22162 O 2227.35 2.20592 1.53599 0
M  V30 22163 C 2225.62 3.52792 -0.572079 0
M  V30 22164 S 2227.18 4.38093 -0.248922 0
M  V30 22165 H 2223.99 0.695118 -0.149438 0
M  V30 22166 H 2226.6 1.64933 -1.04964 0
M  V30 22167 H 2225.3 3.77882 -1.60104 0
M  V30 22168 H 2224.83 3.93275 0.0992899 0
M  V30 22169 H 2226.85 4.87154 0.943167 0
M  V30 22170 N 2226.02 0.560807 1.47284 0
M  V30 22171 C 2226.95 -0.222398 2.28118 0
M  V30 22172 C 2227.96 -0.876032 1.37221 0
M  V30 22173 O 2229.15 -0.749279 1.62013 0
M  V30 22174 C 2226.25 -1.33279 3.11592 0
M  V30 22175 C 2225.43 -0.775265 4.30475 0
M  V30 22176 C 2224.48 -1.7706 4.95516 0
M  V30 22177 O 2223.51 -1.31529 5.53795 0
M  V30 22178 N 2224.71 -3.10409 4.90537 0
M  V30 22179 H 2227.48 0.47101 2.95976 0
M  V30 22180 H 2225.04 0.397118 1.56954 0
M  V30 22181 H 2227.03 -1.99746 3.51971 0
M  V30 22182 H 2225.6 -1.92938 2.45954 0
M  V30 22183 H 2224.82 0.0662805 3.94144 0
M  V30 22184 H 2226.11 -0.382182 5.07363 0
M  V30 22185 H 2225.51 -3.50042 4.44395 0
M  V30 22186 H 2224.06 -3.72425 5.34923 0
M  V30 22187 N 2227.5 -1.54768 0.297442 0
M  V30 22188 C 2228.44 -2.23387 -0.580237 0
M  V30 22189 C 2229.41 -1.21519 -1.13236 0
M  V30 22190 O 2230.6 -1.50129 -1.17754 0
M  V30 22191 C 2227.74 -2.97558 -1.74796 0
M  V30 22192 C 2226.85 -4.14192 -1.22757 0
M  V30 22193 C 2225.99 -4.75953 -2.35887 0
M  V30 22194 C 2225.03 -5.84738 -1.80963 0
M  V30 22195 N 2224.16 -6.40469 -2.87653 0
M  V30 22196 H 2229 -2.97998 0.0115357 0
M  V30 22197 H 2226.54 -1.4709 0.0174619 0
M  V30 22198 H 2228.5 -3.3879 -2.43469 0
M  V30 22199 H 2227.13 -2.2533 -2.31141 0
M  V30 22200 H 2226.18 -3.77925 -0.433205 0
M  V30 22201 H 2227.49 -4.92577 -0.785464 0
M  V30 22202 H 2226.65 -5.20019 -3.12514 0
M  V30 22203 H 2225.38 -3.96892 -2.83422 0
M  V30 22204 H 2224.39 -5.40099 -1.02824 0
M  V30 22205 H 2225.61 -6.6568 -1.34337 0
M  V30 22206 H 2223.56 -5.64293 -3.34528 0
M  V30 22207 H 2223.48 -7.1419 -2.47927 0
M  V30 22208 H 2224.75 -6.89193 -3.64188 0
M  V30 22209 N 2228.97 -0.0251005 -1.5758 0
M  V30 22210 C 2230.21 0.658616 -1.93498 0
M  V30 22211 C 2230.58 1.69523 -0.901439 0
M  V30 22212 O 2231.78 2.43114 -1.14669 0
M  V30 22213 C 2230.05 1.26262 -3.34354 0
M  V30 22214 S 2231.61 1.96796 -3.92195 0
M  V30 22215 H 2228.43 0.216946 -0.677093 0
M  V30 22216 H 2231.03 -0.0878035 -1.95303 0
M  V30 22217 H 2229.73 0.495669 -4.07396 0
M  V30 22218 H 2229.26 2.04642 -3.35984 0
M  V30 22219 H 2231.28 3.24595 -3.75304 0
M  V30 22220 N 2230.45 1.55637 0.247999 0
M  V30 22221 C 2231.73 1.68167 0.998959 0
M  V30 22222 C 2232.11 0.564657 2.03408 0
M  V30 22223 O 2231.46 -0.432036 2.24378 0
M  V30 22224 C 2231.67 3.08423 1.63329 0
M  V30 22225 C 2233.02 3.66987 2.13555 0
M  V30 22226 O 2234.04 3.11216 1.73272 0
M  V30 22227 O 2232.9 4.64754 2.87517 0
M  V30 22228 H 2229.99 0.683943 0.464921 0
M  V30 22229 H 2232.54 1.67967 0.241872 0
M  V30 22230 H 2231.31 3.81172 0.884516 0
M  V30 22231 H 2230.93 3.12629 2.45661 0
M  V30 22232 N 2231.93 -0.513613 1.48996 0
M  V30 22233 C 2233.17 -1.27882 1.59454 0
M  V30 22234 C 2233.54 -1.90099 0.269513 0
M  V30 22235 O 2234.74 -2.67642 0.249186 0
M  V30 22236 C 2233.01 -2.32683 2.71281 0
M  V30 22237 S 2234.57 -3.18711 3.0161 0
M  V30 22238 H 2231.38 -0.434779 0.562573 0
M  V30 22239 H 2233.99 -0.583268 1.86596 0
M  V30 22240 H 2232.69 -1.85484 3.66093 0
M  V30 22241 H 2232.22 -3.06924 2.46091 0
M  V30 22242 H 2234.24 -4.33095 2.42163 0
M  V30 22243 N 2233.41 -1.37859 -0.763727 0
M  V30 22244 C 2234.36 -1.3437 -1.89862 0
M  V30 22245 C 2235.35 -0.231173 -1.67815 0
M  V30 22246 O 2236.56 -0.399648 -1.75507 0
M  V30 22247 H 2232.93 -0.418941 -0.624494 0
M  V30 22248 H 2234.9 -2.30158 -1.89921 0
M  V30 22249 C 2233.65 -1.17556 -3.27225 0
M  V30 22250 H 2232.98 -2.0242 -3.4477 0
M  V30 22251 H 2234.42 -1.19167 -4.06909 0
M  V30 22252 C 2232.87 0.118252 -3.36692 0
M  V30 22253 O 2233.4 1.09895 -3.86375 0
M  V30 22254 N 2231.61 0.171666 -2.90093 0
M  V30 22255 H 2231.16 -0.627056 -2.49851 0
M  V30 22256 H 2231.12 1.03694 -2.96808 0
M  V30 22257 N 2234.89 0.990791 -1.22561 0
M  V30 22258 C 2236.3 1.54516 -1.04794 0
M  V30 22259 C 2236.65 1.92326 0.387964 0
M  V30 22260 O 2235.77 1.74978 1.27325 0
M  V30 22261 C 2236.37 2.80776 -1.89605 0
M  V30 22262 C 2234.93 3.32649 -1.76129 0
M  V30 22263 C 2234.08 2.05719 -1.85943 0
M  V30 22264 H 2237.03 0.811638 -1.36375 0
M  V30 22265 H 2237.05 3.53223 -1.41471 0
M  V30 22266 H 2236.56 2.53226 -2.94106 0
M  V30 22267 H 2234.66 3.65102 -0.743707 0
M  V30 22268 H 2234.77 4.03109 -2.5892 0
M  V30 22269 H 2233.14 2.19376 -1.29407 0
M  V30 22270 H 2233.92 1.80563 -2.91979 0
M  V30 22271 N 2236.37 1.03564 1.18795 0
M  V30 22272 C 2237.32 0.592763 2.2016 0
M  V30 22273 C 2238.3 -0.362106 1.56772 0
M  V30 22274 O 2239.49 -0.181978 1.76062 0
M  V30 22275 C 2236.62 -0.0480421 3.43266 0
M  V30 22276 C 2235.71 0.929672 4.13785 0
M  V30 22277 N 2236.1 2.09475 4.60384 0
M  V30 22278 C 2234.4 0.754577 4.3957 0
M  V30 22279 C 2235.1 2.71196 5.14614 0
M  V30 22280 N 2234.07 1.99108 5.05823 0
M  V30 22281 H 2237.87 1.4807 2.53875 0
M  V30 22282 H 2235.39 0.903538 1.34944 0
M  V30 22283 H 2237.39 -0.382985 4.15137 0
M  V30 22284 H 2236.05 -0.931581 3.11049 0
M  V30 22285 H 2237.06 2.47387 4.54994 0
M  V30 22286 H 2233.73 -0.0792979 4.17425 0
M  V30 22287 H 2235.12 3.69905 5.6091 0
M  V30 22288 N 2237.84 -1.34926 0.814413 0
M  V30 22289 C 2239.09 -1.98149 0.397671 0
M  V30 22290 C 2239.41 -1.6491 -1.04066 0
M  V30 22291 O 2238.68 -0.93551 -1.72119 0
M  V30 22292 H 2237.26 -0.732978 0.144056 0
M  V30 22293 H 2239.92 -1.64708 1.04198 0
M  V30 22294 H 2239.02 -3.07909 0.509743 0
M  V30 22295 N 2239.32 -0.56861 -1.46985 0
M  V30 22296 C 2240.55 -0.0520892 -2.07335 0
M  V30 22297 C 2240.97 1.2373 -1.41677 0
M  V30 22298 O 2240.33 1.74393 -0.495654 0
M  V30 22299 C 2240.38 0.114947 -3.60417 0
M  V30 22300 O 2239.48 1.17485 -3.95311 0
M  V30 22301 H 2238.82 -0.0564501 -0.661596 0
M  V30 22302 H 2241.35 -0.78754 -1.88836 0
M  V30 22303 H 2241.36 0.325572 -4.06699 0
M  V30 22304 H 2240.04 -0.826747 -4.076 0
M  V30 22305 H 2238.61 0.943805 -3.60759 0
M  V30 22306 N 2240.8 1.54608 -0.305646 0
M  V30 22307 C 2242.05 2.00528 0.302711 0
M  V30 22308 C 2242.38 1.19369 1.53182 0
M  V30 22309 O 2241.65 0.271355 1.92598 0
M  V30 22310 C 2241.94 3.54099 0.654694 0
M  V30 22311 C 2241.79 4.45994 -0.583872 0
M  V30 22312 C 2243.11 4.1449 1.47939 0
M  V30 22313 H 2240.23 0.728962 0.108551 0
M  V30 22314 H 2242.87 1.8533 -0.418667 0
M  V30 22315 H 2241.02 3.6718 1.26929 0
M  V30 22316 H 2242.69 4.44811 -1.22231 0
M  V30 22317 H 2240.93 4.16402 -1.21622 0
M  V30 22318 H 2241.61 5.5122 -0.293384 0
M  V30 22319 H 2244.08 4.04873 0.960059 0
M  V30 22320 H 2242.96 5.22091 1.69445 0
M  V30 22321 H 2243.22 3.66662 2.47004 0
M  V30 22322 N 2242.28 0.033457 1.57564 0
M  V30 22323 C 2243.23 -0.956201 2.0698 0
M  V30 22324 C 2244.21 -1.28282 0.971216 0
M  V30 22325 O 2245.4 -1.2682 1.23473 0
M  V30 22326 C 2242.53 -2.23714 2.60397 0
M  V30 22327 C 2241.62 -1.9387 3.77194 0
M  V30 22328 N 2242.01 -1.34313 4.87641 0
M  V30 22329 C 2240.31 -2.23838 3.85762 0
M  V30 22330 C 2241.01 -1.21699 5.68827 0
M  V30 22331 N 2239.98 -1.71395 5.15873 0
M  V30 22332 H 2243.79 -0.490764 2.89774 0
M  V30 22333 H 2241.3 -0.171449 1.61492 0
M  V30 22334 H 2243.3 -2.95491 2.94093 0
M  V30 22335 H 2241.96 -2.70881 1.79036 0
M  V30 22336 H 2242.97 -1.01758 5.07805 0
M  V30 22337 H 2239.65 -2.73648 3.15315 0
M  V30 22338 H 2241.04 -0.756092 6.67632 0
M  V30 22339 N 2243.76 -1.55766 -0.239741 0
M  V30 22340 C 2245 -1.77581 -0.96486 0
M  V30 22341 C 2245.32 -0.598732 -1.85581 0
M  V30 22342 O 2244.59 0.385193 -1.92076 0
M  V30 22343 H 2243.17 -0.65494 -0.359253 0
M  V30 22344 H 2245.84 -1.93212 -0.255967 0
M  V30 22345 H 2244.93 -2.69011 -1.58238 0
M  V30 22346 N 2245.23 0.505704 -1.49266 0
M  V30 22347 C 2246.51 1.26704 -1.49015 0
M  V30 22348 C 2246.89 2.1 -0.215242 0
M  V30 22349 O 2246.24 2.13944 0.802509 0
M  V30 22350 C 2246.45 2.12778 -2.76634 0
M  V30 22351 C 2247.8 2.72122 -3.25937 0
M  V30 22352 O 2248.82 2.23049 -2.77719 0
M  V30 22353 O 2247.68 3.61444 -4.09903 0
M  V30 22354 H 2244.77 0.57312 -0.596207 0
M  V30 22355 H 2247.32 0.520361 -1.61525 0
M  V30 22356 H 2246.09 1.51174 -3.60919 0
M  V30 22357 H 2245.71 2.94648 -2.66961 0
M  V30 22358 N 2246.71 1.38262 0.756405 0
M  V30 22359 C 2247.95 1.35728 1.52831 0
M  V30 22360 C 2248.32 -0.0533769 1.91926 0
M  V30 22361 O 2249.52 -0.203566 2.68028 0
M  V30 22362 C 2247.79 2.28378 2.74915 0
M  V30 22363 S 2249.35 2.43838 3.64813 0
M  V30 22364 H 2246.17 0.481618 0.523035 0
M  V30 22365 H 2248.77 1.7416 0.888181 0
M  V30 22366 H 2247.47 3.29767 2.44298 0
M  V30 22367 H 2247 1.91085 3.43875 0
M  V30 22368 H 2249.02 1.66036 4.67597 0
M  V30 22369 N 2248.19 -0.984277 1.23084 0
M  V30 22370 C 2249.47 -1.69915 0.968929 0
M  V30 22371 C 2249.85 -2.04758 -0.513568 0
M  V30 22372 O 2249.2 -1.73769 -1.4838 0
M  V30 22373 C 2249.41 -2.9434 1.87524 0
M  V30 22374 C 2250.75 -3.66936 2.13642 0
M  V30 22375 O 2251.78 -3.04365 1.85042 0
M  V30 22376 O 2250.64 -4.79533 2.62127 0
M  V30 22377 H 2247.73 -0.742041 0.365108 0
M  V30 22378 H 2250.28 -1.03985 1.34109 0
M  V30 22379 H 2249.05 -2.65159 2.87761 0
M  V30 22380 H 2248.67 -3.68007 1.5052 0
M  V30 22381 N 2249.67 -1.04192 -1.18244 0
M  V30 22382 C 2251.08 -0.761391 -1.40268 0
M  V30 22383 C 2251.28 0.648544 -1.90778 0
M  V30 22384 O 2250.34 1.41255 -2.09293 0
M  V30 22385 C 2251.65 -1.80855 -2.40233 0
M  V30 22386 C 2253.2 -1.8296 -2.53958 0
M  V30 22387 C 2253.68 -2.86671 -3.57189 0
M  V30 22388 N 2255.17 -2.8557 -3.64697 0
M  V30 22389 C 2255.9 -3.62468 -4.44303 0
M  V30 22390 N 2255.4 -4.49121 -5.27506 0
M  V30 22391 N 2257.19 -3.50951 -4.39078 0
M  V30 22392 H 2249.34 -1.95177 -0.837848 0
M  V30 22393 H 2251.61 -0.844567 -0.430593 0
M  V30 22394 H 2251.31 -2.81995 -2.10171 0
M  V30 22395 H 2251.19 -1.64174 -3.39598 0
M  V30 22396 H 2253.57 -0.824905 -2.83336 0
M  V30 22397 H 2253.65 -2.03718 -1.54702 0
M  V30 22398 H 2253.3 -3.8732 -3.28551 0
M  V30 22399 H 2253.23 -2.63168 -4.56125 0
M  V30 22400 H 2255.72 -2.22732 -3.05285 0
M  V30 22401 H 2256.03 -5.04504 -5.85402 0
M  V30 22402 H 2254.38 -4.53187 -5.26922 0
M  V30 22403 H 2257.57 -2.82657 -3.73125 0
M  V30 22404 H 2257.74 -4.1113 -5.00876 0
M  V30 22405 N 2251.15 1.34492 -0.821557 0
M  V30 22406 C 2252.37 2.02552 -0.42192 0
M  V30 22407 C 2252.79 1.61874 0.971717 0
M  V30 22408 O 2252.15 0.823524 1.62863 0
M  V30 22409 C 2252.2 3.57843 -0.512913 0
M  V30 22410 O 2251.92 3.97047 -1.85162 0
M  V30 22411 C 2253.42 4.43168 -0.107999 0
M  V30 22412 H 2250.64 0.64924 -0.169494 0
M  V30 22413 H 2253.18 1.71796 -1.10933 0
M  V30 22414 H 2251.34 3.87194 0.126406 0
M  V30 22415 H 2251.75 4.91729 -1.82491 0
M  V30 22416 H 2253.23 5.5155 -0.222754 0
M  V30 22417 H 2253.7 4.2884 0.948325 0
M  V30 22418 H 2254.31 4.19143 -0.721062 0
M  V30 22419 N 2252.62 0.576397 1.46681 0
M  V30 22420 C 2253.85 0.063084 2.07304 0
M  V30 22421 C 2254.27 -1.22977 1.42331 0
M  V30 22422 O 2253.63 -1.74128 0.504895 0
M  V30 22423 C 2253.68 -0.0958316 3.60473 0
M  V30 22424 O 2252.78 -1.15387 3.95929 0
M  V30 22425 H 2252.13 0.0599579 0.661287 0
M  V30 22426 H 2254.66 0.797544 1.88415 0
M  V30 22427 H 2254.67 -0.303999 4.06866 0
M  V30 22428 H 2253.34 0.848351 4.07156 0
M  V30 22429 H 2251.92 -0.92466 3.61254 0
M  V30 22430 N 2254.1 -1.54444 0.313841 0
M  V30 22431 C 2255.35 -1.99993 -0.291064 0
M  V30 22432 C 2255.67 -1.20369 -1.53416 0
M  V30 22433 O 2254.94 -0.302961 -1.93543 0
M  V30 22434 H 2253.52 -0.738776 -0.110539 0
M  V30 22435 H 2256.18 -1.90139 0.428139 0
M  V30 22436 H 2255.28 -3.0714 -0.554214 0
M  V30 22437 N 2255.58 -0.0418125 -1.57545 0
M  V30 22438 C 2256.51 0.964763 -2.07906 0
M  V30 22439 C 2257.53 1.28077 -1.005 0
M  V30 22440 O 2258.71 1.2432 -1.28089 0
M  V30 22441 C 2255.81 2.28883 -2.49932 0
M  V30 22442 C 2254.99 2.15612 -3.80566 0
M  V30 22443 C 2254.05 3.31062 -4.09005 0
M  V30 22444 O 2253.07 3.07382 -4.79067 0
M  V30 22445 N 2254.27 4.5525 -3.60178 0
M  V30 22446 H 2257.04 0.534977 -2.94887 0
M  V30 22447 H 2254.6 0.144652 -1.61252 0
M  V30 22448 H 2256.59 3.04967 -2.6604 0
M  V30 22449 H 2255.16 2.6346 -1.68249 0
M  V30 22450 H 2254.38 1.24177 -3.74131 0
M  V30 22451 H 2255.67 2.03963 -4.6613 0
M  V30 22452 H 2255.07 4.7738 -3.0352 0
M  V30 22453 H 2253.63 5.2846 -3.81541 0
M  V30 22454 N 2257.06 1.55891 0.231477 0
M  V30 22455 C 2258.3 1.80213 0.964501 0
M  V30 22456 C 2258.66 0.613776 1.81925 0
M  V30 22457 O 2259.86 0.73609 2.58525 0
M  V30 22458 C 2258.13 3.09372 1.78951 0
M  V30 22459 S 2259.69 3.54973 2.57953 0
M  V30 22460 H 2256.51 0.632803 0.324162 0
M  V30 22461 H 2259.11 1.94131 0.230951 0
M  V30 22462 H 2257.82 3.93913 1.15155 0
M  V30 22463 H 2257.35 2.98234 2.56554 0
M  V30 22464 H 2259.36 3.17525 3.81303 0
M  V30 22465 N 2258.54 -0.497781 1.49532 0
M  V30 22466 C 2259.78 -1.25355 1.59417 0
M  V30 22467 C 2260.12 -1.9215 0.281455 0
M  V30 22468 O 2259.39 -1.80873 -0.715217 0
M  V30 22469 C 2259.67 -2.31805 2.7557 0
M  V30 22470 C 2259.53 -1.69491 4.16645 0
M  V30 22471 C 2260.85 -3.33341 2.87353 0
M  V30 22472 H 2257.96 -0.454398 0.580252 0
M  V30 22473 H 2260.61 -0.55123 1.81828 0
M  V30 22474 H 2258.76 -2.91707 2.56592 0
M  V30 22475 H 2260.43 -1.13391 4.47147 0
M  V30 22476 H 2258.67 -0.998904 4.22143 0
M  V30 22477 H 2259.34 -2.46717 4.93796 0
M  V30 22478 H 2261.82 -2.83433 3.04639 0
M  V30 22479 H 2260.69 -4.05181 3.70296 0
M  V30 22480 H 2260.96 -3.95861 1.96841 0
M  V30 22481 N 2260.01 -1.38661 -0.749062 0
M  V30 22482 C 2261.25 -1.36536 -1.52109 0
M  V30 22483 C 2261.62 0.0431978 -1.91951 0
M  V30 22484 O 2262.82 0.189349 -2.68132 0
M  V30 22485 C 2261.09 -2.29833 -2.737 0
M  V30 22486 S 2262.65 -2.45769 -3.63515 0
M  V30 22487 H 2259.47 -0.484385 -0.520473 0
M  V30 22488 H 2262.07 -1.74628 -0.878932 0
M  V30 22489 H 2260.77 -3.31058 -2.42546 0
M  V30 22490 H 2260.3 -1.92906 -3.42857 0
M  V30 22491 H 2262.32 -1.68513 -4.6671 0
M  V30 22492 N 2261.49 0.977736 -1.23605 0
M  V30 22493 C 2262.91 1.24446 -0.999273 0
M  V30 22494 C 2263.11 1.99284 0.298018 0
M  V30 22495 O 2262.17 2.31123 1.01677 0
M  V30 22496 C 2263.48 2.0414 -2.20788 0
M  V30 22497 C 2265.03 2.17269 -2.25306 0
M  V30 22498 C 2265.5 3.00356 -3.4576 0
M  V30 22499 N 2266.99 3.0794 -3.46016 0
M  V30 22500 C 2267.73 3.7256 -4.35874 0
M  V30 22501 N 2267.22 4.38981 -5.35973 0
M  V30 22502 N 2269.02 3.69473 -4.23611 0
M  V30 22503 H 2261.17 0.476447 -2.06987 0
M  V30 22504 H 2263.43 0.273118 -0.907805 0
M  V30 22505 H 2263.14 1.56527 -3.14948 0
M  V30 22506 H 2263.01 3.04887 -2.2209 0
M  V30 22507 H 2265.4 2.64089 -1.31684 0
M  V30 22508 H 2265.48 1.15903 -2.28035 0
M  V30 22509 H 2265.12 2.54232 -4.39691 0
M  V30 22510 H 2265.05 4.01898 -3.40273 0
M  V30 22511 H 2267.54 2.60683 -2.73592 0
M  V30 22512 H 2267.86 4.86076 -6.00791 0
M  V30 22513 H 2266.2 4.37681 -5.3987 0
M  V30 22514 H 2269.39 3.16753 -3.44652 0
M  V30 22515 H 2269.57 4.19551 -4.93843 0
M  V30 22516 N 2262.97 1.04818 1.1769 0
M  V30 22517 C 2263.9 0.66683 2.23776 0
M  V30 22518 C 2264.88 -0.333581 1.66797 0
M  V30 22519 O 2266.07 -0.212008 1.93039 0
M  V30 22520 C 2263.2 0.0368544 3.4728 0
M  V30 22521 C 2262.15 0.961619 4.17057 0
M  V30 22522 C 2261.48 0.19572 5.34342 0
M  V30 22523 C 2262.78 2.2841 4.69709 0
M  V30 22524 H 2264.47 1.55371 2.5593 0
M  V30 22525 H 2262.02 0.748506 1.23018 0
M  V30 22526 H 2263.97 -0.241701 4.20706 0
M  V30 22527 H 2262.69 -0.884949 3.14382 0
M  V30 22528 H 2261.35 1.22468 3.45539 0
M  V30 22529 H 2261 -0.728729 4.97693 0
M  V30 22530 H 2260.7 0.811878 5.81964 0
M  V30 22531 H 2262.23 -0.0756399 6.10553 0
M  V30 22532 H 2263.64 2.06572 5.34791 0
M  V30 22533 H 2262.04 2.8539 5.27895 0
M  V30 22534 H 2263.11 2.92532 3.86721 0
M  V30 22535 N 2264.45 -1.34055 0.828678 0
M  V30 22536 C 2265.7 -1.97716 0.418665 0
M  V30 22537 C 2266.02 -1.66004 -1.02311 0
M  V30 22538 O 2265.29 -0.953713 -1.71117 0
M  V30 22539 H 2263.87 -0.731409 0.151822 0
M  V30 22540 H 2266.53 -1.63594 1.05939 0
M  V30 22541 H 2265.63 -3.07351 0.542372 0
M  V30 22542 N 2265.93 -0.584167 -1.46374 0
M  V30 22543 C 2266.89 0.138068 -2.28784 0
M  V30 22544 C 2267.89 0.817438 -1.38472 0
M  V30 22545 O 2269.08 0.669171 -1.60835 0
M  V30 22546 C 2266.21 1.20497 -3.18894 0
M  V30 22547 H 2267.41 -0.586179 -2.94116 0
M  V30 22548 H 2264.96 -0.342198 -1.52508 0
M  V30 22549 H 2265.69 1.96075 -2.58312 0
M  V30 22550 H 2265.48 0.722316 -3.85389 0
M  V30 22551 H 2266.97 1.71148 -3.80917 0
M  V30 22552 N 2267.41 1.54275 -0.322027 0
M  V30 22553 C 2268.63 2.05422 0.285755 0
M  V30 22554 C 2269.06 1.19671 1.45122 0
M  V30 22555 O 2268.41 0.205473 1.80132 0
M  V30 22556 C 2268.46 3.5375 0.699497 0
M  V30 22557 O 2267.57 3.70945 1.80203 0
M  V30 22558 H 2266.91 0.66197 0.0518846 0
M  V30 22559 H 2269.44 1.99129 -0.469989 0
M  V30 22560 H 2269.45 3.95992 0.982579 0
M  V30 22561 H 2268.12 4.15619 -0.152937 0
M  V30 22562 H 2266.7 3.40609 1.51788 0
M  V30 22563 N 2268.88 0.0501669 1.5752 0
M  V30 22564 C 2270.13 -0.622608 1.92271 0
M  V30 22565 C 2270.45 -1.71442 0.929113 0
M  V30 22566 O 2269.72 -1.95883 -0.0261842 0
M  V30 22567 H 2268.3 -0.232968 0.709743 0
M  V30 22568 H 2270.96 0.102932 1.94628 0
M  V30 22569 H 2270.06 -1.06186 2.93481 0
M  V30 22570 N 2270.36 -1.56011 -0.223207 0
M  V30 22571 C 2271.29 -1.953 -1.27984 0
M  V30 22572 C 2272.27 -0.821005 -1.48975 0
M  V30 22573 O 2273.46 -1.08318 -1.61186 0
M  V30 22574 C 2270.59 -2.26827 -2.62996 0
M  V30 22575 C 2269.54 -3.42501 -2.56665 0
M  V30 22576 C 2268.87 -3.59629 -3.95691 0
M  V30 22577 C 2270.17 -4.77521 -2.11592 0
M  V30 22578 H 2271.86 -2.83812 -0.953475 0
M  V30 22579 H 2269.41 -1.36549 -0.45722 0
M  V30 22580 H 2271.36 -2.52904 -3.37072 0
M  V30 22581 H 2270.08 -1.35167 -2.97317 0
M  V30 22582 H 2268.74 -3.16471 -1.85046 0
M  V30 22583 H 2268.39 -2.65347 -4.27317 0
M  V30 22584 H 2268.09 -4.37431 -3.92337 0
M  V30 22585 H 2269.62 -3.88052 -4.71432 0
M  V30 22586 H 2271.03 -5.02814 -2.75411 0
M  V30 22587 H 2269.43 -5.58594 -2.19301 0
M  V30 22588 H 2270.5 -4.72989 -1.06816 0
M  V30 22589 N 2271.84 0.489844 -1.49794 0
M  V30 22590 C 2273.26 0.821998 -1.36804 0
M  V30 22591 C 2273.46 1.97291 -0.409687 0
M  V30 22592 O 2272.51 2.52026 0.154569 0
M  V30 22593 C 2273.82 1.1517 -2.7777 0
M  V30 22594 C 2275.37 1.25926 -2.86551 0
M  V30 22595 C 2275.85 1.6222 -4.28309 0
M  V30 22596 N 2277.34 1.69248 -4.31172 0
M  V30 22597 C 2278.07 1.98798 -5.37836 0
M  V30 22598 N 2277.57 2.26495 -6.5473 0
M  V30 22599 N 2279.36 2.00142 -5.25261 0
M  V30 22600 H 2271.51 -0.268918 -2.10691 0
M  V30 22601 H 2273.78 -0.0577447 -0.94624 0
M  V30 22602 H 2273.48 0.379273 -3.49649 0
M  V30 22603 H 2273.36 2.09248 -3.13839 0
M  V30 22604 H 2275.74 2.02239 -2.14903 0
M  V30 22605 H 2275.82 0.298731 -2.5405 0
M  V30 22606 H 2275.47 0.864534 -5.00488 0
M  V30 22607 H 2275.4 2.59392 -4.58283 0
M  V30 22608 H 2277.89 1.49958 -3.46873 0
M  V30 22609 H 2278.2 2.48263 -7.31837 0
M  V30 22610 H 2276.55 2.23927 -6.57937 0
M  V30 22611 H 2279.74 1.77988 -4.32941 0
M  V30 22612 H 2279.91 2.22837 -6.0848 0
M  V30 22613 N 2273.32 1.39056 0.741698 0
M  V30 22614 C 2274.56 1.37341 1.51383 0
M  V30 22615 C 2274.92 -0.0330176 1.91972 0
M  V30 22616 O 2276.12 -0.175127 2.68229 0
M  V30 22617 C 2274.39 2.31281 2.72477 0
M  V30 22618 S 2275.95 2.47694 3.62206 0
M  V30 22619 H 2272.77 0.487138 0.517897 0
M  V30 22620 H 2275.37 1.75092 0.869659 0
M  V30 22621 H 2274.08 3.3234 2.40787 0
M  V30 22622 H 2273.61 1.94722 3.41829 0
M  V30 22623 H 2275.62 1.70986 4.65809 0
M  V30 22624 N 2274.8 -0.971167 1.24121 0
M  V30 22625 C 2276.07 -1.68878 0.986897 0
M  V30 22626 C 2276.45 -2.05291 -0.491821 0
M  V30 22627 O 2275.8 -1.75333 -1.46528 0
M  V30 22628 C 2276.01 -2.92334 1.90635 0
M  V30 22629 C 2277.36 -3.6465 2.17522 0
M  V30 22630 O 2278.38 -3.02385 1.8826 0
M  V30 22631 O 2277.24 -4.76726 2.67198 0
M  V30 22632 H 2274.34 -0.738127 0.372957 0
M  V30 22633 H 2276.88 -1.02557 1.35204 0
M  V30 22634 H 2275.65 -2.62092 2.90557 0
M  V30 22635 H 2275.28 -3.6639 1.54415 0
M  V30 22636 N 2276.27 -1.05441 -1.17133 0
M  V30 22637 C 2277.18 -0.668405 -2.24877 0
M  V30 22638 C 2278.2 0.311657 -1.71186 0
M  V30 22639 O 2279.38 0.163126 -2.00738 0
M  V30 22640 C 2276.44 -0.0517089 -3.46661 0
M  V30 22641 C 2275.5 -1.08254 -4.15427 0
M  V30 22642 C 2274.74 -0.495175 -5.31398 0
M  V30 22643 O 2274.96 0.694643 -5.66154 0
M  V30 22644 O 2273.89 -1.23066 -5.89184 0
M  V30 22645 H 2277.72 -1.56642 -2.60187 0
M  V30 22646 H 2275.3 -0.826125 -1.24481 0
M  V30 22647 H 2277.19 0.290892 -4.20395 0
M  V30 22648 H 2275.86 0.819916 -3.13144 0
M  V30 22649 H 2274.77 -1.47717 -3.43701 0
M  V30 22650 H 2276.1 -1.9254 -4.52978 0
M  V30 22651 N 2277.75 1.33613 -0.835776 0
M  V30 22652 C 2278.99 1.99695 -0.436025 0
M  V30 22653 C 2279.36 1.64776 0.985541 0
M  V30 22654 O 2280.56 2.238 1.48885 0
M  V30 22655 C 2278.83 3.51499 -0.646783 0
M  V30 22656 S 2280.39 4.37467 -0.341792 0
M  V30 22657 H 2277.21 0.691792 -0.164148 0
M  V30 22658 H 2279.81 1.62669 -1.08439 0
M  V30 22659 H 2278.51 3.74401 -1.68083 0
M  V30 22660 H 2278.04 3.93397 0.0158482 0
M  V30 22661 H 2280.06 4.89045 0.839622 0
M  V30 22662 N 2279.23 0.591922 1.46062 0
M  V30 22663 C 2280.14 -0.138269 2.34192 0
M  V30 22664 C 2281.16 -0.876582 1.50306 0
M  V30 22665 O 2282.33 -0.837696 1.83152 0
M  V30 22666 C 2279.4 -1.1332 3.27658 0
M  V30 22667 C 2278.46 -0.398555 4.27446 0
M  V30 22668 C 2277.69 -1.34609 5.16446 0
M  V30 22669 O 2277.91 -2.58312 5.08558 0
M  V30 22670 O 2276.85 -0.851663 5.95844 0
M  V30 22671 H 2280.67 0.585572 2.98001 0
M  V30 22672 H 2278.26 0.352265 1.45188 0
M  V30 22673 H 2280.14 -1.70664 3.85294 0
M  V30 22674 H 2278.82 -1.83835 2.66433 0
M  V30 22675 H 2277.72 0.21696 3.7347 0
M  V30 22676 H 2279.06 0.265795 4.91482 0
M  V30 22677 N 2280.71 -1.54102 0.330204 0
M  V30 22678 C 2282.12 -1.86043 -0.156487 0
M  V30 22679 C 2282.47 -1.25173 -1.51083 0
M  V30 22680 O 2281.6 -0.560254 -2.09022 0
M  V30 22681 C 2282.19 -3.3755 -0.290725 0
M  V30 22682 C 2280.75 -3.69418 -0.72164 0
M  V30 22683 C 2279.9 -2.76879 0.152671 0
M  V30 22684 H 2282.85 -1.48855 0.550263 0
M  V30 22685 H 2282.87 -3.63627 -1.12051 0
M  V30 22686 H 2282.38 -3.81824 0.695135 0
M  V30 22687 H 2280.48 -3.30681 -1.71701 0
M  V30 22688 H 2280.59 -4.76261 -0.520785 0
M  V30 22689 H 2278.96 -2.51956 -0.37285 0
M  V30 22690 H 2279.74 -3.2398 1.13542 0
M  V30 22691 N 2282.19 -0.0585199 -1.57491 0
M  V30 22692 C 2283.6 0.298063 -1.56792 0
M  V30 22693 C 2283.8 1.70942 -1.06682 0
M  V30 22694 O 2282.86 2.41816 -0.726714 0
M  V30 22695 C 2284.17 0.119826 -3.00461 0
M  V30 22696 C 2285.72 0.190373 -3.12421 0
M  V30 22697 C 2286.19 0.0405762 -4.57982 0
M  V30 22698 N 2287.69 0.0966144 -4.63099 0
M  V30 22699 C 2288.42 0.00492864 -5.734 0
M  V30 22700 N 2287.92 -0.139524 -6.92659 0
M  V30 22701 N 2289.71 0.0610403 -5.62067 0
M  V30 22702 H 2281.86 -0.981084 -1.88384 0
M  V30 22703 H 2284.12 -0.381478 -0.867858 0
M  V30 22704 H 2283.83 -0.85355 -3.41185 0
M  V30 22705 H 2283.7 0.877769 -3.66845 0
M  V30 22706 H 2286.09 1.15423 -2.71591 0
M  V30 22707 H 2286.17 -0.598449 -2.48701 0
M  V30 22708 H 2285.82 -0.919985 -4.99498 0
M  V30 22709 H 2285.75 0.848636 -5.19717 0
M  V30 22710 H 2288.24 0.20721 -3.77331 0
M  V30 22711 H 2288.55 -0.20199 -7.72536 0
M  V30 22712 H 2286.89 -0.174708 -6.9478 0
M  V30 22713 H 2290.09 0.1725 -4.67782 0
M  V30 22714 H 2290.26 -0.0138701 -6.47999 0
M  V30 22715 N 2283.66 1.56128 0.21493 0
M  V30 22716 C 2284.61 1.89353 1.27002 0
M  V30 22717 C 2285.6 0.757227 1.41968 0
M  V30 22718 O 2286.79 1.01976 1.44672 0
M  V30 22719 C 2283.92 2.21945 2.61907 0
M  V30 22720 C 2283.01 3.41983 2.50816 0
M  V30 22721 N 2283.4 4.60427 2.09382 0
M  V30 22722 C 2281.69 3.45728 2.81759 0
M  V30 22723 C 2282.4 5.42586 2.09702 0
M  V30 22724 N 2281.37 4.82471 2.50446 0
M  V30 22725 H 2285.17 2.78439 0.940685 0
M  V30 22726 H 2282.69 1.56782 0.423465 0
M  V30 22727 H 2284.68 2.43925 3.38092 0
M  V30 22728 H 2283.34 1.34174 2.95681 0
M  V30 22729 H 2284.36 4.85462 1.80407 0
M  V30 22730 H 2281.03 2.68319 3.19861 0
M  V30 22731 H 2282.42 6.47414 1.79737 0
M  V30 22732 N 2285.14 -0.481893 1.50052 0
M  V30 22733 C 2286.39 -1.23147 1.59743 0
M  V30 22734 C 2286.7 -1.93314 0.298197 0
M  V30 22735 O 2287.91 -2.70115 0.273883 0
M  V30 22736 C 2286.37 -2.23703 2.8193 0
M  V30 22737 C 2285.97 -1.59389 4.18688 0
M  V30 22738 C 2287.72 -2.9937 3.00962 0
M  V30 22739 C 2285.63 -2.58168 5.32074 0
M  V30 22740 H 2284.56 -0.46333 0.594846 0
M  V30 22741 H 2287.21 -0.503138 1.76467 0
M  V30 22742 H 2285.59 -2.99782 2.58741 0
M  V30 22743 H 2286.76 -0.891732 4.52089 0
M  V30 22744 H 2285.08 -0.960432 4.05172 0
M  V30 22745 H 2287.67 -3.73277 3.82843 0
M  V30 22746 H 2288.02 -3.58119 2.12265 0
M  V30 22747 H 2288.55 -2.30406 3.24281 0
M  V30 22748 H 2285.29 -2.04173 6.22891 0
M  V30 22749 H 2284.81 -3.26568 5.03104 0
M  V30 22750 H 2286.49 -3.20216 5.62202 0
M  V30 22751 N 2286.62 -1.39448 -0.734313 0
M  V30 22752 C 2287.55 -1.40959 -1.86153 0
M  V30 22753 C 2288.53 -0.272857 -1.67897 0
M  V30 22754 O 2289.72 -0.478776 -1.88206 0
M  V30 22755 C 2286.85 -1.25299 -3.23909 0
M  V30 22756 C 2285.8 -2.36379 -3.56804 0
M  V30 22757 C 2285.13 -2.05809 -4.93504 0
M  V30 22758 C 2286.43 -3.78693 -3.59707 0
M  V30 22759 H 2288.12 -2.3529 -1.85146 0
M  V30 22760 H 2285.67 -1.13255 -0.889347 0
M  V30 22761 H 2287.62 -1.24977 -4.02441 0
M  V30 22762 H 2286.34 -0.274366 -3.25446 0
M  V30 22763 H 2285 -2.35919 -2.80602 0
M  V30 22764 H 2284.65 -1.06383 -4.91622 0
M  V30 22765 H 2284.35 -2.80217 -5.16481 0
M  V30 22766 H 2285.87 -2.07138 -5.74392 0
M  V30 22767 H 2287.29 -3.81078 -4.28313 0
M  V30 22768 H 2285.69 -4.52466 -3.94201 0
M  V30 22769 H 2286.76 -4.09621 -2.59496 0
M  V30 22770 N 2288.1 0.964571 -1.24635 0
M  V30 22771 C 2289.03 2.05861 -0.984698 0
M  V30 22772 C 2290.01 1.6239 0.0826268 0
M  V30 22773 O 2291.19 1.8842 -0.0549627 0
M  V30 22774 C 2288.32 3.35187 -0.486587 0
M  V30 22775 C 2287.37 3.97613 -1.54293 0
M  V30 22776 S 2288.2 4.34846 -3.12521 0
M  V30 22777 C 2289.36 5.67303 -2.6442 0
M  V30 22778 H 2289.59 2.27739 -1.91108 0
M  V30 22779 H 2287.12 1.10289 -1.08054 0
M  V30 22780 H 2289.08 4.09984 -0.205829 0
M  V30 22781 H 2287.74 3.11291 0.419131 0
M  V30 22782 H 2286.93 4.90824 -1.14489 0
M  V30 22783 H 2286.54 3.29257 -1.77386 0
M  V30 22784 H 2288.83 6.44965 -2.07427 0
M  V30 22785 H 2289.77 6.11967 -3.56233 0
M  V30 22786 H 2290.18 5.26061 -2.04743 0
M  V30 22787 N 2289.58 1.0606 1.16572 0
M  V30 22788 C 2290.49 0.680321 2.24519 0
M  V30 22789 C 2291.5 -0.302574 1.71349 0
M  V30 22790 O 2292.68 -0.152478 2.00822 0
M  V30 22791 C 2289.74 0.0700925 3.46629 0
M  V30 22792 C 2288.8 1.10455 4.14847 0
M  V30 22793 C 2288.04 0.523349 5.31128 0
M  V30 22794 O 2288.26 -0.664609 5.66515 0
M  V30 22795 O 2287.19 1.26189 5.88523 0
M  V30 22796 H 2291.02 1.58019 2.59352 0
M  V30 22797 H 2288.61 0.832715 1.24041 0
M  V30 22798 H 2290.49 -0.268593 4.20543 0
M  V30 22799 H 2289.16 -0.803298 3.13574 0
M  V30 22800 H 2288.07 1.49538 3.42913 0
M  V30 22801 H 2289.4 1.94939 4.51951 0
M  V30 22802 N 2291.06 -1.33168 0.84285 0
M  V30 22803 C 2292.28 -2.01855 0.454091 0
M  V30 22804 C 2292.7 -1.63399 -0.945841 0
M  V30 22805 O 2292.06 -0.84933 -1.61532 0
M  V30 22806 C 2292.11 -3.56981 0.569777 0
M  V30 22807 O 2291.83 -3.94051 1.91455 0
M  V30 22808 C 2293.33 -4.42941 0.17849 0
M  V30 22809 H 2290.55 -0.646462 0.179801 0
M  V30 22810 H 2293.09 -1.7001 1.13653 0
M  V30 22811 H 2291.25 -3.87346 -0.0647906 0
M  V30 22812 H 2291.66 -4.88764 1.9029 0
M  V30 22813 H 2293.14 -5.51126 0.310473 0
M  V30 22814 H 2293.61 -4.30294 -0.879981 0
M  V30 22815 H 2294.22 -4.17943 0.787653 0
M  V30 22816 N 2292.53 -0.599659 -1.45746 0
M  V30 22817 C 2293.81 -0.024119 -1.95585 0
M  V30 22818 C 2294.19 1.44152 -1.54219 0
M  V30 22819 O 2293.54 2.14003 -0.800941 0
M  V30 22820 C 2293.75 -0.213911 -3.48344 0
M  V30 22821 C 2295.1 -0.0905648 -4.24503 0
M  V30 22822 O 2296.12 -0.14362 -3.5591 0
M  V30 22823 O 2294.98 0.0309806 -5.46491 0
M  V30 22824 H 2292.07 0.0402333 -0.826021 0
M  V30 22825 H 2294.62 -0.669166 -1.5595 0
M  V30 22826 H 2293.39 -1.23213 -3.71395 0
M  V30 22827 H 2293.01 0.466773 -3.94851 0
M  V30 22828 N 2294.01 1.53925 -0.338371 0
M  V30 22829 C 2295.25 2.02738 0.260133 0
M  V30 22830 C 2295.62 1.22094 1.48179 0
M  V30 22831 O 2296.82 1.60781 2.15413 0
M  V30 22832 C 2295.09 3.528 0.571565 0
M  V30 22833 S 2296.65 4.23527 1.14762 0
M  V30 22834 H 2293.46 0.706733 0.0777786 0
M  V30 22835 H 2296.07 1.89643 -0.474932 0
M  V30 22836 H 2294.77 4.09107 -0.325464 0
M  V30 22837 H 2294.3 3.70004 1.33643 0
M  V30 22838 H 2296.32 4.32421 2.43364 0
M  V30 22839 N 2295.49 0.0668712 1.57458 0
M  V30 22840 C 2296.74 -0.604266 1.93588 0
M  V30 22841 C 2297.07 -1.69559 0.946752 0
M  V30 22842 O 2296.34 -1.94484 -0.0248174 0
M  V30 22843 C 2296.63 -1.18579 3.40016 0
M  V30 22844 C 2296.48 -0.10145 4.49686 0
M  V30 22845 C 2297.8 -2.09277 3.87158 0
M  V30 22846 H 2294.92 -0.21819 0.703962 0
M  V30 22847 H 2297.56 0.131837 1.89542 0
M  V30 22848 H 2295.71 -1.81313 3.43595 0
M  V30 22849 H 2297.38 0.53136 4.58229 0
M  V30 22850 H 2295.62 0.568562 4.30058 0
M  V30 22851 H 2296.3 -0.548643 5.49267 0
M  V30 22852 H 2298.77 -1.56485 3.85554 0
M  V30 22853 H 2297.65 -2.46903 4.90235 0
M  V30 22854 H 2297.91 -2.99912 3.24816 0
M  V30 22855 N 2296.97 -1.56239 -0.206647 0
M  V30 22856 C 2298.19 -1.84392 -0.949442 0
M  V30 22857 C 2298.62 -0.649047 -1.76547 0
M  V30 22858 O 2297.98 0.4022 -1.76782 0
M  V30 22859 C 2298.02 -3.10672 -1.83073 0
M  V30 22860 O 2297.13 -2.90412 -2.92805 0
M  V30 22861 H 2296.47 -0.607503 -0.268022 0
M  V30 22862 H 2299 -2.03462 -0.215453 0
M  V30 22863 H 2299.01 -3.41165 -2.23764 0
M  V30 22864 H 2297.68 -3.97263 -1.23105 0
M  V30 22865 H 2296.26 -2.71189 -2.55951 0
M  V30 22866 N 2298.45 0.473929 -1.50305 0
M  V30 22867 C 2299.69 1.2361 -1.62788 0
M  V30 22868 C 2300.05 1.89318 -0.319819 0
M  V30 22869 O 2301.25 2.66888 -0.320059 0
M  V30 22870 C 2299.52 2.25409 -2.77355 0
M  V30 22871 S 2301.08 3.10603 -3.09954 0
M  V30 22872 H 2297.9 0.419711 -0.573902 0
M  V30 22873 H 2300.5 0.53359 -1.88077 0
M  V30 22874 H 2299.2 1.75712 -3.70882 0
M  V30 22875 H 2298.74 3.00292 -2.54142 0
M  V30 22876 H 2300.75 4.26523 -2.5356 0
M  V30 22877 N 2299.92 1.39835 0.726907 0
M  V30 22878 C 2301.2 1.28004 1.479 0
M  V30 22879 C 2301.58 -0.106752 2.1083 0
M  V30 22880 O 2300.93 -1.11866 1.99244 0
M  V30 22881 C 2301.14 2.41042 2.52388 0
M  V30 22882 C 2302.49 2.80743 3.18541 0
M  V30 22883 O 2303.51 2.40552 2.62704 0
M  V30 22884 O 2302.37 3.50142 4.19598 0
M  V30 22885 H 2299.46 0.502074 0.657154 0
M  V30 22886 H 2302.01 1.51728 0.760044 0
M  V30 22887 H 2300.78 3.33718 2.04323 0
M  V30 22888 H 2300.4 2.19027 3.31833 0
M  V30 22889 N 2301.4 -0.957948 1.25144 0
M  V30 22890 C 2302.68 -1.67822 1.00475 0
M  V30 22891 C 2303.06 -2.05801 -0.47002 0
M  V30 22892 O 2302.41 -1.76877 -1.4466 0
M  V30 22893 C 2302.62 -2.90296 1.93725 0
M  V30 22894 C 2303.96 -3.62322 2.21377 0
M  V30 22895 O 2304.99 -3.00371 1.91456 0
M  V30 22896 O 2303.85 -4.73865 2.7224 0
M  V30 22897 H 2300.94 -0.73413 0.380765 0
M  V30 22898 H 2303.49 -1.01117 1.36285 0
M  V30 22899 H 2302.26 -2.58996 2.93321 0
M  V30 22900 H 2301.88 -3.64732 1.58292 0
M  V30 22901 N 2302.88 -1.06677 -1.16008 0
M  V30 22902 C 2303.79 -0.692218 -2.24155 0
M  V30 22903 C 2304.81 0.293483 -1.71507 0
M  V30 22904 O 2305.98 0.141826 -2.009 0
M  V30 22905 C 2303.05 -0.0884741 -3.46587 0
M  V30 22906 C 2302.11 -1.12654 -4.14255 0
M  V30 22907 C 2301.34 -0.551509 -5.30843 0
M  V30 22908 O 2301.56 0.634556 -5.66859 0
M  V30 22909 O 2300.5 -1.29308 -5.87846 0
M  V30 22910 H 2304.32 -1.59392 -2.58511 0
M  V30 22911 H 2301.91 -0.839282 -1.23598 0
M  V30 22912 H 2303.79 0.246287 -4.2068 0
M  V30 22913 H 2302.47 0.786657 -3.13996 0
M  V30 22914 H 2301.37 -1.51354 -3.42115 0
M  V30 22915 H 2302.71 -1.97333 -4.50911 0
M  V30 22916 N 2304.36 1.32719 -0.8499 0
M  V30 22917 C 2305.6 1.99222 -0.457181 0
M  V30 22918 C 2305.96 1.65812 0.968009 0
M  V30 22919 O 2307.16 2.25367 1.46503 0
M  V30 22920 C 2305.43 3.50793 -0.684027 0
M  V30 22921 S 2306.99 4.3708 -0.388172 0
M  V30 22922 H 2303.81 0.690012 -0.171477 0
M  V30 22923 H 2306.41 1.6151 -1.10158 0
M  V30 22924 H 2305.12 3.72597 -1.72045 0
M  V30 22925 H 2304.65 3.93391 -0.0258777 0
M  V30 22926 H 2306.66 4.89908 0.787705 0
M  V30 22927 N 2305.84 0.60738 1.45426 0
M  V30 22928 C 2307.08 0.102643 2.0254 0
M  V30 22929 C 2307.42 -1.26345 1.47481 0
M  V30 22930 O 2306.69 -1.83338 0.649422 0
M  V30 22931 C 2306.97 0.063498 3.60044 0
M  V30 22932 C 2306.83 1.46024 4.25437 0
M  V30 22933 C 2308.15 -0.624437 4.35648 0
M  V30 22934 H 2305.26 0.0387736 0.735979 0
M  V30 22935 H 2307.91 0.779312 1.73282 0
M  V30 22936 H 2306.06 -0.51274 3.85102 0
M  V30 22937 H 2307.73 2.08355 4.11565 0
M  V30 22938 H 2305.97 2.02101 3.83846 0
M  V30 22939 H 2306.64 1.3851 5.3434 0
M  V30 22940 H 2309.12 -0.13465 4.15882 0
M  V30 22941 H 2307.99 -0.620932 5.45377 0
M  V30 22942 H 2308.26 -1.69048 4.08504 0
M  V30 22943 N 2307.31 -1.53743 0.34653 0
M  V30 22944 C 2308.56 -2.00565 -0.248577 0
M  V30 22945 C 2308.88 -1.23596 -1.50828 0
M  V30 22946 O 2308.15 -0.343946 -1.92857 0
M  V30 22947 H 2306.73 -0.740955 -0.0948434 0
M  V30 22948 H 2309.4 -1.89188 0.468375 0
M  V30 22949 H 2308.49 -3.08246 -0.48894 0
M  V30 22950 N 2308.79 -0.0752207 -1.5742 0
M  V30 22951 C 2310.04 0.593991 -1.93906 0
M  V30 22952 C 2310.37 1.69055 -0.955731 0
M  V30 22953 O 2309.65 1.94495 0.0145031 0
M  V30 22954 C 2309.93 1.16774 -3.4064 0
M  V30 22955 C 2309.78 0.0776002 -4.49733 0
M  V30 22956 C 2311.1 2.07221 -3.88262 0
M  V30 22957 H 2308.22 0.214454 -0.705109 0
M  V30 22958 H 2310.86 -0.141887 -1.89469 0
M  V30 22959 H 2309.01 1.79488 -3.44552 0
M  V30 22960 H 2310.68 -0.555653 -4.57941 0
M  V30 22961 H 2308.93 -0.591361 -4.2975 0
M  V30 22962 H 2309.6 0.519507 -5.4955 0
M  V30 22963 H 2312.07 1.54438 -3.86378 0
M  V30 22964 H 2310.95 2.44299 -4.91537 0
M  V30 22965 H 2311.21 2.98185 -3.26402 0
M  V30 22966 N 2310.27 1.56347 0.198358 0
M  V30 22967 C 2311.2 1.97312 1.24861 0
M  V30 22968 C 2312.18 0.844602 1.4765 0
M  V30 22969 O 2313.37 1.10868 1.59442 0
M  V30 22970 C 2310.5 2.30982 2.59354 0
M  V30 22971 C 2309.45 3.46541 2.51183 0
M  V30 22972 C 2308.78 3.65878 3.8992 0
M  V30 22973 C 2310.08 4.80826 2.03969 0
M  V30 22974 H 2311.77 2.85293 0.908202 0
M  V30 22975 H 2309.32 1.37259 0.435438 0
M  V30 22976 H 2311.27 2.58234 3.33006 0
M  V30 22977 H 2309.99 1.3988 2.95129 0
M  V30 22978 H 2308.65 3.19374 1.79988 0
M  V30 22979 H 2308.3 2.72112 4.23041 0
M  V30 22980 H 2308 4.43617 3.85328 0
M  V30 22981 H 2309.52 3.95503 4.65198 0
M  V30 22982 H 2310.94 5.07132 2.67377 0
M  V30 22983 H 2309.34 5.62012 2.10387 0
M  V30 22984 H 2310.41 4.74628 0.992778 0
M  V30 22985 N 2311.75 -0.465951 1.50554 0
M  V30 22986 C 2312.68 -1.57125 1.72725 0
M  V30 22987 C 2313.66 -1.60039 0.576322 0
M  V30 22988 O 2314.84 -1.76224 0.816011 0
M  V30 22989 C 2311.97 -2.95416 1.82611 0
M  V30 22990 C 2310.93 -3.07368 2.9784 0
M  V30 22991 C 2310.25 -4.47357 2.92875 0
M  V30 22992 C 2311.55 -2.84106 4.3827 0
M  V30 22993 H 2313.25 -1.38825 2.6527 0
M  V30 22994 H 2310.79 -0.666418 1.27651 0
M  V30 22995 H 2312.75 -3.72673 1.96705 0
M  V30 22996 H 2311.47 -3.14884 0.866914 0
M  V30 22997 H 2310.13 -2.32545 2.83405 0
M  V30 22998 H 2309.78 -4.63752 1.94791 0
M  V30 22999 H 2309.48 -4.56289 3.70235 0
M  V30 23000 H 2311 -5.26627 3.09024 0
M  V30 23001 H 2312.42 -3.5111 4.53205 0
M  V30 23002 H 2310.81 -3.04478 5.1712 0
M  V30 23003 H 2311.88 -1.79923 4.50284 0
M  V30 23004 N 2313.23 -1.40218 -0.719481 0
M  V30 23005 C 2314.17 -1.40342 -1.85491 0
M  V30 23006 C 2315.17 -0.284445 -1.66995 0
M  V30 23007 O 2316.37 -0.455282 -1.74147 0
M  V30 23008 H 2312.75 -0.438597 -0.610849 0
M  V30 23009 H 2314.72 -2.36084 -1.82502 0
M  V30 23010 C 2313.47 -1.27907 -3.23319 0
M  V30 23011 H 2312.79 -2.13286 -3.38155 0
M  V30 23012 H 2314.23 -1.32052 -4.02912 0
M  V30 23013 C 2312.69 0.0110763 -3.36898 0
M  V30 23014 O 2313.22 0.97547 -3.89676 0
M  V30 23015 N 2311.43 0.0792882 -2.90492 0
M  V30 23016 H 2310.97 -0.706227 -2.4773 0
M  V30 23017 H 2310.93 0.941985 -2.99957 0
M  V30 23018 N 2314.7 0.951297 -1.25651 0
M  V30 23019 C 2315.98 1.67286 -1.01364 0
M  V30 23020 C 2316.36 2.06047 0.459099 0
M  V30 23021 O 2315.71 1.77642 1.4372 0
M  V30 23022 C 2315.92 2.89264 -1.95262 0
M  V30 23023 C 2317.27 3.61143 -2.23296 0
M  V30 23024 O 2318.29 2.99352 -1.93046 0
M  V30 23025 O 2317.15 4.72414 -2.74749 0
M  V30 23026 H 2314.24 0.7321 -0.384653 0
M  V30 23027 H 2316.79 1.00393 -1.36819 0
M  V30 23028 H 2315.56 2.57437 -2.9469 0
M  V30 23029 H 2315.19 3.63887 -1.60224 0
M  V30 23030 N 2316.18 1.07291 1.1544 0
M  V30 23031 C 2317.11 0.714146 2.22311 0
M  V30 23032 C 2318.09 -0.298126 1.67467 0
M  V30 23033 O 2319.28 -0.171014 1.93446 0
M  V30 23034 C 2316.41 0.110509 3.47124 0
M  V30 23035 C 2315.36 1.04987 4.14924 0
M  V30 23036 C 2314.69 0.309018 5.33806 0
M  V30 23037 C 2315.99 2.38322 4.64758 0
M  V30 23038 H 2317.68 1.60765 2.52577 0
M  V30 23039 H 2315.23 0.774431 1.21402 0
M  V30 23040 H 2317.18 -0.152408 4.21124 0
M  V30 23041 H 2315.91 -0.818065 3.16189 0
M  V30 23042 H 2314.56 1.2977 3.42864 0
M  V30 23043 H 2314.21 -0.622997 4.99127 0
M  V30 23044 H 2313.91 0.935138 5.80111 0
M  V30 23045 H 2315.44 0.0538844 6.10576 0
M  V30 23046 H 2316.85 2.17869 5.30289 0
M  V30 23047 H 2315.25 2.96523 5.21722 0
M  V30 23048 H 2316.32 3.00669 3.80429 0
M  V30 23049 N 2317.66 -1.32267 0.856927 0
M  V30 23050 C 2318.94 -1.91821 0.382617 0
M  V30 23051 C 2319.32 -1.78053 -1.13404 0
M  V30 23052 O 2318.67 -1.18004 -1.95671 0
M  V30 23053 C 2318.88 -3.38503 0.849505 0
M  V30 23054 C 2320.22 -4.15633 0.868009 0
M  V30 23055 O 2321.25 -3.47231 0.794293 0
M  V30 23056 O 2320.11 -5.3778 0.972381 0
M  V30 23057 H 2317.2 -0.819377 0.112028 0
M  V30 23058 H 2319.75 -1.41022 0.943977 0
M  V30 23059 H 2318.52 -3.42478 1.89273 0
M  V30 23060 H 2318.14 -3.96711 0.265722 0
M  V30 23061 N 2319.14 -0.615084 -1.45102 0
M  V30 23062 C 2320.05 0.100993 -2.34383 0
M  V30 23063 C 2321.06 0.852559 -1.51682 0
M  V30 23064 O 2322.24 0.808452 -1.84461 0
M  V30 23065 C 2319.31 1.08093 -3.29419 0
M  V30 23066 C 2318.37 0.330502 -4.28026 0
M  V30 23067 C 2317.6 1.26376 -5.18522 0
M  V30 23068 O 2317.82 2.50189 -5.12603 0
M  V30 23069 O 2316.76 0.756761 -5.97124 0
M  V30 23070 H 2320.58 -0.632907 -2.97032 0
M  V30 23071 H 2318.17 -0.375319 -1.44609 0
M  V30 23072 H 2320.05 1.64513 -3.87961 0
M  V30 23073 H 2318.72 1.79573 -2.69324 0
M  V30 23074 H 2317.63 -0.276349 -3.73078 0
M  V30 23075 H 2318.96 -0.343952 -4.90997 0
M  V30 23076 N 2320.62 1.53557 -0.354678 0
M  V30 23077 C 2321.87 2.00273 0.239469 0
M  V30 23078 C 2322.18 1.24626 1.50757 0
M  V30 23079 O 2323.39 1.61875 2.17965 0
M  V30 23080 C 2321.84 3.56721 0.477279 0
M  V30 23081 C 2321.45 4.41236 -0.775566 0
M  V30 23082 C 2323.19 4.11823 1.02968 0
M  V30 23083 C 2321.1 5.89215 -0.507942 0
M  V30 23084 H 2320.03 0.74821 0.0932611 0
M  V30 23085 H 2322.68 1.77333 -0.471732 0
M  V30 23086 H 2321.06 3.75772 1.24946 0
M  V30 23087 H 2322.24 4.33959 -1.54971 0
M  V30 23088 H 2320.55 3.97183 -1.2504 0
M  V30 23089 H 2323.15 5.20003 1.24504 0
M  V30 23090 H 2323.49 3.65735 1.98856 0
M  V30 23091 H 2324.03 3.96528 0.317925 0
M  V30 23092 H 2320.76 6.39558 -1.43685 0
M  V30 23093 H 2320.28 5.99367 0.227906 0
M  V30 23094 H 2321.96 6.46871 -0.129352 0
M  V30 23095 N 2322.1 0.083568 1.57378 0
M  V30 23096 C 2323.34 -0.581684 1.93548 0
M  V30 23097 C 2323.66 -1.69433 0.96527 0
M  V30 23098 O 2322.93 -1.95894 0.0153713 0
M  V30 23099 H 2321.51 -0.217861 0.714525 0
M  V30 23100 H 2324.18 0.144192 1.94366 0
M  V30 23101 H 2323.27 -0.999371 2.95667 0
M  V30 23102 N 2323.57 -1.5645 -0.190064 0
M  V30 23103 C 2324.85 -1.71759 -0.935856 0
M  V30 23104 C 2325.23 -0.639761 -2.01172 0
M  V30 23105 O 2324.58 0.348462 -2.25827 0
M  V30 23106 C 2324.79 -3.14272 -1.51769 0
M  V30 23107 C 2326.14 -3.7466 -1.99788 0
M  V30 23108 O 2327.16 -3.17432 -1.61602 0
M  V30 23109 O 2326.02 -4.75104 -2.7007 0
M  V30 23110 H 2323.11 -0.700727 -0.439216 0
M  V30 23111 H 2325.66 -1.68749 -0.179365 0
M  V30 23112 H 2324.43 -3.84192 -0.742438 0
M  V30 23113 H 2324.05 -3.21531 -2.33888 0
M  V30 23114 N 2325.05 0.45796 -1.50799 0
M  V30 23115 C 2326.01 1.53671 -1.70053 0
M  V30 23116 C 2327.01 1.50324 -0.570908 0
M  V30 23117 O 2328.2 1.52711 -0.838153 0
M  V30 23118 C 2325.34 2.93273 -1.73793 0
M  V30 23119 H 2326.53 1.37912 -2.66309 0
M  V30 23120 H 2324.08 0.685246 -1.40478 0
M  V30 23121 H 2324.82 3.14461 -0.792773 0
M  V30 23122 H 2324.6 2.97108 -2.55869 0
M  V30 23123 H 2326.09 3.71567 -1.90598 0
M  V30 23124 N 2326.53 1.40598 0.712035 0
M  V30 23125 C 2327.78 1.39274 1.47413 0
M  V30 23126 C 2328.11 -0.00385377 1.942 0
M  V30 23127 O 2327.38 -0.97315 1.68404 0
M  V30 23128 C 2327.67 2.3853 2.6977 0
M  V30 23129 C 2327.52 3.87228 2.28855 0
M  V30 23130 C 2328.84 2.3527 3.71935 0
M  V30 23131 H 2325.96 0.507209 0.534704 0
M  V30 23132 H 2328.6 1.71758 0.812345 0
M  V30 23133 H 2326.75 2.10959 3.26234 0
M  V30 23134 H 2328.42 4.2564 1.77844 0
M  V30 23135 H 2326.66 4.0289 1.60817 0
M  V30 23136 H 2327.34 4.52199 3.16576 0
M  V30 23137 H 2329.81 2.597 3.25108 0
M  V30 23138 H 2328.69 3.06761 4.5518 0
M  V30 23139 H 2328.95 1.36556 4.20482 0
M  V30 23140 N 2328.01 -0.94462 1.26153 0
M  V30 23141 C 2328.94 -2.06017 1.09906 0
M  V30 23142 C 2329.92 -1.70099 0.00522528 0
M  V30 23143 O 2331.1 -1.93395 0.176617 0
M  V30 23144 C 2328.23 -3.39592 0.727622 0
M  V30 23145 C 2327.19 -3.89558 1.77281 0
M  V30 23146 C 2326.51 -5.19744 1.25578 0
M  V30 23147 C 2327.81 -4.14822 3.17365 0
M  V30 23148 H 2329.51 -2.19868 2.03221 0
M  V30 23149 H 2327.05 -1.0565 0.97847 0
M  V30 23150 H 2329.01 -4.17094 0.60085 0
M  V30 23151 H 2327.73 -3.25708 -0.241229 0
M  V30 23152 H 2326.39 -3.14234 1.88819 0
M  V30 23153 H 2326.04 -5.02237 0.276872 0
M  V30 23154 H 2325.74 -5.54144 1.95443 0
M  V30 23155 H 2327.26 -5.99833 1.14161 0
M  V30 23156 H 2328.68 -4.82949 3.08923 0
M  V30 23157 H 2327.07 -4.60497 3.84789 0
M  V30 23158 H 2328.14 -3.20728 3.63678 0
M  V30 23159 N 2329.49 -1.07901 -1.1487 0
M  V30 23160 C 2330.71 -0.82696 -1.902 0
M  V30 23161 C 2331.14 0.614633 -1.77775 0
M  V30 23162 O 2330.49 1.43011 -1.11434 0
M  V30 23163 C 2330.54 -1.24708 -3.38349 0
M  V30 23164 O 2329.65 -0.395823 -4.10496 0
M  V30 23165 H 2328.99 -0.300792 -0.591963 0
M  V30 23166 H 2331.52 -1.4391 -1.45434 0
M  V30 23167 H 2331.53 -1.2257 -3.89154 0
M  V30 23168 H 2330.2 -2.29704 -3.46711 0
M  V30 23169 H 2328.78 -0.480182 -3.69795 0
M  V30 23170 N 2330.96 1.31811 -0.863929 0
M  V30 23171 C 2331.89 2.31144 -0.330883 0
M  V30 23172 C 2332.87 1.60088 0.574977 0
M  V30 23173 O 2334.06 1.87831 0.493271 0
M  V30 23174 C 2331.19 3.44055 0.473679 0
M  V30 23175 C 2330.14 4.26659 -0.338556 0
M  V30 23176 C 2329.47 5.3142 0.591318 0
M  V30 23177 C 2330.77 4.98165 -1.56935 0
M  V30 23178 H 2332.46 2.75977 -1.16091 0
M  V30 23179 H 2330.01 1.32678 -0.559681 0
M  V30 23180 H 2331.96 4.12592 0.857071 0
M  V30 23181 H 2330.69 2.97973 1.33716 0
M  V30 23182 H 2329.35 3.5978 -0.703818 0
M  V30 23183 H 2328.99 4.8159 1.4519 0
M  V30 23184 H 2328.69 5.87577 0.0517989 0
M  V30 23185 H 2330.22 6.02819 0.971685 0
M  V30 23186 H 2331.63 5.59333 -1.25774 0
M  V30 23187 H 2330.03 5.6409 -2.04749 0
M  V30 23188 H 2331.1 4.25497 -2.32552 0
M  V30 23189 N 2332.44 0.62277 1.44773 0
M  V30 23190 C 2333.39 -0.0994274 2.32387 0
M  V30 23191 C 2334.38 -0.8443 1.4686 0
M  V30 23192 O 2335.59 -0.758146 1.63255 0
M  V30 23193 H 2331.96 -0.0509159 0.750274 0
M  V30 23194 H 2333.94 0.657721 2.91061 0
M  V30 23195 C 2332.68 -1.07313 3.30725 0
M  V30 23196 H 2332.01 -0.509393 3.96542 0
M  V30 23197 H 2333.45 -1.5481 3.94728 0
M  V30 23198 C 2331.91 -2.15425 2.59025 0
M  V30 23199 O 2332.44 -3.23388 2.38291 0
M  V30 23200 N 2330.64 -1.91127 2.18904 0
M  V30 23201 H 2330.19 -1.03333 2.35966 0
M  V30 23202 H 2330.15 -2.63665 1.71255 0
M  V30 23203 N 2333.92 -1.53367 0.362817 0
M  V30 23204 C 2334.85 -2.28577 -0.476936 0
M  V30 23205 C 2335.83 -1.30896 -1.08629 0
M  V30 23206 O 2337.02 -1.59763 -1.10406 0
M  V30 23207 C 2334.15 -3.07296 -1.61823 0
M  V30 23208 C 2333.1 -4.12642 -1.13626 0
M  V30 23209 C 2332.43 -4.79427 -2.36757 0
M  V30 23210 C 2333.73 -5.21824 -0.222969 0
M  V30 23211 H 2335.42 -2.99021 0.150526 0
M  V30 23212 H 2332.97 -1.43811 0.0738356 0
M  V30 23213 H 2334.92 -3.58657 -2.21231 0
M  V30 23214 H 2333.64 -2.34537 -2.27288 0
M  V30 23215 H 2332.3 -3.62222 -0.564881 0
M  V30 23216 H 2331.95 -4.03243 -3.00673 0
M  V30 23217 H 2331.65 -5.50612 -2.05182 0
M  V30 23218 H 2333.17 -5.33581 -2.96856 0
M  V30 23219 H 2334.59 -5.68704 -0.724445 0
M  V30 23220 H 2332.98 -6.001 0.00178349 0
M  V30 23221 H 2334.05 -4.79287 0.735638 0
M  V30 23222 N 2335.4 -0.091913 -1.57332 0
M  V30 23223 C 2336.63 0.581013 -1.98575 0
M  V30 23224 C 2337.04 1.61921 -0.970931 0
M  V30 23225 O 2336.4 1.82456 0.0398733 0
M  V30 23226 C 2336.45 1.23158 -3.39874 0
M  V30 23227 O 2336.17 0.234912 -4.3747 0
M  V30 23228 C 2337.67 1.99042 -3.96103 0
M  V30 23229 H 2334.89 0.156007 -0.652612 0
M  V30 23230 H 2337.44 -0.170261 -2.0379 0
M  V30 23231 H 2335.59 1.9338 -3.35683 0
M  V30 23232 H 2336 0.704089 -5.19753 0
M  V30 23233 H 2337.48 2.39925 -4.97132 0
M  V30 23234 H 2337.96 2.85501 -3.33745 0
M  V30 23235 H 2338.56 1.33642 -4.03757 0
M  V30 23236 N 2336.88 1.56548 0.181765 0
M  V30 23237 C 2338.12 1.81039 0.898288 0
M  V30 23238 C 2338.45 0.667196 1.83231 0
M  V30 23239 O 2337.72 -0.31364 1.93373 0
M  V30 23240 H 2336.3 0.667822 0.334698 0
M  V30 23241 H 2338.96 1.94029 0.184081 0
M  V30 23242 H 2338.05 2.74699 1.48145 0
M  V30 23243 N 2338.35 -0.449957 1.5104 0
M  V30 23244 C 2339.6 -1.19731 1.62319 0
M  V30 23245 C 2339.92 -1.92638 0.339135 0
M  V30 23246 O 2341.12 -2.69473 0.331116 0
M  V30 23247 C 2339.58 -2.17673 2.86612 0
M  V30 23248 C 2339.19 -1.50472 4.21974 0
M  V30 23249 C 2340.93 -2.92919 3.07244 0
M  V30 23250 C 2338.84 -2.46824 5.37431 0
M  V30 23251 H 2337.77 -0.450608 0.60454 0
M  V30 23252 H 2340.42 -0.465593 1.77495 0
M  V30 23253 H 2338.8 -2.94226 2.65042 0
M  V30 23254 H 2339.97 -0.795636 4.53879 0
M  V30 23255 H 2338.29 -0.874273 4.07118 0
M  V30 23256 H 2340.89 -3.65072 3.90675 0
M  V30 23257 H 2341.23 -3.53536 2.19813 0
M  V30 23258 H 2341.76 -2.23475 3.29095 0
M  V30 23259 H 2338.5 -1.90915 6.27082 0
M  V30 23260 H 2338.02 -3.15823 5.09918 0
M  V30 23261 H 2339.7 -3.08218 5.68868 0
M  V30 23262 N 2339.83 -1.40974 -0.704569 0
M  V30 23263 C 2341.08 -1.39148 -1.46016 0
M  V30 23264 C 2341.39 -0.000623636 -1.956 0
M  V30 23265 O 2342.6 0.140252 -2.71138 0
M  V30 23266 C 2341.06 -2.44615 -2.63992 0
M  V30 23267 C 2340.66 -3.89565 -2.21231 0
M  V30 23268 C 2342.41 -2.51913 -3.41673 0
M  V30 23269 C 2340.32 -4.86603 -3.36112 0
M  V30 23270 H 2339.25 -0.517431 -0.548435 0
M  V30 23271 H 2341.9 -1.66759 -0.765754 0
M  V30 23272 H 2340.28 -2.10121 -3.35656 0
M  V30 23273 H 2341.45 -4.3326 -1.56915 0
M  V30 23274 H 2339.77 -3.85844 -1.56567 0
M  V30 23275 H 2342.36 -3.21597 -4.27176 0
M  V30 23276 H 2342.71 -1.5531 -3.86244 0
M  V30 23277 H 2343.24 -2.85453 -2.77059 0
M  V30 23278 H 2339.98 -5.84578 -2.96562 0
M  V30 23279 H 2339.5 -4.47564 -3.99307 0
M  V30 23280 H 2341.18 -5.06941 -4.0202 0
M  V30 23281 N 2341.31 0.937917 -1.26653 0
M  V30 23282 C 2342.72 1.49932 -1.11253 0
M  V30 23283 C 2343.07 1.93798 0.306043 0
M  V30 23284 O 2342.2 1.80221 1.19789 0
M  V30 23285 C 2342.79 2.72482 -2.01343 0
M  V30 23286 C 2341.35 3.24879 -1.9008 0
M  V30 23287 C 2340.5 1.97648 -1.94501 0
M  V30 23288 H 2343.45 0.753067 -1.39695 0
M  V30 23289 H 2343.47 3.46905 -1.56325 0
M  V30 23290 H 2342.98 2.40524 -3.04581 0
M  V30 23291 H 2341.08 3.6162 -0.89789 0
M  V30 23292 H 2341.2 3.91765 -2.75785 0
M  V30 23293 H 2339.56 2.1369 -1.38595 0
M  V30 23294 H 2340.34 1.68017 -2.99375 0
M  V30 23295 N 2342.79 1.08509 1.14296 0
M  V30 23296 C 2344.03 0.816614 1.85632 0
M  V30 23297 C 2344.37 -0.655989 1.82785 0
M  V30 23298 O 2343.64 -1.48231 1.25928 0
M  V30 23299 C 2343.93 1.34047 3.34221 0
M  V30 23300 C 2343.78 2.87849 3.45634 0
M  V30 23301 C 2345.1 0.966576 4.29355 0
M  V30 23302 H 2342.22 0.298116 0.674015 0
M  V30 23303 H 2344.86 1.34489 1.34211 0
M  V30 23304 H 2343.01 0.891107 3.78142 0
M  V30 23305 H 2344.68 3.41164 3.10492 0
M  V30 23306 H 2342.92 3.25456 2.86812 0
M  V30 23307 H 2343.59 3.19576 4.50083 0
M  V30 23308 H 2346.07 1.35398 3.93455 0
M  V30 23309 H 2344.95 1.3603 5.31777 0
M  V30 23310 H 2345.21 -0.126284 4.4192 0
M  V30 23311 N 2344.27 -1.31351 0.870907 0
M  V30 23312 C 2345.68 -1.78878 0.534745 0
M  V30 23313 C 2346.03 -1.71756 -0.948392 0
M  V30 23314 O 2345.15 -1.28587 -1.74053 0
M  V30 23315 C 2345.75 -3.24799 0.963896 0
M  V30 23316 C 2344.31 -3.70218 0.679376 0
M  V30 23317 C 2343.45 -2.52115 1.15469 0
M  V30 23318 H 2346.41 -1.18419 1.05653 0
M  V30 23319 H 2346.43 -3.79416 0.286958 0
M  V30 23320 H 2345.94 -3.29951 2.04338 0
M  V30 23321 H 2344.04 -3.70567 -0.388704 0
M  V30 23322 H 2344.15 -4.62315 1.25706 0
M  V30 23323 H 2342.52 -2.48138 0.574427 0
M  V30 23324 H 2343.3 -2.60012 2.24162 0
M  V30 23325 N 2345.74 -0.630439 -1.44441 0
M  V30 23326 C 2346.97 -0.141501 -2.06115 0
M  V30 23327 C 2347.38 1.18888 -1.47181 0
M  V30 23328 O 2346.73 1.74005 -0.588903 0
M  V30 23329 C 2346.79 0.0483724 -3.59467 0
M  V30 23330 C 2346.45 -1.20373 -4.40862 0
M  V30 23331 C 2347.45 -2.12727 -4.74387 0
M  V30 23332 C 2345.13 -1.43896 -4.81248 0
M  V30 23333 C 2347.13 -3.26914 -5.4718 0
M  V30 23334 C 2344.81 -2.58379 -5.5379 0
M  V30 23335 C 2345.81 -3.49715 -5.86676 0
M  V30 23336 O 2345.5 -4.62203 -6.57741 0
M  V30 23337 H 2345.23 -0.076591 -0.671647 0
M  V30 23338 H 2347.79 -0.864728 -1.86311 0
M  V30 23339 H 2346.02 0.826737 -3.77759 0
M  V30 23340 H 2347.71 0.491778 -4.0291 0
M  V30 23341 H 2348.47 -1.95789 -4.43725 0
M  V30 23342 H 2344.35 -0.736933 -4.55072 0
M  V30 23343 H 2347.89 -3.98227 -5.72766 0
M  V30 23344 H 2343.79 -2.75262 -5.83868 0
M  V30 23345 H 2344.56 -4.61176 -6.76209 0
M  V30 23346 N 2347.22 1.53172 -0.370945 0
M  V30 23347 C 2348.47 2.00936 0.216637 0
M  V30 23348 C 2348.79 1.2598 1.48843 0
M  V30 23349 O 2348.06 0.374584 1.92285 0
M  V30 23350 H 2346.64 0.74237 0.0830434 0
M  V30 23351 H 2349.3 1.88419 -0.498413 0
M  V30 23352 H 2348.4 3.08985 0.439839 0
M  V30 23353 N 2348.7 0.100255 1.57281 0
M  V30 23354 C 2349.95 -0.56195 1.93714 0
M  V30 23355 C 2350.26 -1.69016 0.984522 0
M  V30 23356 O 2351.47 -2.41387 1.24277 0
M  V30 23357 C 2349.92 -1.051 3.44212 0
M  V30 23358 C 2349.53 0.0477415 4.47975 0
M  V30 23359 C 2351.28 -1.68564 3.89598 0
M  V30 23360 C 2349.18 -0.456952 5.89632 0
M  V30 23361 H 2348.11 -0.213688 0.723086 0
M  V30 23362 H 2350.76 0.177089 1.82643 0
M  V30 23363 H 2349.15 -1.84388 3.50452 0
M  V30 23364 H 2350.32 0.823412 4.53383 0
M  V30 23365 H 2348.64 0.587888 4.12229 0
M  V30 23366 H 2351.23 -2.07406 4.92836 0
M  V30 23367 H 2351.58 -2.55682 3.28531 0
M  V30 23368 H 2352.11 -0.958494 3.8608 0
M  V30 23369 H 2348.85 0.377731 6.54411 0
M  V30 23370 H 2348.37 -1.19951 5.87683 0
M  V30 23371 H 2350.05 -0.924258 6.40364 0
M  V30 23372 N 2350.18 -1.56643 -0.17346 0
M  V30 23373 C 2351.11 -1.99273 -1.21706 0
M  V30 23374 C 2352.09 -0.867985 -1.46287 0
M  V30 23375 O 2353.28 -1.13391 -1.57658 0
M  V30 23376 C 2350.41 -2.35079 -2.55647 0
M  V30 23377 C 2349.36 -3.50494 -2.45639 0
M  V30 23378 C 2348.69 -3.72035 -3.84049 0
M  V30 23379 C 2349.99 -4.84011 -1.96293 0
M  V30 23380 H 2351.68 -2.86702 -0.8627 0
M  V30 23381 H 2349.23 -1.37934 -0.413547 0
M  V30 23382 H 2351.18 -2.63499 -3.28856 0
M  V30 23383 H 2349.9 -1.44557 -2.92867 0
M  V30 23384 H 2348.56 -3.22197 -1.74884 0
M  V30 23385 H 2348.21 -2.78808 -4.18659 0
M  V30 23386 H 2347.91 -4.49691 -3.78222 0
M  V30 23387 H 2349.43 -4.02854 -4.58847 0
M  V30 23388 H 2350.85 -5.11321 -2.59275 0
M  V30 23389 H 2349.24 -5.65288 -2.01419 0
M  V30 23390 H 2350.31 -4.76148 -0.917143 0
M  V30 23391 N 2351.66 0.44194 -1.51277 0
M  V30 23392 C 2352.88 1.21892 -1.67801 0
M  V30 23393 C 2353.31 1.84367 -0.372896 0
M  V30 23394 O 2352.67 1.68606 0.666471 0
M  V30 23395 C 2352.71 2.28206 -2.79203 0
M  V30 23396 O 2351.82 3.33579 -2.42485 0
M  V30 23397 H 2351.16 0.357326 -0.559655 0
M  V30 23398 H 2353.69 0.522487 -1.97816 0
M  V30 23399 H 2353.7 2.73064 -3.03151 0
M  V30 23400 H 2352.37 1.82111 -3.7391 0
M  V30 23401 H 2350.95 2.9423 -2.29092 0
M  V30 23402 N 2353.14 1.41345 0.697083 0
M  V30 23403 C 2354.08 1.43276 1.83234 0
M  V30 23404 C 2355.08 0.310976 1.66521 0
M  V30 23405 O 2356.28 0.48293 1.73401 0
M  V30 23406 H 2352.66 0.448259 0.603794 0
M  V30 23407 H 2354.63 2.38957 1.78723 0
M  V30 23408 C 2353.38 1.33034 3.21243 0
M  V30 23409 H 2352.7 2.18639 3.34719 0
M  V30 23410 H 2354.14 1.38446 4.0076 0
M  V30 23411 C 2352.6 0.0425227 3.36873 0
M  V30 23412 O 2353.13 -0.913352 3.91179 0
M  V30 23413 N 2351.34 -0.0330635 2.90581 0
M  V30 23414 H 2350.88 0.745549 2.46575 0
M  V30 23415 H 2350.84 -0.894146 3.01417 0
M  V30 23416 N 2354.61 -0.931187 1.27148 0
M  V30 23417 C 2355.54 -2.0484 1.12085 0
M  V30 23418 C 2356.52 -1.70084 0.0232663 0
M  V30 23419 O 2357.71 -1.93197 0.197119 0
M  V30 23420 C 2354.84 -3.38801 0.763599 0
M  V30 23421 C 2353.79 -3.87656 1.81403 0
M  V30 23422 C 2353.12 -5.18383 1.31084 0
M  V30 23423 C 2354.42 -4.11432 3.21747 0
M  V30 23424 H 2356.11 -2.177 2.05541 0
M  V30 23425 H 2353.66 -1.04606 0.989621 0
M  V30 23426 H 2355.61 -4.16434 0.645055 0
M  V30 23427 H 2354.34 -3.25945 -0.20667 0
M  V30 23428 H 2353 -3.12213 1.92141 0
M  V30 23429 H 2352.64 -5.01916 0.330125 0
M  V30 23430 H 2352.34 -5.5204 2.01309 0
M  V30 23431 H 2353.87 -5.98588 1.20517 0
M  V30 23432 H 2355.28 -4.79645 3.14028 0
M  V30 23433 H 2353.68 -4.5639 3.89652 0
M  V30 23434 H 2354.75 -3.16852 3.67059 0
M  V30 23435 N 2356.09 -1.09114 -1.13719 0
M  V30 23436 C 2357 -0.739609 -2.22636 0
M  V30 23437 C 2358.02 0.257037 -1.72091 0
M  V30 23438 O 2359.19 0.0991801 -2.01156 0
M  V30 23439 C 2356.26 -0.16197 -3.46321 0
M  V30 23440 C 2355.32 -1.21415 -4.11773 0
M  V30 23441 C 2354.55 -0.663984 -5.29554 0
M  V30 23442 O 2354.78 0.514174 -5.68078 0
M  V30 23443 O 2353.71 -1.41748 -5.84971 0
M  V30 23444 H 2357.54 -1.6484 -2.55071 0
M  V30 23445 H 2355.12 -0.86531 -1.2179 0
M  V30 23446 H 2357 0.156999 -4.21107 0
M  V30 23447 H 2355.68 0.719877 -3.15594 0
M  V30 23448 H 2354.58 -1.58577 -3.38828 0
M  V30 23449 H 2355.92 -2.06853 -4.46624 0
M  V30 23450 N 2357.57 1.30887 -0.877861 0
M  V30 23451 C 2358.52 2.30266 -0.328702 0
M  V30 23452 C 2359.51 1.5986 0.560468 0
M  V30 23453 O 2360.72 1.74395 0.445691 0
M  V30 23454 H 2357.09 0.746877 -0.0876274 0
M  V30 23455 H 2359.06 2.74049 -1.18066 0
M  V30 23456 C 2357.81 3.44802 0.44801 0
M  V30 23457 H 2357.14 3.99155 -0.226929 0
M  V30 23458 H 2358.58 4.16433 0.797468 0
M  V30 23459 C 2357.03 2.94158 1.64234 0
M  V30 23460 O 2357.56 2.93588 2.74169 0
M  V30 23461 N 2355.77 2.50259 1.47712 0
M  V30 23462 H 2355.32 2.50921 0.582777 0
M  V30 23463 H 2355.28 2.16731 2.27761 0
M  V30 23464 N 2359.05 0.638091 1.44105 0
M  V30 23465 C 2360.28 0.152651 2.06336 0
M  V30 23466 C 2360.69 -1.1756 1.47733 0
M  V30 23467 O 2360.05 -1.72256 0.602836 0
M  V30 23468 C 2360.1 0.0392126 3.61479 0
M  V30 23469 O 2359.82 1.31495 4.179 0
M  V30 23470 C 2361.32 -0.474099 4.40758 0
M  V30 23471 H 2358.54 0.0828893 0.665861 0
M  V30 23472 H 2361.08 0.874463 1.8486 0
M  V30 23473 H 2359.24 -0.633075 3.82192 0
M  V30 23474 H 2359.65 1.1643 5.11414 0
M  V30 23475 H 2361.13 -0.502466 5.49708 0
M  V30 23476 H 2361.6 -1.50251 4.127 0
M  V30 23477 H 2362.21 0.165176 4.24979 0
M  V30 23478 N 2360.53 -1.52973 0.379063 0
M  V30 23479 C 2361.75 -2.05864 -0.206754 0
M  V30 23480 C 2362.17 -1.25158 -1.41354 0
M  V30 23481 O 2361.53 -0.295619 -1.8009 0
M  V30 23482 C 2361.58 -3.56703 -0.586983 0
M  V30 23483 O 2361.3 -4.34352 0.571853 0
M  V30 23484 C 2362.8 -4.25901 -1.22975 0
M  V30 23485 H 2360.02 -0.670158 -0.0336005 0
M  V30 23486 H 2362.56 -1.97205 0.541333 0
M  V30 23487 H 2360.72 -3.65468 -1.28497 0
M  V30 23488 H 2361.13 -5.23847 0.261636 0
M  V30 23489 H 2362.61 -5.32717 -1.44625 0
M  V30 23490 H 2363.08 -3.80469 -2.19409 0
M  V30 23491 H 2363.69 -4.21425 -0.572818 0
M  V30 23492 N 2362 -0.108595 -1.57225 0
M  V30 23493 C 2362.95 0.845443 -2.14758 0
M  V30 23494 C 2363.92 1.27066 -1.06974 0
M  V30 23495 O 2365.11 1.35003 -1.34829 0
M  V30 23496 C 2362.25 2.0941 -2.74302 0
M  V30 23497 C 2361.36 1.71819 -3.96361 0
M  V30 23498 C 2360.49 2.91572 -4.44026 0
M  V30 23499 C 2359.53 2.50171 -5.58642 0
M  V30 23500 N 2358.67 3.62804 -6.01097 0
M  V30 23501 H 2363.51 0.347983 -2.95961 0
M  V30 23502 H 2361.05 0.16008 -1.46226 0
M  V30 23503 H 2363 2.82555 -3.0695 0
M  V30 23504 H 2361.63 2.56632 -1.95805 0
M  V30 23505 H 2360.69 0.885882 -3.69941 0
M  V30 23506 H 2362 1.37386 -4.79507 0
M  V30 23507 H 2361.15 3.72955 -4.78528 0
M  V30 23508 H 2359.89 3.29225 -3.59809 0
M  V30 23509 H 2358.9 1.67218 -5.23754 0
M  V30 23510 H 2360.12 2.13648 -6.44617 0
M  V30 23511 H 2358.07 4.00149 -5.19824 0
M  V30 23512 H 2357.98 3.32261 -6.79072 0
M  V30 23513 H 2359.25 4.44657 -6.40235 0
M  V30 23514 N 2363.48 1.56732 0.16515 0
M  V30 23515 C 2364.71 1.86213 0.894886 0
M  V30 23516 C 2365.12 0.692658 1.76065 0
M  V30 23517 O 2364.46 -0.347272 1.80388 0
M  V30 23518 C 2364.52 3.10182 1.81734 0
M  V30 23519 C 2364.19 4.42795 1.13056 0
M  V30 23520 C 2365.19 5.17557 0.493078 0
M  V30 23521 C 2362.87 4.89529 1.12548 0
M  V30 23522 C 2364.86 6.37246 -0.140321 0
M  V30 23523 C 2362.55 6.09146 0.488259 0
M  V30 23524 C 2363.55 6.82849 -0.143531 0
M  V30 23525 O 2363.24 8.00197 -0.77069 0
M  V30 23526 H 2362.97 0.621849 0.265103 0
M  V30 23527 H 2365.52 2.0471 0.168206 0
M  V30 23528 H 2363.75 2.87647 2.5845 0
M  V30 23529 H 2365.44 3.26059 2.41745 0
M  V30 23530 H 2366.21 4.82529 0.488939 0
M  V30 23531 H 2362.09 4.32097 1.60664 0
M  V30 23532 H 2365.63 6.94713 -0.634054 0
M  V30 23533 H 2361.53 6.43637 0.490002 0
M  V30 23534 H 2362.3 8.15749 -0.670552 0
M  V30 23535 N 2364.96 -0.433911 1.51509 0
M  V30 23536 C 2365.89 -1.53426 1.76019 0
M  V30 23537 C 2366.87 -1.58781 0.610139 0
M  V30 23538 O 2368.06 -1.74453 0.853207 0
M  V30 23539 C 2365.19 -2.91476 1.88836 0
M  V30 23540 C 2364.14 -3.00981 3.04293 0
M  V30 23541 C 2363.47 -4.41044 3.02298 0
M  V30 23542 C 2364.77 -2.74746 4.44198 0
M  V30 23543 H 2366.46 -1.33167 2.68155 0
M  V30 23544 H 2364.01 -0.639191 1.29036 0
M  V30 23545 H 2365.96 -3.68417 2.04565 0
M  V30 23546 H 2364.68 -3.12975 0.93351 0
M  V30 23547 H 2363.34 -2.26481 2.88274 0
M  V30 23548 H 2362.99 -4.59515 2.04584 0
M  V30 23549 H 2362.69 -4.48333 3.7983 0
M  V30 23550 H 2364.21 -5.19954 3.20125 0
M  V30 23551 H 2365.63 -3.41418 4.6055 0
M  V30 23552 H 2364.03 -2.93441 5.23462 0
M  V30 23553 H 2365.1 -1.70331 4.53999 0
M  V30 23554 N 2366.44 -1.41713 -0.689577 0
M  V30 23555 C 2367.37 -1.39969 -1.81497 0
M  V30 23556 C 2368.38 -0.300946 -1.59994 0
M  V30 23557 O 2369.57 -0.563069 -1.69386 0
M  V30 23558 C 2366.67 -1.16184 -3.18362 0
M  V30 23559 C 2365.85 -2.38213 -3.66842 0
M  V30 23560 C 2364.9 -2.10195 -4.82395 0
M  V30 23561 O 2363.93 -2.83281 -4.93701 0
M  V30 23562 N 2365.13 -1.0959 -5.70062 0
M  V30 23563 H 2367.9 -2.36968 -1.83484 0
M  V30 23564 H 2365.46 -1.36402 -0.872125 0
M  V30 23565 H 2367.45 -0.953825 -3.93299 0
M  V30 23566 H 2366.02 -0.277614 -3.11365 0
M  V30 23567 H 2365.24 -2.74678 -2.82746 0
M  V30 23568 H 2366.53 -3.19505 -3.95973 0
M  V30 23569 H 2365.93 -0.491118 -5.63564 0
M  V30 23570 H 2364.48 -0.94777 -6.44873 0
M  V30 23571 N 2367.92 0.924431 -1.2764 0
M  V30 23572 C 2368.83 2.05883 -1.12469 0
M  V30 23573 C 2369.84 1.73916 -0.0538995 0
M  V30 23574 O 2371.02 1.99701 -0.261047 0
M  V30 23575 C 2368.08 3.37885 -0.776827 0
M  V30 23576 C 2367.14 3.83528 -1.92885 0
M  V30 23577 C 2366.38 5.09231 -1.59748 0
M  V30 23578 O 2366.6 5.68143 -0.506882 0
M  V30 23579 O 2365.53 5.50327 -2.43771 0
M  V30 23580 H 2369.36 2.21596 -2.07675 0
M  V30 23581 H 2366.95 1.04411 -1.06858 0
M  V30 23582 H 2368.83 4.1716 -0.596303 0
M  V30 23583 H 2367.5 3.23372 0.145675 0
M  V30 23584 H 2366.41 3.05127 -2.16445 0
M  V30 23585 H 2367.74 4.02588 -2.83167 0
M  V30 23586 N 2369.39 1.09715 1.13139 0
M  V30 23587 C 2370.62 0.857114 1.88861 0
M  V30 23588 C 2371.04 -0.586273 1.7873 0
M  V30 23589 O 2370.4 -1.4122 1.13695 0
M  V30 23590 C 2370.45 1.30075 3.36323 0
M  V30 23591 O 2369.55 0.461079 4.09814 0
M  V30 23592 H 2368.9 0.310172 0.587103 0
M  V30 23593 H 2371.43 1.46205 1.43127 0
M  V30 23594 H 2371.44 1.28745 3.87155 0
M  V30 23595 H 2370.11 2.35191 3.43013 0
M  V30 23596 H 2368.69 0.538953 3.68985 0
M  V30 23597 N 2370.87 -1.30419 0.88479 0
M  V30 23598 C 2371.8 -2.30588 0.367614 0
M  V30 23599 C 2372.78 -1.60982 -0.549436 0
M  V30 23600 O 2373.97 -1.88592 -0.463327 0
M  V30 23601 C 2371.1 -3.44765 -0.418883 0
M  V30 23602 C 2370.05 -4.26066 0.406391 0
M  V30 23603 C 2369.38 -5.32294 -0.506699 0
M  V30 23604 C 2370.68 -4.95606 1.64841 0
M  V30 23605 H 2372.37 -2.74095 1.20467 0
M  V30 23606 H 2369.92 -1.31771 0.580718 0
M  V30 23607 H 2371.87 -4.13903 -0.791322 0
M  V30 23608 H 2370.6 -3.00062 -1.28958 0
M  V30 23609 H 2369.25 -3.58615 0.760967 0
M  V30 23610 H 2368.9 -4.83839 -1.3751 0
M  V30 23611 H 2368.6 -5.87585 0.041686 0
M  V30 23612 H 2370.13 -6.04288 -0.875658 0
M  V30 23613 H 2371.54 -5.57262 1.34656 0
M  V30 23614 H 2369.94 -5.60761 2.13698 0
M  V30 23615 H 2371.01 -4.21743 2.39292 0
M  V30 23616 N 2372.35 -0.645724 -1.43764 0
M  V30 23617 C 2373.28 0.0370066 -2.33471 0
M  V30 23618 C 2374.26 0.819753 -1.49044 0
M  V30 23619 O 2375.45 0.782727 -1.77727 0
M  V30 23620 C 2372.58 1.00924 -3.32313 0
M  V30 23621 C 2371.53 0.337126 -4.2667 0
M  V30 23622 C 2370.86 1.42028 -5.15492 0
M  V30 23623 C 2372.16 -0.765797 -5.16655 0
M  V30 23624 H 2373.85 -0.71212 -2.90808 0
M  V30 23625 H 2371.4 -0.343901 -1.39833 0
M  V30 23626 H 2373.35 1.49571 -3.93962 0
M  V30 23627 H 2372.07 1.78943 -2.73216 0
M  V30 23628 H 2370.73 -0.128836 -3.66374 0
M  V30 23629 H 2370.38 2.19172 -4.52739 0
M  V30 23630 H 2370.08 0.975864 -5.7944 0
M  V30 23631 H 2371.6 1.90827 -5.80015 0
M  V30 23632 H 2373.02 -0.361802 -5.72157 0
M  V30 23633 H 2371.42 -1.13423 -5.89284 0
M  V30 23634 H 2372.49 -1.62691 -4.56793 0
M  V30 23635 N 2373.83 1.5277 -0.38717 0
M  V30 23636 C 2374.78 2.2639 0.449009 0
M  V30 23637 C 2375.75 1.27914 1.05958 0
M  V30 23638 O 2376.93 1.56739 1.08801 0
M  V30 23639 C 2374.07 3.07242 1.5715 0
M  V30 23640 C 2373.18 4.20644 0.983992 0
M  V30 23641 C 2372.32 4.88896 2.07736 0
M  V30 23642 C 2371.36 5.94294 1.46564 0
M  V30 23643 N 2370.49 6.5615 2.49822 0
M  V30 23644 H 2375.33 2.97424 -0.185257 0
M  V30 23645 H 2372.87 1.46738 -0.10319 0
M  V30 23646 H 2374.83 3.52409 2.23303 0
M  V30 23647 H 2373.46 2.38423 2.17611 0
M  V30 23648 H 2372.51 3.79808 0.212126 0
M  V30 23649 H 2373.82 4.96318 0.496942 0
M  V30 23650 H 2372.98 5.37355 2.81663 0
M  V30 23651 H 2371.72 4.12741 2.598 0
M  V30 23652 H 2370.72 5.45175 0.7116 0
M  V30 23653 H 2371.95 6.7238 0.95297 0
M  V30 23654 H 2369.89 5.82837 3.0106 0
M  V30 23655 H 2369.81 7.2743 2.05866 0
M  V30 23656 H 2371.08 7.09254 3.23386 0
M  V30 23657 N 2375.31 0.116931 1.57166 0
M  V30 23658 C 2376.22 -0.847774 2.18746 0
M  V30 23659 C 2377.23 -1.29421 1.16302 0
M  V30 23660 O 2378.41 -1.35762 1.48763 0
M  V30 23661 C 2375.47 -2.08085 2.77311 0
M  V30 23662 C 2374.53 -1.68654 3.94784 0
M  V30 23663 C 2373.77 -2.86083 4.50546 0
M  V30 23664 O 2373.99 -4.01449 4.05209 0
M  V30 23665 O 2372.92 -2.63288 5.41261 0
M  V30 23666 H 2376.75 -0.353725 3.01633 0
M  V30 23667 H 2374.34 -0.108573 1.49005 0
M  V30 23668 H 2376.22 -2.80307 3.14652 0
M  V30 23669 H 2374.89 -2.56501 1.97457 0
M  V30 23670 H 2373.8 -0.935454 3.62215 0
M  V30 23671 H 2375.13 -1.24982 4.76068 0
M  V30 23672 N 2376.78 -1.56818 -0.156836 0
M  V30 23673 C 2377.73 -1.98457 -1.21315 0
M  V30 23674 C 2378.73 -0.87547 -1.45024 0
M  V30 23675 O 2379.93 -1.06063 -1.45433 0
M  V30 23676 H 2376.31 -0.631612 -0.408131 0
M  V30 23677 H 2378.28 -2.86474 -0.835194 0
M  V30 23678 C 2377.03 -2.3729 -2.54144 0
M  V30 23679 H 2376.35 -3.2218 -2.36727 0
M  V30 23680 H 2377.79 -2.70257 -3.26707 0
M  V30 23681 C 2376.25 -1.22179 -3.13965 0
M  V30 23682 O 2376.78 -0.517219 -3.98356 0
M  V30 23683 N 2374.99 -0.988584 -2.73268 0
M  V30 23684 H 2374.53 -1.5633 -2.04741 0
M  V30 23685 H 2374.49 -0.220264 -3.13627 0
M  V30 23686 N 2378.26 0.425871 -1.51737 0
M  V30 23687 C 2379.2 1.53809 -1.68576 0
M  V30 23688 C 2380.17 1.53605 -0.533307 0
M  V30 23689 O 2381.36 1.72562 -0.758585 0
M  V30 23690 C 2378.48 2.92374 -1.70982 0
M  V30 23691 C 2377.53 3.10557 -2.92329 0
M  V30 23692 S 2378.36 2.8564 -4.52957 0
M  V30 23693 C 2379.52 4.26465 -4.58124 0
M  V30 23694 H 2379.75 1.39293 -2.62649 0
M  V30 23695 H 2377.29 0.616336 -1.41565 0
M  V30 23696 H 2379.24 3.7224 -1.73053 0
M  V30 23697 H 2377.9 3.04244 -0.780663 0
M  V30 23698 H 2377.1 4.11894 -2.90446 0
M  V30 23699 H 2376.7 2.38533 -2.88059 0
M  V30 23700 H 2378.99 5.19847 -4.34471 0
M  V30 23701 H 2379.93 4.33378 -5.5999 0
M  V30 23702 H 2380.34 4.10656 -3.87327 0
M  V30 23703 N 2379.74 1.42077 0.682052 0
M  V30 23704 C 2380.67 1.4093 1.80753 0
M  V30 23705 C 2381.69 0.309426 1.59832 0
M  V30 23706 O 2382.87 0.572044 1.69085 0
M  V30 23707 C 2379.97 1.17871 3.17741 0
M  V30 23708 C 2379.15 2.40155 3.65574 0
M  V30 23709 C 2378.21 2.1275 4.81273 0
M  V30 23710 O 2377.23 2.85895 4.92191 0
M  V30 23711 N 2378.43 1.12612 5.69472 0
M  V30 23712 H 2381.2 2.37938 1.82224 0
M  V30 23713 H 2378.76 1.36863 0.864879 0
M  V30 23714 H 2380.75 0.974669 3.92788 0
M  V30 23715 H 2379.32 0.294123 3.11213 0
M  V30 23716 H 2378.54 2.76174 2.81286 0
M  V30 23717 H 2379.83 3.216 3.94273 0
M  V30 23718 H 2379.23 0.520998 5.63296 0
M  V30 23719 H 2377.79 0.981955 6.44361 0
M  V30 23720 N 2381.22 -0.917649 1.28129 0
M  V30 23721 C 2382.17 -2.01958 1.1172 0
M  V30 23722 C 2383.14 -1.66093 0.0154221 0
M  V30 23723 O 2384.32 -1.89953 0.179629 0
M  V30 23724 C 2381.46 -3.36147 0.780987 0
M  V30 23725 C 2380.57 -3.84906 1.96142 0
M  V30 23726 C 2379.71 -5.07587 1.56617 0
M  V30 23727 C 2378.75 -5.48668 2.71348 0
M  V30 23728 N 2377.89 -6.62541 2.32343 0
M  V30 23729 H 2382.73 -2.15326 2.06007 0
M  V30 23730 H 2380.26 -1.05473 1.02537 0
M  V30 23731 H 2382.22 -4.13332 0.566822 0
M  V30 23732 H 2380.85 -3.22558 -0.124941 0
M  V30 23733 H 2379.9 -3.03912 2.28782 0
M  V30 23734 H 2381.21 -4.11315 2.82172 0
M  V30 23735 H 2380.37 -5.92303 1.31384 0
M  V30 23736 H 2379.11 -4.82977 0.677098 0
M  V30 23737 H 2378.11 -4.62496 2.97284 0
M  V30 23738 H 2379.34 -5.75268 3.60892 0
M  V30 23739 H 2377.28 -6.39569 1.459 0
M  V30 23740 H 2377.2 -6.88656 3.11911 0
M  V30 23741 H 2378.47 -7.50572 2.10384 0
M  V30 23742 N 2382.7 -1.10314 -1.12555 0
M  V30 23743 C 2383.97 -0.75691 -1.80361 0
M  V30 23744 C 2384.35 0.75679 -1.97068 0
M  V30 23745 O 2383.7 1.68256 -1.54603 0
M  V30 23746 C 2383.91 -1.50652 -3.14809 0
M  V30 23747 C 2385.26 -1.67824 -3.90026 0
M  V30 23748 O 2386.28 -1.46979 -3.24462 0
M  V30 23749 O 2385.14 -2.02374 -5.07649 0
M  V30 23750 H 2382.24 -0.272939 -0.780662 0
M  V30 23751 H 2384.78 -1.20588 -1.19401 0
M  V30 23752 H 2383.56 -2.53677 -2.97932 0
M  V30 23753 H 2383.18 -1.05033 -3.83476 0
M  V30 23754 N 2384.18 1.29948 -0.891694 0
M  V30 23755 C 2385.11 2.3039 -0.379838 0
M  V30 23756 C 2386.09 1.61271 0.540891 0
M  V30 23757 O 2387.27 1.88835 0.453319 0
M  V30 23758 C 2384.4 3.44982 0.400593 0
M  V30 23759 C 2383.36 4.25845 -0.42898 0
M  V30 23760 C 2382.68 5.32555 0.478463 0
M  V30 23761 C 2383.98 4.94724 -1.67467 0
M  V30 23762 H 2385.68 2.73452 -1.21919 0
M  V30 23763 H 2383.22 1.31461 -0.587698 0
M  V30 23764 H 2385.17 4.14317 0.769361 0
M  V30 23765 H 2383.9 3.00742 1.27365 0
M  V30 23766 H 2382.56 3.58207 -0.779974 0
M  V30 23767 H 2382.21 4.84561 1.34943 0
M  V30 23768 H 2381.91 5.87555 -0.0728465 0
M  V30 23769 H 2383.43 6.04744 0.843599 0
M  V30 23770 H 2384.84 5.5654 -1.3761 0
M  V30 23771 H 2383.24 5.5962 -2.16668 0
M  V30 23772 H 2384.31 4.20468 -2.41525 0
M  V30 23773 N 2385.65 0.653339 1.4342 0
M  V30 23774 C 2386.9 0.166451 2.01413 0
M  V30 23775 C 2387.22 -1.22394 1.51805 0
M  V30 23776 O 2386.49 -1.81761 0.730725 0
M  V30 23777 H 2385.07 0.058545 0.744702 0
M  V30 23778 H 2387.73 0.845034 1.75628 0
M  V30 23779 H 2386.83 0.151166 3.11734 0
M  V30 23780 N 2387.13 -1.52563 0.395266 0
M  V30 23781 C 2388.08 -2.26625 -0.436996 0
M  V30 23782 C 2389.05 -1.28474 -1.05278 0
M  V30 23783 O 2390.23 -1.57313 -1.07968 0
M  V30 23784 C 2387.37 -3.08072 -1.55518 0
M  V30 23785 C 2386.49 -4.2116 -0.961671 0
M  V30 23786 C 2385.62 -4.89991 -2.0514 0
M  V30 23787 C 2384.66 -5.95063 -1.4341 0
M  V30 23788 N 2383.8 -6.57466 -2.46339 0
M  V30 23789 H 2388.64 -2.97321 0.201028 0
M  V30 23790 H 2386.17 -1.46681 0.11097 0
M  V30 23791 H 2388.13 -3.53588 -2.2143 0
M  V30 23792 H 2386.76 -2.39573 -2.16343 0
M  V30 23793 H 2385.81 -3.79915 -0.191981 0
M  V30 23794 H 2387.13 -4.96575 -0.470614 0
M  V30 23795 H 2386.28 -5.38841 -2.7881 0
M  V30 23796 H 2385.02 -4.14113 -2.57607 0
M  V30 23797 H 2384.02 -5.45545 -0.682678 0
M  V30 23798 H 2385.25 -6.72876 -0.917298 0
M  V30 23799 H 2383.2 -5.84426 -2.97964 0
M  V30 23800 H 2383.11 -7.28512 -2.02006 0
M  V30 23801 H 2384.38 -7.10959 -3.1962 0
M  V30 23802 N 2388.61 -0.125265 -1.57101 0
M  V30 23803 C 2389.86 0.531061 -1.94583 0
M  V30 23804 C 2390.17 1.67429 -1.01129 0
M  V30 23805 O 2391.38 2.39379 -1.28101 0
M  V30 23806 C 2389.83 0.996103 -3.45841 0
M  V30 23807 C 2389.44 -0.119004 -4.47842 0
M  V30 23808 C 2391.19 1.62345 -3.9223 0
M  V30 23809 C 2389.09 0.363089 -5.90284 0
M  V30 23810 H 2388.02 0.202157 -0.726394 0
M  V30 23811 H 2390.67 -0.206124 -1.82339 0
M  V30 23812 H 2389.06 1.7879 -3.53342 0
M  V30 23813 H 2390.23 -0.895437 -4.52016 0
M  V30 23814 H 2388.54 -0.653396 -4.11242 0
M  V30 23815 H 2391.14 1.99539 -4.96073 0
M  V30 23816 H 2391.48 2.50423 -3.32557 0
M  V30 23817 H 2392.02 0.896951 -3.87556 0
M  V30 23818 H 2388.76 -0.481794 -6.53727 0
M  V30 23819 H 2388.28 1.10587 -5.89517 0
M  V30 23820 H 2389.96 0.822264 -6.41754 0
M  V30 23821 N 2390.09 1.56899 0.148518 0
M  V30 23822 C 2391.03 1.98151 1.18341 0
M  V30 23823 C 2392 0.848873 1.4277 0
M  V30 23824 O 2393.19 1.11082 1.55131 0
M  V30 23825 C 2390.33 2.36598 2.51227 0
M  V30 23826 C 2389.44 3.63146 2.33985 0
M  V30 23827 C 2388.58 3.90703 3.59895 0
M  V30 23828 C 2387.62 5.10526 3.37683 0
M  V30 23829 N 2386.75 5.341 4.5572 0
M  V30 23830 H 2391.59 2.86363 0.82462 0
M  V30 23831 H 2389.13 1.41677 0.395731 0
M  V30 23832 H 2391.09 2.56918 3.28708 0
M  V30 23833 H 2389.72 1.51468 2.85057 0
M  V30 23834 H 2388.77 3.50612 1.47566 0
M  V30 23835 H 2390.08 4.50784 2.13531 0
M  V30 23836 H 2389.24 4.11512 4.45805 0
M  V30 23837 H 2387.98 3.01484 3.83352 0
M  V30 23838 H 2386.98 4.89591 2.50161 0
M  V30 23839 H 2388.21 6.01296 3.15627 0
M  V30 23840 H 2386.15 4.47836 4.79353 0
M  V30 23841 H 2386.07 6.16004 4.38263 0
M  V30 23842 H 2387.34 5.59407 5.42848 0
M  V30 23843 N 2391.57 -0.417818 1.51961 0
M  V30 23844 C 2392.5 -1.51551 1.77636 0
M  V30 23845 C 2393.48 -1.58125 0.626946 0
M  V30 23846 O 2394.66 -1.73539 0.871662 0
M  V30 23847 C 2391.79 -2.89457 1.91917 0
M  V30 23848 C 2390.75 -2.97737 3.07468 0
M  V30 23849 C 2390.07 -4.37813 3.06959 0
M  V30 23850 C 2391.37 -2.70019 4.47087 0
M  V30 23851 H 2393.07 -1.30315 2.69552 0
M  V30 23852 H 2390.61 -0.625469 1.29707 0
M  V30 23853 H 2392.56 -3.66226 2.08461 0
M  V30 23854 H 2391.29 -3.11967 0.966653 0
M  V30 23855 H 2389.95 -2.23411 2.9066 0
M  V30 23856 H 2389.6 -4.5732 2.09446 0
M  V30 23857 H 2389.3 -4.4428 3.84564 0
M  V30 23858 H 2390.82 -5.16529 3.25622 0
M  V30 23859 H 2392.23 -3.36514 4.64145 0
M  V30 23860 H 2390.63 -2.87872 5.26545 0
M  V30 23861 H 2391.7 -1.65506 4.5578 0
M  V30 23862 N 2393.04 -1.42436 -0.674508 0
M  V30 23863 C 2393.95 -1.4834 -1.81748 0
M  V30 23864 C 2394.97 -0.372129 -1.69974 0
M  V30 23865 O 2396.15 -0.623074 -1.9152 0
M  V30 23866 C 2393.21 -1.38367 -3.17892 0
M  V30 23867 C 2392.27 -2.59988 -3.41621 0
M  V30 23868 C 2391.5 -2.50481 -4.71269 0
M  V30 23869 O 2391.73 -1.54084 -5.49194 0
M  V30 23870 O 2390.66 -3.40619 -4.96248 0
M  V30 23871 H 2394.49 -2.44813 -1.79723 0
M  V30 23872 H 2392.07 -1.24204 -0.83029 0
M  V30 23873 H 2393.95 -1.35168 -3.99133 0
M  V30 23874 H 2392.63 -0.450201 -3.20554 0
M  V30 23875 H 2391.54 -2.68762 -2.60227 0
M  V30 23876 H 2392.87 -3.52235 -3.43789 0
M  V30 23877 N 2394.52 0.910841 -1.28614 0
M  V30 23878 C 2395.77 1.65699 -1.15708 0
M  V30 23879 C 2396.09 1.92769 0.294126 0
M  V30 23880 O 2395.36 1.5459 1.20328 0
M  V30 23881 H 2393.94 0.614159 -0.425227 0
M  V30 23882 H 2396.6 1.09277 -1.61383 0
M  V30 23883 H 2395.7 2.61812 -1.69885 0
M  V30 23884 N 2396 1.10909 1.11969 0
M  V30 23885 C 2397.25 0.855806 1.83858 0
M  V30 23886 C 2397.58 -0.61707 1.84136 0
M  V30 23887 O 2396.85 -1.45526 1.29044 0
M  V30 23888 C 2397.14 1.41106 3.31302 0
M  V30 23889 C 2396.99 2.95116 3.39451 0
M  V30 23890 C 2398.31 1.05743 4.27208 0
M  V30 23891 H 2395.43 0.312346 0.66754 0
M  V30 23892 H 2398.07 1.37306 1.31328 0
M  V30 23893 H 2396.22 0.971116 3.76167 0
M  V30 23894 H 2397.89 3.47673 3.03185 0
M  V30 23895 H 2396.14 3.31466 2.79844 0
M  V30 23896 H 2396.81 3.29051 4.43203 0
M  V30 23897 H 2399.28 1.43713 3.90494 0
M  V30 23898 H 2398.16 1.47279 5.28772 0
M  V30 23899 H 2398.42 -0.0325181 4.42088 0
M  V30 23900 N 2397.48 -1.29474 0.898573 0
M  V30 23901 C 2398.44 -2.26023 0.380311 0
M  V30 23902 C 2399.44 -1.53316 -0.484864 0
M  V30 23903 O 2400.63 -1.71768 -0.290077 0
M  V30 23904 C 2397.76 -3.3783 -0.456451 0
M  V30 23905 H 2398.96 -2.73381 1.233 0
M  V30 23906 H 2396.51 -1.40896 0.676614 0
M  V30 23907 H 2397.24 -2.9581 -1.32917 0
M  V30 23908 H 2397.03 -3.91759 0.163462 0
M  V30 23909 H 2398.52 -4.09661 -0.810394 0
M  V30 23910 N 2398.96 -0.660936 -1.43071 0
M  V30 23911 C 2399.87 0.026375 -2.34585 0
M  V30 23912 C 2400.88 0.80387 -1.54318 0
M  V30 23913 O 2402.06 0.749358 -1.8694 0
M  V30 23914 C 2399.12 0.975581 -3.32691 0
M  V30 23915 C 2398.18 0.194161 -4.28861 0
M  V30 23916 C 2397.42 1.09815 -5.2228 0
M  V30 23917 O 2397.64 2.33754 -5.20303 0
M  V30 23918 O 2396.57 0.566408 -5.99229 0
M  V30 23919 H 2400.4 -0.727085 -2.94868 0
M  V30 23920 H 2397.99 -0.421135 -1.43342 0
M  V30 23921 H 2399.87 1.52087 -3.92998 0
M  V30 23922 H 2398.54 1.70913 -2.74901 0
M  V30 23923 H 2397.45 -0.394901 -3.7201 0
M  V30 23924 H 2398.78 -0.499985 -4.89654 0
M  V30 23925 N 2400.43 1.52351 -0.403352 0
M  V30 23926 C 2401.34 2.30589 0.431969 0
M  V30 23927 C 2402.36 1.38077 1.05881 0
M  V30 23928 O 2403.54 1.7115 1.06158 0
M  V30 23929 C 2400.6 3.10787 1.53664 0
M  V30 23930 C 2399.66 4.19029 0.933451 0
M  V30 23931 C 2398.9 4.95393 1.98548 0
M  V30 23932 O 2399.12 4.71996 3.20274 0
M  V30 23933 O 2398.05 5.80384 1.59493 0
M  V30 23934 H 2401.88 3.03002 -0.205792 0
M  V30 23935 H 2399.46 1.48467 -0.166702 0
M  V30 23936 H 2401.35 3.60746 2.17808 0
M  V30 23937 H 2400.02 2.41173 2.15911 0
M  V30 23938 H 2398.93 3.73231 0.254888 0
M  V30 23939 H 2400.26 4.90918 0.354993 0
M  V30 23940 N 2401.91 0.133594 1.57033 0
M  V30 23941 C 2403.14 -0.52816 2.00045 0
M  V30 23942 C 2403.56 -1.5929 1.01352 0
M  V30 23943 O 2402.91 -1.82498 0.00851577 0
M  V30 23944 C 2402.96 -1.14104 3.4302 0
M  V30 23945 O 2402.68 -0.118843 4.37939 0
M  V30 23946 C 2404.19 -1.8847 4.01241 0
M  V30 23947 H 2401.41 -0.138649 0.656519 0
M  V30 23948 H 2403.95 0.224232 2.03267 0
M  V30 23949 H 2402.1 -1.84412 3.40692 0
M  V30 23950 H 2402.52 -0.566038 5.21437 0
M  V30 23951 H 2403.99 -2.2666 5.03318 0
M  V30 23952 H 2404.47 -2.76552 3.41198 0
M  V30 23953 H 2405.08 -1.22891 4.07158 0
M  V30 23954 N 2403.39 -1.56975 -0.140195 0
M  V30 23955 C 2404.67 -1.74649 -0.880739 0
M  V30 23956 C 2405.05 -0.703439 -1.99035 0
M  V30 23957 O 2404.4 0.27644 -2.26822 0
M  V30 23958 C 2404.61 -3.18942 -1.41694 0
M  V30 23959 C 2405.95 -3.80826 -1.87767 0
M  V30 23960 O 2406.98 -3.22413 -1.51421 0
M  V30 23961 O 2405.84 -4.83456 -2.54819 0
M  V30 23962 H 2402.93 -0.714345 -0.416701 0
M  V30 23963 H 2405.48 -1.69235 -0.125588 0
M  V30 23964 H 2404.25 -3.8636 -0.619834 0
M  V30 23965 H 2403.87 -3.28809 -2.23541 0
M  V30 23966 N 2404.87 0.409753 -1.5218 0
M  V30 23967 C 2405.82 1.51972 -1.76089 0
M  V30 23968 C 2406.81 1.5733 -0.627991 0
M  V30 23969 O 2408.02 1.60744 -0.810022 0
M  V30 23970 H 2404.39 0.505406 -0.556838 0
M  V30 23971 H 2406.36 1.28992 -2.69079 0
M  V30 23972 C 2405.11 2.89347 -1.92805 0
M  V30 23973 H 2404.43 2.85967 -2.79397 0
M  V30 23974 H 2405.87 3.66305 -2.13533 0
M  V30 23975 C 2404.33 3.29654 -0.694981 0
M  V30 23976 O 2404.86 4.01465 0.13744 0
M  V30 23977 N 2403.07 2.85706 -0.53106 0
M  V30 23978 H 2402.62 2.27437 -1.20956 0
M  V30 23979 H 2402.57 3.13035 0.292663 0
M  V30 23980 N 2406.35 1.42792 0.666944 0
M  V30 23981 C 2407.28 1.4968 1.79216 0
M  V30 23982 C 2408.26 0.352652 1.66404 0
M  V30 23983 O 2409.44 0.568026 1.85707 0
M  V30 23984 C 2406.57 1.40611 3.17562 0
M  V30 23985 C 2405.53 2.53133 3.45119 0
M  V30 23986 C 2404.85 2.2912 4.83123 0
M  V30 23987 C 2406.15 3.95424 3.41229 0
M  V30 23988 H 2407.85 2.43856 1.73709 0
M  V30 23989 H 2405.39 1.17369 0.834299 0
M  V30 23990 H 2407.35 1.44036 3.9602 0
M  V30 23991 H 2406.07 0.429327 3.23766 0
M  V30 23992 H 2404.73 2.49039 2.69027 0
M  V30 23993 H 2404.38 1.29717 4.85986 0
M  V30 23994 H 2404.08 3.0454 5.02523 0
M  V30 23995 H 2405.6 2.34307 5.63855 0
M  V30 23996 H 2407.01 4.0108 4.09644 0
M  V30 23997 H 2405.41 4.70758 3.72165 0
M  V30 23998 H 2406.48 4.21536 2.39657 0
M  V30 23999 N 2407.82 -0.904008 1.29095 0
M  V30 24000 C 2408.76 -2.01264 1.09661 0
M  V30 24001 C 2409.77 -1.62737 0.0454015 0
M  V30 24002 O 2410.96 -1.76137 0.289477 0
M  V30 24003 C 2408.06 -3.3268 0.646337 0
M  V30 24004 C 2407.23 -3.9976 1.77512 0
M  V30 24005 C 2406.29 -5.09463 1.31658 0
M  V30 24006 O 2405.32 -5.3213 2.02054 0
M  V30 24007 N 2406.52 -5.80205 0.185099 0
M  V30 24008 H 2409.28 -2.18491 2.05139 0
M  V30 24009 H 2406.84 -1.07592 1.20977 0
M  V30 24010 H 2408.84 -4.03409 0.322977 0
M  V30 24011 H 2407.41 -3.11854 -0.215861 0
M  V30 24012 H 2406.63 -3.22451 2.26758 0
M  V30 24013 H 2407.91 -4.41321 2.53206 0
M  V30 24014 H 2407.31 -5.6427 -0.401922 0
M  V30 24015 H 2405.87 -6.51752 -0.0789213 0
M  V30 24016 N 2409.3 -1.11501 -1.11379 0
M  V30 24017 C 2410.25 -0.773925 -2.17437 0
M  V30 24018 C 2411.22 0.25487 -1.64133 0
M  V30 24019 O 2412.4 0.131647 -1.90345 0
M  V30 24020 C 2409.54 -0.223977 -3.44372 0
M  V30 24021 C 2408.66 -1.30941 -4.11678 0
M  V30 24022 C 2407.79 -0.719932 -5.26299 0
M  V30 24023 C 2406.83 -1.78517 -5.8549 0
M  V30 24024 N 2405.97 -1.21514 -6.91505 0
M  V30 24025 H 2410.81 -1.68251 -2.45959 0
M  V30 24026 H 2408.35 -0.840212 -1.20743 0
M  V30 24027 H 2410.3 0.112848 -4.17047 0
M  V30 24028 H 2408.93 0.647796 -3.16233 0
M  V30 24029 H 2407.99 -1.76318 -3.3707 0
M  V30 24030 H 2409.3 -2.11532 -4.51725 0
M  V30 24031 H 2408.45 -0.333201 -6.05784 0
M  V30 24032 H 2407.19 0.117291 -4.87559 0
M  V30 24033 H 2406.2 -2.1812 -5.04682 0
M  V30 24034 H 2407.42 -2.62544 -6.26297 0
M  V30 24035 H 2405.37 -0.39957 -6.54782 0
M  V30 24036 H 2405.28 -1.95776 -7.30211 0
M  V30 24037 H 2406.55 -0.855318 -7.74793 0
M  V30 24038 N 2410.78 1.28995 -0.905426 0
M  V30 24039 C 2411.73 2.2755 -0.385932 0
M  V30 24040 C 2412.7 1.57245 0.535085 0
M  V30 24041 O 2413.88 1.85195 0.459087 0
M  V30 24042 C 2411.02 3.43052 0.3754 0
M  V30 24043 C 2410.14 4.28127 -0.577167 0
M  V30 24044 C 2409.27 5.30817 0.201785 0
M  V30 24045 C 2408.31 6.0755 -0.744936 0
M  V30 24046 N 2407.45 7.021 -2.91531e-05 0
M  V30 24047 H 2412.29 2.71366 -1.23144 0
M  V30 24048 H 2409.82 1.33462 -0.618566 0
M  V30 24049 H 2411.78 4.08801 0.83292 0
M  V30 24050 H 2410.41 3.0025 1.18532 0
M  V30 24051 H 2409.46 3.62499 -1.15321 0
M  V30 24052 H 2410.78 4.81518 -1.30161 0
M  V30 24053 H 2409.93 6.0241 0.720245 0
M  V30 24054 H 2408.67 4.78172 0.959329 0
M  V30 24055 H 2407.67 5.34816 -1.27485 0
M  V30 24056 H 2408.9 6.62284 -1.5019 0
M  V30 24057 H 2406.85 6.51817 0.739676 0
M  V30 24058 H 2406.76 7.53074 -0.664453 0
M  V30 24059 H 2408.03 7.77904 0.498507 0
M  V30 24060 N 2412.26 0.668514 1.42719 0
M  V30 24061 C 2413.19 0.000141219 2.335 0
M  V30 24062 C 2414.17 -0.795938 1.50329 0
M  V30 24063 O 2415.36 -0.754353 1.7895 0
M  V30 24064 C 2412.49 -0.956243 3.33876 0
M  V30 24065 C 2411.44 -0.269203 4.27153 0
M  V30 24066 C 2410.77 -1.33809 5.17686 0
M  V30 24067 C 2412.07 0.847896 5.15372 0
M  V30 24068 H 2413.76 0.758295 2.89638 0
M  V30 24069 H 2411.31 0.366104 1.39268 0
M  V30 24070 H 2413.26 -1.43285 3.96292 0
M  V30 24071 H 2411.98 -1.74574 2.76028 0
M  V30 24072 H 2410.64 0.187106 3.66122 0
M  V30 24073 H 2410.29 -2.11942 4.56168 0
M  V30 24074 H 2409.99 -0.883557 5.80919 0
M  V30 24075 H 2411.51 -1.81576 5.82977 0
M  V30 24076 H 2412.93 0.452782 5.71509 0
M  V30 24077 H 2411.32 1.22784 5.87405 0
M  V30 24078 H 2412.39 1.69937 4.54147 0
M  V30 24079 N 2413.74 -1.52135 0.411426 0
M  V30 24080 C 2414.97 -2.06257 -0.16304 0
M  V30 24081 C 2415.38 -1.28128 -1.38668 0
M  V30 24082 O 2414.74 -0.333753 -1.79422 0
M  V30 24083 C 2414.79 -3.57867 -0.511189 0
M  V30 24084 O 2414.51 -4.33041 0.663857 0
M  V30 24085 C 2416.01 -4.28414 -1.13914 0
M  V30 24086 H 2413.23 -0.67072 -0.0193779 0
M  V30 24087 H 2415.77 -1.96012 0.583041 0
M  V30 24088 H 2413.93 -3.68112 -1.20716 0
M  V30 24089 H 2414.34 -5.23174 0.372693 0
M  V30 24090 H 2415.82 -5.35665 -1.33293 0
M  V30 24091 H 2416.29 -3.85037 -2.11289 0
M  V30 24092 H 2416.9 -4.22545 -0.483299 0
M  V30 24093 N 2415.22 -0.14192 -1.5696 0
M  V30 24094 C 2416.63 0.214532 -1.58152 0
M  V30 24095 C 2416.83 1.65047 -1.15593 0
M  V30 24096 O 2415.89 2.37624 -0.853874 0
M  V30 24097 C 2417.2 -0.0396105 -3.00674 0
M  V30 24098 C 2418.75 0.0244978 -3.1299 0
M  V30 24099 C 2419.22 -0.202247 -4.57553 0
M  V30 24100 N 2420.71 -0.149 -4.6296 0
M  V30 24101 C 2421.45 -0.299025 -5.7262 0
M  V30 24102 N 2420.95 -0.506491 -6.90946 0
M  V30 24103 N 2422.74 -0.236985 -5.616 0
M  V30 24104 H 2414.89 -1.07956 -1.82919 0
M  V30 24105 H 2417.15 -0.426945 -0.846417 0
M  V30 24106 H 2416.86 -1.0332 -3.36181 0
M  V30 24107 H 2416.73 0.682078 -3.70982 0
M  V30 24108 H 2419.12 1.00864 -2.77327 0
M  V30 24109 H 2419.2 -0.729439 -2.45179 0
M  V30 24110 H 2418.84 -1.18346 -4.9392 0
M  V30 24111 H 2418.77 0.571952 -5.23485 0
M  V30 24112 H 2421.27 0.00690373 -3.77899 0
M  V30 24113 H 2421.58 -0.611211 -7.70379 0
M  V30 24114 H 2419.92 -0.54275 -6.92877 0
M  V30 24115 H 2423.11 -0.0757031 -4.68039 0
M  V30 24116 H 2423.29 -0.357341 -6.47014 0
M  V30 24117 N 2416.69 1.57047 0.131868 0
M  V30 24118 C 2417.63 1.94573 1.19233 0
M  V30 24119 C 2418.6 0.813601 1.40781 0
M  V30 24120 O 2419.79 1.07061 1.55146 0
M  V30 24121 C 2416.92 2.23085 2.54854 0
M  V30 24122 C 2415.96 3.45683 2.4981 0
M  V30 24123 S 2416.79 4.98723 1.95028 0
M  V30 24124 C 2417.95 5.30373 3.32348 0
M  V30 24125 H 2418.18 2.84217 0.872247 0
M  V30 24126 H 2415.72 1.50653 0.338107 0
M  V30 24127 H 2417.67 2.40191 3.32894 0
M  V30 24128 H 2416.34 1.34079 2.84045 0
M  V30 24129 H 2415.53 3.62958 3.49682 0
M  V30 24130 H 2415.13 3.27898 1.79886 0
M  V30 24131 H 2417.42 5.24767 4.28516 0
M  V30 24132 H 2418.37 6.31713 3.19912 0
M  V30 24133 H 2418.77 4.57864 3.30182 0
M  V30 24134 N 2418.17 -0.401677 1.52395 0
M  V30 24135 C 2419.1 -1.49658 1.79234 0
M  V30 24136 C 2420.08 -1.57451 0.643682 0
M  V30 24137 O 2421.27 -1.72604 0.89002 0
M  V30 24138 C 2418.4 -2.87405 1.94976 0
M  V30 24139 C 2417.35 -2.94459 3.10609 0
M  V30 24140 C 2416.68 -4.34533 3.11585 0
M  V30 24141 C 2417.98 -2.65262 4.49926 0
M  V30 24142 H 2419.67 -1.27449 2.70919 0
M  V30 24143 H 2417.22 -0.611677 1.30363 0
M  V30 24144 H 2419.17 -3.63995 2.12334 0
M  V30 24145 H 2417.89 -3.10924 0.999687 0
M  V30 24146 H 2416.55 -2.20316 2.93013 0
M  V30 24147 H 2416.2 -4.55072 2.14285 0
M  V30 24148 H 2415.9 -4.40176 3.89255 0
M  V30 24149 H 2417.43 -5.13047 3.31082 0
M  V30 24150 H 2418.84 -3.31573 4.67689 0
M  V30 24151 H 2417.24 -2.82271 5.29569 0
M  V30 24152 H 2418.31 -1.60663 4.5751 0
M  V30 24153 N 2419.65 -1.43144 -0.659362 0
M  V30 24154 C 2420.61 -1.47504 -1.75429 0
M  V30 24155 C 2421.61 -0.360539 -1.56706 0
M  V30 24156 O 2422.8 -0.622031 -1.62716 0
M  V30 24157 C 2419.93 -1.32168 -3.14236 0
M  V30 24158 H 2421.13 -2.4501 -1.72946 0
M  V30 24159 H 2418.68 -1.29819 -0.870447 0
M  V30 24160 H 2419.42 -0.356457 -3.22335 0
M  V30 24161 H 2419.2 -2.12954 -3.29231 0
M  V30 24162 H 2420.69 -1.38137 -3.94091 0
M  V30 24163 N 2421.13 0.897149 -1.29572 0
M  V30 24164 C 2422.35 1.68654 -1.20708 0
M  V30 24165 C 2422.78 1.86706 0.22855 0
M  V30 24166 O 2422.14 1.38922 1.16492 0
M  V30 24167 C 2422.18 3.04714 -1.92826 0
M  V30 24168 O 2421.29 3.93094 -1.24704 0
M  V30 24169 H 2420.63 0.515809 -0.418135 0
M  V30 24170 H 2423.16 1.12057 -1.71185 0
M  V30 24171 H 2423.17 3.54839 -2.01378 0
M  V30 24172 H 2421.84 2.90894 -2.97244 0
M  V30 24173 H 2420.42 3.51529 -1.24426 0
M  V30 24174 N 2422.61 1.1209 1.10786 0
M  V30 24175 C 2423.83 0.896684 1.8646 0
M  V30 24176 C 2424.25 -0.55388 1.80493 0
M  V30 24177 O 2423.61 -1.38276 1.19105 0
M  V30 24178 C 2423.66 1.35849 3.35004 0
M  V30 24179 O 2423.38 2.75219 3.40861 0
M  V30 24180 C 2424.88 1.17067 4.27563 0
M  V30 24181 H 2422.1 0.320664 0.58942 0
M  V30 24182 H 2424.64 1.48995 1.40074 0
M  V30 24183 H 2422.8 0.808525 3.78869 0
M  V30 24184 H 2423.21 2.95397 4.33406 0
M  V30 24185 H 2424.69 1.54272 5.30004 0
M  V30 24186 H 2425.16 0.110891 4.3906 0
M  V30 24187 H 2425.77 1.70796 3.89498 0
M  V30 24188 N 2424.08 -1.28513 0.912254 0
M  V30 24189 C 2425.02 -2.26406 0.3568 0
M  V30 24190 C 2426.03 -1.54805 -0.503905 0
M  V30 24191 O 2427.22 -1.75626 -0.319028 0
M  V30 24192 C 2424.32 -3.35059 -0.508767 0
M  V30 24193 C 2423.49 -4.3616 0.329083 0
M  V30 24194 C 2422.55 -5.24085 -0.47133 0
M  V30 24195 O 2421.58 -5.69083 0.115582 0
M  V30 24196 N 2422.78 -5.52707 -1.77469 0
M  V30 24197 H 2425.54 -2.74705 1.19822 0
M  V30 24198 H 2423.1 -1.41979 0.778047 0
M  V30 24199 H 2425.1 -3.90816 -1.05093 0
M  V30 24200 H 2423.67 -2.86481 -1.2509 0
M  V30 24201 H 2422.89 -3.79886 1.05262 0
M  V30 24202 H 2424.17 -5.00733 0.902428 0
M  V30 24203 H 2423.57 -5.17979 -2.27408 0
M  V30 24204 H 2422.13 -6.11228 -2.26372 0
M  V30 24205 N 2425.56 -0.676073 -1.42362 0
M  V30 24206 C 2426.51 0.00146847 -2.308 0
M  V30 24207 C 2427.48 0.791418 -1.46034 0
M  V30 24208 O 2428.66 0.763409 -1.74862 0
M  V30 24209 C 2425.8 0.945861 -3.31885 0
M  V30 24210 C 2424.92 0.149599 -4.31741 0
M  V30 24211 C 2424.05 1.08986 -5.199 0
M  V30 24212 C 2423.09 0.285357 -6.11434 0
M  V30 24213 N 2422.23 1.17839 -6.9214 0
M  V30 24214 H 2427.07 -0.758505 -2.88185 0
M  V30 24215 H 2424.61 -0.385785 -1.41951 0
M  V30 24216 H 2426.56 1.50724 -3.89022 0
M  V30 24217 H 2425.19 1.67245 -2.76096 0
M  V30 24218 H 2424.25 -0.528425 -3.76712 0
M  V30 24219 H 2425.56 -0.474954 -4.96534 0
M  V30 24220 H 2424.71 1.72113 -5.81775 0
M  V30 24221 H 2423.45 1.74829 -4.55287 0
M  V30 24222 H 2422.46 -0.359114 -5.48626 0
M  V30 24223 H 2423.68 -0.369002 -6.78097 0
M  V30 24224 H 2421.63 1.82321 -6.30155 0
M  V30 24225 H 2421.54 0.60895 -7.53543 0
M  V30 24226 H 2422.81 1.79709 -7.58502 0
M  V30 24227 N 2427.04 1.51915 -0.419488 0
M  V30 24228 C 2428.29 2.02221 0.15313 0
M  V30 24229 C 2428.62 1.30403 1.43905 0
M  V30 24230 O 2427.89 0.413472 1.90054 0
M  V30 24231 C 2428.18 3.57979 0.390228 0
M  V30 24232 C 2428.03 4.40435 -0.913091 0
M  V30 24233 C 2429.35 4.24322 1.16786 0
M  V30 24234 H 2426.47 0.735006 0.0541795 0
M  V30 24235 H 2429.11 1.81714 -0.554987 0
M  V30 24236 H 2427.26 3.75584 0.993425 0
M  V30 24237 H 2428.93 4.34519 -1.5489 0
M  V30 24238 H 2427.18 4.06233 -1.52175 0
M  V30 24239 H 2427.85 5.47525 -0.701457 0
M  V30 24240 H 2430.32 4.10879 0.657089 0
M  V30 24241 H 2429.2 5.33222 1.30251 0
M  V30 24242 H 2429.46 3.83974 2.19126 0
M  V30 24243 N 2428.52 0.150242 1.56882 0
M  V30 24244 C 2429.47 -0.805274 2.18216 0
M  V30 24245 C 2430.46 -1.25294 1.14008 0
M  V30 24246 O 2431.67 -1.22104 1.32252 0
M  V30 24247 H 2428.04 -0.277901 0.698767 0
M  V30 24248 H 2430.01 -0.26381 2.97232 0
M  V30 24249 C 2428.76 -2.03304 2.82069 0
M  V30 24250 H 2428.08 -1.69756 3.61971 0
M  V30 24251 H 2429.52 -2.68097 3.28481 0
M  V30 24252 C 2427.98 -2.84312 1.80744 0
M  V30 24253 O 2428.51 -3.80764 1.27989 0
M  V30 24254 N 2426.72 -2.4891 1.49974 0
M  V30 24255 H 2426.27 -1.70539 1.93065 0
M  V30 24256 H 2426.22 -3.03403 0.82427 0
M  V30 24257 N 2430 -1.57115 -0.123538 0
M  V30 24258 C 2431.41 -1.52307 -0.476934 0
M  V30 24259 C 2431.61 -0.862512 -1.82107 0
M  V30 24260 O 2430.67 -0.442927 -2.48585 0
M  V30 24261 C 2431.98 -2.97073 -0.465609 0
M  V30 24262 C 2433.53 -3.08139 -0.54948 0
M  V30 24263 C 2434 -4.54457 -0.568589 0
M  V30 24264 N 2435.5 -4.58894 -0.630156 0
M  V30 24265 C 2436.23 -5.69515 -0.666315 0
M  V30 24266 N 2435.73 -6.89645 -0.660393 0
M  V30 24267 N 2437.52 -5.57611 -0.708979 0
M  V30 24268 H 2429.67 -1.98443 0.757233 0
M  V30 24269 H 2431.93 -0.906069 0.278824 0
M  V30 24270 H 2431.64 -3.48754 0.454294 0
M  V30 24271 H 2431.51 -3.54271 -1.29507 0
M  V30 24272 H 2433.9 -2.56464 -1.4598 0
M  V30 24273 H 2433.98 -2.53944 0.307577 0
M  V30 24274 H 2433.63 -5.06776 0.33767 0
M  V30 24275 H 2433.56 -5.06459 -1.44247 0
M  V30 24276 H 2436.05 -3.72423 -0.64108 0
M  V30 24277 H 2436.36 -7.69709 -0.690481 0
M  V30 24278 H 2434.7 -6.92158 -0.62789 0
M  V30 24279 H 2437.9 -4.6267 -0.710937 0
M  V30 24280 H 2438.07 -6.43833 -0.733691 0
M  V30 24281 N 2431.47 0.393589 -1.52606 0
M  V30 24282 C 2432.44 1.4632 -1.76417 0
M  V30 24283 C 2433.44 1.47767 -0.634152 0
M  V30 24284 O 2434.63 1.49019 -0.902169 0
M  V30 24285 C 2431.76 2.85638 -1.86075 0
M  V30 24286 H 2432.95 1.26493 -2.71918 0
M  V30 24287 H 2430.51 0.625048 -1.43258 0
M  V30 24288 H 2431.24 3.10815 -0.925433 0
M  V30 24289 H 2431.03 2.85989 -2.6824 0
M  V30 24290 H 2432.52 3.63149 -2.06186 0
M  V30 24291 N 2432.95 1.43492 0.651762 0
M  V30 24292 C 2434.18 1.48629 1.43934 0
M  V30 24293 C 2434.6 0.10462 1.8851 0
M  V30 24294 O 2433.95 -0.885436 1.59582 0
M  V30 24295 C 2434 2.43339 2.67336 0
M  V30 24296 O 2433.72 3.76132 2.24624 0
M  V30 24297 C 2435.23 2.57732 3.60679 0
M  V30 24298 H 2432.45 0.504747 0.442121 0
M  V30 24299 H 2434.99 1.88249 0.798911 0
M  V30 24300 H 2433.14 2.0691 3.27516 0
M  V30 24301 H 2433.56 4.27076 3.04477 0
M  V30 24302 H 2435.03 3.28074 4.43927 0
M  V30 24303 H 2435.51 1.62272 4.08123 0
M  V30 24304 H 2436.12 2.94978 3.06379 0
M  V30 24305 N 2434.43 -0.890264 1.30046 0
M  V30 24306 C 2435.34 -2.02829 1.17889 0
M  V30 24307 C 2436.36 -1.73712 0.0999915 0
M  V30 24308 O 2437.53 -1.98939 0.313902 0
M  V30 24309 C 2434.6 -3.35707 0.866138 0
M  V30 24310 C 2433.66 -3.7828 2.02985 0
M  V30 24311 C 2432.89 -5.04817 1.73193 0
M  V30 24312 O 2433.11 -5.666 0.657337 0
M  V30 24313 O 2432.05 -5.4367 2.58276 0
M  V30 24314 H 2435.87 -2.16012 2.13478 0
M  V30 24315 H 2433.46 -1.01541 1.09589 0
M  V30 24316 H 2435.34 -4.15432 0.706696 0
M  V30 24317 H 2434.02 -3.23645 -0.0598874 0
M  V30 24318 H 2432.92 -2.99281 2.24459 0
M  V30 24319 H 2434.26 -3.94939 2.93741 0
M  V30 24320 N 2435.91 -1.12676 -1.1019 0
M  V30 24321 C 2437.32 -0.86334 -1.34233 0
M  V30 24322 C 2437.52 0.505243 -1.95063 0
M  V30 24323 O 2436.58 1.25341 -2.19194 0
M  V30 24324 C 2437.89 -1.98176 -2.26156 0
M  V30 24325 C 2439.44 -2.01294 -2.39687 0
M  V30 24326 C 2439.92 -3.12376 -3.3494 0
M  V30 24327 N 2441.41 -3.11835 -3.4251 0
M  V30 24328 C 2442.14 -3.94426 -4.16192 0
M  V30 24329 N 2441.64 -4.87012 -4.92738 0
M  V30 24330 N 2443.43 -3.82554 -4.11836 0
M  V30 24331 H 2435.58 -2.00854 -0.690762 0
M  V30 24332 H 2437.85 -0.874181 -0.366759 0
M  V30 24333 H 2437.55 -2.96808 -1.88675 0
M  V30 24334 H 2437.43 -1.88912 -3.26484 0
M  V30 24335 H 2439.81 -1.0328 -2.76437 0
M  V30 24336 H 2439.89 -2.14632 -1.39165 0
M  V30 24337 H 2439.54 -4.10624 -2.98915 0
M  V30 24338 H 2439.47 -2.96277 -4.35348 0
M  V30 24339 H 2441.96 -2.44764 -2.87922 0
M  V30 24340 H 2442.27 -5.46537 -5.46367 0
M  V30 24341 H 2440.62 -4.91024 -4.91854 0
M  V30 24342 H 2443.81 -3.09556 -3.51131 0
M  V30 24343 H 2443.98 -4.47151 -4.68999 0
M  V30 24344 N 2437.39 1.28028 -0.919057 0
M  V30 24345 C 2438.64 1.94033 -0.550836 0
M  V30 24346 C 2438.95 1.73098 0.910847 0
M  V30 24347 O 2440.15 2.3337 1.38746 0
M  V30 24348 C 2438.61 3.47561 -0.93431 0
M  V30 24349 C 2438.22 3.77266 -2.41608 0
M  V30 24350 C 2439.96 4.19695 -0.636928 0
M  V30 24351 C 2437.87 5.24128 -2.73941 0
M  V30 24352 H 2436.8 0.726358 -0.202286 0
M  V30 24353 H 2439.45 1.45456 -1.1187 0
M  V30 24354 H 2437.83 3.94898 -0.295184 0
M  V30 24355 H 2439.01 3.40718 -3.10239 0
M  V30 24356 H 2437.32 3.18316 -2.68447 0
M  V30 24357 H 2439.92 5.27818 -0.855098 0
M  V30 24358 H 2440.26 4.1412 0.425502 0
M  V30 24359 H 2440.79 3.78151 -1.23476 0
M  V30 24360 H 2437.53 5.34785 -3.79058 0
M  V30 24361 H 2437.05 5.61854 -2.09952 0
M  V30 24362 H 2438.73 5.91921 -2.61225 0
M  V30 24363 N 2438.86 0.683613 1.42002 0
M  V30 24364 C 2440.11 0.20955 2.01413 0
M  V30 24365 C 2440.44 -1.18687 1.5409 0
M  V30 24366 O 2439.69 -1.81267 0.737623 0
M  V30 24367 C 2439.99 0.20242 3.56826 0
M  V30 24368 C 2439.66 1.54472 4.23615 0
M  V30 24369 C 2438.32 1.91222 4.41574 0
M  V30 24370 C 2440.67 2.42834 4.61173 0
M  V30 24371 C 2438 3.15943 4.94365 0
M  V30 24372 C 2440.35 3.66876 5.15349 0
M  V30 24373 C 2439.02 4.03785 5.3152 0
M  V30 24374 H 2438.29 0.0766797 0.737022 0
M  V30 24375 H 2440.93 0.880342 1.70065 0
M  V30 24376 H 2439.24 -0.551901 3.87893 0
M  V30 24377 H 2440.94 -0.181723 4.00588 0
M  V30 24378 H 2437.53 1.24885 4.10002 0
M  V30 24379 H 2441.71 2.15725 4.46964 0
M  V30 24380 H 2436.97 3.44549 5.0507 0
M  V30 24381 H 2441.14 4.35541 5.43394 0
M  V30 24382 H 2438.77 5.00502 5.7219 0
M  V30 24383 N 2440.34 -1.5169 0.427538 0
M  V30 24384 C 2441.29 -2.27501 -0.388827 0
M  V30 24385 C 2442.26 -1.30679 -1.0253 0
M  V30 24386 O 2443.45 -1.59568 -1.04607 0
M  V30 24387 C 2440.59 -3.11301 -1.48949 0
M  V30 24388 C 2439.7 -4.23105 -0.87212 0
M  V30 24389 C 2438.83 -4.94232 -1.94701 0
M  V30 24390 C 2437.87 -5.97971 -1.30755 0
M  V30 24391 N 2437.01 -6.62543 -2.32338 0
M  V30 24392 H 2441.85 -2.96828 0.264049 0
M  V30 24393 H 2439.39 -1.46412 0.142058 0
M  V30 24394 H 2441.34 -3.58205 -2.13881 0
M  V30 24395 H 2439.97 -2.44108 -2.11213 0
M  V30 24396 H 2439.03 -3.80237 -0.111352 0
M  V30 24397 H 2440.34 -4.97461 -0.365177 0
M  V30 24398 H 2439.49 -5.44634 -2.67317 0
M  V30 24399 H 2438.23 -4.19484 -2.48766 0
M  V30 24400 H 2437.24 -5.46871 -0.566806 0
M  V30 24401 H 2438.46 -6.74671 -0.774365 0
M  V30 24402 H 2436.41 -5.90614 -2.85501 0
M  V30 24403 H 2436.32 -7.32633 -1.86507 0
M  V30 24404 H 2437.59 -7.17579 -3.04468 0
M  V30 24405 N 2441.82 -0.15856 -1.568 0
M  V30 24406 C 2442.73 0.789479 -2.20917 0
M  V30 24407 C 2443.75 1.26292 -1.19693 0
M  V30 24408 O 2444.92 1.3177 -1.52311 0
M  V30 24409 C 2441.99 2.0066 -2.82731 0
M  V30 24410 C 2441.05 1.58127 -3.99117 0
M  V30 24411 C 2440.28 2.74037 -4.57973 0
M  V30 24412 O 2440.51 3.90565 -4.15711 0
M  V30 24413 O 2439.44 2.48845 -5.48051 0
M  V30 24414 H 2443.27 0.273628 -3.02465 0
M  V30 24415 H 2440.85 0.0690286 -1.4924 0
M  V30 24416 H 2442.73 2.71866 -3.21973 0
M  V30 24417 H 2441.41 2.51175 -2.04188 0
M  V30 24418 H 2440.31 0.83909 -3.64568 0
M  V30 24419 H 2441.65 1.12316 -4.79214 0
M  V30 24420 N 2443.3 1.57178 0.115204 0
M  V30 24421 C 2444.52 1.89614 0.840321 0
M  V30 24422 C 2444.95 0.750875 1.72463 0
M  V30 24423 O 2444.31 -0.298447 1.78827 0
M  V30 24424 C 2444.36 3.20817 1.64648 0
M  V30 24425 O 2443.46 3.0699 2.75375 0
M  V30 24426 H 2442.8 0.622096 0.232147 0
M  V30 24427 H 2445.33 2.04372 0.0964618 0
M  V30 24428 H 2445.34 3.53631 2.03493 0
M  V30 24429 H 2444.02 4.03765 0.997345 0
M  V30 24430 H 2442.59 2.8565 2.39705 0
M  V30 24431 N 2444.78 -0.38549 1.52813 0
M  V30 24432 C 2445.71 -1.49071 1.74099 0
M  V30 24433 C 2446.72 -1.5047 0.621489 0
M  V30 24434 O 2447.91 -1.54309 0.897272 0
M  V30 24435 C 2445.01 -2.87908 1.78779 0
M  V30 24436 C 2444.18 -3.10434 3.08139 0
M  V30 24437 C 2443.24 -4.29273 3.04321 0
M  V30 24438 O 2442.27 -4.25408 3.78176 0
M  V30 24439 N 2443.47 -5.35646 2.2375 0
M  V30 24440 H 2446.24 -1.31197 2.69458 0
M  V30 24441 H 2443.8 -0.575038 1.51344 0
M  V30 24442 H 2445.79 -3.65515 1.73727 0
M  V30 24443 H 2444.36 -2.99125 0.907921 0
M  V30 24444 H 2443.58 -2.20661 3.26653 0
M  V30 24445 H 2444.87 -3.2234 3.93668 0
M  V30 24446 H 2444.27 -5.41642 1.6322 0
M  V30 24447 H 2442.82 -6.11905 2.24534 0
M  V30 24448 N 2446.26 -1.43835 -0.644143 0
M  V30 24449 C 2447.53 -1.36409 -1.40186 0
M  V30 24450 C 2447.91 -0.0163495 -2.11094 0
M  V30 24451 O 2447.26 1.00059 -2.05428 0
M  V30 24452 C 2447.47 -2.55347 -2.37905 0
M  V30 24453 C 2448.82 -2.98837 -3.01631 0
M  V30 24454 O 2449.84 -2.55459 -2.48232 0
M  V30 24455 O 2448.7 -3.7401 -3.9847 0
M  V30 24456 H 2445.8 -0.539534 -0.626764 0
M  V30 24457 H 2448.34 -1.55901 -0.670289 0
M  V30 24458 H 2447.11 -3.45063 -1.84519 0
M  V30 24459 H 2446.74 -2.38001 -3.18498 0
M  V30 24460 N 2447.73 0.883355 -1.30517 0
M  V30 24461 C 2448.66 2.00538 -1.1961 0
M  V30 24462 C 2449.64 1.69881 -0.0863759 0
M  V30 24463 O 2450.83 1.92332 -0.268687 0
M  V30 24464 C 2447.96 3.35734 -0.888817 0
M  V30 24465 C 2446.91 3.80656 -1.95665 0
M  V30 24466 C 2446.24 5.13161 -1.50233 0
M  V30 24467 C 2447.54 3.99207 -3.36795 0
M  V30 24468 H 2449.23 2.09921 -2.13479 0
M  V30 24469 H 2446.78 1.00861 -1.02776 0
M  V30 24470 H 2448.73 4.13753 -0.799167 0
M  V30 24471 H 2447.46 3.26488 0.0855552 0
M  V30 24472 H 2446.12 3.04867 -2.03597 0
M  V30 24473 H 2445.76 5.00344 -0.51618 0
M  V30 24474 H 2445.46 5.44188 -2.21659 0
M  V30 24475 H 2446.99 5.93703 -1.4265 0
M  V30 24476 H 2448.4 4.6766 -3.31613 0
M  V30 24477 H 2446.8 4.41614 -4.06322 0
M  V30 24478 H 2447.87 3.03011 -3.78566 0
M  V30 24479 N 2449.21 1.13259 1.09591 0
M  V30 24480 C 2450.17 0.811396 2.14357 0
M  V30 24481 C 2451.17 -0.178349 1.59808 0
M  V30 24482 O 2452.36 0.0485217 1.74132 0
M  V30 24483 C 2449.5 0.207336 3.40269 0
M  V30 24484 H 2450.69 1.73973 2.44281 0
M  V30 24485 H 2448.24 0.936995 1.251 0
M  V30 24486 H 2448.98 -0.730305 3.1597 0
M  V30 24487 H 2448.76 0.920059 3.81153 0
M  V30 24488 H 2450.25 -0.00059454 4.176 0
M  V30 24489 N 2450.69 -1.27539 0.925834 0
M  V30 24490 C 2451.94 -1.93738 0.561118 0
M  V30 24491 C 2452.25 -1.73579 -0.901654 0
M  V30 24492 O 2453.46 -2.34103 -1.37507 0
M  V30 24493 C 2451.91 -3.47061 0.952729 0
M  V30 24494 C 2451.52 -3.75979 2.43606 0
M  V30 24495 C 2453.27 -4.19351 0.659176 0
M  V30 24496 C 2451.17 -5.22668 2.76716 0
M  V30 24497 H 2450.1 -0.725275 0.206135 0
M  V30 24498 H 2452.75 -1.44861 1.12639 0
M  V30 24499 H 2451.14 -3.94736 0.316123 0
M  V30 24500 H 2452.31 -3.39068 3.12041 0
M  V30 24501 H 2450.62 -3.16888 2.70131 0
M  V30 24502 H 2453.22 -5.27357 0.883077 0
M  V30 24503 H 2453.56 -4.1434 -0.403535 0
M  V30 24504 H 2454.1 -3.77491 1.2548 0
M  V30 24505 H 2450.84 -5.32767 3.81889 0
M  V30 24506 H 2450.36 -5.60733 2.12929 0
M  V30 24507 H 2452.04 -5.90527 2.64361 0
M  V30 24508 N 2452.17 -0.691135 -1.41637 0
M  V30 24509 C 2453.13 -0.0320188 -2.29178 0
M  V30 24510 C 2454.13 0.71247 -1.44154 0
M  V30 24511 O 2455.32 0.548024 -1.65355 0
M  V30 24512 C 2452.45 0.965104 -3.26953 0
M  V30 24513 H 2453.65 -0.802732 -2.88957 0
M  V30 24514 H 2451.2 -0.454382 -1.4955 0
M  V30 24515 H 2451.93 1.76374 -2.72145 0
M  V30 24516 H 2451.72 0.434454 -3.89686 0
M  V30 24517 H 2453.21 1.42421 -3.92563 0
M  V30 24518 N 2453.65 1.51461 -0.435577 0
M  V30 24519 C 2454.89 2.01261 0.132972 0
M  V30 24520 C 2455.21 1.32442 1.43939 0
M  V30 24521 O 2456.41 1.73201 2.09078 0
M  V30 24522 C 2454.87 3.5875 0.287518 0
M  V30 24523 C 2454.48 4.36504 -1.00836 0
M  V30 24524 C 2456.22 4.16702 0.809931 0
M  V30 24525 C 2454.13 5.85694 -0.819557 0
M  V30 24526 H 2453.06 0.752102 0.053469 0
M  V30 24527 H 2455.71 1.74583 -0.565069 0
M  V30 24528 H 2454.09 3.81867 1.04852 0
M  V30 24529 H 2455.27 4.25135 -1.77756 0
M  V30 24530 H 2453.58 3.89996 -1.45918 0
M  V30 24531 H 2456.18 5.25871 0.96765 0
M  V30 24532 H 2456.52 3.75762 1.7919 0
M  V30 24533 H 2457.05 3.97655 0.107287 0
M  V30 24534 H 2453.79 6.31043 -1.77385 0
M  V30 24535 H 2453.31 5.99732 -0.0901262 0
M  V30 24536 H 2454.99 6.45276 -0.472062 0
M  V30 24537 N 2455.12 0.166873 1.56714 0
M  V30 24538 C 2456.03 -0.777752 2.21333 0
M  V30 24539 C 2457.05 -1.25656 1.20361 0
M  V30 24540 O 2458.23 -1.30961 1.53007 0
M  V30 24541 C 2455.29 -1.99158 2.83791 0
M  V30 24542 C 2454.35 -1.56009 3.9995 0
M  V30 24543 C 2453.59 -2.71605 4.5942 0
M  V30 24544 O 2453.81 -3.88355 4.17776 0
M  V30 24545 O 2452.74 -2.45935 5.49363 0
M  V30 24546 H 2456.57 -0.257583 3.02606 0
M  V30 24547 H 2454.15 -0.061113 1.49275 0
M  V30 24548 H 2456.04 -2.70155 3.2341 0
M  V30 24549 H 2454.71 -2.50089 2.05517 0
M  V30 24550 H 2453.62 -0.819745 3.65008 0
M  V30 24551 H 2454.95 -1.09773 4.79803 0
M  V30 24552 N 2456.6 -1.57237 -0.106866 0
M  V30 24553 C 2458.02 -1.52805 -0.460753 0
M  V30 24554 C 2458.22 -0.881778 -1.81182 0
M  V30 24555 O 2457.27 -0.469268 -2.48101 0
M  V30 24556 C 2458.59 -2.9755 -0.434074 0
M  V30 24557 C 2460.14 -3.08705 -0.516767 0
M  V30 24558 C 2460.61 -4.55034 -0.520356 0
M  V30 24559 N 2462.1 -4.59536 -0.581449 0
M  V30 24560 C 2462.84 -5.7019 -0.605872 0
M  V30 24561 N 2462.33 -6.90307 -0.58721 0
M  V30 24562 N 2464.13 -5.58331 -0.649797 0
M  V30 24563 H 2456.28 -1.97629 0.778238 0
M  V30 24564 H 2458.54 -0.903061 0.288418 0
M  V30 24565 H 2458.25 -3.48252 0.491258 0
M  V30 24566 H 2458.12 -3.55625 -1.25742 0
M  V30 24567 H 2460.51 -2.57998 -1.43252 0
M  V30 24568 H 2460.59 -2.53604 0.334494 0
M  V30 24569 H 2460.23 -5.0639 0.391402 0
M  V30 24570 H 2460.16 -5.0796 -1.38867 0
M  V30 24571 H 2462.65 -3.73082 -0.601544 0
M  V30 24572 H 2462.97 -7.70398 -0.608804 0
M  V30 24573 H 2461.31 -6.92785 -0.554442 0
M  V30 24574 H 2464.5 -4.63398 -0.661825 0
M  V30 24575 H 2464.67 -6.44575 -0.665363 0
M  V30 24576 N 2458.08 0.377381 -1.53015 0
M  V30 24577 C 2459.01 1.46788 -1.81592 0
M  V30 24578 C 2459.99 1.56407 -0.66865 0
M  V30 24579 O 2461.18 1.71167 -0.917367 0
M  V30 24580 C 2458.31 2.84267 -1.99524 0
M  V30 24581 C 2457.26 2.8948 -3.15254 0
M  V30 24582 C 2456.59 4.29521 -3.18459 0
M  V30 24583 C 2457.89 2.58071 -4.54089 0
M  V30 24584 H 2459.58 1.23123 -2.72912 0
M  V30 24585 H 2457.13 0.59086 -1.3132 0
M  V30 24586 H 2459.08 3.60571 -2.18098 0
M  V30 24587 H 2457.8 3.09294 -1.04903 0
M  V30 24588 H 2456.46 2.15626 -2.96481 0
M  V30 24589 H 2456.11 4.51606 -2.21498 0
M  V30 24590 H 2455.81 4.33927 -3.96208 0
M  V30 24591 H 2457.33 5.07715 -3.39202 0
M  V30 24592 H 2458.75 3.2409 -4.72904 0
M  V30 24593 H 2457.15 2.73811 -5.33992 0
M  V30 24594 H 2458.22 1.53364 -4.60008 0
M  V30 24595 N 2459.56 1.44175 0.636506 0
M  V30 24596 C 2460.49 1.46609 1.76178 0
M  V30 24597 C 2461.5 0.360119 1.58767 0
M  V30 24598 O 2462.69 0.625548 1.6718 0
M  V30 24599 C 2459.79 1.2792 3.13831 0
M  V30 24600 C 2458.97 2.51664 3.57749 0
M  V30 24601 C 2458.02 2.27954 4.74261 0
M  V30 24602 O 2457.05 3.01409 4.82847 0
M  V30 24603 N 2458.25 1.30672 5.65602 0
M  V30 24604 H 2461.02 2.43615 1.74562 0
M  V30 24605 H 2458.58 1.39545 0.820899 0
M  V30 24606 H 2460.57 1.09914 3.89488 0
M  V30 24607 H 2459.14 0.392984 3.1012 0
M  V30 24608 H 2458.36 2.84983 2.72357 0
M  V30 24609 H 2459.65 3.33981 3.83842 0
M  V30 24610 H 2459.05 0.699943 5.61353 0
M  V30 24611 H 2457.6 1.18646 6.40911 0
M  V30 24612 N 2461.04 -0.876421 1.30983 0
M  V30 24613 C 2461.97 -1.98589 1.12417 0
M  V30 24614 C 2462.95 -1.62573 0.0294364 0
M  V30 24615 O 2464.13 -1.87594 0.184631 0
M  V30 24616 C 2461.26 -3.31038 0.716334 0
M  V30 24617 C 2460.3 -3.86039 1.81318 0
M  V30 24618 S 2461.14 -4.12284 3.41734 0
M  V30 24619 C 2462.29 -5.4774 3.02872 0
M  V30 24620 H 2462.53 -2.14033 2.06342 0
M  V30 24621 H 2460.06 -1.02583 1.15395 0
M  V30 24622 H 2462.02 -4.07592 0.487769 0
M  V30 24623 H 2460.68 -3.13439 -0.203694 0
M  V30 24624 H 2459.87 -4.81771 1.48029 0
M  V30 24625 H 2459.47 -3.16255 1.99646 0
M  V30 24626 H 2461.77 -6.29144 2.51364 0
M  V30 24627 H 2462.71 -5.85973 3.97544 0
M  V30 24628 H 2463.12 -5.10707 2.40496 0
M  V30 24629 N 2462.51 -1.13839 -1.08989 0
M  V30 24630 C 2463.74 -0.926618 -1.85549 0
M  V30 24631 C 2464.16 0.519534 -1.80783 0
M  V30 24632 O 2463.52 1.36903 -1.18858 0
M  V30 24633 C 2463.57 -1.42468 -3.31263 0
M  V30 24634 O 2462.67 -0.612861 -4.07821 0
M  V30 24635 H 2462.02 -0.331748 -0.575186 0
M  V30 24636 H 2464.55 -1.51416 -1.37602 0
M  V30 24637 H 2464.56 -1.43025 -3.8211 0
M  V30 24638 H 2463.23 -2.4776 -3.34048 0
M  V30 24639 H 2461.81 -0.675528 -3.6673 0
M  V30 24640 N 2463.99 1.27046 -0.932584 0
M  V30 24641 C 2465.24 1.93438 -0.571385 0
M  V30 24642 C 2465.55 1.74054 0.892436 0
M  V30 24643 O 2466.76 2.34829 1.36263 0
M  V30 24644 C 2465.22 3.46551 -0.971121 0
M  V30 24645 C 2464.82 3.74682 -2.45596 0
M  V30 24646 C 2466.57 4.18995 -0.681406 0
M  V30 24647 C 2464.48 5.21193 -2.79484 0
M  V30 24648 H 2463.41 0.724172 -0.209978 0
M  V30 24649 H 2466.06 1.44261 -1.13406 0
M  V30 24650 H 2464.44 3.94563 -0.337052 0
M  V30 24651 H 2465.61 3.37408 -3.13835 0
M  V30 24652 H 2463.93 3.15451 -2.71808 0
M  V30 24653 H 2466.52 5.26882 -0.911032 0
M  V30 24654 H 2466.87 4.14548 0.381555 0
M  V30 24655 H 2467.4 3.76821 -1.2748 0
M  V30 24656 H 2464.14 5.30735 -3.84709 0
M  V30 24657 H 2463.66 5.59596 -2.159 0
M  V30 24658 H 2465.34 5.89117 -2.67489 0
M  V30 24659 N 2465.47 0.698636 1.41269 0
M  V30 24660 C 2466.7 0.240028 2.05503 0
M  V30 24661 C 2467.11 -1.11189 1.52586 0
M  V30 24662 O 2466.47 -1.69544 0.675353 0
M  V30 24663 C 2466.52 0.192493 3.60987 0
M  V30 24664 O 2466.24 1.49101 4.11947 0
M  V30 24665 C 2467.74 -0.286732 4.42372 0
M  V30 24666 H 2464.96 0.111056 0.661746 0
M  V30 24667 H 2467.51 0.952082 1.80985 0
M  V30 24668 H 2465.66 -0.470405 3.84533 0
M  V30 24669 H 2466.08 1.38016 5.06016 0
M  V30 24670 H 2467.55 -0.268864 5.51345 0
M  V30 24671 H 2468.03 -1.32612 4.18701 0
M  V30 24672 H 2468.63 0.345276 4.23896 0
M  V30 24673 N 2466.95 -1.51228 0.443603 0
M  V30 24674 C 2467.86 -2.31653 -0.37068 0
M  V30 24675 C 2468.87 -1.40835 -1.02183 0
M  V30 24676 O 2470.05 -1.73905 -1.01583 0
M  V30 24677 C 2467.12 -3.14751 -1.4537 0
M  V30 24678 C 2466.18 -4.21356 -0.822025 0
M  V30 24679 C 2465.41 -5.00483 -1.85344 0
M  V30 24680 O 2465.63 -4.80322 -3.07648 0
M  V30 24681 O 2464.57 -5.84409 -1.44049 0
M  V30 24682 H 2468.39 -3.0235 0.286055 0
M  V30 24683 H 2465.98 -1.47973 0.206006 0
M  V30 24684 H 2467.86 -3.66394 -2.08166 0
M  V30 24685 H 2466.53 -2.46812 -2.09441 0
M  V30 24686 H 2465.44 -3.73775 -0.155843 0
M  V30 24687 H 2466.77 -4.91687 -0.22471 0
M  V30 24688 N 2468.43 -0.175182 -1.56623 0
M  V30 24689 C 2469.68 0.468887 -1.96174 0
M  V30 24690 C 2469.99 1.64127 -1.06404 0
M  V30 24691 O 2471.19 2.35182 -1.35652 0
M  V30 24692 C 2469.65 0.885572 -3.48835 0
M  V30 24693 C 2469.26 -0.261422 -4.47237 0
M  V30 24694 C 2471 1.49784 -3.97196 0
M  V30 24695 C 2468.91 0.17511 -5.91141 0
M  V30 24696 H 2467.84 0.178945 -0.732458 0
M  V30 24697 H 2470.49 -0.264029 -1.81591 0
M  V30 24698 H 2468.87 1.67458 -3.58851 0
M  V30 24699 H 2470.05 -1.03879 -4.48939 0
M  V30 24700 H 2468.36 -0.783898 -4.08955 0
M  V30 24701 H 2470.96 1.83656 -5.0217 0
M  V30 24702 H 2471.3 2.39716 -3.40355 0
M  V30 24703 H 2471.83 0.773199 -3.90213 0
M  V30 24704 H 2468.57 -0.689529 -6.51863 0
M  V30 24705 H 2468.09 0.917756 -5.92737 0
M  V30 24706 H 2469.77 0.617679 -6.44045 0
M  V30 24707 N 2469.91 1.57292 0.0985263 0
M  V30 24708 C 2470.84 1.97059 1.15079 0
M  V30 24709 C 2471.82 0.84328 1.39024 0
M  V30 24710 O 2473 1.10327 1.5284 0
M  V30 24711 C 2470.13 2.28441 2.50065 0
M  V30 24712 C 2469.17 3.50904 2.42422 0
M  V30 24713 S 2470.01 5.02747 1.84405 0
M  V30 24714 C 2471.16 5.37304 3.21023 0
M  V30 24715 H 2471.4 2.86003 0.811764 0
M  V30 24716 H 2468.93 1.51336 0.306076 0
M  V30 24717 H 2470.89 2.47198 3.27724 0
M  V30 24718 H 2469.55 1.40074 2.81137 0
M  V30 24719 H 2468.74 3.70294 3.41904 0
M  V30 24720 H 2468.34 3.3164 1.7289 0
M  V30 24721 H 2470.63 5.33739 4.17288 0
M  V30 24722 H 2471.58 6.38357 3.06441 0
M  V30 24723 H 2471.99 4.64765 3.20396 0
M  V30 24724 N 2471.38 -0.369261 1.53213 0
M  V30 24725 C 2472.29 -1.47606 1.82345 0
M  V30 24726 C 2473.31 -1.58785 0.71156 0
M  V30 24727 O 2474.49 -1.74749 1.00123 0
M  V30 24728 C 2471.55 -2.82916 2.00398 0
M  V30 24729 C 2470.61 -2.81295 3.24302 0
M  V30 24730 C 2469.84 -4.10151 3.41485 0
M  V30 24731 O 2470.07 -5.06127 2.63042 0
M  V30 24732 O 2469 -4.16187 4.34824 0
M  V30 24733 H 2472.83 -1.25913 2.76368 0
M  V30 24734 H 2470.41 -0.559009 1.38548 0
M  V30 24735 H 2472.29 -3.63097 2.13866 0
M  V30 24736 H 2470.97 -3.04594 1.09564 0
M  V30 24737 H 2469.88 -1.99825 3.1626 0
M  V30 24738 H 2471.21 -2.64571 4.15046 0
M  V30 24739 N 2472.86 -1.4451 -0.628851 0
M  V30 24740 C 2473.81 -1.51552 -1.74071 0
M  V30 24741 C 2474.78 -0.363049 -1.62084 0
M  V30 24742 O 2475.96 -0.573599 -1.81974 0
M  V30 24743 C 2473.1 -1.46789 -3.12325 0
M  V30 24744 C 2472.22 -2.72428 -3.35272 0
M  V30 24745 C 2471.35 -2.59483 -4.63511 0
M  V30 24746 C 2470.39 -3.80274 -4.79644 0
M  V30 24747 N 2469.53 -3.65991 -5.99162 0
M  V30 24748 H 2474.37 -2.46547 -1.67388 0
M  V30 24749 H 2471.9 -1.22359 -0.816505 0
M  V30 24750 H 2473.86 -1.42019 -3.92284 0
M  V30 24751 H 2472.49 -0.5536 -3.18017 0
M  V30 24752 H 2471.54 -2.87376 -2.49237 0
M  V30 24753 H 2472.86 -3.62082 -3.43071 0
M  V30 24754 H 2472.01 -2.52558 -5.51633 0
M  V30 24755 H 2470.75 -1.67392 -4.58073 0
M  V30 24756 H 2469.75 -3.87581 -3.8995 0
M  V30 24757 H 2470.98 -4.73404 -4.86894 0
M  V30 24758 H 2468.93 -2.76654 -5.9481 0
M  V30 24759 H 2468.84 -4.49264 -6.08028 0
M  V30 24760 H 2470.11 -3.62962 -6.8984 0
M  V30 24761 N 2474.34 0.869463 -1.31446 0
M  V30 24762 C 2475.57 1.65532 -1.24125 0
M  V30 24763 C 2475.98 1.87807 0.193354 0
M  V30 24764 O 2475.34 1.43658 1.12555 0
M  V30 24765 C 2475.39 3.023 -1.98234 0
M  V30 24766 O 2475.11 2.8102 -3.36094 0
M  V30 24767 C 2476.61 3.96745 -1.97758 0
M  V30 24768 H 2473.83 0.516048 -0.428878 0
M  V30 24769 H 2476.38 1.08522 -1.7333 0
M  V30 24770 H 2474.53 3.55998 -1.52788 0
M  V30 24771 H 2474.95 3.67895 -3.73836 0
M  V30 24772 H 2476.42 4.90026 -2.54122 0
M  V30 24773 H 2476.9 4.28575 -0.960212 0
M  V30 24774 H 2477.5 3.48984 -2.43085 0
M  V30 24775 N 2475.82 1.14415 1.08383 0
M  V30 24776 C 2477.05 0.936033 1.84516 0
M  V30 24777 C 2477.46 -0.515471 1.81627 0
M  V30 24778 O 2476.82 -1.35719 1.22011 0
M  V30 24779 C 2476.87 1.42924 3.32047 0
M  V30 24780 O 2476.59 2.82387 3.34946 0
M  V30 24781 C 2478.09 1.2611 4.24984 0
M  V30 24782 H 2475.31 0.333095 0.582485 0
M  V30 24783 H 2477.85 1.51933 1.36882 0
M  V30 24784 H 2476.01 0.888707 3.77069 0
M  V30 24785 H 2476.42 3.04524 4.27042 0
M  V30 24786 H 2477.9 1.6548 5.26612 0
M  V30 24787 H 2478.37 0.203997 4.38726 0
M  V30 24788 H 2478.98 1.79019 3.85788 0
M  V30 24789 N 2477.3 -1.26549 0.939309 0
M  V30 24790 C 2478.23 -2.28821 0.465084 0
M  V30 24791 C 2479.21 -1.63168 -0.480663 0
M  V30 24792 O 2480.39 -1.90387 -0.382921 0
M  V30 24793 C 2477.52 -3.46231 -0.27228 0
M  V30 24794 C 2476.48 -4.23959 0.586734 0
M  V30 24795 C 2475.8 -5.33964 -0.280479 0
M  V30 24796 C 2477.1 -4.88168 1.85713 0
M  V30 24797 H 2478.8 -2.68739 1.31984 0
M  V30 24798 H 2476.34 -1.2919 0.636084 0
M  V30 24799 H 2478.29 -4.16887 -0.61506 0
M  V30 24800 H 2477.02 -3.05262 -1.16116 0
M  V30 24801 H 2475.68 -3.55065 0.912383 0
M  V30 24802 H 2475.33 -4.89236 -1.16865 0
M  V30 24803 H 2475.03 -5.8688 0.290863 0
M  V30 24804 H 2476.55 -6.07459 -0.618571 0
M  V30 24805 H 2477.96 -5.51049 1.5817 0
M  V30 24806 H 2476.36 -5.51193 2.37289 0
M  V30 24807 H 2477.43 -4.11215 2.56964 0
M  V30 24808 N 2478.77 -0.706118 -1.40896 0
M  V30 24809 C 2479.72 -0.0362302 -2.32572 0
M  V30 24810 C 2480.72 0.75724 -1.51533 0
M  V30 24811 O 2481.92 0.661674 -1.67397 0
M  V30 24812 H 2478.3 0.00708613 -0.751967 0
M  V30 24813 H 2480.27 -0.826299 -2.86731 0
M  V30 24814 C 2479.02 0.878481 -3.36419 0
M  V30 24815 H 2478.34 0.277331 -3.98837 0
M  V30 24816 H 2479.78 1.31533 -4.03082 0
M  V30 24817 C 2478.24 1.99956 -2.71144 0
M  V30 24818 O 2478.77 3.08945 -2.56741 0
M  V30 24819 N 2476.97 1.78039 -2.29674 0
M  V30 24820 H 2476.52 0.893999 -2.41589 0
M  V30 24821 H 2476.48 2.53231 -1.86336 0
M  V30 24822 N 2480.25 1.50991 -0.451617 0
M  V30 24823 C 2481.18 2.25882 0.388595 0
M  V30 24824 C 2482.2 1.30448 0.974018 0
M  V30 24825 O 2483.39 1.561 0.865731 0
M  V30 24826 C 2480.49 3.01014 1.55705 0
M  V30 24827 C 2479.66 4.23654 1.08794 0
M  V30 24828 C 2478.72 4.81244 2.12817 0
M  V30 24829 O 2477.74 5.42696 1.71669 0
M  V30 24830 N 2478.95 4.66528 3.45445 0
M  V30 24831 H 2481.71 2.98627 -0.253343 0
M  V30 24832 H 2479.27 1.59438 -0.281296 0
M  V30 24833 H 2481.26 3.36424 2.24946 0
M  V30 24834 H 2479.83 2.31189 2.10405 0
M  V30 24835 H 2479.05 3.93574 0.22208 0
M  V30 24836 H 2480.34 5.0321 0.752124 0
M  V30 24837 H 2479.74 4.17612 3.81598 0
M  V30 24838 H 2478.3 5.06261 4.1054 0
M  V30 24839 N 2481.73 0.183486 1.56528 0
M  V30 24840 C 2482.96 -0.46425 2.01624 0
M  V30 24841 C 2483.37 -1.55985 1.06368 0
M  V30 24842 O 2482.73 -1.82379 0.0665718 0
M  V30 24843 C 2482.78 -1.03133 3.46476 0
M  V30 24844 O 2482.5 0.0205445 4.38095 0
M  V30 24845 C 2484 -1.75609 4.07033 0
M  V30 24846 H 2481.22 -0.117692 0.660598 0
M  V30 24847 H 2483.77 0.288786 2.02451 0
M  V30 24848 H 2481.92 -1.7348 3.46386 0
M  V30 24849 H 2482.34 -0.39986 5.22974 0
M  V30 24850 H 2483.81 -2.10533 5.10274 0
M  V30 24851 H 2484.29 -2.65557 3.49823 0
M  V30 24852 H 2484.89 -1.09875 4.10862 0
M  V30 24853 N 2483.21 -1.57342 -0.0901833 0
M  V30 24854 C 2484.14 -2.05444 -1.10972 0
M  V30 24855 C 2485.12 -0.944308 -1.41481 0
M  V30 24856 O 2486.3 -1.21589 -1.51426 0
M  V30 24857 C 2483.43 -2.483 -2.42826 0
M  V30 24858 C 2482.39 -3.63022 -2.26714 0
M  V30 24859 C 2481.71 -3.9187 -3.63789 0
M  V30 24860 C 2483.01 -4.93735 -1.70361 0
M  V30 24861 H 2484.71 -2.90872 -0.709513 0
M  V30 24862 H 2482.25 -1.39932 -0.339849 0
M  V30 24863 H 2484.21 -2.80561 -3.14426 0
M  V30 24864 H 2482.93 -1.59878 -2.84792 0
M  V30 24865 H 2481.59 -3.31015 -1.57559 0
M  V30 24866 H 2481.24 -3.00608 -4.03291 0
M  V30 24867 H 2480.94 -4.69108 -3.53853 0
M  V30 24868 H 2482.46 -4.2661 -4.36848 0
M  V30 24869 H 2483.88 -5.24346 -2.31807 0
M  V30 24870 H 2482.27 -5.7517 -1.71171 0
M  V30 24871 H 2483.34 -4.8034 -0.663458 0
M  V30 24872 N 2484.69 0.36113 -1.53407 0
M  V30 24873 C 2485.96 1.11924 -1.60413 0
M  V30 24874 C 2486.34 2.06992 -0.414421 0
M  V30 24875 O 2485.69 2.20619 0.594937 0
M  V30 24876 C 2485.9 1.85442 -2.95655 0
M  V30 24877 C 2487.25 2.39817 -3.5039 0
M  V30 24878 O 2488.27 1.95563 -2.97714 0
M  V30 24879 O 2487.13 3.20729 -4.42487 0
M  V30 24880 H 2484.23 0.513684 -0.648119 0
M  V30 24881 H 2486.77 0.364036 -1.65749 0
M  V30 24882 H 2485.54 1.16085 -3.73684 0
M  V30 24883 H 2485.17 2.67861 -2.9383 0
M  V30 24884 N 2486.16 1.44842 0.621179 0
M  V30 24885 C 2487.07 1.54983 1.76117 0
M  V30 24886 C 2488.09 0.434957 1.68476 0
M  V30 24887 O 2489.27 0.693726 1.89075 0
M  V30 24888 C 2486.33 1.5007 3.12538 0
M  V30 24889 C 2485.39 2.72488 3.31736 0
M  V30 24890 C 2484.63 2.678 4.61648 0
M  V30 24891 O 2484.85 1.74361 5.43097 0
M  V30 24892 O 2483.78 3.58802 4.83265 0
M  V30 24893 H 2487.61 2.51314 1.70514 0
M  V30 24894 H 2485.19 1.272 0.783621 0
M  V30 24895 H 2487.08 1.49889 3.93842 0
M  V30 24896 H 2485.75 0.568862 3.18662 0
M  V30 24897 H 2484.66 2.78235 2.50072 0
M  V30 24898 H 2485.99 3.64752 3.3048 0
M  V30 24899 N 2487.64 -0.862479 1.31905 0
M  V30 24900 C 2488.92 -1.59906 1.12647 0
M  V30 24901 C 2489.3 -2.0872 -0.316067 0
M  V30 24902 O 2488.65 -1.87121 -1.31142 0
M  V30 24903 C 2488.86 -2.75126 2.14724 0
M  V30 24904 C 2490.21 -3.44903 2.47644 0
M  V30 24905 O 2491.23 -2.85342 2.1321 0
M  V30 24906 O 2490.09 -4.52365 3.0664 0
M  V30 24907 H 2487.18 -0.703863 0.434172 0
M  V30 24908 H 2489.73 -0.907289 1.4341 0
M  V30 24909 H 2488.5 -2.36524 3.11724 0
M  V30 24910 H 2488.12 -3.51985 1.84911 0
M  V30 24911 N 2489.12 -1.14988 -1.07775 0
M  V30 24912 C 2490.37 -0.922088 -1.80288 0
M  V30 24913 C 2490.7 0.551017 -1.86532 0
M  V30 24914 O 2489.95 1.42447 -1.34191 0
M  V30 24915 C 2490.25 -1.47613 -3.25492 0
M  V30 24916 C 2489.92 -2.96898 -3.39355 0
M  V30 24917 C 2488.58 -3.37653 -3.42846 0
M  V30 24918 C 2490.93 -3.9286 -3.42506 0
M  V30 24919 C 2488.26 -4.73021 -3.47086 0
M  V30 24920 C 2490.61 -5.28094 -3.48281 0
M  V30 24921 C 2489.27 -5.68351 -3.50048 0
M  V30 24922 H 2488.54 -0.337416 -0.659721 0
M  V30 24923 H 2491.19 -1.43461 -1.26851 0
M  V30 24924 H 2489.5 -0.884697 -3.81681 0
M  V30 24925 H 2491.19 -1.27574 -3.80165 0
M  V30 24926 H 2487.78 -2.64393 -3.37334 0
M  V30 24927 H 2491.97 -3.6245 -3.39033 0
M  V30 24928 H 2487.22 -5.03562 -3.46749 0
M  V30 24929 H 2491.4 -6.02252 -3.49665 0
M  V30 24930 H 2489.02 -6.73227 -3.53085 0
M  V30 24931 N 2490.6 1.26049 -0.946007 0
M  V30 24932 C 2491.53 2.28572 -0.477212 0
M  V30 24933 C 2492.51 1.6342 0.472003 0
M  V30 24934 O 2493.69 1.90588 0.372819 0
M  V30 24935 C 2490.82 3.46371 0.253914 0
M  V30 24936 C 2489.78 4.23642 -0.60921 0
M  V30 24937 C 2489.1 5.34105 0.252158 0
M  V30 24938 C 2490.4 4.87176 -1.88299 0
M  V30 24939 H 2492.1 2.68035 -1.33407 0
M  V30 24940 H 2489.64 1.28851 -0.642926 0
M  V30 24941 H 2491.6 4.17208 0.592942 0
M  V30 24942 H 2490.32 3.05873 1.14495 0
M  V30 24943 H 2488.98 3.54576 -0.9312 0
M  V30 24944 H 2488.63 4.89848 1.14269 0
M  V30 24945 H 2488.33 5.86717 -0.321983 0
M  V30 24946 H 2489.85 6.07778 0.586347 0
M  V30 24947 H 2491.27 5.50202 -1.61091 0
M  V30 24948 H 2489.66 5.49927 -2.40209 0
M  V30 24949 H 2490.73 4.09846 -2.59141 0
M  V30 24950 N 2492.08 0.71358 1.4052 0
M  V30 24951 C 2493.01 0.0744274 2.33381 0
M  V30 24952 C 2493.99 -0.747709 1.52785 0
M  V30 24953 O 2495.17 -0.69704 1.81259 0
M  V30 24954 C 2492.3 -0.849539 3.36749 0
M  V30 24955 C 2491.26 -0.133172 4.27793 0
M  V30 24956 C 2490.58 -1.17272 5.21681 0
M  V30 24957 C 2491.88 1.01143 5.12413 0
M  V30 24958 H 2493.58 0.850057 2.87079 0
M  V30 24959 H 2491.12 0.410226 1.38033 0
M  V30 24960 H 2493.08 -1.30605 4.0065 0
M  V30 24961 H 2491.8 -1.65704 2.81442 0
M  V30 24962 H 2490.46 0.303491 3.65342 0
M  V30 24963 H 2490.11 -1.97322 4.6268 0
M  V30 24964 H 2489.81 -0.698294 5.83436 0
M  V30 24965 H 2491.33 -1.62937 5.88459 0
M  V30 24966 H 2492.74 0.634374 5.69779 0
M  V30 24967 H 2491.14 1.41409 5.83201 0
M  V30 24968 H 2492.21 1.843 4.48511 0
M  V30 24969 N 2493.55 -1.50749 0.459618 0
M  V30 24970 C 2494.97 -1.867 0.00174828 0
M  V30 24971 C 2495.32 -1.37527 -1.39931 0
M  V30 24972 O 2494.44 -0.735385 -2.03522 0
M  V30 24973 C 2495.04 -3.388 -0.00360343 0
M  V30 24974 C 2493.6 -3.74204 -0.40596 0
M  V30 24975 C 2492.74 -2.74589 0.386778 0
M  V30 24976 H 2495.69 -1.43656 0.674438 0
M  V30 24977 H 2495.71 -3.71815 -0.808306 0
M  V30 24978 H 2495.23 -3.74559 1.01623 0
M  V30 24979 H 2493.33 -3.44043 -1.43057 0
M  V30 24980 H 2493.44 -4.78961 -0.115278 0
M  V30 24981 H 2491.8 -2.5421 -0.157974 0
M  V30 24982 H 2492.59 -3.13192 1.40591 0
M  V30 24983 N 2495.03 -0.191784 -1.56429 0
M  V30 24984 C 2495.98 0.747135 -2.20274 0
M  V30 24985 C 2496.97 1.22227 -1.1729 0
M  V30 24986 O 2498.18 1.18555 -1.35443 0
M  V30 24987 H 2494.56 0.259277 -0.705889 0
M  V30 24988 H 2496.53 0.184911 -2.97827 0
M  V30 24989 C 2495.28 1.95754 -2.8736 0
M  V30 24990 H 2494.6 1.601 -3.66344 0
M  V30 24991 H 2496.04 2.59294 -3.35474 0
M  V30 24992 C 2494.5 2.7942 -1.88218 0
M  V30 24993 O 2495.03 3.77237 -1.3804 0
M  V30 24994 N 2493.23 2.44846 -1.56521 0
M  V30 24995 H 2492.78 1.6536 -1.97519 0
M  V30 24996 H 2492.74 3.01111 -0.904422 0
M  V30 24997 N 2496.51 1.57387 0.0818378 0
M  V30 24998 C 2497.74 1.91354 0.799912 0
M  V30 24999 C 2498.16 0.787288 1.70831 0
M  V30 25000 O 2497.52 -0.260448 1.7942 0
M  V30 25001 C 2497.57 3.24237 1.57806 0
M  V30 25002 O 2496.67 3.12762 2.68801 0
M  V30 25003 H 2496.01 0.626881 0.218899 0
M  V30 25004 H 2498.54 2.04531 0.0530896 0
M  V30 25005 H 2498.55 3.57868 1.95946 0
M  V30 25006 H 2497.23 4.05789 0.911476 0
M  V30 25007 H 2495.8 2.9067 2.33592 0
M  V30 25008 N 2497.99 -0.35299 1.53596 0
M  V30 25009 C 2499.22 -1.11457 1.74313 0
M  V30 25010 C 2499.63 -1.82652 0.477887 0
M  V30 25011 O 2498.99 -1.74017 -0.549947 0
M  V30 25012 C 2499.04 -2.13529 2.91698 0
M  V30 25013 O 2498.76 -1.45231 4.13328 0
M  V30 25014 C 2500.26 -3.02136 3.2439 0
M  V30 25015 H 2497.48 -0.332763 0.582675 0
M  V30 25016 H 2500.03 -0.408072 2.00387 0
M  V30 25017 H 2498.18 -2.79758 2.67982 0
M  V30 25018 H 2498.59 -2.13341 4.79151 0
M  V30 25019 H 2500.07 -3.69711 4.099 0
M  V30 25020 H 2500.55 -3.67639 2.40288 0
M  V30 25021 H 2501.15 -2.41508 3.50077 0
M  V30 25022 N 2499.47 -1.45169 -0.613489 0
M  V30 25023 C 2500.4 -1.56228 -1.73537 0
M  V30 25024 C 2501.38 -0.414169 -1.64981 0
M  V30 25025 O 2502.56 -0.636558 -1.83471 0
M  V30 25026 C 2499.69 -1.523 -3.12125 0
M  V30 25027 C 2498.65 -2.65768 -3.35487 0
M  V30 25028 C 2497.97 -2.46893 -4.74287 0
M  V30 25029 C 2499.27 -4.07816 -3.26318 0
M  V30 25030 H 2500.97 -2.50135 -1.64538 0
M  V30 25031 H 2498.51 -1.20384 -0.790164 0
M  V30 25032 H 2500.47 -1.58635 -3.90401 0
M  V30 25033 H 2499.19 -0.549195 -3.21949 0
M  V30 25034 H 2497.85 -2.58852 -2.59598 0
M  V30 25035 H 2497.5 -1.47665 -4.80837 0
M  V30 25036 H 2497.2 -3.22981 -4.90874 0
M  V30 25037 H 2498.72 -2.55073 -5.5477 0
M  V30 25038 H 2500.14 -4.16007 -3.94476 0
M  V30 25039 H 2498.53 -4.84247 -3.54437 0
M  V30 25040 H 2499.6 -4.3014 -2.23847 0
M  V30 25041 N 2500.95 0.855472 -1.32361 0
M  V30 25042 C 2501.88 1.97055 -1.17056 0
M  V30 25043 C 2502.89 1.62456 -0.105769 0
M  V30 25044 O 2504.08 1.74941 -0.35465 0
M  V30 25045 C 2501.18 3.30052 -0.769363 0
M  V30 25046 C 2500.35 3.92897 -1.92226 0
M  V30 25047 C 2499.41 5.04226 -1.50475 0
M  V30 25048 O 2498.44 5.24265 -2.21664 0
M  V30 25049 N 2499.64 5.79118 -0.40031 0
M  V30 25050 H 2502.4 2.10726 -2.13107 0
M  V30 25051 H 2499.97 1.03028 -1.24887 0
M  V30 25052 H 2501.96 4.01933 -0.472477 0
M  V30 25053 H 2500.53 3.1244 0.09997 0
M  V30 25054 H 2499.75 3.13813 -2.38569 0
M  V30 25055 H 2501.04 4.31619 -2.69411 0
M  V30 25056 H 2500.43 5.65373 0.19222 0
M  V30 25057 H 2498.99 6.51596 -0.163027 0
M  V30 25058 N 2502.42 1.15558 1.07164 0
M  V30 25059 C 2503.37 0.849938 2.16515 0
M  V30 25060 C 2504.37 -0.177424 1.68468 0
M  V30 25061 O 2505.57 -0.032271 1.79971 0
M  V30 25062 H 2501.95 0.257203 0.706648 0
M  V30 25063 H 2503.92 1.77981 2.39511 0
M  V30 25064 C 2502.67 0.357743 3.45855 0
M  V30 25065 H 2501.99 1.13968 3.83212 0
M  V30 25066 H 2503.43 0.182563 4.23607 0
M  V30 25067 C 2501.89 -0.921096 3.24064 0
M  V30 25068 O 2502.42 -1.99223 3.48816 0
M  V30 25069 N 2500.62 -0.861361 2.77541 0
M  V30 25070 H 2500.17 0.0104861 2.57598 0
M  V30 25071 H 2500.13 -1.71754 2.6334 0
M  V30 25072 N 2503.9 -1.25546 0.952678 0
M  V30 25073 C 2504.83 -2.24384 0.415564 0
M  V30 25074 C 2505.81 -1.54656 -0.502019 0
M  V30 25075 O 2507 -1.83368 -0.436843 0
M  V30 25076 C 2504.12 -3.3631 -0.401675 0
M  V30 25077 C 2503.17 -4.24055 0.456023 0
M  V30 25078 S 2504 -5.01149 1.88707 0
M  V30 25079 C 2505.16 -6.16543 1.0782 0
M  V30 25080 H 2505.39 -2.69597 1.2532 0
M  V30 25081 H 2502.92 -1.34591 0.75661 0
M  V30 25082 H 2504.88 -4.01234 -0.867259 0
M  V30 25083 H 2503.54 -2.89686 -1.21411 0
M  V30 25084 H 2502.74 -5.03711 -0.170687 0
M  V30 25085 H 2502.34 -3.64055 0.856739 0
M  V30 25086 H 2504.63 -6.76716 0.325935 0
M  V30 25087 H 2505.57 -6.83544 1.84861 0
M  V30 25088 H 2505.98 -5.61203 0.609188 0
M  V30 25089 N 2505.38 -0.721022 -1.40139 0
M  V30 25090 C 2506.31 -0.0325072 -2.29177 0
M  V30 25091 C 2507.32 0.7181 -1.46107 0
M  V30 25092 O 2508.51 0.564578 -1.69336 0
M  V30 25093 C 2505.61 0.978235 -3.24475 0
M  V30 25094 C 2504.79 0.292039 -4.36424 0
M  V30 25095 C 2503.85 1.20892 -5.12124 0
M  V30 25096 O 2502.87 0.691667 -5.64982 0
M  V30 25097 N 2504.07 2.53969 -5.21996 0
M  V30 25098 H 2506.84 -0.797035 -2.88907 0
M  V30 25099 H 2504.4 -0.569094 -1.51568 0
M  V30 25100 H 2506.39 1.59391 -3.7199 0
M  V30 25101 H 2504.96 1.64408 -2.65874 0
M  V30 25102 H 2504.18 -0.503916 -3.90966 0
M  V30 25103 H 2505.47 -0.184061 -5.08467 0
M  V30 25104 H 2504.87 2.98484 -4.80545 0
M  V30 25105 H 2503.42 3.10667 -5.73 0
M  V30 25106 N 2506.86 1.50503 -0.467606 0
M  V30 25107 C 2507.79 2.26281 0.364615 0
M  V30 25108 C 2508.8 1.31474 0.960128 0
M  V30 25109 O 2509.99 1.5701 0.849126 0
M  V30 25110 C 2507.09 3.02648 1.52503 0
M  V30 25111 C 2506.26 4.24784 1.04294 0
M  V30 25112 C 2505.32 4.83474 2.077 0
M  V30 25113 O 2504.35 5.44486 1.65903 0
M  V30 25114 N 2505.55 4.70165 3.40477 0
M  V30 25115 H 2508.32 2.98342 -0.285002 0
M  V30 25116 H 2505.88 1.5913 -0.298191 0
M  V30 25117 H 2507.87 3.38791 2.21365 0
M  V30 25118 H 2506.44 2.33408 2.07941 0
M  V30 25119 H 2505.66 3.93787 0.180324 0
M  V30 25120 H 2506.95 5.0398 0.69871 0
M  V30 25121 H 2506.35 4.21636 3.77147 0
M  V30 25122 H 2504.9 5.10587 4.05147 0
M  V30 25123 N 2508.34 0.200077 1.56325 0
M  V30 25124 C 2509.28 -0.735443 2.20667 0
M  V30 25125 C 2510.28 -1.21603 1.17937 0
M  V30 25126 O 2511.48 -1.17835 1.3607 0
M  V30 25127 H 2507.86 -0.255529 0.707254 0
M  V30 25128 H 2509.83 -0.169114 2.9792 0
M  V30 25129 C 2508.58 -1.94227 2.88394 0
M  V30 25130 H 2507.9 -1.58155 3.67188 0
M  V30 25131 H 2509.34 -2.57511 3.36844 0
M  V30 25132 C 2507.8 -2.78418 1.89697 0
M  V30 25133 O 2508.33 -3.765 1.40038 0
M  V30 25134 N 2506.54 -2.44013 1.57817 0
M  V30 25135 H 2506.08 -1.6431 1.98393 0
M  V30 25136 H 2506.04 -3.00627 0.920378 0
M  V30 25137 N 2509.81 -1.57429 -0.0734901 0
M  V30 25138 C 2511.06 -1.86797 -0.77144 0
M  V30 25139 C 2511.38 -0.791835 -1.78199 0
M  V30 25140 O 2510.65 0.179684 -1.95074 0
M  V30 25141 H 2509.23 -0.689292 -0.287898 0
M  V30 25142 H 2511.89 -1.94836 -0.0499818 0
M  V30 25143 H 2510.99 -2.84252 -1.28869 0
M  V30 25144 N 2511.29 0.344839 -1.53781 0
M  V30 25145 C 2512.52 1.10531 -1.74901 0
M  V30 25146 C 2512.93 1.82396 -0.487566 0
M  V30 25147 O 2512.29 1.74306 0.54071 0
M  V30 25148 C 2512.34 2.11979 -2.92826 0
M  V30 25149 O 2512.06 1.43037 -4.14092 0
M  V30 25150 C 2513.56 3.00412 -3.25987 0
M  V30 25151 H 2510.78 0.329668 -0.584431 0
M  V30 25152 H 2513.33 0.397439 -2.00601 0
M  V30 25153 H 2511.48 2.78333 -2.69462 0
M  V30 25154 H 2511.9 2.10797 -4.80276 0
M  V30 25155 H 2513.37 3.67532 -4.11854 0
M  V30 25156 H 2513.85 3.66359 -2.42235 0
M  V30 25157 H 2514.45 2.39648 -3.51353 0
M  V30 25158 N 2512.77 1.45492 0.605781 0
M  V30 25159 C 2513.99 1.53363 1.39623 0
M  V30 25160 C 2514.42 0.167678 1.87351 0
M  V30 25161 O 2513.78 -0.848023 1.60244 0
M  V30 25162 C 2513.83 2.52385 2.57554 0
M  V30 25163 O 2512.93 2.04291 3.58244 0
M  V30 25164 H 2512.27 0.516919 0.416762 0
M  V30 25165 H 2514.8 1.90862 0.73707 0
M  V30 25166 H 2514.81 2.71249 3.04775 0
M  V30 25167 H 2513.49 3.5159 2.22165 0
M  V30 25168 H 2512.06 1.95311 3.1766 0
M  V30 25169 N 2514.25 -0.848441 1.32813 0
M  V30 25170 C 2515.18 -1.97297 1.24885 0
M  V30 25171 C 2516.16 -1.69592 0.131386 0
M  V30 25172 O 2517.34 -1.91552 0.319586 0
M  V30 25173 C 2514.47 -3.33259 0.977518 0
M  V30 25174 C 2513.43 -3.75335 2.05689 0
M  V30 25175 C 2512.75 -5.08997 1.63786 0
M  V30 25176 C 2514.05 -3.90137 3.47261 0
M  V30 25177 H 2515.75 -2.04187 2.1897 0
M  V30 25178 H 2513.29 -0.98101 1.05414 0
M  V30 25179 H 2515.25 -4.11488 0.908585 0
M  V30 25180 H 2513.97 -3.266 0.00103742 0
M  V30 25181 H 2512.63 -2.99362 2.11608 0
M  V30 25182 H 2512.28 -4.988 0.648656 0
M  V30 25183 H 2511.98 -5.3812 2.36009 0
M  V30 25184 H 2513.5 -5.89712 1.58341 0
M  V30 25185 H 2514.92 -4.58703 3.43896 0
M  V30 25186 H 2513.31 -4.30685 4.17888 0
M  V30 25187 H 2514.38 -2.92867 3.86467 0
M  V30 25188 N 2515.73 -1.16125 -1.06549 0
M  V30 25189 C 2516.66 -0.888548 -2.15933 0
M  V30 25190 C 2517.64 0.164105 -1.69307 0
M  V30 25191 O 2518.82 0.0167515 -1.94193 0
M  V30 25192 C 2515.95 -0.386003 -3.45148 0
M  V30 25193 C 2514.91 -1.37627 -4.05269 0
M  V30 25194 C 2514.23 -0.73223 -5.29663 0
M  V30 25195 C 2515.53 -2.745 -4.4435 0
M  V30 25196 H 2517.23 -1.80327 -2.39003 0
M  V30 25197 H 2514.77 -0.868455 -1.14865 0
M  V30 25198 H 2516.73 -0.182721 -4.21004 0
M  V30 25199 H 2515.45 0.564218 -3.2169 0
M  V30 25200 H 2514.11 -1.56605 -3.31467 0
M  V30 25201 H 2513.76 0.224394 -5.02499 0
M  V30 25202 H 2513.46 -1.39317 -5.70846 0
M  V30 25203 H 2514.98 -0.538909 -6.08217 0
M  V30 25204 H 2516.39 -2.5932 -5.11299 0
M  V30 25205 H 2514.79 -3.37044 -4.96509 0
M  V30 25206 H 2515.86 -3.29949 -3.55333 0
M  V30 25207 N 2517.2 1.25039 -0.959323 0
M  V30 25208 C 2518.11 2.29425 -0.490034 0
M  V30 25209 C 2519.13 1.68216 0.444915 0
M  V30 25210 O 2520.31 1.98841 0.320011 0
M  V30 25211 C 2517.37 3.46 0.220248 0
M  V30 25212 C 2516.43 4.22636 -0.753492 0
M  V30 25213 C 2515.67 5.33644 -0.0770118 0
M  V30 25214 O 2515.89 5.58965 1.13639 0
M  V30 25215 O 2514.82 5.9702 -0.764929 0
M  V30 25216 H 2518.65 2.71667 -1.3576 0
M  V30 25217 H 2516.23 1.30575 -0.725984 0
M  V30 25218 H 2518.12 4.1682 0.619604 0
M  V30 25219 H 2516.79 3.05751 1.06291 0
M  V30 25220 H 2515.7 3.54225 -1.20315 0
M  V30 25221 H 2517.03 4.6668 -1.56431 0
M  V30 25222 N 2518.68 0.728444 1.39755 0
M  V30 25223 C 2519.93 0.270443 1.99879 0
M  V30 25224 C 2520.24 -1.14685 1.58451 0
M  V30 25225 O 2521.45 -1.70403 2.11365 0
M  V30 25226 C 2519.91 0.432583 3.57291 0
M  V30 25227 C 2519.51 1.85734 4.07685 0
M  V30 25228 C 2521.26 0.0360253 4.24485 0
M  V30 25229 C 2519.17 1.96938 5.57646 0
M  V30 25230 H 2518.1 0.0973603 0.747688 0
M  V30 25231 H 2520.75 0.901384 1.59835 0
M  V30 25232 H 2519.13 -0.26715 3.95098 0
M  V30 25233 H 2520.3 2.58849 3.81226 0
M  V30 25234 H 2518.62 2.20652 3.53131 0
M  V30 25235 H 2521.21 0.0988423 5.34609 0
M  V30 25236 H 2521.56 -1.0078 4.03917 0
M  V30 25237 H 2522.09 0.686673 3.91829 0
M  V30 25238 H 2518.83 2.99486 5.83085 0
M  V30 25239 H 2518.35 1.28251 5.85928 0
M  V30 25240 H 2520.03 1.74748 6.22954 0
M  V30 25241 N 2520.16 -1.50253 0.475581 0
M  V30 25242 C 2521.09 -2.25305 -0.362341 0
M  V30 25243 C 2522.07 -1.28805 -0.992371 0
M  V30 25244 O 2523.26 -1.58038 -1.02743 0
M  V30 25245 C 2520.38 -3.03274 -1.50807 0
M  V30 25246 C 2519.43 -4.14732 -0.994971 0
M  V30 25247 S 2520.26 -5.35418 0.0939377 0
M  V30 25248 C 2521.42 -6.16935 -1.05556 0
M  V30 25249 H 2521.65 -2.96028 0.274738 0
M  V30 25250 H 2519.18 -1.52186 0.260522 0
M  V30 25251 H 2521.14 -3.48785 -2.1647 0
M  V30 25252 H 2519.8 -2.32068 -2.11668 0
M  V30 25253 H 2519 -4.68706 -1.85284 0
M  V30 25254 H 2518.6 -3.71679 -0.415987 0
M  V30 25255 H 2520.89 -6.4834 -1.96624 0
M  V30 25256 H 2521.83 -7.05922 -0.554985 0
M  V30 25257 H 2522.24 -5.49056 -1.31142 0
M  V30 25258 N 2521.64 -0.208365 -1.56217 0
M  V30 25259 C 2522.57 0.739238 -2.16951 0
M  V30 25260 C 2523.58 1.16718 -1.13494 0
M  V30 25261 O 2524.77 1.10061 -1.40531 0
M  V30 25262 C 2521.87 2.01137 -2.72758 0
M  V30 25263 C 2521.05 1.74111 -4.01253 0
M  V30 25264 C 2520.1 2.85901 -4.41754 0
M  V30 25265 O 2519.13 2.54937 -5.08916 0
M  V30 25266 N 2520.33 4.14561 -4.06349 0
M  V30 25267 H 2523.1 0.219784 -2.98893 0
M  V30 25268 H 2520.66 -0.026873 -1.61878 0
M  V30 25269 H 2522.65 2.75089 -2.96831 0
M  V30 25270 H 2521.22 2.44167 -1.95195 0
M  V30 25271 H 2520.44 0.838707 -3.85174 0
M  V30 25272 H 2521.73 1.53469 -4.85103 0
M  V30 25273 H 2521.13 4.42565 -3.52353 0
M  V30 25274 H 2519.68 4.85098 -4.35343 0
M  V30 25275 N 2523.12 1.57465 0.0651402 0
M  V30 25276 C 2524.37 1.86757 0.761883 0
M  V30 25277 C 2524.68 0.801956 1.78404 0
M  V30 25278 O 2525.88 0.98293 2.53082 0
M  V30 25279 C 2524.34 3.31301 1.40597 0
M  V30 25280 C 2523.95 4.46008 0.422036 0
M  V30 25281 C 2525.69 3.69785 2.08469 0
M  V30 25282 C 2523.6 5.81595 1.07242 0
M  V30 25283 H 2522.53 0.696707 0.288296 0
M  V30 25284 H 2525.18 1.83494 0.0153118 0
M  V30 25285 H 2523.56 3.29197 2.20103 0
M  V30 25286 H 2524.74 4.59516 -0.343694 0
M  V30 25287 H 2523.05 4.1612 -0.1526 0
M  V30 25288 H 2525.65 4.68383 2.57917 0
M  V30 25289 H 2525.99 2.99924 2.88707 0
M  V30 25290 H 2526.52 3.73908 1.35786 0
M  V30 25291 H 2523.26 6.54765 0.310227 0
M  V30 25292 H 2522.78 5.71875 1.80885 0
M  V30 25293 H 2524.46 6.2715 1.59032 0
M  V30 25294 N 2524.59 -0.336679 1.53962 0
M  V30 25295 C 2526.01 -0.680215 1.44379 0
M  V30 25296 C 2526.21 -1.92169 0.606068 0
M  V30 25297 O 2525.27 -2.52303 0.0997324 0
M  V30 25298 C 2526.58 -0.866449 2.87946 0
M  V30 25299 C 2528.13 -0.964629 2.97765 0
M  V30 25300 C 2528.6 -1.18313 4.42455 0
M  V30 25301 N 2530.09 -1.25017 4.4601 0
M  V30 25302 C 2530.83 -1.43687 5.55105 0
M  V30 25303 N 2530.32 -1.59486 6.74193 0
M  V30 25304 N 2532.12 -1.4629 5.4273 0
M  V30 25305 H 2524.27 0.479491 2.06917 0
M  V30 25306 H 2526.53 0.152636 0.935632 0
M  V30 25307 H 2526.24 -0.0256319 3.51691 0
M  V30 25308 H 2526.11 -1.76617 3.33296 0
M  V30 25309 H 2528.5 -1.79596 2.34156 0
M  V30 25310 H 2528.58 -0.041663 2.55766 0
M  V30 25311 H 2528.22 -0.356699 5.06646 0
M  V30 25312 H 2528.15 -2.11977 4.82051 0
M  V30 25313 H 2530.64 -1.14305 3.60198 0
M  V30 25314 H 2530.96 -1.73387 7.53098 0
M  V30 25315 H 2529.3 -1.56609 6.77125 0
M  V30 25316 H 2532.49 -1.33535 4.48649 0
M  V30 25317 H 2532.67 -1.60499 6.27809 0
M  V30 25318 N 2526.07 -1.45812 -0.598057 0
M  V30 25319 C 2527.35 -1.408 -1.35775 0
M  V30 25320 C 2527.73 -0.083499 -2.10935 0
M  V30 25321 O 2527.08 0.934727 -2.08507 0
M  V30 25322 C 2527.29 -2.62787 -2.29661 0
M  V30 25323 C 2528.64 -3.08282 -2.91971 0
M  V30 25324 O 2529.66 -2.63227 -2.39979 0
M  V30 25325 O 2528.52 -3.86498 -3.8637 0
M  V30 25326 H 2525.61 -0.5592 -0.609281 0
M  V30 25327 H 2528.16 -1.57955 -0.620351 0
M  V30 25328 H 2526.93 -3.50759 -1.73447 0
M  V30 25329 H 2526.55 -2.48013 -3.10765 0
M  V30 25330 N 2527.55 0.841385 -1.33261 0
M  V30 25331 C 2528.8 1.59647 -1.24575 0
M  V30 25332 C 2529.13 1.93579 0.189103 0
M  V30 25333 O 2528.38 1.58662 1.14564 0
M  V30 25334 C 2528.68 2.91787 -2.06386 0
M  V30 25335 C 2528.35 2.77229 -3.55605 0
M  V30 25336 C 2527.01 2.72966 -3.96287 0
M  V30 25337 C 2529.36 2.62213 -4.50437 0
M  V30 25338 C 2526.69 2.51583 -5.30022 0
M  V30 25339 C 2529.04 2.42364 -5.84331 0
M  V30 25340 C 2527.7 2.36502 -6.24198 0
M  V30 25341 H 2526.97 0.584192 -0.455852 0
M  V30 25342 H 2529.62 0.974987 -1.64822 0
M  V30 25343 H 2527.93 3.58127 -1.58909 0
M  V30 25344 H 2529.62 3.49259 -1.97025 0
M  V30 25345 H 2526.21 2.81378 -3.23302 0
M  V30 25346 H 2530.4 2.64542 -4.19918 0
M  V30 25347 H 2525.65 2.45489 -5.59951 0
M  V30 25348 H 2529.83 2.29728 -6.57418 0
M  V30 25349 H 2527.45 2.19693 -7.27763 0
M  V30 25350 N 2529.03 1.16688 1.05932 0
M  V30 25351 C 2530.26 0.974961 1.82489 0
M  V30 25352 C 2530.67 -0.476829 1.82679 0
M  V30 25353 O 2530.03 -1.331 1.24862 0
M  V30 25354 C 2530.08 1.49935 3.2894 0
M  V30 25355 O 2529.8 2.89428 3.28881 0
M  V30 25356 C 2531.3 1.35096 4.22213 0
M  V30 25357 H 2528.52 0.345375 0.575289 0
M  V30 25358 H 2531.07 1.54802 1.33628 0
M  V30 25359 H 2529.22 0.968489 3.75099 0
M  V30 25360 H 2529.64 3.13514 4.20487 0
M  V30 25361 H 2531.11 1.76613 5.22984 0
M  V30 25362 H 2531.59 0.297012 4.38195 0
M  V30 25363 H 2532.19 1.87162 3.81904 0
M  V30 25364 N 2530.51 -1.24529 0.96594 0
M  V30 25365 C 2531.44 -2.24689 0.452505 0
M  V30 25366 C 2532.45 -1.56803 -0.437794 0
M  V30 25367 O 2533.64 -1.76821 -0.244252 0
M  V30 25368 C 2530.74 -3.36916 -0.366199 0
M  V30 25369 C 2529.91 -4.34372 0.513778 0
M  V30 25370 C 2528.97 -5.25612 -0.248623 0
M  V30 25371 O 2528 -5.6808 0.356845 0
M  V30 25372 N 2529.2 -5.59737 -1.53867 0
M  V30 25373 H 2531.97 -2.69375 1.31366 0
M  V30 25374 H 2529.53 -1.38551 0.837565 0
M  V30 25375 H 2531.52 -3.94922 -0.884228 0
M  V30 25376 H 2530.09 -2.91528 -1.12827 0
M  V30 25377 H 2529.31 -3.7508 1.2128 0
M  V30 25378 H 2530.6 -4.96455 1.11399 0
M  V30 25379 H 2530 -5.27158 -2.05234 0
M  V30 25380 H 2528.55 -6.20279 -2.00244 0
M  V30 25381 N 2531.99 -0.735845 -1.39367 0
M  V30 25382 C 2532.92 -0.111547 -2.33233 0
M  V30 25383 C 2533.9 0.723307 -1.53955 0
M  V30 25384 O 2535.08 0.668115 -1.82345 0
M  V30 25385 C 2532.21 0.795857 -3.38058 0
M  V30 25386 C 2531.17 0.0650968 -4.2795 0
M  V30 25387 C 2530.49 1.08957 -5.23481 0
M  V30 25388 C 2531.79 -1.09282 -5.10739 0
M  V30 25389 H 2533.49 -0.895621 -2.8569 0
M  V30 25390 H 2531.03 -0.432134 -1.37363 0
M  V30 25391 H 2532.98 1.24214 -4.02677 0
M  V30 25392 H 2531.71 1.61206 -2.84043 0
M  V30 25393 H 2530.37 -0.361575 -3.64813 0
M  V30 25394 H 2530.02 1.89936 -4.65761 0
M  V30 25395 H 2529.72 0.605386 -5.84473 0
M  V30 25396 H 2531.24 1.53554 -5.90977 0
M  V30 25397 H 2532.65 -0.72494 -5.68698 0
M  V30 25398 H 2531.05 -1.5067 -5.80877 0
M  V30 25399 H 2532.12 -1.91412 -4.45522 0
M  V30 25400 N 2533.46 1.49999 -0.483543 0
M  V30 25401 C 2534.41 2.257 0.32302 0
M  V30 25402 C 2535.4 1.29807 0.950732 0
M  V30 25403 O 2536.59 1.54635 0.86122 0
M  V30 25404 C 2533.72 3.13582 1.39719 0
M  V30 25405 C 2532.8 4.16929 0.776589 0
M  V30 25406 N 2533.2 5.05679 -0.110489 0
M  V30 25407 C 2531.49 4.33725 1.03915 0
M  V30 25408 C 2532.19 5.79847 -0.463972 0
M  V30 25409 N 2531.17 5.43353 0.163891 0
M  V30 25410 H 2534.97 2.91685 -0.360138 0
M  V30 25411 H 2532.49 1.59633 -0.298484 0
M  V30 25412 H 2534.48 3.66432 1.9883 0
M  V30 25413 H 2533.14 2.49147 2.08221 0
M  V30 25414 H 2534.15 5.15669 -0.48016 0
M  V30 25415 H 2530.83 3.80504 1.71822 0
M  V30 25416 H 2532.22 6.61302 -1.18866 0
M  V30 25417 N 2534.94 0.216646 1.56104 0
M  V30 25418 C 2535.87 -0.727722 2.1734 0
M  V30 25419 C 2536.89 -1.16114 1.14111 0
M  V30 25420 O 2538.08 -1.09314 1.41112 0
M  V30 25421 C 2535.18 -1.99688 2.73821 0
M  V30 25422 C 2534.35 -1.71981 4.02171 0
M  V30 25423 C 2533.41 -2.83554 4.43264 0
M  V30 25424 O 2532.43 -2.52235 5.10261 0
M  V30 25425 N 2533.64 -4.124 4.08542 0
M  V30 25426 H 2536.4 -0.20393 2.99005 0
M  V30 25427 H 2533.96 0.0354574 1.61861 0
M  V30 25428 H 2535.95 -2.73511 2.98285 0
M  V30 25429 H 2534.52 -2.43128 1.96487 0
M  V30 25430 H 2533.74 -0.818269 3.85614 0
M  V30 25431 H 2535.03 -1.50894 4.8591 0
M  V30 25432 H 2534.43 -4.4069 3.54695 0
M  V30 25433 H 2532.99 -4.82782 4.3791 0
M  V30 25434 N 2536.42 -1.57498 -0.0567885 0
M  V30 25435 C 2537.37 -2.05771 -1.08449 0
M  V30 25436 C 2538.36 -0.965927 -1.39163 0
M  V30 25437 O 2539.57 -1.15097 -1.38393 0
M  V30 25438 H 2535.94 -0.656289 -0.367136 0
M  V30 25439 H 2537.91 -2.91205 -0.651317 0
M  V30 25440 C 2536.66 -2.52972 -2.38538 0
M  V30 25441 H 2535.99 -3.36583 -2.15759 0
M  V30 25442 H 2537.43 -2.90487 -3.08858 0
M  V30 25443 C 2535.88 -1.41898 -3.05559 0
M  V30 25444 O 2536.41 -0.769512 -3.94261 0
M  V30 25445 N 2534.62 -1.16037 -2.66428 0
M  V30 25446 H 2534.17 -1.69034 -1.94384 0
M  V30 25447 H 2534.13 -0.419274 -3.11592 0
M  V30 25448 N 2537.9 0.328509 -1.54138 0
M  V30 25449 C 2538.86 1.38706 -1.82465 0
M  V30 25450 C 2539.86 1.44945 -0.696254 0
M  V30 25451 O 2541.05 1.45058 -0.964561 0
M  V30 25452 C 2538.18 2.77488 -1.98023 0
M  V30 25453 H 2539.38 1.14846 -2.77039 0
M  V30 25454 H 2536.93 0.563725 -1.4578 0
M  V30 25455 H 2537.66 3.06611 -1.05643 0
M  V30 25456 H 2537.45 2.74354 -2.80129 0
M  V30 25457 H 2538.94 3.54077 -2.21403 0
M  V30 25458 N 2539.38 1.46127 0.590316 0
M  V30 25459 C 2540.6 1.546 1.37501 0
M  V30 25460 C 2541.02 0.18448 1.87897 0
M  V30 25461 O 2540.38 -0.816956 1.63193 0
M  V30 25462 C 2540.43 2.54458 2.56775 0
M  V30 25463 O 2540.15 3.85321 2.08469 0
M  V30 25464 C 2541.65 2.72798 3.49423 0
M  V30 25465 H 2538.87 0.523045 0.420316 0
M  V30 25466 H 2541.41 1.91468 0.71835 0
M  V30 25467 H 2539.57 2.20615 3.18446 0
M  V30 25468 H 2539.98 4.39605 2.8609 0
M  V30 25469 H 2541.46 3.46608 4.29613 0
M  V30 25470 H 2541.93 1.79436 4.00873 0
M  V30 25471 H 2542.54 3.07707 2.93592 0
M  V30 25472 N 2540.85 -0.834306 1.33705 0
M  V30 25473 C 2541.78 -1.95961 1.26971 0
M  V30 25474 C 2542.76 -1.69443 0.149366 0
M  V30 25475 O 2543.95 -1.91203 0.339885 0
M  V30 25476 C 2541.08 -3.32204 1.01281 0
M  V30 25477 C 2540.03 -3.73132 2.09658 0
M  V30 25478 C 2539.36 -5.07232 1.69175 0
M  V30 25479 C 2540.66 -3.86432 3.51379 0
M  V30 25480 H 2542.35 -2.01854 2.21123 0
M  V30 25481 H 2539.9 -0.969775 1.06449 0
M  V30 25482 H 2541.85 -4.10502 0.952178 0
M  V30 25483 H 2540.58 -3.26581 0.0356777 0
M  V30 25484 H 2539.24 -2.97101 2.14771 0
M  V30 25485 H 2538.88 -4.98084 0.701524 0
M  V30 25486 H 2538.58 -5.35587 2.41704 0
M  V30 25487 H 2540.11 -5.88 1.64586 0
M  V30 25488 H 2541.52 -4.5503 3.48742 0
M  V30 25489 H 2539.92 -4.26229 4.22432 0
M  V30 25490 H 2540.99 -2.88752 3.89552 0
M  V30 25491 N 2542.33 -1.17248 -1.05312 0
M  V30 25492 C 2543.24 -0.902718 -2.16537 0
M  V30 25493 C 2544.26 0.128676 -1.73524 0
M  V30 25494 O 2545.43 -0.0503055 -2.01337 0
M  V30 25495 C 2542.5 -0.418417 -3.44166 0
M  V30 25496 C 2541.56 -1.51625 -4.01632 0
M  V30 25497 C 2540.79 -1.05497 -5.23169 0
M  V30 25498 O 2541.02 0.0913713 -5.70327 0
M  V30 25499 O 2539.95 -1.8475 -5.72845 0
M  V30 25500 H 2543.78 -1.83306 -2.42141 0
M  V30 25501 H 2541.36 -0.953267 -1.15036 0
M  V30 25502 H 2543.24 -0.1558 -4.21112 0
M  V30 25503 H 2541.92 0.483794 -3.20064 0
M  V30 25504 H 2540.82 -1.83273 -3.26131 0
M  V30 25505 H 2542.16 -2.39413 -4.30049 0
M  V30 25506 N 2543.81 1.24015 -0.972531 0
M  V30 25507 C 2544.74 2.27508 -0.525588 0
M  V30 25508 C 2545.72 1.64385 0.437233 0
M  V30 25509 O 2546.91 1.91336 0.332309 0
M  V30 25510 C 2544.04 3.46831 0.180387 0
M  V30 25511 C 2542.99 4.22255 -0.698933 0
M  V30 25512 C 2542.32 5.3452 0.138809 0
M  V30 25513 C 2543.62 4.83073 -1.9859 0
M  V30 25514 H 2545.31 2.65145 -1.39063 0
M  V30 25515 H 2542.86 1.27458 -0.670113 0
M  V30 25516 H 2544.81 4.18371 0.504313 0
M  V30 25517 H 2543.53 3.08233 1.07981 0
M  V30 25518 H 2542.19 3.52521 -1.0062 0
M  V30 25519 H 2541.84 4.92162 1.03853 0
M  V30 25520 H 2541.54 5.85902 -0.446362 0
M  V30 25521 H 2543.06 6.08885 0.457297 0
M  V30 25522 H 2544.48 5.46662 -1.72725 0
M  V30 25523 H 2542.88 5.44708 -2.5182 0
M  V30 25524 H 2543.95 4.04257 -2.67776 0
M  V30 25525 N 2545.29 0.743226 1.38974 0
M  V30 25526 C 2546.24 0.108651 2.30544 0
M  V30 25527 C 2547.21 -0.720842 1.49643 0
M  V30 25528 O 2548.39 -0.679111 1.78305 0
M  V30 25529 C 2545.53 -0.786437 3.3602 0
M  V30 25530 C 2544.64 0.0565608 4.31963 0
M  V30 25531 C 2543.78 -0.840565 5.24507 0
M  V30 25532 C 2542.82 0.00669122 6.121 0
M  V30 25533 N 2541.95 -0.84682 6.96974 0
M  V30 25534 H 2546.79 0.895138 2.84238 0
M  V30 25535 H 2544.33 0.453072 1.39949 0
M  V30 25536 H 2546.29 -1.31992 3.9577 0
M  V30 25537 H 2544.92 -1.53882 2.83761 0
M  V30 25538 H 2543.97 0.707558 3.73762 0
M  V30 25539 H 2545.28 0.711315 4.93702 0
M  V30 25540 H 2544.44 -1.44159 5.89324 0
M  V30 25541 H 2543.18 -1.52908 4.6311 0
M  V30 25542 H 2542.18 0.620462 5.46288 0
M  V30 25543 H 2543.41 0.692111 6.75564 0
M  V30 25544 H 2541.35 -1.52048 6.38136 0
M  V30 25545 H 2541.27 -0.248731 7.55591 0
M  V30 25546 H 2542.54 -1.43315 7.66212 0
M  V30 25547 N 2546.77 -1.4974 0.491491 0
M  V30 25548 C 2547.73 -2.27473 -0.280866 0
M  V30 25549 C 2548.73 -1.3309 -0.90243 0
M  V30 25550 O 2549.92 -1.56335 -0.768438 0
M  V30 25551 C 2547.05 -3.10734 -1.40203 0
M  V30 25552 H 2548.24 -2.97206 0.401109 0
M  V30 25553 H 2545.8 -1.54349 0.246159 0
M  V30 25554 H 2546.53 -2.45545 -2.11844 0
M  V30 25555 H 2546.32 -3.80118 -0.961903 0
M  V30 25556 H 2547.81 -3.69469 -1.94633 0
M  V30 25557 N 2548.24 -0.224922 -1.55987 0
M  V30 25558 C 2549.21 0.670309 -2.19179 0
M  V30 25559 C 2550.21 1.11915 -1.15463 0
M  V30 25560 O 2551.4 1.02741 -1.40677 0
M  V30 25561 C 2548.53 1.91866 -2.81781 0
M  V30 25562 H 2549.72 0.119311 -2.99663 0
M  V30 25563 H 2547.28 0.0246853 -1.56281 0
M  V30 25564 H 2548.01 2.51144 -2.05176 0
M  V30 25565 H 2547.8 1.60525 -3.57735 0
M  V30 25566 H 2549.29 2.5564 -3.30209 0
M  V30 25567 N 2549.72 1.57526 0.0484352 0
M  V30 25568 C 2550.63 2.08656 1.07237 0
M  V30 25569 C 2551.65 1.02097 1.40898 0
M  V30 25570 O 2552.82 1.33715 1.50606 0
M  V30 25571 C 2549.89 2.53975 2.36004 0
M  V30 25572 C 2548.95 3.74933 2.09101 0
M  V30 25573 C 2548.18 4.18081 3.31729 0
M  V30 25574 O 2548.41 3.60903 4.41708 0
M  V30 25575 O 2547.34 5.10685 3.18567 0
M  V30 25576 H 2551.17 2.96264 0.667913 0
M  V30 25577 H 2548.75 1.47046 0.264144 0
M  V30 25578 H 2550.63 2.8354 3.11742 0
M  V30 25579 H 2549.31 1.69486 2.75783 0
M  V30 25580 H 2548.22 3.50416 1.30993 0
M  V30 25581 H 2549.55 4.60346 1.7419 0
M  V30 25582 N 2551.2 -0.32033 1.5431 0
M  V30 25583 C 2552.48 -1.07632 1.63324 0
M  V30 25584 C 2552.86 -2.05821 0.469156 0
M  V30 25585 O 2552.21 -2.22119 -0.536235 0
M  V30 25586 C 2552.42 -1.77539 3.00468 0
M  V30 25587 C 2553.76 -2.30442 3.56625 0
M  V30 25588 O 2554.79 -1.87601 3.02794 0
M  V30 25589 O 2553.65 -3.08884 4.50836 0
M  V30 25590 H 2550.74 -0.496319 0.66151 0
M  V30 25591 H 2553.29 -0.319963 1.66656 0
M  V30 25592 H 2552.06 -1.06136 3.76631 0
M  V30 25593 H 2551.68 -2.59977 3.00829 0
M  V30 25594 N 2552.68 -1.46438 -0.582558 0
M  V30 25595 C 2553.61 -1.59874 -1.70184 0
M  V30 25596 C 2554.59 -0.449071 -1.64065 0
M  V30 25597 O 2555.77 -0.675332 -1.82079 0
M  V30 25598 C 2552.9 -1.58886 -3.08824 0
M  V30 25599 C 2551.86 -2.72824 -3.29774 0
M  V30 25600 C 2551.18 -2.56898 -4.68943 0
M  V30 25601 C 2552.48 -4.14646 -3.17594 0
M  V30 25602 H 2554.18 -2.53569 -1.59196 0
M  V30 25603 H 2551.72 -1.22033 -0.764451 0
M  V30 25604 H 2553.68 -1.6688 -3.86948 0
M  V30 25605 H 2552.4 -0.617362 -3.20712 0
M  V30 25606 H 2551.06 -2.643 -2.54049 0
M  V30 25607 H 2550.71 -1.57831 -4.77596 0
M  V30 25608 H 2550.41 -3.3332 -4.83913 0
M  V30 25609 H 2551.93 -2.66783 -5.49235 0
M  V30 25610 H 2553.35 -4.24281 -3.85563 0
M  V30 25611 H 2551.74 -4.91656 -3.44085 0
M  V30 25612 H 2552.81 -4.34791 -2.14673 0
M  V30 25613 N 2554.16 0.827204 -1.34146 0
M  V30 25614 C 2555.09 1.95285 -1.28008 0
M  V30 25615 C 2556.07 1.69361 -0.15835 0
M  V30 25616 O 2557.25 1.9102 -0.35002 0
M  V30 25617 C 2554.38 3.31662 -1.03041 0
M  V30 25618 C 2553.34 3.72015 -2.11634 0
M  V30 25619 C 2552.66 5.06327 -1.71863 0
M  V30 25620 C 2553.96 3.84563 -3.53424 0
M  V30 25621 H 2555.66 2.00678 -2.22191 0
M  V30 25622 H 2553.2 0.964116 -1.06962 0
M  V30 25623 H 2555.16 4.09991 -0.973935 0
M  V30 25624 H 2553.88 3.26557 -0.0529965 0
M  V30 25625 H 2552.54 2.95958 -2.16344 0
M  V30 25626 H 2552.19 4.97705 -0.727929 0
M  V30 25627 H 2551.89 5.34297 -2.44541 0
M  V30 25628 H 2553.41 5.87119 -1.67702 0
M  V30 25629 H 2554.82 4.53174 -3.5115 0
M  V30 25630 H 2553.22 4.23983 -4.24687 0
M  V30 25631 H 2554.29 2.86682 -3.91077 0
M  V30 25632 N 2555.63 1.17805 1.04688 0
M  V30 25633 C 2556.86 0.994845 1.81982 0
M  V30 25634 C 2557.28 -0.45208 1.82587 0
M  V30 25635 O 2556.64 -1.32398 1.23857 0
M  V30 25636 C 2556.69 1.54664 3.25747 0
M  V30 25637 O 2555.79 0.763799 4.05265 0
M  V30 25638 H 2555.14 0.352867 0.562477 0
M  V30 25639 H 2557.67 1.56419 1.31887 0
M  V30 25640 H 2557.68 1.57109 3.76538 0
M  V30 25641 H 2556.35 2.59987 3.24622 0
M  V30 25642 H 2554.93 0.811172 3.6397 0
M  V30 25643 N 2557.11 -1.23497 0.979094 0
M  V30 25644 C 2558.04 -2.24196 0.476311 0
M  V30 25645 C 2559.06 -1.57259 -0.421138 0
M  V30 25646 O 2560.25 -1.7707 -0.225484 0
M  V30 25647 C 2557.35 -3.37285 -0.330444 0
M  V30 25648 C 2556.52 -4.33803 0.55982 0
M  V30 25649 C 2555.58 -5.25846 -0.192861 0
M  V30 25650 O 2554.6 -5.6767 0.417078 0
M  V30 25651 N 2555.81 -5.61337 -1.47922 0
M  V30 25652 H 2558.57 -2.67967 1.34216 0
M  V30 25653 H 2556.13 -1.37655 0.852213 0
M  V30 25654 H 2558.12 -3.95838 -0.842291 0
M  V30 25655 H 2556.69 -2.92709 -1.09729 0
M  V30 25656 H 2555.91 -3.73772 1.25251 0
M  V30 25657 H 2557.2 -4.95246 1.16659 0
M  V30 25658 H 2556.6 -5.29305 -1.99631 0
M  V30 25659 H 2555.16 -6.22368 -1.93653 0
M  V30 25660 N 2558.59 -0.750586 -1.38578 0
M  V30 25661 C 2559.84 -0.302207 -1.99423 0
M  V30 25662 C 2560.15 1.1215 -1.60255 0
M  V30 25663 O 2561.36 1.67019 -2.14049 0
M  V30 25664 C 2559.82 -0.48937 -3.56557 0
M  V30 25665 C 2559.42 -1.92196 -4.04678 0
M  V30 25666 C 2561.17 -0.103553 -4.24374 0
M  V30 25667 C 2559.07 -2.05785 -5.54443 0
M  V30 25668 H 2558 -0.109243 -0.746044 0
M  V30 25669 H 2560.66 -0.926698 -1.58381 0
M  V30 25670 H 2559.04 0.204259 -3.95473 0
M  V30 25671 H 2560.21 -2.64882 -3.7706 0
M  V30 25672 H 2558.53 -2.26242 -3.49576 0
M  V30 25673 H 2561.12 -0.183881 -5.34384 0
M  V30 25674 H 2561.47 0.943409 -4.05469 0
M  V30 25675 H 2562 -0.748923 -3.90687 0
M  V30 25676 H 2558.74 -3.08725 -5.78247 0
M  V30 25677 H 2558.26 -1.37556 -5.83814 0
M  V30 25678 H 2559.94 -1.84637 -6.20095 0
M  V30 25679 N 2560.07 1.49477 -0.499425 0
M  V30 25680 C 2561 2.27004 0.316535 0
M  V30 25681 C 2562.01 1.33481 0.932024 0
M  V30 25682 O 2563.2 1.58776 0.81563 0
M  V30 25683 C 2560.3 3.05815 1.4605 0
M  V30 25684 C 2559.48 4.26901 0.952604 0
M  V30 25685 C 2558.54 4.87771 1.97398 0
M  V30 25686 O 2557.56 5.47882 1.54316 0
M  V30 25687 N 2558.76 4.77282 3.30428 0
M  V30 25688 H 2561.53 2.9767 -0.348221 0
M  V30 25689 H 2559.09 1.58462 -0.331878 0
M  V30 25690 H 2561.08 3.4341 2.14129 0
M  V30 25691 H 2559.65 2.37766 2.02944 0
M  V30 25692 H 2558.87 3.94081 0.0967555 0
M  V30 25693 H 2560.16 5.05348 0.591651 0
M  V30 25694 H 2559.56 4.29541 3.68119 0
M  V30 25695 H 2558.11 5.19066 3.94226 0
M  V30 25696 N 2561.55 0.233191 1.55865 0
M  V30 25697 C 2562.46 -0.683178 2.24432 0
M  V30 25698 C 2563.47 -1.20438 1.25582 0
M  V30 25699 O 2564.65 -1.24353 1.58424 0
M  V30 25700 C 2561.71 -1.86942 2.91982 0
M  V30 25701 C 2560.78 -1.38905 4.06207 0
M  V30 25702 C 2560.01 -2.51875 4.70526 0
M  V30 25703 O 2560.23 -3.70286 4.33872 0
M  V30 25704 O 2559.17 -2.22413 5.593 0
M  V30 25705 H 2562.99 -0.129006 3.03426 0
M  V30 25706 H 2560.58 0.00225456 1.494 0
M  V30 25707 H 2562.46 -2.56195 3.34577 0
M  V30 25708 H 2561.13 -2.41147 2.15939 0
M  V30 25709 H 2560.04 -0.664195 3.68157 0
M  V30 25710 H 2561.37 -0.893243 4.84027 0
M  V30 25711 N 2563.03 -1.57549 -0.0400806 0
M  V30 25712 C 2563.97 -2.0691 -1.0626 0
M  V30 25713 C 2564.97 -0.980633 -1.3813 0
M  V30 25714 O 2566.17 -1.16559 -1.37165 0
M  V30 25715 H 2562.55 -0.660146 -0.360155 0
M  V30 25716 H 2564.52 -2.9188 -0.620394 0
M  V30 25717 C 2563.27 -2.55488 -2.35842 0
M  V30 25718 H 2562.59 -3.38853 -2.12177 0
M  V30 25719 H 2564.03 -2.93746 -3.0576 0
M  V30 25720 C 2562.49 -1.45131 -3.04037 0
M  V30 25721 O 2563.02 -0.811285 -3.93422 0
M  V30 25722 N 2561.23 -1.18856 -2.65182 0
M  V30 25723 H 2560.77 -1.71086 -1.92581 0
M  V30 25724 H 2560.73 -0.452298 -3.1113 0
M  V30 25725 N 2564.5 0.312142 -1.54478 0
M  V30 25726 C 2565.73 1.06642 -1.76949 0
M  V30 25727 C 2566.14 1.8181 -0.523625 0
M  V30 25728 O 2565.48 1.76311 0.515749 0
M  V30 25729 C 2565.55 2.10161 -2.91672 0
M  V30 25730 C 2565.21 1.54288 -4.30167 0
M  V30 25731 C 2566.21 0.978703 -5.10605 0
M  V30 25732 C 2563.89 1.58187 -4.76741 0
M  V30 25733 C 2565.89 0.460936 -6.35731 0
M  V30 25734 C 2563.57 1.06023 -6.01832 0
M  V30 25735 C 2564.57 0.500724 -6.81162 0
M  V30 25736 O 2564.26 -0.0130371 -8.03899 0
M  V30 25737 H 2563.99 0.322535 -0.594093 0
M  V30 25738 H 2566.55 0.360405 -2.02213 0
M  V30 25739 H 2564.78 2.84411 -2.62006 0
M  V30 25740 H 2566.46 2.71401 -3.01822 0
M  V30 25741 H 2567.23 0.941567 -4.75773 0
M  V30 25742 H 2563.11 2.00676 -4.1503 0
M  V30 25743 H 2566.65 0.0235667 -6.97596 0
M  V30 25744 H 2562.55 1.09448 -6.36154 0
M  V30 25745 H 2563.32 0.101314 -8.18437 0
M  V30 25746 N 2565.98 1.46745 0.574784 0
M  V30 25747 C 2566.91 1.53949 1.69801 0
M  V30 25748 C 2567.93 0.427134 1.57097 0
M  V30 25749 O 2569.12 0.695892 1.64376 0
M  V30 25750 C 2566.22 1.41116 3.08123 0
M  V30 25751 C 2565.39 2.66611 3.46753 0
M  V30 25752 C 2564.45 2.47864 4.64166 0
M  V30 25753 O 2563.47 3.21617 4.69629 0
M  V30 25754 N 2564.68 1.54544 5.5955 0
M  V30 25755 H 2567.44 2.50799 1.64073 0
M  V30 25756 H 2565 1.42901 0.760975 0
M  V30 25757 H 2566.99 1.26334 3.84476 0
M  V30 25758 H 2565.56 0.524163 3.08174 0
M  V30 25759 H 2564.78 2.96278 2.60025 0
M  V30 25760 H 2566.07 3.4996 3.69331 0
M  V30 25761 H 2565.47 0.937402 5.57879 0
M  V30 25762 H 2564.03 1.45722 6.35302 0
M  V30 25763 N 2567.46 -0.820078 1.34583 0
M  V30 25764 C 2568.41 -1.93115 1.26393 0
M  V30 25765 C 2569.38 -1.65521 0.138583 0
M  V30 25766 O 2570.56 -1.88097 0.320037 0
M  V30 25767 C 2567.7 -3.29427 1.02818 0
M  V30 25768 C 2566.81 -3.69296 2.24153 0
M  V30 25769 C 2565.95 -4.94571 1.93838 0
M  V30 25770 C 2564.99 -5.27028 3.113 0
M  V30 25771 N 2564.13 -6.43481 2.80849 0
M  V30 25772 H 2568.97 -1.99451 2.21412 0
M  V30 25773 H 2566.5 -0.975765 1.10078 0
M  V30 25774 H 2568.46 -4.07988 0.87186 0
M  V30 25775 H 2567.09 -3.22596 0.114669 0
M  V30 25776 H 2566.14 -2.86105 2.50696 0
M  V30 25777 H 2567.45 -3.89251 3.11905 0
M  V30 25778 H 2566.61 -5.80926 1.74958 0
M  V30 25779 H 2565.35 -4.76624 1.03349 0
M  V30 25780 H 2564.35 -4.3917 3.30772 0
M  V30 25781 H 2565.58 -5.46913 4.0257 0
M  V30 25782 H 2563.52 -6.26985 1.9294 0
M  V30 25783 H 2563.44 -6.63622 3.62134 0
M  V30 25784 H 2564.71 -7.32899 2.6548 0
M  V30 25785 N 2568.94 -1.18359 -1.04062 0
M  V30 25786 C 2570.35 -0.983148 -1.58717 0
M  V30 25787 C 2570.7 0.46716 -1.90557 0
M  V30 25788 O 2569.82 1.34451 -1.69564 0
M  V30 25789 C 2570.42 -1.77833 -2.88376 0
M  V30 25790 C 2568.98 -1.62224 -3.39647 0
M  V30 25791 C 2568.13 -1.77278 -2.13232 0
M  V30 25792 H 2571.08 -1.32902 -0.867335 0
M  V30 25793 H 2571.1 -1.26744 -3.58771 0
M  V30 25794 H 2570.61 -2.83383 -2.65171 0
M  V30 25795 H 2568.71 -0.592101 -3.67865 0
M  V30 25796 H 2568.82 -2.4203 -4.13471 0
M  V30 25797 H 2567.19 -1.20225 -2.2454 0
M  V30 25798 H 2567.97 -2.84263 -1.92482 0
M  V30 25799 N 2570.42 1.22976 -0.98563 0
M  V30 25800 C 2571.35 2.26938 -0.549689 0
M  V30 25801 C 2572.33 1.64839 0.419774 0
M  V30 25802 O 2573.51 1.91677 0.311997 0
M  V30 25803 C 2570.64 3.47003 0.143591 0
M  V30 25804 C 2569.6 4.2149 -0.74368 0
M  V30 25805 C 2568.92 5.34637 0.0821087 0
M  V30 25806 C 2570.22 4.80939 -2.03703 0
M  V30 25807 H 2571.92 2.63655 -1.41867 0
M  V30 25808 H 2569.46 1.2674 -0.683594 0
M  V30 25809 H 2571.41 4.18883 0.459911 0
M  V30 25810 H 2570.14 3.09361 1.04706 0
M  V30 25811 H 2568.8 3.51434 -1.04353 0
M  V30 25812 H 2568.45 4.93236 0.986272 0
M  V30 25813 H 2568.15 5.85396 -0.50848 0
M  V30 25814 H 2569.67 6.09336 0.39269 0
M  V30 25815 H 2571.08 5.44799 -1.78513 0
M  V30 25816 H 2569.48 5.42007 -2.57583 0
M  V30 25817 H 2570.55 4.01394 -2.72049 0
M  V30 25818 N 2571.89 0.757924 1.38178 0
M  V30 25819 C 2572.8 0.135288 2.3421 0
M  V30 25820 C 2573.82 -0.695655 1.59489 0
M  V30 25821 O 2575 -0.618798 1.91658 0
M  V30 25822 C 2572.06 -0.744079 3.38621 0
M  V30 25823 C 2571.12 0.101733 4.29179 0
M  V30 25824 C 2570.35 -0.735758 5.28604 0
M  V30 25825 O 2570.58 -1.97356 5.3517 0
M  V30 25826 O 2569.51 -0.152266 6.01707 0
M  V30 25827 H 2573.34 0.928487 2.89159 0
M  V30 25828 H 2570.92 0.518879 1.401 0
M  V30 25829 H 2572.8 -1.24653 4.02541 0
M  V30 25830 H 2571.48 -1.5157 2.86021 0
M  V30 25831 H 2570.39 0.650232 3.68406 0
M  V30 25832 H 2571.72 0.83611 4.85046 0
M  V30 25833 N 2573.37 -1.4921 0.507345 0
M  V30 25834 C 2574.28 -2.33017 -0.272095 0
M  V30 25835 C 2575.3 -1.45042 -0.961181 0
M  V30 25836 O 2576.47 -1.78057 -0.941159 0
M  V30 25837 C 2573.54 -3.20634 -1.3189 0
M  V30 25838 C 2572.6 -4.24464 -0.642574 0
M  V30 25839 C 2571.83 -5.07894 -1.6395 0
M  V30 25840 O 2572.06 -4.92938 -2.86999 0
M  V30 25841 O 2570.99 -5.89992 -1.19133 0
M  V30 25842 H 2574.82 -3.00864 0.414035 0
M  V30 25843 H 2572.4 -1.46966 0.268581 0
M  V30 25844 H 2574.28 -3.74894 -1.92439 0
M  V30 25845 H 2572.96 -2.55473 -1.98784 0
M  V30 25846 H 2571.87 -3.741 0.00282828 0
M  V30 25847 H 2573.2 -4.92197 -0.0159668 0
M  V30 25848 N 2574.85 -0.241454 -1.55739 0
M  V30 25849 C 2575.78 0.654682 -2.24134 0
M  V30 25850 C 2576.76 1.18558 -1.21976 0
M  V30 25851 O 2577.95 1.22592 -1.50615 0
M  V30 25852 C 2575.08 1.85418 -2.93662 0
M  V30 25853 C 2574.03 1.45629 -4.02463 0
M  V30 25854 C 2573.36 2.73618 -4.59388 0
M  V30 25855 C 2574.66 0.631415 -5.18469 0
M  V30 25856 H 2576.35 0.0843827 -2.99281 0
M  V30 25857 H 2573.9 0.0391454 -1.43947 0
M  V30 25858 H 2575.85 2.4867 -3.40208 0
M  V30 25859 H 2574.57 2.44977 -2.15995 0
M  V30 25860 H 2573.23 0.84714 -3.56678 0
M  V30 25861 H 2572.88 3.31363 -3.78428 0
M  V30 25862 H 2572.58 2.47721 -5.3283 0
M  V30 25863 H 2574.1 3.37777 -5.08664 0
M  V30 25864 H 2575.52 1.1681 -5.61274 0
M  V30 25865 H 2573.92 0.468726 -5.98267 0
M  V30 25866 H 2574.99 -0.357591 -4.8358 0
M  V30 25867 N 2576.33 1.57568 0.0317248 0
M  V30 25868 C 2577.24 2.09782 1.05018 0
M  V30 25869 C 2578.25 1.03586 1.39807 0
M  V30 25870 O 2579.43 1.35305 1.4918 0
M  V30 25871 C 2576.5 2.56463 2.33297 0
M  V30 25872 C 2575.56 3.7713 2.05113 0
M  V30 25873 C 2574.79 4.21576 3.27276 0
M  V30 25874 O 2575.01 3.65567 4.37855 0
M  V30 25875 O 2573.95 5.14035 3.13132 0
M  V30 25876 H 2577.77 2.96956 0.636453 0
M  V30 25877 H 2575.36 1.47318 0.248533 0
M  V30 25878 H 2577.24 2.86831 3.08717 0
M  V30 25879 H 2575.91 1.72401 2.7397 0
M  V30 25880 H 2574.82 3.51786 1.27269 0
M  V30 25881 H 2576.15 4.62168 1.69297 0
M  V30 25882 N 2577.81 -0.303946 1.54641 0
M  V30 25883 C 2579.05 -1.04106 1.7404 0
M  V30 25884 C 2579.39 -1.87023 0.523084 0
M  V30 25885 O 2578.66 -1.88488 -0.479841 0
M  V30 25886 C 2578.94 -1.9495 3.02765 0
M  V30 25887 C 2578.8 -1.15233 4.34789 0
M  V30 25888 C 2580.12 -2.94169 3.27342 0
M  V30 25889 H 2577.23 -0.377068 0.633237 0
M  V30 25890 H 2579.88 -0.315968 1.87354 0
M  V30 25891 H 2578.03 -2.56776 2.91544 0
M  V30 25892 H 2579.7 -0.557155 4.57923 0
M  V30 25893 H 2577.94 -0.454977 4.31407 0
M  V30 25894 H 2578.61 -1.82041 5.21119 0
M  V30 25895 H 2581.09 -2.42471 3.38152 0
M  V30 25896 H 2579.96 -3.549 4.18733 0
M  V30 25897 H 2580.23 -3.67673 2.45497 0
M  V30 25898 N 2579.28 -1.47047 -0.566994 0
M  V30 25899 C 2580.21 -1.6167 -1.68479 0
M  V30 25900 C 2581.2 -0.466447 -1.6358 0
M  V30 25901 O 2582.38 -0.694606 -1.81353 0
M  V30 25902 C 2579.51 -1.62153 -3.07122 0
M  V30 25903 C 2578.46 -2.76307 -3.26862 0
M  V30 25904 C 2577.79 -2.61858 -4.66192 0
M  V30 25905 C 2579.09 -4.17991 -3.13178 0
M  V30 25906 H 2580.78 -2.55243 -1.56497 0
M  V30 25907 H 2578.33 -1.22837 -0.751465 0
M  V30 25908 H 2580.28 -1.70975 -3.85157 0
M  V30 25909 H 2579.01 -0.651343 -3.20039 0
M  V30 25910 H 2577.67 -2.6698 -2.51232 0
M  V30 25911 H 2577.31 -1.62888 -4.75896 0
M  V30 25912 H 2577.01 -3.38434 -4.8035 0
M  V30 25913 H 2578.54 -2.72593 -5.46375 0
M  V30 25914 H 2579.95 -4.28346 -3.81041 0
M  V30 25915 H 2578.35 -4.95278 -3.38851 0
M  V30 25916 H 2579.42 -4.37044 -2.10049 0
M  V30 25917 N 2580.76 0.812929 -1.35016 0
M  V30 25918 C 2581.71 1.92442 -1.27416 0
M  V30 25919 C 2582.68 1.65445 -0.147359 0
M  V30 25920 O 2583.86 1.87924 -0.330007 0
M  V30 25921 C 2581 3.28878 -1.04564 0
M  V30 25922 C 2580.12 3.68102 -2.26108 0
M  V30 25923 C 2579.25 4.93536 -1.96458 0
M  V30 25924 C 2578.29 5.2537 -3.1409 0
M  V30 25925 N 2577.43 6.41983 -2.84258 0
M  V30 25926 H 2582.27 1.98274 -2.22466 0
M  V30 25927 H 2579.81 0.969913 -1.10594 0
M  V30 25928 H 2581.76 4.0752 -0.893484 0
M  V30 25929 H 2580.39 3.22531 -0.131775 0
M  V30 25930 H 2579.45 2.84771 -2.52209 0
M  V30 25931 H 2580.76 3.87592 -3.13965 0
M  V30 25932 H 2579.91 5.7999 -1.78036 0
M  V30 25933 H 2578.65 4.76069 -1.05876 0
M  V30 25934 H 2577.66 4.37409 -3.33096 0
M  V30 25935 H 2578.88 5.44771 -4.05465 0
M  V30 25936 H 2576.83 6.25953 -1.96263 0
M  V30 25937 H 2576.74 6.61693 -3.65649 0
M  V30 25938 H 2578.01 7.31481 -2.69363 0
M  V30 25939 N 2582.24 1.18909 1.03433 0
M  V30 25940 C 2583.15 0.937053 2.15073 0
M  V30 25941 C 2584.17 -0.101054 1.73706 0
M  V30 25942 O 2585.34 0.0823301 2.01232 0
M  V30 25943 C 2582.41 0.473118 3.43457 0
M  V30 25944 C 2581.47 1.57996 3.99169 0
M  V30 25945 C 2580.7 1.13806 5.21425 0
M  V30 25946 O 2580.92 -0.000625679 5.704 0
M  V30 25947 O 2579.86 1.9384 5.69833 0
M  V30 25948 H 2583.68 1.87136 2.39194 0
M  V30 25949 H 2581.27 0.971447 1.13504 0
M  V30 25950 H 2583.15 0.222776 4.20811 0
M  V30 25951 H 2581.83 -0.432813 3.20793 0
M  V30 25952 H 2580.73 1.88439 3.23174 0
M  V30 25953 H 2582.07 2.46224 4.26186 0
M  V30 25954 N 2583.72 -1.22452 0.992137 0
M  V30 25955 C 2584.68 -2.22579 0.546922 0
M  V30 25956 C 2585.68 -1.5649 -0.369802 0
M  V30 25957 O 2586.87 -1.73446 -0.161865 0
M  V30 25958 C 2584 -3.40285 -0.204599 0
M  V30 25959 H 2585.2 -2.63482 1.43239 0
M  V30 25960 H 2582.75 -1.35489 0.779263 0
M  V30 25961 H 2583.48 -3.04854 -1.10609 0
M  V30 25962 H 2583.27 -3.89467 0.453609 0
M  V30 25963 H 2584.76 -4.14544 -0.504285 0
M  V30 25964 N 2585.2 -0.765242 -1.37774 0
M  V30 25965 C 2586.16 -0.153456 -2.28686 0
M  V30 25966 C 2587.16 0.635055 -1.47728 0
M  V30 25967 O 2588.35 0.459602 -1.68028 0
M  V30 25968 C 2585.48 0.790436 -3.3161 0
M  V30 25969 H 2586.67 -0.954773 -2.84296 0
M  V30 25970 H 2584.23 -0.533016 -1.46931 0
M  V30 25971 H 2584.96 1.617 -2.81111 0
M  V30 25972 H 2584.75 0.227279 -3.91441 0
M  V30 25973 H 2586.24 1.21412 -3.99561 0
M  V30 25974 N 2586.67 1.48939 -0.515251 0
M  V30 25975 C 2587.9 2.07388 0.0226906 0
M  V30 25976 C 2588.32 1.37124 1.28758 0
M  V30 25977 O 2587.68 0.432461 1.76067 0
M  V30 25978 C 2587.73 3.59768 0.244806 0
M  V30 25979 O 2586.83 3.90819 1.3166 0
M  V30 25980 H 2586.18 0.663201 -0.0325623 0
M  V30 25981 H 2588.71 1.91552 -0.718951 0
M  V30 25982 H 2588.72 4.05261 0.471979 0
M  V30 25983 H 2587.39 4.10315 -0.679266 0
M  V30 25984 H 2585.97 3.57122 1.07325 0
M  V30 25985 N 2588.15 0.249709 1.55609 0
M  V30 25986 C 2589.1 -0.662635 2.18159 0
M  V30 25987 C 2590.09 -1.13715 1.13832 0
M  V30 25988 O 2591.28 -1.08645 1.39733 0
M  V30 25989 C 2588.41 -1.858 2.88675 0
M  V30 25990 C 2587.49 -1.40185 4.00261 0
M  V30 25991 N 2587.89 -0.660125 5.01474 0
M  V30 25992 C 2586.18 -1.68691 4.12867 0
M  V30 25993 C 2586.88 -0.423593 5.80156 0
M  V30 25994 N 2585.86 -0.988627 5.34534 0
M  V30 25995 H 2589.66 -0.0878171 2.93769 0
M  V30 25996 H 2587.18 0.0521468 1.62316 0
M  V30 25997 H 2589.17 -2.52264 3.31917 0
M  V30 25998 H 2587.83 -2.43702 2.14569 0
M  V30 25999 H 2588.84 -0.309956 5.16972 0
M  V30 26000 H 2585.52 -2.27711 3.49934 0
M  V30 26001 H 2586.91 0.168734 6.71688 0
M  V30 26002 N 2589.63 -1.57583 -0.0233682 0
M  V30 26003 C 2590.88 -1.89812 -0.714086 0
M  V30 26004 C 2591.21 -0.848143 -1.747 0
M  V30 26005 O 2590.49 0.1361 -1.94023 0
M  V30 26006 C 2590.77 -3.32671 -1.37847 0
M  V30 26007 C 2590.62 -4.48368 -0.358685 0
M  V30 26008 C 2591.94 -3.74544 -2.31095 0
M  V30 26009 H 2589.06 -0.690318 -0.258127 0
M  V30 26010 H 2591.7 -1.89986 0.0231261 0
M  V30 26011 H 2589.85 -3.32654 -2.00683 0
M  V30 26012 H 2591.52 -4.6052 0.268196 0
M  V30 26013 H 2589.77 -4.32607 0.321463 0
M  V30 26014 H 2590.44 -5.45226 -0.862147 0
M  V30 26015 H 2592.91 -3.75964 -1.78297 0
M  V30 26016 H 2591.79 -4.75298 -2.74559 0
M  V30 26017 H 2592.05 -3.07116 -3.18013 0
M  V30 26018 N 2591.11 0.29574 -1.548 0
M  V30 26019 C 2592.04 1.36955 -1.89118 0
M  V30 26020 C 2593.02 1.52643 -0.750617 0
M  V30 26021 O 2594.21 1.66063 -1.00681 0
M  V30 26022 C 2591.34 2.73291 -2.14311 0
M  V30 26023 C 2590.29 2.72363 -3.30155 0
M  V30 26024 C 2589.62 4.12036 -3.40779 0
M  V30 26025 C 2590.92 2.33638 -4.6713 0
M  V30 26026 H 2592.61 1.08483 -2.79055 0
M  V30 26027 H 2590.16 0.52042 -1.34267 0
M  V30 26028 H 2592.11 3.48503 -2.36904 0
M  V30 26029 H 2590.83 3.03299 -1.2115 0
M  V30 26030 H 2589.49 1.99607 -3.07494 0
M  V30 26031 H 2589.14 4.3923 -2.45125 0
M  V30 26032 H 2588.84 4.12315 -4.18653 0
M  V30 26033 H 2590.36 4.8902 -3.65638 0
M  V30 26034 H 2591.78 2.98567 -4.89419 0
M  V30 26035 H 2590.17 2.4512 -5.47756 0
M  V30 26036 H 2591.24 1.28764 -4.67491 0
M  V30 26037 N 2592.59 1.47346 0.559187 0
M  V30 26038 C 2593.81 1.57727 1.34673 0
M  V30 26039 C 2594.24 0.227197 1.86723 0
M  V30 26040 O 2593.6 -0.796613 1.62861 0
M  V30 26041 C 2593.64 2.60451 2.49394 0
M  V30 26042 O 2592.75 2.15585 3.51564 0
M  V30 26043 H 2592.09 0.529917 0.400105 0
M  V30 26044 H 2594.62 1.93111 0.675975 0
M  V30 26045 H 2594.63 2.80808 2.95991 0
M  V30 26046 H 2593.3 3.5848 2.10867 0
M  V30 26047 H 2591.88 2.05318 3.11286 0
M  V30 26048 N 2594.07 -0.805758 1.35445 0
M  V30 26049 C 2595.01 -1.91763 1.28434 0
M  V30 26050 C 2595.98 -1.65365 0.156131 0
M  V30 26051 O 2597.17 -1.87747 0.339969 0
M  V30 26052 C 2594.31 -3.28318 1.06306 0
M  V30 26053 C 2593.42 -3.66898 2.28057 0
M  V30 26054 C 2592.56 -4.92487 1.99072 0
M  V30 26055 C 2591.59 -5.23697 3.16872 0
M  V30 26056 N 2590.73 -6.40466 2.87658 0
M  V30 26057 H 2595.57 -1.97092 2.23515 0
M  V30 26058 H 2593.11 -0.964034 1.11107 0
M  V30 26059 H 2595.07 -4.07041 0.915084 0
M  V30 26060 H 2593.7 -3.22456 0.148878 0
M  V30 26061 H 2592.75 -2.8343 2.53716 0
M  V30 26062 H 2594.06 -3.85921 3.16016 0
M  V30 26063 H 2593.21 -5.79037 1.8111 0
M  V30 26064 H 2591.95 -4.75501 1.08399 0
M  V30 26065 H 2590.96 -4.35637 3.35411 0
M  V30 26066 H 2592.18 -5.42613 4.08348 0
M  V30 26067 H 2590.13 -6.24903 1.99579 0
M  V30 26068 H 2590.05 -6.59744 3.69153 0
M  V30 26069 H 2591.31 -7.30042 2.73238 0
M  V30 26070 N 2595.54 -1.19456 -1.02801 0
M  V30 26071 C 2596.49 -0.900863 -2.09448 0
M  V30 26072 C 2597.48 0.134687 -1.60335 0
M  V30 26073 O 2598.67 -0.0711235 -1.76857 0
M  V30 26074 C 2595.8 -0.442289 -3.40439 0
M  V30 26075 C 2594.88 -1.51063 -3.96284 0
M  V30 26076 N 2595.28 -2.73028 -4.25781 0
M  V30 26077 C 2593.57 -1.37412 -4.24304 0
M  V30 26078 C 2594.27 -3.41856 -4.70648 0
M  V30 26079 N 2593.25 -2.69251 -4.72234 0
M  V30 26080 H 2597.05 -1.82783 -2.30147 0
M  V30 26081 H 2594.57 -1.08686 -1.2067 0
M  V30 26082 H 2596.56 -0.213333 -4.16354 0
M  V30 26083 H 2595.22 0.478182 -3.2116 0
M  V30 26084 H 2596.23 -3.09783 -4.15036 0
M  V30 26085 H 2592.91 -0.517176 -4.14284 0
M  V30 26086 H 2594.3 -4.46161 -5.02385 0
M  V30 26087 N 2597.02 1.21924 -0.998617 0
M  V30 26088 C 2597.97 2.26084 -0.546681 0
M  V30 26089 C 2598.96 1.64474 0.405547 0
M  V30 26090 O 2600.17 1.77849 0.27744 0
M  V30 26091 H 2596.54 0.735125 -0.158416 0
M  V30 26092 H 2598.52 2.61548 -1.43649 0
M  V30 26093 C 2597.26 3.47502 0.117327 0
M  V30 26094 H 2596.59 3.95175 -0.606346 0
M  V30 26095 H 2598.03 4.22138 0.396918 0
M  V30 26096 C 2596.49 3.08472 1.35449 0
M  V30 26097 O 2597.02 3.18384 2.44938 0
M  V30 26098 N 2595.22 2.63199 1.23186 0
M  V30 26099 H 2594.77 2.55334 0.340961 0
M  V30 26100 H 2594.73 2.37453 2.06067 0
M  V30 26101 N 2598.5 0.772537 1.37367 0
M  V30 26102 C 2599.45 0.147152 2.32134 0
M  V30 26103 C 2600.44 -0.684079 1.54973 0
M  V30 26104 O 2601.65 -0.581053 1.70364 0
M  V30 26105 H 2598.02 0.0287992 0.751448 0
M  V30 26106 H 2599.99 0.962162 2.82462 0
M  V30 26107 C 2598.74 -0.716971 3.40228 0
M  V30 26108 H 2598.07 -0.0867249 3.99706 0
M  V30 26109 H 2599.51 -1.12151 4.08899 0
M  V30 26110 C 2597.96 -1.86792 2.80375 0
M  V30 26111 O 2598.49 -2.96344 2.71188 0
M  V30 26112 N 2596.7 -1.66878 2.37907 0
M  V30 26113 H 2596.25 -0.777716 2.4558 0
M  V30 26114 H 2596.21 -2.44053 1.98206 0
M  V30 26115 N 2599.98 -1.48664 0.523142 0
M  V30 26116 C 2600.89 -2.33292 -0.247365 0
M  V30 26117 C 2601.9 -1.46054 -0.945743 0
M  V30 26118 O 2603.08 -1.79045 -0.922221 0
M  V30 26119 C 2600.14 -3.22015 -1.28481 0
M  V30 26120 C 2599.21 -4.25121 -0.597517 0
M  V30 26121 C 2598.44 -5.09604 -1.58554 0
M  V30 26122 O 2598.66 -4.95954 -2.81754 0
M  V30 26123 O 2597.6 -5.91223 -1.12869 0
M  V30 26124 H 2601.42 -3.00408 0.445922 0
M  V30 26125 H 2599.01 -1.46673 0.284154 0
M  V30 26126 H 2600.89 -3.76914 -1.88452 0
M  V30 26127 H 2599.56 -2.57567 -1.96063 0
M  V30 26128 H 2598.47 -3.74076 0.0425064 0
M  V30 26129 H 2599.8 -4.92187 0.0362382 0
M  V30 26130 N 2601.46 -0.257958 -1.55475 0
M  V30 26131 C 2602.39 0.630873 -2.24816 0
M  V30 26132 C 2603.37 1.17257 -1.23226 0
M  V30 26133 O 2604.55 1.20988 -1.51906 0
M  V30 26134 C 2601.68 1.82293 -2.95612 0
M  V30 26135 C 2600.64 1.41352 -4.03985 0
M  V30 26136 C 2599.96 2.6873 -4.62264 0
M  V30 26137 C 2601.26 0.576389 -5.1911 0
M  V30 26138 H 2602.96 0.0526351 -2.99354 0
M  V30 26139 H 2600.5 0.0238757 -1.4398 0
M  V30 26140 H 2602.45 2.45047 -3.42826 0
M  V30 26141 H 2601.18 2.42672 -2.18581 0
M  V30 26142 H 2599.84 0.809261 -3.57556 0
M  V30 26143 H 2599.49 3.27331 -3.81921 0
M  V30 26144 H 2599.19 2.42055 -5.35428 0
M  V30 26145 H 2600.71 3.32363 -5.12218 0
M  V30 26146 H 2602.12 1.10851 -5.62481 0
M  V30 26147 H 2600.52 0.405246 -5.9873 0
M  V30 26148 H 2601.59 -0.408861 -4.83173 0
M  V30 26149 N 2602.93 1.57593 0.0150108 0
M  V30 26150 C 2603.88 2.07468 1.01122 0
M  V30 26151 C 2604.85 0.966818 1.35062 0
M  V30 26152 O 2606.04 1.2383 1.45158 0
M  V30 26153 C 2603.18 2.57039 2.30272 0
M  V30 26154 C 2602.29 3.8167 2.02366 0
M  V30 26155 C 2601.42 4.19799 3.25488 0
M  V30 26156 C 2600.46 5.37308 2.93201 0
M  V30 26157 N 2599.6 5.70801 4.08816 0
M  V30 26158 H 2604.44 2.92322 0.578958 0
M  V30 26159 H 2601.98 1.44521 0.274235 0
M  V30 26160 H 2603.94 2.83852 3.05752 0
M  V30 26161 H 2602.57 1.75081 2.71194 0
M  V30 26162 H 2601.62 3.61856 1.1732 0
M  V30 26163 H 2602.93 4.67259 1.74558 0
M  V30 26164 H 2602.08 4.47814 4.09326 0
M  V30 26165 H 2600.82 3.32889 3.56422 0
M  V30 26166 H 2599.83 5.09031 2.07768 0
M  V30 26167 H 2601.05 6.25882 2.63531 0
M  V30 26168 H 2599 4.8685 4.39674 0
M  V30 26169 H 2598.92 6.50931 3.8448 0
M  V30 26170 H 2600.18 6.03401 4.93485 0
M  V30 26171 N 2604.41 -0.287527 1.54955 0
M  V30 26172 C 2605.38 -1.33819 1.86078 0
M  V30 26173 C 2606.38 -1.43048 0.734439 0
M  V30 26174 O 2607.57 -1.4245 1.00268 0
M  V30 26175 C 2604.7 -2.72141 2.0531 0
M  V30 26176 H 2605.89 -1.0746 2.79986 0
M  V30 26177 H 2603.44 -0.524876 1.47223 0
M  V30 26178 H 2604.18 -3.03702 1.13735 0
M  V30 26179 H 2603.96 -2.66831 2.87304 0
M  V30 26180 H 2605.45 -3.48083 2.30713 0
M  V30 26181 N 2605.89 -1.47641 -0.551365 0
M  V30 26182 C 2606.85 -1.6011 -1.64004 0
M  V30 26183 C 2607.85 -0.475787 -1.536 0
M  V30 26184 O 2609.04 -0.741016 -1.57653 0
M  V30 26185 C 2606.18 -1.55113 -3.03567 0
M  V30 26186 H 2607.37 -2.57163 -1.54295 0
M  V30 26187 H 2604.92 -1.35918 -0.771752 0
M  V30 26188 H 2605.66 -0.594576 -3.18803 0
M  V30 26189 H 2605.44 -2.36789 -3.12527 0
M  V30 26190 H 2606.93 -1.66989 -3.82759 0
M  V30 26191 N 2607.37 0.798563 -1.3587 0
M  V30 26192 C 2608.28 1.94226 -1.31581 0
M  V30 26193 C 2609.29 1.72611 -0.219421 0
M  V30 26194 O 2610.47 1.96304 -0.450201 0
M  V30 26195 C 2607.54 3.28942 -1.09534 0
M  V30 26196 C 2606.6 3.63398 -2.28562 0
M  V30 26197 C 2605.83 4.91686 -2.07558 0
M  V30 26198 O 2606.05 5.60725 -1.04609 0
M  V30 26199 O 2604.99 5.24586 -2.95115 0
M  V30 26200 H 2608.81 2.00792 -2.27851 0
M  V30 26201 H 2606.4 0.937505 -1.16324 0
M  V30 26202 H 2608.28 4.09577 -0.991199 0
M  V30 26203 H 2606.95 3.23288 -0.163207 0
M  V30 26204 H 2605.86 2.83107 -2.44543 0
M  V30 26205 H 2607.19 3.73766 -3.2025 0
M  V30 26206 N 2608.85 1.19999 1.02166 0
M  V30 26207 C 2609.81 0.946077 2.08763 0
M  V30 26208 C 2610.81 -0.0763563 1.60619 0
M  V30 26209 O 2612 0.159165 1.73471 0
M  V30 26210 C 2609.13 0.423314 3.38262 0
M  V30 26211 H 2610.32 1.89157 2.32722 0
M  V30 26212 H 2607.88 1.01466 1.18888 0
M  V30 26213 H 2608.61 -0.527881 3.19975 0
M  V30 26214 H 2608.4 1.1606 3.7453 0
M  V30 26215 H 2609.89 0.264985 4.16758 0
M  V30 26216 N 2610.32 -1.21392 1.00507 0
M  V30 26217 C 2611.25 -2.26034 0.585723 0
M  V30 26218 C 2612.24 -1.65486 -0.393496 0
M  V30 26219 O 2613.42 -1.92149 -0.281463 0
M  V30 26220 C 2610.55 -3.47188 -0.0883673 0
M  V30 26221 C 2609.5 -4.20253 0.810641 0
M  V30 26222 C 2608.83 -5.347 0.00295781 0
M  V30 26223 C 2610.13 -4.77638 2.11328 0
M  V30 26224 H 2611.82 -2.61365 1.46043 0
M  V30 26225 H 2609.37 -1.25636 0.70367 0
M  V30 26226 H 2611.32 -4.19561 -0.393212 0
M  V30 26227 H 2610.05 -3.10988 -0.997711 0
M  V30 26228 H 2608.71 -3.49729 1.09931 0
M  V30 26229 H 2608.35 -4.94743 -0.907678 0
M  V30 26230 H 2608.05 -5.84513 0.601547 0
M  V30 26231 H 2609.58 -6.09884 -0.295701 0
M  V30 26232 H 2610.99 -5.4189 1.87158 0
M  V30 26233 H 2609.39 -5.3784 2.66173 0
M  V30 26234 H 2610.46 -3.97015 2.784 0
M  V30 26235 N 2611.8 -0.779811 -1.36955 0
M  V30 26236 C 2613.05 -0.348316 -1.99786 0
M  V30 26237 C 2613.38 1.07462 -1.61758 0
M  V30 26238 O 2612.66 1.74074 -0.867669 0
M  V30 26239 C 2612.94 -0.501102 -3.56596 0
M  V30 26240 C 2612.79 -1.96704 -4.04509 0
M  V30 26241 C 2614.11 0.0897324 -4.40009 0
M  V30 26242 H 2611.23 -0.128034 -0.725794 0
M  V30 26243 H 2613.87 -0.98436 -1.62513 0
M  V30 26244 H 2612.02 0.0403664 -3.88479 0
M  V30 26245 H 2613.69 -2.56883 -3.83156 0
M  V30 26246 H 2611.94 -2.47303 -3.56404 0
M  V30 26247 H 2612.61 -2.02495 -5.13517 0
M  V30 26248 H 2615.08 -0.372366 -4.14431 0
M  V30 26249 H 2613.96 -0.047257 -5.4888 0
M  V30 26250 H 2614.22 1.18088 -4.26037 0
M  V30 26251 N 2613.28 1.48384 -0.531019 0
M  V30 26252 C 2614.7 1.58478 -0.188946 0
M  V30 26253 C 2614.9 1.5329 1.30783 0
M  V30 26254 O 2613.95 1.42252 2.08616 0
M  V30 26255 C 2615.27 2.90072 -0.792394 0
M  V30 26256 C 2616.81 3.03602 -0.761223 0
M  V30 26257 C 2617.29 4.37859 -1.34327 0
M  V30 26258 N 2618.78 4.44428 -1.30528 0
M  V30 26259 C 2619.51 5.46821 -1.72552 0
M  V30 26260 N 2619.01 6.56163 -2.2231 0
M  V30 26261 N 2620.8 5.3771 -1.63783 0
M  V30 26262 H 2612.95 1.49999 -1.5038 0
M  V30 26263 H 2615.22 0.712295 -0.625571 0
M  V30 26264 H 2614.92 2.99526 -1.84328 0
M  V30 26265 H 2614.8 3.76232 -0.270092 0
M  V30 26266 H 2617.18 2.9376 0.280905 0
M  V30 26267 H 2617.27 2.19051 -1.321 0
M  V30 26268 H 2616.91 4.48455 -2.38433 0
M  V30 26269 H 2616.84 5.21099 -0.759156 0
M  V30 26270 H 2619.33 3.65996 -0.941038 0
M  V30 26271 H 2619.64 7.30431 -2.52369 0
M  V30 26272 H 2617.99 6.57123 -2.26305 0
M  V30 26273 H 2621.18 4.51183 -1.24706 0
M  V30 26274 H 2621.35 6.17375 -1.96854 0
M  V30 26275 N 2614.76 0.2662 1.55336 0
M  V30 26276 C 2615.67 -0.635418 2.25831 0
M  V30 26277 C 2616.68 -1.17747 1.28108 0
M  V30 26278 O 2617.86 -1.20965 1.61026 0
M  V30 26279 C 2614.93 -1.80706 2.95882 0
M  V30 26280 C 2613.99 -1.30257 4.09062 0
M  V30 26281 C 2613.22 -2.41838 4.75763 0
M  V30 26282 O 2613.44 -3.60999 4.41628 0
M  V30 26283 O 2612.38 -2.105 5.63891 0
M  V30 26284 H 2616.2 -0.0646159 3.03631 0
M  V30 26285 H 2613.79 0.033944 1.49361 0
M  V30 26286 H 2615.67 -2.49041 3.39936 0
M  V30 26287 H 2614.34 -2.36512 2.21006 0
M  V30 26288 H 2613.25 -0.585954 3.69483 0
M  V30 26289 H 2614.58 -0.790373 4.85813 0
M  V30 26290 N 2616.24 -1.57599 -0.0066531 0
M  V30 26291 C 2617.2 -2.06955 -0.984999 0
M  V30 26292 C 2618.2 -0.97771 -1.27662 0
M  V30 26293 O 2619.39 -1.24059 -1.22291 0
M  V30 26294 C 2616.52 -2.5054 -2.31176 0
M  V30 26295 H 2617.71 -2.94659 -0.558203 0
M  V30 26296 H 2615.27 -1.54223 -0.253984 0
M  V30 26297 H 2616 -1.66059 -2.78558 0
M  V30 26298 H 2615.79 -3.30274 -2.11333 0
M  V30 26299 H 2617.28 -2.89075 -3.01372 0
M  V30 26300 N 2617.72 0.279305 -1.55105 0
M  V30 26301 C 2618.63 1.36724 -1.9064 0
M  V30 26302 C 2619.64 1.54367 -0.802926 0
M  V30 26303 O 2620.82 1.68615 -1.10141 0
M  V30 26304 C 2617.88 2.70751 -2.16552 0
M  V30 26305 C 2616.94 2.61909 -3.40151 0
M  V30 26306 C 2616.18 3.89544 -3.64817 0
M  V30 26307 O 2616.4 4.8993 -2.92103 0
M  V30 26308 O 2615.33 3.90127 -4.5835 0
M  V30 26309 H 2619.16 1.09586 -2.83239 0
M  V30 26310 H 2616.74 0.477281 -1.41571 0
M  V30 26311 H 2618.63 3.5001 -2.34671 0
M  V30 26312 H 2617.3 2.97688 -1.27136 0
M  V30 26313 H 2616.21 1.81046 -3.27373 0
M  V30 26314 H 2617.54 2.39922 -4.29765 0
M  V30 26315 N 2619.19 1.47931 0.543528 0
M  V30 26316 C 2620.16 1.60978 1.63153 0
M  V30 26317 C 2621.16 0.483926 1.53345 0
M  V30 26318 O 2622.35 0.749366 1.57258 0
M  V30 26319 C 2619.48 1.56721 3.0274 0
M  V30 26320 H 2620.67 2.57978 1.52929 0
M  V30 26321 H 2618.22 1.36325 0.764533 0
M  V30 26322 H 2618.96 0.611474 3.18483 0
M  V30 26323 H 2618.74 2.38443 3.11267 0
M  V30 26324 H 2620.23 1.69017 3.81868 0
M  V30 26325 N 2620.67 -0.791347 1.36292 0
M  V30 26326 C 2621.62 -1.9039 1.30461 0
M  V30 26327 C 2622.59 -1.6519 0.173661 0
M  V30 26328 O 2623.77 -1.87376 0.359863 0
M  V30 26329 C 2620.91 -3.27172 1.09783 0
M  V30 26330 C 2620.03 -3.64458 2.31936 0
M  V30 26331 C 2619.16 -4.90348 2.04284 0
M  V30 26332 C 2618.2 -5.20307 3.22409 0
M  V30 26333 N 2617.34 -6.37379 2.94435 0
M  V30 26334 H 2622.18 -1.9471 2.25593 0
M  V30 26335 H 2619.71 -0.952196 1.12123 0
M  V30 26336 H 2621.67 -4.06047 0.958204 0
M  V30 26337 H 2620.3 -3.2228 0.183071 0
M  V30 26338 H 2619.35 -2.80723 2.56708 0
M  V30 26339 H 2620.67 -3.82548 3.20092 0
M  V30 26340 H 2619.82 -5.77084 1.87241 0
M  V30 26341 H 2618.56 -4.74324 1.13436 0
M  V30 26342 H 2617.56 -4.32055 3.40013 0
M  V30 26343 H 2618.79 -5.38251 4.14081 0
M  V30 26344 H 2616.74 -6.22751 2.06196 0
M  V30 26345 H 2616.65 -6.55792 3.76129 0
M  V30 26346 H 2617.92 -7.27103 2.80966 0
M  V30 26347 N 2622.15 -1.2054 -1.01528 0
M  V30 26348 C 2623.08 -0.898732 -2.09757 0
M  V30 26349 C 2624.06 0.149705 -1.61909 0
M  V30 26350 O 2625.24 0.0229962 -1.88486 0
M  V30 26351 C 2622.37 -0.347571 -3.36912 0
M  V30 26352 C 2621.42 -1.3772 -4.03653 0
M  V30 26353 S 2622.25 -2.94273 -4.47397 0
M  V30 26354 C 2623.41 -2.40736 -5.77752 0
M  V30 26355 H 2623.64 -1.81527 -2.35447 0
M  V30 26356 H 2621.17 -1.03401 -1.14663 0
M  V30 26357 H 2623.13 -0.036124 -4.10484 0
M  V30 26358 H 2621.79 0.547492 -3.09292 0
M  V30 26359 H 2620.98 -0.940959 -4.95138 0
M  V30 26360 H 2620.59 -1.63619 -3.3631 0
M  V30 26361 H 2622.88 -1.8058 -6.52991 0
M  V30 26362 H 2623.82 -3.30623 -6.26174 0
M  V30 26363 H 2624.23 -1.82816 -5.34077 0
M  V30 26364 N 2623.63 1.20858 -1.01149 0
M  V30 26365 C 2624.56 2.22854 -0.535585 0
M  V30 26366 C 2625.57 1.5832 0.379296 0
M  V30 26367 O 2626.76 1.77606 0.178458 0
M  V30 26368 C 2623.86 3.38043 0.240902 0
M  V30 26369 C 2623.03 4.32166 -0.674638 0
M  V30 26370 C 2622.09 5.26173 0.0533745 0
M  V30 26371 O 2621.12 5.66365 -0.567439 0
M  V30 26372 N 2622.32 5.65062 1.32987 0
M  V30 26373 H 2625.09 2.64314 -1.41273 0
M  V30 26374 H 2622.65 1.35347 -0.88841 0
M  V30 26375 H 2624.64 3.97932 0.737046 0
M  V30 26376 H 2623.21 2.95515 1.0193 0
M  V30 26377 H 2622.43 3.7032 -1.35117 0
M  V30 26378 H 2623.72 4.91978 -1.29748 0
M  V30 26379 H 2623.12 5.34412 1.85527 0
M  V30 26380 H 2621.67 6.27283 1.77084 0
M  V30 26381 N 2625.11 0.787064 1.3654 0
M  V30 26382 C 2626.02 0.184937 2.3387 0
M  V30 26383 C 2627.03 -0.661668 1.60928 0
M  V30 26384 O 2628.21 -0.578006 1.92928 0
M  V30 26385 C 2625.27 -0.672085 3.40123 0
M  V30 26386 C 2624.33 0.192746 4.28867 0
M  V30 26387 C 2623.57 -0.623468 5.30046 0
M  V30 26388 O 2623.79 -1.8596 5.39236 0
M  V30 26389 O 2622.72 -0.024601 6.01895 0
M  V30 26390 H 2626.55 0.989613 2.87124 0
M  V30 26391 H 2624.13 0.54848 1.38968 0
M  V30 26392 H 2626.02 -1.16087 4.05095 0
M  V30 26393 H 2624.69 -1.45469 2.89172 0
M  V30 26394 H 2623.6 0.72823 3.66944 0
M  V30 26395 H 2624.93 0.938807 4.83164 0
M  V30 26396 N 2626.58 -1.48101 0.53888 0
M  V30 26397 C 2627.81 -2.07397 0.0103059 0
M  V30 26398 C 2628.23 -1.39155 -1.2656 0
M  V30 26399 O 2627.59 -0.460417 -1.75356 0
M  V30 26400 C 2627.64 -3.60112 -0.187539 0
M  V30 26401 O 2626.74 -3.92864 -1.25426 0
M  V30 26402 H 2626.08 -0.662599 0.0431091 0
M  V30 26403 H 2628.61 -1.90384 0.749335 0
M  V30 26404 H 2628.62 -4.0596 -0.407446 0
M  V30 26405 H 2627.3 -4.09183 0.744458 0
M  V30 26406 H 2625.88 -3.58784 -1.0163 0
M  V30 26407 N 2628.06 -0.274434 -1.55192 0
M  V30 26408 C 2629.01 0.629322 -2.23925 0
M  V30 26409 C 2630 1.15838 -1.23604 0
M  V30 26410 O 2631.21 1.11209 -1.41537 0
M  V30 26411 H 2627.58 0.221494 -0.718641 0
M  V30 26412 H 2629.56 0.0267798 -2.98388 0
M  V30 26413 C 2628.3 1.80246 -2.97332 0
M  V30 26414 H 2627.63 1.40455 -3.74316 0
M  V30 26415 H 2629.07 2.41146 -3.48747 0
M  V30 26416 C 2627.53 2.6905 -2.02765 0
M  V30 26417 O 2628.06 3.6939 -1.57842 0
M  V30 26418 N 2626.26 2.36205 -1.69279 0
M  V30 26419 H 2625.81 1.54658 -2.06007 0
M  V30 26420 H 2625.77 2.95893 -1.06276 0
M  V30 26421 N 2629.54 1.576 -0.00170483 0
M  V30 26422 C 2630.49 2.05012 0.997708 0
M  V30 26423 C 2631.47 0.945173 1.30212 0
M  V30 26424 O 2632.67 1.20893 1.29282 0
M  V30 26425 C 2629.79 2.55837 2.28915 0
M  V30 26426 C 2628.88 3.73211 2.0143 0
M  V30 26427 N 2629.27 4.84836 1.4411 0
M  V30 26428 C 2627.57 3.81174 2.31565 0
M  V30 26429 C 2628.27 5.6626 1.33135 0
M  V30 26430 N 2627.25 5.12315 1.81754 0
M  V30 26431 H 2631.05 2.88726 0.549047 0
M  V30 26432 H 2628.56 1.61114 0.203951 0
M  V30 26433 H 2630.56 2.8808 3.01356 0
M  V30 26434 H 2629.22 1.73542 2.74433 0
M  V30 26435 H 2630.23 5.05651 1.11969 0
M  V30 26436 H 2626.91 3.09737 2.79945 0
M  V30 26437 H 2628.3 6.65973 0.89045 0
M  V30 26438 N 2631.02 -0.271076 1.55251 0
M  V30 26439 C 2631.95 -1.33929 1.91272 0
M  V30 26440 C 2632.93 -1.51429 0.774806 0
M  V30 26441 O 2634.11 -1.6444 1.0331 0
M  V30 26442 C 2631.24 -2.69847 2.18632 0
M  V30 26443 C 2630.2 -2.67076 3.34447 0
M  V30 26444 C 2629.52 -4.06563 3.47291 0
M  V30 26445 C 2630.82 -2.26176 4.70788 0
M  V30 26446 H 2632.52 -1.0403 2.80746 0
M  V30 26447 H 2630.06 -0.498993 1.35078 0
M  V30 26448 H 2632.02 -3.4469 2.42419 0
M  V30 26449 H 2630.74 -3.01333 1.2596 0
M  V30 26450 H 2629.4 -1.9469 3.10631 0
M  V30 26451 H 2629.05 -4.35274 2.52082 0
M  V30 26452 H 2628.75 -4.05603 4.25159 0
M  V30 26453 H 2630.27 -4.83142 3.73372 0
M  V30 26454 H 2631.69 -2.90743 4.94107 0
M  V30 26455 H 2630.08 -2.36375 5.51586 0
M  V30 26456 H 2631.15 -1.2131 4.6948 0
M  V30 26457 N 2632.5 -1.48217 -0.535675 0
M  V30 26458 C 2633.43 -1.65207 -1.65012 0
M  V30 26459 C 2634.41 -0.50104 -1.62553 0
M  V30 26460 O 2635.59 -0.732917 -1.79839 0
M  V30 26461 C 2632.72 -1.68631 -3.03613 0
M  V30 26462 C 2631.68 -2.83178 -3.20927 0
M  V30 26463 C 2631 -2.71687 -4.60532 0
M  V30 26464 C 2632.3 -4.2454 -3.04242 0
M  V30 26465 H 2634 -2.58505 -1.51048 0
M  V30 26466 H 2631.54 -1.24404 -0.72524 0
M  V30 26467 H 2633.5 -1.79106 -3.81443 0
M  V30 26468 H 2632.22 -0.719082 -3.18586 0
M  V30 26469 H 2630.88 -2.72249 -2.45512 0
M  V30 26470 H 2630.53 -1.72946 -4.72333 0
M  V30 26471 H 2630.23 -3.48547 -4.73063 0
M  V30 26472 H 2631.75 -2.84121 -5.4047 0
M  V30 26473 H 2633.16 -4.36332 -3.71869 0
M  V30 26474 H 2631.56 -5.02354 -3.28269 0
M  V30 26475 H 2632.63 -4.41401 -2.00732 0
M  V30 26476 N 2633.97 0.784108 -1.3671 0
M  V30 26477 C 2634.9 1.91114 -1.34156 0
M  V30 26478 C 2635.89 1.68772 -0.212151 0
M  V30 26479 O 2637.07 1.89809 -0.410615 0
M  V30 26480 C 2634.2 3.28216 -1.13541 0
M  V30 26481 C 2633.15 3.65094 -2.23362 0
M  V30 26482 C 2632.48 5.00603 -1.87884 0
M  V30 26483 C 2633.78 3.73125 -3.65479 0
M  V30 26484 H 2635.47 1.93508 -2.28463 0
M  V30 26485 H 2633.02 0.929599 -1.09975 0
M  V30 26486 H 2634.97 4.06685 -1.10388 0
M  V30 26487 H 2633.7 3.26223 -0.156861 0
M  V30 26488 H 2632.36 2.88925 -2.2565 0
M  V30 26489 H 2632 4.95137 -0.885902 0
M  V30 26490 H 2631.7 5.26247 -2.61415 0
M  V30 26491 H 2633.23 5.81486 -1.86296 0
M  V30 26492 H 2634.64 4.41773 -3.6539 0
M  V30 26493 H 2633.04 4.10257 -4.3796 0
M  V30 26494 H 2634.11 2.74095 -4 0
M  V30 26495 N 2635.45 1.21076 1.00888 0
M  V30 26496 C 2636.39 0.909843 2.09278 0
M  V30 26497 C 2637.36 -0.141116 1.61986 0
M  V30 26498 O 2638.55 -0.013 1.88496 0
M  V30 26499 C 2635.67 0.365433 3.36723 0
M  V30 26500 C 2634.72 1.39859 4.02917 0
M  V30 26501 S 2635.55 2.96641 4.4583 0
M  V30 26502 C 2636.71 2.43797 5.76467 0
M  V30 26503 H 2636.94 1.82773 2.34481 0
M  V30 26504 H 2634.48 1.04008 1.14113 0
M  V30 26505 H 2636.43 0.0578925 4.10459 0
M  V30 26506 H 2635.09 -0.531082 3.09578 0
M  V30 26507 H 2634.29 0.967204 4.94632 0
M  V30 26508 H 2633.89 1.65401 3.35438 0
M  V30 26509 H 2636.18 1.8404 6.52024 0
M  V30 26510 H 2637.12 3.33939 6.24412 0
M  V30 26511 H 2637.53 1.85645 5.331 0
M  V30 26512 N 2636.93 -1.2032 1.01789 0
M  V30 26513 C 2638.18 -1.90002 0.709018 0
M  V30 26514 C 2638.51 -1.78731 -0.759541 0
M  V30 26515 O 2637.78 -1.17237 -1.55196 0
M  V30 26516 C 2638.07 -3.41346 1.14696 0
M  V30 26517 C 2637.92 -3.61544 2.67593 0
M  V30 26518 C 2639.24 -4.34183 0.719226 0
M  V30 26519 H 2636.36 -0.689974 0.259046 0
M  V30 26520 H 2639 -1.4169 1.26586 0
M  V30 26521 H 2637.15 -3.82623 0.673195 0
M  V30 26522 H 2638.82 -3.29511 3.22832 0
M  V30 26523 H 2637.07 -3.04971 3.08505 0
M  V30 26524 H 2637.74 -4.67638 2.93289 0
M  V30 26525 H 2640.21 -4.0056 1.12654 0
M  V30 26526 H 2639.09 -5.38692 1.05367 0
M  V30 26527 H 2639.35 -4.40472 -0.379034 0
M  V30 26528 N 2638.41 -0.794293 -1.3612 0
M  V30 26529 C 2639.36 -0.184064 -2.31871 0
M  V30 26530 C 2640.35 0.659338 -1.56042 0
M  V30 26531 O 2641.56 0.553876 -1.71267 0
M  V30 26532 H 2637.93 -0.0407505 -0.750895 0
M  V30 26533 H 2639.9 -1.00698 -2.80896 0
M  V30 26534 C 2638.65 0.662753 -3.41325 0
M  V30 26535 H 2637.97 0.0231242 -3.99793 0
M  V30 26536 H 2639.41 1.05632 -4.10631 0
M  V30 26537 C 2637.87 1.82308 -2.83312 0
M  V30 26538 O 2638.4 2.91992 -2.75869 0
M  V30 26539 N 2636.61 1.63072 -2.40532 0
M  V30 26540 H 2636.16 0.738548 -2.46786 0
M  V30 26541 H 2636.11 2.40868 -2.02064 0
M  V30 26542 N 2639.89 1.47813 -0.546727 0
M  V30 26543 C 2640.85 2.28358 0.196247 0
M  V30 26544 C 2641.85 1.36347 0.852413 0
M  V30 26545 O 2643.04 1.59079 0.709885 0
M  V30 26546 C 2640.17 3.15724 1.28574 0
M  V30 26547 H 2641.36 2.95512 -0.511138 0
M  V30 26548 H 2638.92 1.53329 -0.303275 0
M  V30 26549 H 2639.65 2.53238 2.02585 0
M  V30 26550 H 2639.44 3.83426 0.820161 0
M  V30 26551 H 2640.93 3.76438 1.80787 0
M  V30 26552 N 2641.36 0.28266 1.55044 0
M  V30 26553 C 2642.31 -0.617438 2.24255 0
M  V30 26554 C 2643.31 -1.15181 1.24217 0
M  V30 26555 O 2644.51 -1.10456 1.42124 0
M  V30 26556 H 2640.89 -0.21768 0.719805 0
M  V30 26557 H 2642.86 -0.0109552 2.98398 0
M  V30 26558 C 2641.61 -1.78667 2.98284 0
M  V30 26559 H 2640.93 -1.38468 3.75055 0
M  V30 26560 H 2642.37 -2.39293 3.50021 0
M  V30 26561 C 2640.83 -2.67971 2.04189 0
M  V30 26562 O 2641.36 -3.68547 1.59799 0
M  V30 26563 N 2639.57 -2.35304 1.7053 0
M  V30 26564 H 2639.11 -1.53563 2.06824 0
M  V30 26565 H 2639.07 -2.95325 1.07844 0
M  V30 26566 N 2642.84 -1.57597 0.0100627 0
M  V30 26567 C 2643.77 -2.12086 -0.97682 0
M  V30 26568 C 2644.75 -1.03237 -1.35189 0
M  V30 26569 O 2645.94 -1.30973 -1.43387 0
M  V30 26570 C 2643.07 -2.6324 -2.26544 0
M  V30 26571 C 2642.02 -3.76705 -2.03169 0
M  V30 26572 C 2641.35 -4.14212 -3.38131 0
M  V30 26573 C 2642.65 -5.0357 -1.38617 0
M  V30 26574 H 2644.34 -2.94795 -0.523093 0
M  V30 26575 H 2641.89 -1.4181 -0.25017 0
M  V30 26576 H 2643.84 -2.99989 -2.95947 0
M  V30 26577 H 2642.57 -1.77666 -2.74048 0
M  V30 26578 H 2641.22 -3.40365 -1.36189 0
M  V30 26579 H 2640.87 -3.25647 -3.83357 0
M  V30 26580 H 2640.57 -4.90662 -3.23303 0
M  V30 26581 H 2642.1 -4.53529 -4.08833 0
M  V30 26582 H 2643.51 -5.38026 -1.97991 0
M  V30 26583 H 2641.91 -5.84891 -1.34246 0
M  V30 26584 H 2642.98 -4.83587 -0.356637 0
M  V30 26585 N 2644.32 0.262839 -1.55393 0
M  V30 26586 C 2645.74 0.610556 -1.4746 0
M  V30 26587 C 2645.94 1.89059 -0.697064 0
M  V30 26588 O 2644.99 2.5154 -0.219996 0
M  V30 26589 C 2646.31 0.728079 -2.91752 0
M  V30 26590 C 2647.85 0.821463 -3.02028 0
M  V30 26591 C 2648.33 0.970681 -4.47596 0
M  V30 26592 N 2649.82 1.03595 -4.51467 0
M  V30 26593 C 2650.55 1.17039 -5.61328 0
M  V30 26594 N 2650.05 1.27138 -6.81034 0
M  V30 26595 N 2651.84 1.20229 -5.49091 0
M  V30 26596 H 2643.99 -0.577668 -2.04394 0
M  V30 26597 H 2646.26 -0.197102 -0.927284 0
M  V30 26598 H 2645.96 -0.142193 -3.51412 0
M  V30 26599 H 2645.84 1.60514 -3.41343 0
M  V30 26600 H 2648.22 1.6822 -2.42458 0
M  V30 26601 H 2648.31 -0.0804137 -2.55674 0
M  V30 26602 H 2647.95 0.114566 -5.07771 0
M  V30 26603 H 2647.88 1.88736 -4.91616 0
M  V30 26604 H 2650.37 0.969896 -3.65242 0
M  V30 26605 H 2650.68 1.37258 -7.60513 0
M  V30 26606 H 2649.03 1.24124 -6.83826 0
M  V30 26607 H 2652.22 1.11977 -4.54509 0
M  V30 26608 H 2652.39 1.30362 -6.34752 0
M  V30 26609 N 2645.8 1.48499 0.527807 0
M  V30 26610 C 2646.71 1.6587 1.65905 0
M  V30 26611 C 2647.72 0.541221 1.65369 0
M  V30 26612 O 2648.9 0.812566 1.84281 0
M  V30 26613 C 2645.97 1.69642 3.02361 0
M  V30 26614 C 2645.03 2.93034 3.13735 0
M  V30 26615 C 2644.26 2.96617 4.43683 0
M  V30 26616 O 2644.48 2.08547 5.30909 0
M  V30 26617 O 2643.42 3.8881 4.59468 0
M  V30 26618 H 2647.24 2.6165 1.54186 0
M  V30 26619 H 2644.83 1.31926 0.70114 0
M  V30 26620 H 2646.71 1.74632 3.83512 0
M  V30 26621 H 2645.38 0.770368 3.14399 0
M  V30 26622 H 2644.29 2.93575 2.31871 0
M  V30 26623 H 2645.62 3.85031 3.06614 0
M  V30 26624 N 2647.28 -0.776847 1.37123 0
M  V30 26625 C 2648.52 -1.53522 1.3205 0
M  V30 26626 C 2648.85 -1.9426 -0.096529 0
M  V30 26627 O 2648.11 -1.63947 -1.06863 0
M  V30 26628 C 2648.41 -2.81607 2.20073 0
M  V30 26629 C 2648.07 -2.59947 3.68427 0
M  V30 26630 C 2646.73 -2.53747 4.08859 0
M  V30 26631 C 2649.09 -2.40423 4.62435 0
M  V30 26632 C 2646.41 -2.26008 5.41421 0
M  V30 26633 C 2648.77 -2.14209 5.95229 0
M  V30 26634 C 2647.43 -2.06451 6.34771 0
M  V30 26635 H 2646.7 -0.561777 0.483206 0
M  V30 26636 H 2649.35 -0.895238 1.69286 0
M  V30 26637 H 2647.65 -3.50138 1.75815 0
M  V30 26638 H 2649.35 -3.39461 2.13464 0
M  V30 26639 H 2645.94 -2.65632 3.36359 0
M  V30 26640 H 2650.12 -2.44206 4.32062 0
M  V30 26641 H 2645.38 -2.18494 5.71026 0
M  V30 26642 H 2649.55 -1.981 6.6763 0
M  V30 26643 H 2647.18 -1.8472 7.37416 0
M  V30 26644 N 2648.76 -1.2161 -1.00244 0
M  V30 26645 C 2649.98 -1.0617 -1.78165 0
M  V30 26646 C 2650.41 0.384002 -1.84139 0
M  V30 26647 O 2649.76 1.2771 -1.28685 0
M  V30 26648 C 2649.81 -1.66648 -3.19783 0
M  V30 26649 O 2648.92 -0.913684 -4.02151 0
M  V30 26650 H 2648.26 -0.3735 -0.548993 0
M  V30 26651 H 2650.79 -1.61206 -1.25991 0
M  V30 26652 H 2650.8 -1.70975 -3.70448 0
M  V30 26653 H 2649.47 -2.71856 -3.14749 0
M  V30 26654 H 2648.05 -0.945698 -3.60709 0
M  V30 26655 N 2650.23 1.19778 -1.02425 0
M  V30 26656 C 2651.51 1.8508 -0.632834 0
M  V30 26657 C 2651.89 1.91481 0.888711 0
M  V30 26658 O 2651.24 1.42835 1.78355 0
M  V30 26659 C 2651.45 3.24303 -1.28953 0
M  V30 26660 C 2652.8 4.00511 -1.40983 0
M  V30 26661 O 2653.82 3.33684 -1.24634 0
M  V30 26662 O 2652.68 5.20206 -1.67476 0
M  V30 26663 H 2649.77 0.797377 -0.219362 0
M  V30 26664 H 2652.32 1.27305 -1.12211 0
M  V30 26665 H 2651.09 3.14452 -2.32886 0
M  V30 26666 H 2650.71 3.89717 -0.787816 0
M  V30 26667 N 2651.71 0.801501 1.35697 0
M  V30 26668 C 2652.66 0.206335 2.29876 0
M  V30 26669 C 2653.63 -0.656725 1.52566 0
M  V30 26670 O 2654.81 -0.602874 1.81025 0
M  V30 26671 C 2651.95 -0.643212 3.39053 0
M  V30 26672 C 2651.07 0.23972 4.31334 0
M  V30 26673 C 2650.2 -0.617347 5.276 0
M  V30 26674 C 2649.24 0.266298 6.1152 0
M  V30 26675 N 2648.38 -0.550448 6.99939 0
M  V30 26676 H 2653.22 1.01489 2.80186 0
M  V30 26677 H 2650.75 0.512022 1.37901 0
M  V30 26678 H 2652.71 -1.15087 4.01012 0
M  V30 26679 H 2651.34 -1.41708 2.90032 0
M  V30 26680 H 2650.39 0.865446 3.70424 0
M  V30 26681 H 2651.71 0.920071 4.90241 0
M  V30 26682 H 2650.86 -1.19034 5.94908 0
M  V30 26683 H 2649.6 -1.33128 4.69178 0
M  V30 26684 H 2648.6 0.851603 5.43165 0
M  V30 26685 H 2649.83 0.978018 6.72021 0
M  V30 26686 H 2647.78 -1.24845 6.44011 0
M  V30 26687 H 2647.69 0.0719648 7.55966 0
M  V30 26688 H 2648.96 -1.10688 7.71601 0
M  V30 26689 N 2653.19 -1.47521 0.554558 0
M  V30 26690 C 2654.14 -2.29978 -0.19462 0
M  V30 26691 C 2655.11 -1.38898 -0.910857 0
M  V30 26692 O 2656.29 -1.6786 -0.907073 0
M  V30 26693 C 2653.43 -3.22805 -1.2203 0
M  V30 26694 C 2652.54 -4.28974 -0.510398 0
M  V30 26695 C 2651.68 -5.08955 -1.52114 0
M  V30 26696 C 2650.72 -6.06901 -0.796066 0
M  V30 26697 N 2649.86 -6.7985 -1.75351 0
M  V30 26698 H 2654.7 -2.93522 0.514662 0
M  V30 26699 H 2652.23 -1.44682 0.265632 0
M  V30 26700 H 2654.19 -3.75043 -1.82753 0
M  V30 26701 H 2652.82 -2.61131 -1.89765 0
M  V30 26702 H 2651.87 -3.79813 0.211301 0
M  V30 26703 H 2653.18 -4.98767 0.0577379 0
M  V30 26704 H 2652.34 -5.6533 -2.20198 0
M  V30 26705 H 2651.08 -4.39058 -2.12319 0
M  V30 26706 H 2650.08 -5.49707 -0.101291 0
M  V30 26707 H 2651.31 -6.78806 -0.199792 0
M  V30 26708 H 2649.25 -6.12686 -2.34419 0
M  V30 26709 H 2649.17 -7.45804 -1.23745 0
M  V30 26710 H 2650.44 -7.40801 -2.42557 0
M  V30 26711 N 2654.67 -0.290879 -1.54892 0
M  V30 26712 C 2655.6 0.583044 -2.26104 0
M  V30 26713 C 2656.58 1.14617 -1.25686 0
M  V30 26714 O 2657.76 1.17739 -1.54439 0
M  V30 26715 C 2654.89 1.75982 -2.99412 0
M  V30 26716 C 2653.85 1.32751 -4.06892 0
M  V30 26717 C 2653.17 2.58864 -4.67861 0
M  V30 26718 C 2654.47 0.466148 -5.20216 0
M  V30 26719 H 2656.17 -0.0108741 -2.99398 0
M  V30 26720 H 2653.71 -0.00666999 -1.43998 0
M  V30 26721 H 2655.67 2.3772 -3.47947 0
M  V30 26722 H 2654.39 2.37981 -2.23679 0
M  V30 26723 H 2653.05 0.733236 -3.59192 0
M  V30 26724 H 2652.7 3.19156 -3.88778 0
M  V30 26725 H 2652.4 2.30644 -5.40442 0
M  V30 26726 H 2653.92 3.21424 -5.19152 0
M  V30 26727 H 2655.34 0.988948 -5.64706 0
M  V30 26728 H 2653.73 0.278155 -5.99455 0
M  V30 26729 H 2654.8 -0.511257 -4.82197 0
M  V30 26730 N 2656.15 1.57589 -0.0184203 0
M  V30 26731 C 2657.1 2.06058 0.975908 0
M  V30 26732 C 2658.08 0.958931 1.29203 0
M  V30 26733 O 2659.27 1.22257 1.27993 0
M  V30 26734 C 2656.4 2.58251 2.26189 0
M  V30 26735 C 2655.49 3.75327 1.97461 0
M  V30 26736 N 2655.88 4.86337 1.3896 0
M  V30 26737 C 2654.18 3.83609 2.27509 0
M  V30 26738 C 2654.88 5.6764 1.27121 0
M  V30 26739 N 2653.85 5.14214 1.7631 0
M  V30 26740 H 2657.65 2.89292 0.518393 0
M  V30 26741 H 2655.17 1.61321 0.186851 0
M  V30 26742 H 2657.17 2.9126 2.98284 0
M  V30 26743 H 2655.83 1.76443 2.72577 0
M  V30 26744 H 2656.84 5.06811 1.06599 0
M  V30 26745 H 2653.51 3.12689 2.76644 0
M  V30 26746 H 2654.9 6.6688 0.819765 0
M  V30 26747 N 2657.62 -0.254594 1.5553 0
M  V30 26748 C 2658.87 -0.985162 1.77264 0
M  V30 26749 C 2659.2 -1.85264 0.582319 0
M  V30 26750 O 2658.48 -1.89919 -0.419632 0
M  V30 26751 C 2658.76 -1.85219 3.08814 0
M  V30 26752 C 2658.61 -1.01342 4.38235 0
M  V30 26753 C 2659.93 -2.83606 3.36535 0
M  V30 26754 H 2657.05 -0.356731 0.644913 0
M  V30 26755 H 2659.69 -0.256202 1.88265 0
M  V30 26756 H 2657.84 -2.47371 2.99566 0
M  V30 26757 H 2659.52 -0.411189 4.59464 0
M  V30 26758 H 2657.76 -0.317498 4.32637 0
M  V30 26759 H 2658.43 -1.6537 5.26647 0
M  V30 26760 H 2660.91 -2.3159 3.45695 0
M  V30 26761 H 2659.78 -3.41399 4.29811 0
M  V30 26762 H 2660.04 -3.59677 2.5707 0
M  V30 26763 N 2659.1 -1.48777 -0.519925 0
M  V30 26764 C 2660.03 -1.60145 -1.6397 0
M  V30 26765 C 2661.05 -0.485145 -1.55403 0
M  V30 26766 O 2662.24 -0.756419 -1.6168 0
M  V30 26767 C 2659.34 -1.52454 -3.02673 0
M  V30 26768 C 2658.51 -2.79297 -3.36619 0
M  V30 26769 C 2657.57 -2.6492 -4.54647 0
M  V30 26770 O 2656.59 -3.38826 -4.57368 0
M  V30 26771 N 2657.8 -1.75204 -5.53429 0
M  V30 26772 H 2660.56 -2.56716 -1.54651 0
M  V30 26773 H 2658.12 -1.45627 -0.707413 0
M  V30 26774 H 2660.11 -1.40517 -3.79522 0
M  V30 26775 H 2658.68 -0.638179 -3.06016 0
M  V30 26776 H 2657.9 -3.05725 -2.4885 0
M  V30 26777 H 2659.19 -3.63427 -3.56088 0
M  V30 26778 H 2658.59 -1.14381 -5.54016 0
M  V30 26779 H 2657.15 -1.69201 -6.29456 0
M  V30 26780 N 2660.58 0.769564 -1.37534 0
M  V30 26781 C 2661.49 1.91391 -1.35671 0
M  V30 26782 C 2662.51 1.72107 -0.255985 0
M  V30 26783 O 2663.68 1.95305 -0.491739 0
M  V30 26784 C 2660.75 3.26545 -1.16487 0
M  V30 26785 C 2659.81 3.58468 -2.36219 0
M  V30 26786 C 2659.04 4.87173 -2.1794 0
M  V30 26787 O 2659.26 5.5838 -1.1648 0
M  V30 26788 O 2658.2 5.18208 -3.06176 0
M  V30 26789 H 2662.02 1.95914 -2.32059 0
M  V30 26790 H 2659.61 0.912621 -1.18286 0
M  V30 26791 H 2661.49 4.07382 -1.07785 0
M  V30 26792 H 2660.17 3.22869 -0.231744 0
M  V30 26793 H 2659.07 2.77856 -2.50493 0
M  V30 26794 H 2660.41 3.66889 -3.28106 0
M  V30 26795 N 2662.06 1.22139 0.995977 0
M  V30 26796 C 2662.97 1.005 2.11983 0
M  V30 26797 C 2663.98 -0.0457395 1.7394 0
M  V30 26798 O 2665.16 0.146309 2.00868 0
M  V30 26799 C 2662.23 0.582146 3.41778 0
M  V30 26800 C 2661.29 1.70615 3.9394 0
M  V30 26801 C 2660.52 1.30337 5.1754 0
M  V30 26802 O 2660.74 0.180843 5.70113 0
M  V30 26803 O 2659.68 2.1187 5.63378 0
M  V30 26804 H 2663.5 1.94651 2.3312 0
M  V30 26805 H 2661.09 1.00707 1.10356 0
M  V30 26806 H 2662.97 0.356541 4.19889 0
M  V30 26807 H 2661.64 -0.330536 3.22008 0
M  V30 26808 H 2660.55 1.98625 3.17016 0
M  V30 26809 H 2661.88 2.59658 4.18137 0
M  V30 26810 N 2663.54 -1.19233 1.03059 0
M  V30 26811 C 2664.47 -2.21974 0.570971 0
M  V30 26812 C 2665.48 -1.58903 -0.35406 0
M  V30 26813 O 2666.67 -1.77867 -0.15018 0
M  V30 26814 C 2663.77 -3.38383 -0.187092 0
M  V30 26815 C 2662.94 -4.31038 0.743307 0
M  V30 26816 C 2662 -5.26191 0.0303418 0
M  V30 26817 O 2661.03 -5.6539 0.657471 0
M  V30 26818 N 2662.23 -5.67106 -1.23981 0
M  V30 26819 H 2665 -2.62033 1.4546 0
M  V30 26820 H 2662.56 -1.33917 0.90983 0
M  V30 26821 H 2664.55 -3.99054 -0.673645 0
M  V30 26822 H 2663.12 -2.97099 -0.972153 0
M  V30 26823 H 2662.34 -3.68124 1.40992 0
M  V30 26824 H 2663.63 -4.89852 1.37559 0
M  V30 26825 H 2663.02 -5.37296 -1.77002 0
M  V30 26826 H 2661.58 -6.30021 -1.67082 0
M  V30 26827 N 2665.01 -0.808686 -1.3527 0
M  V30 26828 C 2665.96 -0.208646 -2.31662 0
M  V30 26829 C 2666.96 0.64275 -1.56733 0
M  V30 26830 O 2668.16 0.535679 -1.71844 0
M  V30 26831 H 2664.54 -0.0487124 -0.750421 0
M  V30 26832 H 2666.51 -1.03671 -2.79812 0
M  V30 26833 C 2665.26 0.626513 -3.42009 0
M  V30 26834 H 2664.58 -0.0192806 -3.99795 0
M  V30 26835 H 2666.02 1.01271 -4.11728 0
M  V30 26836 C 2664.48 1.79293 -2.85229 0
M  V30 26837 O 2665.01 2.8905 -2.7895 0
M  V30 26838 N 2663.22 1.60512 -2.42248 0
M  V30 26839 H 2662.76 0.712331 -2.47555 0
M  V30 26840 H 2662.72 2.38712 -2.04607 0
M  V30 26841 N 2666.49 1.47225 -0.562374 0
M  V30 26842 C 2667.42 2.32876 0.170586 0
M  V30 26843 C 2668.4 1.44107 0.903722 0
M  V30 26844 O 2669.59 1.72956 0.883176 0
M  V30 26845 C 2666.72 3.25991 1.1978 0
M  V30 26846 C 2665.67 4.24041 0.580801 0
M  V30 26847 C 2665 5.06517 1.71302 0
M  V30 26848 C 2666.3 5.20192 -0.468806 0
M  V30 26849 H 2667.99 2.94407 -0.544492 0
M  V30 26850 H 2665.54 1.41572 -0.263296 0
M  V30 26851 H 2667.49 3.84755 1.71877 0
M  V30 26852 H 2666.22 2.62525 1.94289 0
M  V30 26853 H 2664.87 3.6651 0.0810894 0
M  V30 26854 H 2664.52 4.39451 2.44728 0
M  V30 26855 H 2664.22 5.72904 1.30594 0
M  V30 26856 H 2665.75 5.68141 2.23715 0
M  V30 26857 H 2667.16 5.7329 -0.0337035 0
M  V30 26858 H 2665.56 5.9481 -0.795062 0
M  V30 26859 H 2666.63 4.65356 -1.36277 0
M  V30 26860 N 2667.97 0.299089 1.54736 0
M  V30 26861 C 2669.2 -0.313411 2.04512 0
M  V30 26862 C 2669.61 -1.47665 1.17646 0
M  V30 26863 O 2668.97 -1.81382 0.201672 0
M  V30 26864 C 2669.02 -0.77148 3.53172 0
M  V30 26865 O 2668.74 0.345456 4.36736 0
M  V30 26866 C 2670.24 -1.44933 4.18938 0
M  V30 26867 H 2667.46 -0.0683666 0.667508 0
M  V30 26868 H 2670.01 0.438164 1.99751 0
M  V30 26869 H 2668.16 -1.47308 3.583 0
M  V30 26870 H 2668.58 -0.0108297 5.24499 0
M  V30 26871 H 2670.05 -1.72102 5.24485 0
M  V30 26872 H 2670.53 -2.38876 3.68558 0
M  V30 26873 H 2671.13 -0.790955 4.1788 0
M  V30 26874 N 2669.45 -1.57577 0.0267774 0
M  V30 26875 C 2670.67 -1.96409 -0.666193 0
M  V30 26876 C 2671.1 -0.9031 -1.65002 0
M  V30 26877 O 2670.46 0.136231 -1.80787 0
M  V30 26878 C 2670.5 -3.34338 -1.35095 0
M  V30 26879 O 2669.61 -3.30536 -2.46617 0
M  V30 26880 H 2668.95 -0.640471 -0.175194 0
M  V30 26881 H 2671.48 -2.04411 0.0879336 0
M  V30 26882 H 2671.49 -3.70516 -1.70828 0
M  V30 26883 H 2670.16 -4.11104 -0.629771 0
M  V30 26884 H 2668.74 -3.06072 -2.13013 0
M  V30 26885 N 2670.93 0.246342 -1.55663 0
M  V30 26886 C 2671.84 1.32649 -1.93498 0
M  V30 26887 C 2672.85 1.52629 -0.835489 0
M  V30 26888 O 2674.03 1.6624 -1.13693 0
M  V30 26889 C 2671.09 2.66097 -2.22246 0
M  V30 26890 C 2670.15 2.54635 -3.45629 0
M  V30 26891 C 2669.39 3.81718 -3.72998 0
M  V30 26892 O 2669.61 4.83624 -3.0243 0
M  V30 26893 O 2668.54 3.80317 -4.66522 0
M  V30 26894 H 2672.37 1.03554 -2.855 0
M  V30 26895 H 2669.96 0.447144 -1.42552 0
M  V30 26896 H 2671.84 3.44954 -2.42043 0
M  V30 26897 H 2670.51 2.94924 -1.33422 0
M  V30 26898 H 2669.42 1.74062 -3.31139 0
M  V30 26899 H 2670.75 2.30752 -4.34758 0
M  V30 26900 N 2672.4 1.4905 0.512027 0
M  V30 26901 C 2673.33 1.67812 1.62362 0
M  V30 26902 C 2674.32 0.526837 1.61736 0
M  V30 26903 O 2675.5 0.761435 1.7865 0
M  V30 26904 C 2672.63 1.7344 3.00892 0
M  V30 26905 C 2671.58 2.88248 3.16382 0
M  V30 26906 C 2670.91 2.7898 4.56152 0
M  V30 26907 C 2672.21 4.29327 2.97449 0
M  V30 26908 H 2673.9 2.60875 1.46916 0
M  V30 26909 H 2671.45 1.25542 0.705357 0
M  V30 26910 H 2673.4 1.85152 3.78546 0
M  V30 26911 H 2672.13 0.769675 3.17401 0
M  V30 26912 H 2670.79 2.7612 2.4115 0
M  V30 26913 H 2670.43 1.80438 4.69522 0
M  V30 26914 H 2670.13 3.56029 4.67458 0
M  V30 26915 H 2671.66 2.92684 5.35881 0
M  V30 26916 H 2673.07 4.42193 3.64881 0
M  V30 26917 H 2671.47 5.07513 3.20236 0
M  V30 26918 H 2672.54 4.44539 1.93684 0
M  V30 26919 N 2673.88 -0.762259 1.3794 0
M  V30 26920 C 2675.13 -1.51645 1.32991 0
M  V30 26921 C 2675.44 -1.95435 -0.0802578 0
M  V30 26922 O 2676.65 -2.70326 -0.252248 0
M  V30 26923 C 2675.11 -2.73881 2.3349 0
M  V30 26924 C 2674.71 -2.37151 3.80084 0
M  V30 26925 C 2676.46 -3.51797 2.37569 0
M  V30 26926 C 2674.37 -3.55945 4.72289 0
M  V30 26927 H 2673.3 -0.569362 0.494311 0
M  V30 26928 H 2675.95 -0.834054 1.6345 0
M  V30 26929 H 2674.33 -3.44058 1.96062 0
M  V30 26930 H 2675.5 -1.74696 4.26401 0
M  V30 26931 H 2673.82 -1.72388 3.7904 0
M  V30 26932 H 2676.41 -4.40109 3.03658 0
M  V30 26933 H 2676.76 -3.92336 1.39206 0
M  V30 26934 H 2677.29 -2.88625 2.73752 0
M  V30 26935 H 2674.03 -3.2048 5.71815 0
M  V30 26936 H 2673.55 -4.17473 4.3067 0
M  V30 26937 H 2675.23 -4.22638 4.89884 0
M  V30 26938 N 2675.36 -1.22666 -0.989486 0
M  V30 26939 C 2676.61 -1.05484 -1.73208 0
M  V30 26940 C 2676.94 0.408602 -1.89853 0
M  V30 26941 O 2676.21 1.30283 -1.44418 0
M  V30 26942 C 2676.5 -1.77052 -3.13567 0
M  V30 26943 C 2676.35 -3.31013 -3.04549 0
M  V30 26944 C 2677.67 -1.52567 -4.12809 0
M  V30 26945 H 2674.79 -0.3846 -0.62869 0
M  V30 26946 H 2677.43 -1.51051 -1.15255 0
M  V30 26947 H 2675.58 -1.38317 -3.63044 0
M  V30 26948 H 2677.25 -3.79215 -2.62667 0
M  V30 26949 H 2675.5 -3.60514 -2.41271 0
M  V30 26950 H 2676.17 -3.7627 -4.03887 0
M  V30 26951 H 2678.64 -1.86222 -3.72103 0
M  V30 26952 H 2677.52 -2.05133 -5.09128 0
M  V30 26953 H 2677.78 -0.459014 -4.39711 0
M  V30 26954 N 2676.84 1.18685 -1.0369 0
M  V30 26955 C 2677.77 2.21668 -0.582735 0
M  V30 26956 C 2678.78 1.59089 0.345628 0
M  V30 26957 O 2679.97 1.77944 0.140745 0
M  V30 26958 C 2677.07 3.38478 0.169144 0
M  V30 26959 C 2676.25 4.30638 -0.766155 0
M  V30 26960 C 2675.31 5.26168 -0.0582466 0
M  V30 26961 O 2674.33 5.65033 -0.687445 0
M  V30 26962 N 2675.53 5.67755 1.20972 0
M  V30 26963 H 2678.3 2.61258 -1.46848 0
M  V30 26964 H 2675.86 1.33432 -0.91692 0
M  V30 26965 H 2677.85 3.99406 0.652472 0
M  V30 26966 H 2676.42 2.97611 0.956383 0
M  V30 26967 H 2675.64 3.67371 -1.42942 0
M  V30 26968 H 2676.93 4.89116 -1.40155 0
M  V30 26969 H 2676.33 5.38227 1.7415 0
M  V30 26970 H 2674.88 6.30898 1.63739 0
M  V30 26971 N 2678.32 0.815849 1.34839 0
M  V30 26972 C 2679.57 0.399779 1.98106 0
M  V30 26973 C 2679.89 -1.03891 1.6502 0
M  V30 26974 O 2679.16 -1.7202 0.937341 0
M  V30 26975 H 2677.74 0.144836 0.732824 0
M  V30 26976 H 2680.4 1.04373 1.64597 0
M  V30 26977 H 2679.49 0.513019 3.07855 0
M  V30 26978 N 2679.8 -1.46924 0.570174 0
M  V30 26979 C 2681.21 -1.57921 0.230898 0
M  V30 26980 C 2681.41 -1.56704 -1.26673 0
M  V30 26981 O 2680.47 -1.47733 -2.04771 0
M  V30 26982 C 2681.78 -2.87869 0.869023 0
M  V30 26983 C 2683.33 -3.01477 0.84145 0
M  V30 26984 C 2683.8 -4.34143 1.45888 0
M  V30 26985 N 2685.29 -4.40812 1.42265 0
M  V30 26986 C 2686.03 -5.42054 1.8699 0
M  V30 26987 N 2685.53 -6.50038 2.39629 0
M  V30 26988 N 2687.32 -5.33178 1.77982 0
M  V30 26989 H 2679.47 -1.45959 1.54304 0
M  V30 26990 H 2681.73 -0.695459 0.644236 0
M  V30 26991 H 2681.44 -2.94534 1.92205 0
M  V30 26992 H 2681.31 -3.75383 0.369748 0
M  V30 26993 H 2683.7 -2.94401 -0.202921 0
M  V30 26994 H 2683.78 -2.15471 1.37862 0
M  V30 26995 H 2683.42 -4.41976 2.50239 0
M  V30 26996 H 2683.35 -5.18903 0.897049 0
M  V30 26997 H 2685.85 -3.63372 1.03774 0
M  V30 26998 H 2686.16 -7.23483 2.71646 0
M  V30 26999 H 2684.5 -6.50892 2.43648 0
M  V30 27000 H 2687.69 -4.47718 1.36625 0
M  V30 27001 H 2687.87 -6.11939 2.13154 0
M  V30 27002 N 2681.27 -0.307291 -1.54575 0
M  V30 27003 C 2682.52 0.299539 -1.99868 0
M  V30 27004 C 2682.84 1.53925 -1.19717 0
M  V30 27005 O 2682.11 1.9367 -0.294754 0
M  V30 27006 H 2680.69 0.11367 -0.738301 0
M  V30 27007 H 2683.35 -0.420075 -1.90319 0
M  V30 27008 H 2682.45 0.567229 -3.06902 0
M  V30 27009 N 2682.75 1.57561 -0.0351337 0
M  V30 27010 C 2683.68 2.13613 0.942955 0
M  V30 27011 C 2684.66 1.05375 1.33529 0
M  V30 27012 O 2685.85 1.33237 1.41285 0
M  V30 27013 C 2682.98 2.66811 2.22327 0
M  V30 27014 C 2681.93 3.79889 1.9715 0
M  V30 27015 C 2681.26 4.19539 3.31498 0
M  V30 27016 C 2682.56 5.05712 1.30588 0
M  V30 27017 H 2684.25 2.9559 0.476127 0
M  V30 27018 H 2681.8 1.4219 0.227577 0
M  V30 27019 H 2683.75 3.04659 2.91137 0
M  V30 27020 H 2682.47 1.82004 2.71187 0
M  V30 27021 H 2681.13 3.42488 1.30757 0
M  V30 27022 H 2680.78 3.31705 3.78128 0
M  V30 27023 H 2680.48 4.95743 3.15456 0
M  V30 27024 H 2682.01 4.59975 4.01566 0
M  V30 27025 H 2683.42 5.41108 1.89406 0
M  V30 27026 H 2681.82 5.86953 1.24924 0
M  V30 27027 H 2682.89 4.84093 0.279657 0
M  V30 27028 N 2684.23 -0.238084 1.55791 0
M  V30 27029 C 2685.48 -0.962837 1.77235 0
M  V30 27030 C 2685.79 -1.86148 0.600694 0
M  V30 27031 O 2687 -2.62365 0.698361 0
M  V30 27032 C 2685.45 -1.76213 3.13811 0
M  V30 27033 C 2685.06 -0.910441 4.38651 0
M  V30 27034 C 2686.81 -2.47908 3.44589 0
M  V30 27035 C 2684.71 -1.70613 5.66255 0
M  V30 27036 H 2683.64 -0.363238 0.660737 0
M  V30 27037 H 2686.29 -0.21721 1.8221 0
M  V30 27038 H 2684.68 -2.55004 3.02967 0
M  V30 27039 H 2685.85 -0.164235 4.60507 0
M  V30 27040 H 2684.16 -0.306397 4.15271 0
M  V30 27041 H 2686.76 -3.07909 4.37145 0
M  V30 27042 H 2687.1 -3.19968 2.6632 0
M  V30 27043 H 2687.64 -1.76121 3.56688 0
M  V30 27044 H 2684.38 -1.02911 6.47371 0
M  V30 27045 H 2683.9 -2.42738 5.48487 0
M  V30 27046 H 2685.58 -2.27103 6.05833 0
M  V30 27047 N 2685.71 -1.4932 -0.504115 0
M  V30 27048 C 2686.98 -1.49149 -1.26546 0
M  V30 27049 C 2687.36 -0.217477 -2.09977 0
M  V30 27050 O 2686.71 0.800232 -2.14029 0
M  V30 27051 C 2686.92 -2.7686 -2.12484 0
M  V30 27052 C 2688.27 -3.26226 -2.71775 0
M  V30 27053 O 2689.29 -2.77956 -2.22753 0
M  V30 27054 O 2688.15 -4.10287 -3.61008 0
M  V30 27055 H 2685.25 -0.596817 -0.572485 0
M  V30 27056 H 2687.79 -1.6158 -0.518642 0
M  V30 27057 H 2686.57 -3.61079 -1.50789 0
M  V30 27058 H 2686.19 -2.67275 -2.94364 0
M  V30 27059 N 2687.19 0.754933 -1.38342 0
M  V30 27060 C 2688.15 1.8503 -1.35265 0
M  V30 27061 C 2689.15 1.5879 -0.253421 0
M  V30 27062 O 2690.34 1.6656 -0.510235 0
M  V30 27063 C 2687.47 3.22477 -1.1055 0
M  V30 27064 H 2688.66 1.89166 -2.32715 0
M  V30 27065 H 2686.22 0.956493 -1.23616 0
M  V30 27066 H 2686.95 3.2401 -0.137009 0
M  V30 27067 H 2686.74 3.42917 -1.90133 0
M  V30 27068 H 2688.23 4.02553 -1.11089 0
M  V30 27069 N 2688.66 1.23189 0.982967 0
M  V30 27070 C 2689.63 1.01201 2.05648 0
M  V30 27071 C 2690.63 -0.0252181 1.6078 0
M  V30 27072 O 2691.82 0.214273 1.72877 0
M  V30 27073 C 2688.95 0.530715 3.36744 0
M  V30 27074 H 2690.14 1.96465 2.26587 0
M  V30 27075 H 2687.69 1.05197 1.156 0
M  V30 27076 H 2688.43 -0.425817 3.21492 0
M  V30 27077 H 2688.21 1.27916 3.70648 0
M  V30 27078 H 2689.7 0.397439 4.15704 0
M  V30 27079 N 2690.14 -1.18133 1.04318 0
M  V30 27080 C 2691.1 -2.20059 0.640833 0
M  V30 27081 C 2692.1 -1.57918 -0.303096 0
M  V30 27082 O 2693.29 -1.73977 -0.0881549 0
M  V30 27083 C 2690.43 -3.40847 -0.0600881 0
M  V30 27084 H 2691.62 -2.57169 1.54285 0
M  V30 27085 H 2689.17 -1.32062 0.836027 0
M  V30 27086 H 2689.91 -3.09271 -0.975791 0
M  V30 27087 H 2689.69 -3.87193 0.618387 0
M  V30 27088 H 2691.18 -4.1631 -0.328009 0
M  V30 27089 N 2691.62 -0.822988 -1.34405 0
M  V30 27090 C 2692.58 -0.250311 -2.27829 0
M  V30 27091 C 2693.58 0.571827 -1.50289 0
M  V30 27092 O 2694.77 0.387923 -1.69826 0
M  V30 27093 C 2691.91 0.649078 -3.34664 0
M  V30 27094 H 2693.1 -1.07449 -2.7999 0
M  V30 27095 H 2690.65 -0.594855 -1.44538 0
M  V30 27096 H 2691.39 1.49632 -2.87717 0
M  V30 27097 H 2691.17 0.061051 -3.92052 0
M  V30 27098 H 2692.66 1.04356 -4.04351 0
M  V30 27099 N 2693.1 1.4662 -0.577957 0
M  V30 27100 C 2694.03 2.28362 0.195761 0
M  V30 27101 C 2695.04 1.38234 0.859958 0
M  V30 27102 O 2696.23 1.62876 0.73032 0
M  V30 27103 C 2693.33 3.13127 1.29634 0
M  V30 27104 C 2692.51 4.3135 0.724974 0
M  V30 27105 C 2691.56 4.97549 1.71265 0
M  V30 27106 O 2690.59 5.55292 1.25057 0
M  V30 27107 N 2691.79 4.94126 3.04663 0
M  V30 27108 H 2694.56 2.95406 -0.50552 0
M  V30 27109 H 2692.12 1.5648 -0.415408 0
M  V30 27110 H 2694.11 3.54278 1.95625 0
M  V30 27111 H 2692.68 2.48189 1.90055 0
M  V30 27112 H 2691.9 3.9404 -0.112274 0
M  V30 27113 H 2693.19 5.07774 0.322945 0
M  V30 27114 H 2692.59 4.4845 3.44832 0
M  V30 27115 H 2691.14 5.39233 3.66157 0
M  V30 27116 N 2694.58 0.315484 1.5441 0
M  V30 27117 C 2695.8 -0.291702 2.04833 0
M  V30 27118 C 2696.22 -1.46409 1.19206 0
M  V30 27119 O 2695.58 -1.81158 0.220899 0
M  V30 27120 C 2695.63 -0.733978 3.5397 0
M  V30 27121 O 2695.35 0.391758 4.36345 0
M  V30 27122 C 2696.85 -1.40481 4.20452 0
M  V30 27123 H 2694.07 -0.061283 0.668196 0
M  V30 27124 H 2696.61 0.459325 1.99275 0
M  V30 27125 H 2694.77 -1.435 3.59842 0
M  V30 27126 H 2695.18 0.044801 5.24481 0
M  V30 27127 H 2696.66 -1.66529 5.26281 0
M  V30 27128 H 2697.13 -2.34954 3.71071 0
M  V30 27129 H 2697.74 -0.746588 4.18696 0
M  V30 27130 N 2696.05 -1.5754 0.0434891 0
M  V30 27131 C 2697.33 -1.83714 -0.671447 0
M  V30 27132 C 2697.71 -0.930348 -1.89493 0
M  V30 27133 O 2697.06 0.0105237 -2.28498 0
M  V30 27134 C 2697.27 -3.33268 -1.03604 0
M  V30 27135 C 2698.62 -4.00095 -1.4216 0
M  V30 27136 O 2699.64 -3.37848 -1.1286 0
M  V30 27137 O 2698.5 -5.09832 -1.96808 0
M  V30 27138 H 2695.59 -0.757996 -0.330713 0
M  V30 27139 H 2698.14 -1.69546 0.0722671 0
M  V30 27140 H 2696.91 -3.90948 -0.165869 0
M  V30 27141 H 2696.54 -3.52595 -1.83745 0
M  V30 27142 N 2697.53 0.229818 -1.55915 0
M  V30 27143 C 2698.5 1.26821 -1.90916 0
M  V30 27144 C 2699.5 1.40223 -0.787024 0
M  V30 27145 O 2700.69 1.3863 -1.05486 0
M  V30 27146 C 2697.82 2.64333 -2.15269 0
M  V30 27147 H 2699.01 0.969948 -2.83782 0
M  V30 27148 H 2696.56 0.469873 -1.4907 0
M  V30 27149 H 2697.3 2.99272 -1.24928 0
M  V30 27150 H 2697.08 2.55984 -2.9701 0
M  V30 27151 H 2698.57 3.3928 -2.43473 0
M  V30 27152 N 2699.01 1.49585 0.49619 0
M  V30 27153 C 2700.26 1.59551 1.25186 0
M  V30 27154 C 2700.59 0.2835 1.9212 0
M  V30 27155 O 2699.86 -0.713292 1.80949 0
M  V30 27156 C 2700.15 2.75816 2.31511 0
M  V30 27157 C 2700 4.16825 1.69047 0
M  V30 27158 C 2701.32 2.87708 3.33035 0
M  V30 27159 H 2698.44 0.580735 0.45378 0
M  V30 27160 H 2701.08 1.81887 0.549295 0
M  V30 27161 H 2699.23 2.56902 2.91433 0
M  V30 27162 H 2700.9 4.47267 1.12915 0
M  V30 27163 H 2699.15 4.22249 0.994411 0
M  V30 27164 H 2699.82 4.94059 2.46191 0
M  V30 27165 H 2702.29 3.04941 2.83109 0
M  V30 27166 H 2701.17 3.70727 4.04787 0
M  V30 27167 H 2701.43 1.97262 3.95652 0
M  V30 27168 N 2700.49 -0.747586 1.3874 0
M  V30 27169 C 2701.42 -1.8713 1.32344 0
M  V30 27170 C 2702.43 -1.61102 0.23453 0
M  V30 27171 O 2703.62 -1.7157 0.492546 0
M  V30 27172 C 2700.72 -3.22894 1.02921 0
M  V30 27173 C 2699.9 -3.76379 2.2284 0
M  V30 27174 C 2698.95 -4.90674 1.90068 0
M  V30 27175 O 2697.98 -5.04992 2.62624 0
M  V30 27176 N 2699.18 -5.74106 0.859242 0
M  V30 27177 H 2701.95 -1.93125 2.29178 0
M  V30 27178 H 2699.51 -0.927781 1.32679 0
M  V30 27179 H 2701.5 -3.96907 0.790379 0
M  V30 27180 H 2700.07 -3.12246 0.148627 0
M  V30 27181 H 2699.29 -2.93862 2.62752 0
M  V30 27182 H 2700.58 -4.08845 3.02858 0
M  V30 27183 H 2699.98 -5.65113 0.257663 0
M  V30 27184 H 2698.53 -6.4824 0.680303 0
M  V30 27185 N 2701.97 -1.23709 -0.97642 0
M  V30 27186 C 2703.24 -0.979729 -1.69295 0
M  V30 27187 C 2703.62 0.500519 -2.05081 0
M  V30 27188 O 2702.97 1.4727 -1.7471 0
M  V30 27189 C 2703.18 -1.89394 -2.9314 0
M  V30 27190 C 2704.53 -2.15974 -3.65569 0
M  V30 27191 O 2705.55 -1.86976 -3.0318 0
M  V30 27192 O 2704.41 -2.65175 -4.77854 0
M  V30 27193 H 2701.51 -0.369825 -0.739702 0
M  V30 27194 H 2704.05 -1.34769 -1.03129 0
M  V30 27195 H 2702.82 -2.89443 -2.63322 0
M  V30 27196 H 2702.45 -1.5286 -3.67042 0
M  V30 27197 N 2703.44 1.17579 -1.04943 0
M  V30 27198 C 2704.41 2.19716 -0.652494 0
M  V30 27199 C 2705.41 1.58076 0.294717 0
M  V30 27200 O 2706.6 1.74021 0.0789273 0
M  V30 27201 C 2703.73 3.40874 0.0420113 0
M  V30 27202 H 2704.92 2.56348 -1.55647 0
M  V30 27203 H 2702.48 1.31616 -0.843019 0
M  V30 27204 H 2703.21 3.09785 0.959376 0
M  V30 27205 H 2703 3.8686 -0.638912 0
M  V30 27206 H 2704.49 4.16478 0.305927 0
M  V30 27207 N 2704.92 0.830104 1.33967 0
M  V30 27208 C 2705.85 0.271951 2.31911 0
M  V30 27209 C 2706.83 -0.615532 1.58572 0
M  V30 27210 O 2708.02 -0.540914 1.86515 0
M  V30 27211 C 2705.15 -0.561086 3.42738 0
M  V30 27212 C 2704.1 0.229864 4.27382 0
M  V30 27213 C 2703.43 -0.72637 5.29743 0
M  V30 27214 C 2704.73 1.44206 5.01998 0
M  V30 27215 H 2706.42 1.0903 2.78842 0
M  V30 27216 H 2703.97 0.525733 1.3406 0
M  V30 27217 H 2705.92 -0.961795 4.10277 0
M  V30 27218 H 2704.65 -1.41256 2.94473 0
M  V30 27219 H 2703.3 0.612028 3.61455 0
M  V30 27220 H 2702.95 -1.574 4.77739 0
M  V30 27221 H 2702.65 -0.201317 5.87255 0
M  V30 27222 H 2704.18 -1.12478 6.00151 0
M  V30 27223 H 2705.59 1.11498 5.62353 0
M  V30 27224 H 2703.99 1.90327 5.69118 0
M  V30 27225 H 2705.06 2.21648 4.31277 0
M  V30 27226 N 2706.4 -1.46311 0.585725 0
M  V30 27227 C 2707.31 -2.34131 -0.148195 0
M  V30 27228 C 2708.33 -1.49934 -0.882946 0
M  V30 27229 O 2709.5 -1.82795 -0.845452 0
M  V30 27230 C 2706.57 -3.27174 -1.14708 0
M  V30 27231 C 2705.63 -4.27273 -0.416671 0
M  V30 27232 C 2704.86 -5.1587 -1.36797 0
M  V30 27233 O 2705.09 -5.07458 -2.60466 0
M  V30 27234 O 2704.02 -5.95478 -0.876914 0
M  V30 27235 H 2707.85 -2.98247 0.572934 0
M  V30 27236 H 2705.43 -1.45336 0.346107 0
M  V30 27237 H 2707.31 -3.84567 -1.72296 0
M  V30 27238 H 2705.99 -2.65651 -1.84962 0
M  V30 27239 H 2704.89 -3.73559 0.201127 0
M  V30 27240 H 2706.23 -4.9159 0.244959 0
M  V30 27241 N 2707.88 -0.323668 -1.54241 0
M  V30 27242 C 2708.83 0.557794 -2.21072 0
M  V30 27243 C 2709.81 1.08154 -1.19128 0
M  V30 27244 O 2711.01 1.01855 -1.44757 0
M  V30 27245 C 2708.13 1.71815 -2.97211 0
M  V30 27246 C 2707.22 1.20929 -4.06494 0
M  V30 27247 N 2707.61 0.420113 -5.04052 0
M  V30 27248 C 2705.91 1.488 -4.20446 0
M  V30 27249 C 2706.61 0.146311 -5.81516 0
M  V30 27250 N 2705.59 0.732468 -5.38643 0
M  V30 27251 H 2709.39 -0.0524438 -2.93853 0
M  V30 27252 H 2706.9 -0.129531 -1.61883 0
M  V30 27253 H 2708.9 2.3614 -3.43574 0
M  V30 27254 H 2707.56 2.33187 -2.25951 0
M  V30 27255 H 2708.57 0.0629491 -5.17862 0
M  V30 27256 H 2705.25 2.10756 -3.604 0
M  V30 27257 H 2706.64 -0.489013 -6.70118 0
M  V30 27258 N 2709.36 1.57515 -0.0518432 0
M  V30 27259 C 2710.29 2.14601 0.920246 0
M  V30 27260 C 2711.27 1.06785 1.32404 0
M  V30 27261 O 2712.45 1.34728 1.39864 0
M  V30 27262 C 2709.58 2.69154 2.19485 0
M  V30 27263 C 2708.54 3.81959 1.93109 0
M  V30 27264 C 2707.86 4.23031 3.2703 0
M  V30 27265 C 2709.16 5.07068 1.25217 0
M  V30 27266 H 2710.86 2.96078 0.444749 0
M  V30 27267 H 2708.4 1.42424 0.212483 0
M  V30 27268 H 2710.36 3.0773 2.87889 0
M  V30 27269 H 2709.08 1.8487 2.69241 0
M  V30 27270 H 2707.74 3.43856 1.27117 0
M  V30 27271 H 2707.39 3.35697 3.74589 0
M  V30 27272 H 2707.09 4.99061 3.1018 0
M  V30 27273 H 2708.61 4.64209 3.96665 0
M  V30 27274 H 2710.03 5.43087 1.83656 0
M  V30 27275 H 2708.42 5.88245 1.18691 0
M  V30 27276 H 2709.49 4.84362 0.228297 0
M  V30 27277 N 2710.84 -0.221546 1.56035 0
M  V30 27278 C 2711.75 -1.29554 1.95583 0
M  V30 27279 C 2712.76 -1.5128 0.859665 0
M  V30 27280 O 2713.94 -1.64411 1.16323 0
M  V30 27281 C 2711 -2.62527 2.26452 0
M  V30 27282 C 2710.06 -2.49104 3.49637 0
M  V30 27283 C 2709.3 -3.75735 3.79023 0
M  V30 27284 O 2709.52 -4.78752 3.10086 0
M  V30 27285 O 2708.45 -3.72847 4.72513 0
M  V30 27286 H 2712.28 -0.989984 2.87111 0
M  V30 27287 H 2709.86 -0.424409 1.43245 0
M  V30 27288 H 2711.75 -3.4106 2.475 0
M  V30 27289 H 2710.42 -2.92764 1.38097 0
M  V30 27290 H 2709.33 -1.68771 3.33867 0
M  V30 27291 H 2710.66 -2.23806 4.38374 0
M  V30 27292 N 2712.31 -1.49846 -0.48825 0
M  V30 27293 C 2713.59 -1.50483 -1.24957 0
M  V30 27294 C 2713.97 -0.239735 -2.09734 0
M  V30 27295 O 2713.32 0.777486 -2.14866 0
M  V30 27296 C 2713.53 -2.79098 -2.09535 0
M  V30 27297 C 2714.88 -3.29091 -2.68299 0
M  V30 27298 O 2715.9 -2.80303 -2.19793 0
M  V30 27299 O 2714.76 -4.14093 -3.56636 0
M  V30 27300 H 2711.85 -0.602855 -0.566123 0
M  V30 27301 H 2714.4 -1.62121 -0.501475 0
M  V30 27302 H 2713.17 -3.62658 -1.46951 0
M  V30 27303 H 2712.79 -2.70382 -2.91512 0
M  V30 27304 N 2713.79 0.740218 -1.39135 0
M  V30 27305 C 2714.74 1.84516 -1.33932 0
M  V30 27306 C 2715.73 1.59373 -0.221125 0
M  V30 27307 O 2716.92 1.70966 -0.458225 0
M  V30 27308 C 2714.05 3.22385 -1.17996 0
M  V30 27309 C 2713.13 3.53374 -2.34494 0
M  V30 27310 N 2713.52 3.55334 -3.59961 0
M  V30 27311 C 2711.82 3.8371 -2.27338 0
M  V30 27312 C 2712.52 3.8397 -4.36969 0
M  V30 27313 N 2711.5 4.0148 -3.66489 0
M  V30 27314 H 2715.3 1.84329 -2.28911 0
M  V30 27315 H 2712.81 0.938213 -1.32557 0
M  V30 27316 H 2714.81 4.01476 -1.12352 0
M  V30 27317 H 2713.47 3.23815 -0.239627 0
M  V30 27318 H 2714.48 3.36771 -3.93454 0
M  V30 27319 H 2711.16 3.92776 -1.41538 0
M  V30 27320 H 2712.55 3.91998 -5.45699 0
M  V30 27321 N 2715.27 1.24225 0.969846 0
M  V30 27322 C 2716.2 0.990586 2.06688 0
M  V30 27323 C 2717.21 -0.0391936 1.62753 0
M  V30 27324 O 2718.4 0.197592 1.77403 0
M  V30 27325 C 2715.5 0.472653 3.35588 0
M  V30 27326 C 2714.68 1.56507 4.08441 0
M  V30 27327 C 2713.74 1.05016 5.15614 0
M  V30 27328 O 2712.76 1.7414 5.41908 0
M  V30 27329 N 2713.96 -0.116539 5.80383 0
M  V30 27330 H 2716.73 1.93512 2.28852 0
M  V30 27331 H 2714.29 1.15225 1.13731 0
M  V30 27332 H 2716.28 0.11299 4.04542 0
M  V30 27333 H 2714.85 -0.377563 3.10311 0
M  V30 27334 H 2714.07 2.09702 3.33795 0
M  V30 27335 H 2715.36 2.2994 4.53878 0
M  V30 27336 H 2714.76 -0.69449 5.61421 0
M  V30 27337 H 2713.31 -0.417368 6.50462 0
M  V30 27338 N 2716.75 -1.1702 1.05565 0
M  V30 27339 C 2718.02 -1.83337 0.681683 0
M  V30 27340 C 2718.4 -1.9377 -0.837631 0
M  V30 27341 O 2717.75 -1.47514 -1.74505 0
M  V30 27342 C 2717.96 -3.2077 1.37506 0
M  V30 27343 C 2719.31 -3.96632 1.51552 0
M  V30 27344 O 2720.33 -3.30262 1.33437 0
M  V30 27345 O 2719.19 -5.15583 1.81209 0
M  V30 27346 H 2716.29 -0.79128 0.240425 0
M  V30 27347 H 2718.83 -1.24286 1.15547 0
M  V30 27348 H 2717.61 -3.08167 2.41141 0
M  V30 27349 H 2717.23 -3.87491 0.890866 0
M  V30 27350 N 2718.23 -0.837197 -1.33524 0
M  V30 27351 C 2719.17 -0.26721 -2.29248 0
M  V30 27352 C 2720.14 0.616044 -1.54253 0
M  V30 27353 O 2721.33 0.554667 -1.8256 0
M  V30 27354 C 2718.47 0.553092 -3.40639 0
M  V30 27355 C 2717.58 -0.353997 -4.30547 0
M  V30 27356 C 2716.72 0.477246 -5.29052 0
M  V30 27357 C 2715.75 -0.428338 -6.10599 0
M  V30 27358 N 2714.89 0.364678 -7.01152 0
M  V30 27359 H 2719.73 -1.08882 -2.77396 0
M  V30 27360 H 2717.27 -0.548404 -1.36495 0
M  V30 27361 H 2719.23 1.04415 -4.03923 0
M  V30 27362 H 2717.86 1.33968 -2.93687 0
M  V30 27363 H 2716.91 -0.963353 -3.68 0
M  V30 27364 H 2718.22 -1.04973 -4.87629 0
M  V30 27365 H 2717.37 1.0322 -5.97855 0
M  V30 27366 H 2716.11 1.20642 -4.72543 0
M  V30 27367 H 2715.12 -0.995314 -5.40716 0
M  V30 27368 H 2716.34 -1.15585 -6.69191 0
M  V30 27369 H 2714.29 1.07726 -6.47094 0
M  V30 27370 H 2714.21 -0.27237 -7.55509 0
M  V30 27371 H 2715.47 0.901918 -7.74265 0
M  V30 27372 N 2719.7 1.45999 -0.593476 0
M  V30 27373 C 2720.63 2.33185 0.121151 0
M  V30 27374 C 2721.61 1.45992 0.872952 0
M  V30 27375 O 2722.8 1.7479 0.846291 0
M  V30 27376 C 2719.93 3.28458 1.12838 0
M  V30 27377 C 2718.88 4.25177 0.490725 0
M  V30 27378 C 2718.21 5.10037 1.6052 0
M  V30 27379 C 2719.51 5.1908 -0.579041 0
M  V30 27380 H 2721.2 2.93186 -0.606818 0
M  V30 27381 H 2718.75 1.40982 -0.293266 0
M  V30 27382 H 2720.7 3.88314 1.63677 0
M  V30 27383 H 2719.43 2.66587 1.88677 0
M  V30 27384 H 2718.09 3.666 0.00332884 0
M  V30 27385 H 2717.73 4.44543 2.35351 0
M  V30 27386 H 2717.43 5.75545 1.18412 0
M  V30 27387 H 2718.96 5.72758 2.11613 0
M  V30 27388 H 2720.37 5.7309 -0.155299 0
M  V30 27389 H 2718.77 5.9299 -0.921051 0
M  V30 27390 H 2719.84 4.62361 -1.46117 0
M  V30 27391 N 2721.18 0.331843 1.54067 0
M  V30 27392 C 2722.11 -0.522892 2.2757 0
M  V30 27393 C 2723.09 -1.11244 1.28681 0
M  V30 27394 O 2724.28 -1.13603 1.57506 0
M  V30 27395 C 2721.41 -1.67981 3.03973 0
M  V30 27396 C 2720.36 -1.21917 4.10269 0
M  V30 27397 C 2719.69 -2.46369 4.74559 0
M  V30 27398 C 2720.99 -0.328058 5.21269 0
M  V30 27399 H 2722.68 0.0902503 2.99264 0
M  V30 27400 H 2720.23 0.0448463 1.4393 0
M  V30 27401 H 2722.18 -2.28412 3.54127 0
M  V30 27402 H 2720.91 -2.31967 2.2991 0
M  V30 27403 H 2719.56 -0.637745 3.6101 0
M  V30 27404 H 2719.21 -3.08736 3.97103 0
M  V30 27405 H 2718.91 -2.16234 5.46367 0
M  V30 27406 H 2720.44 -3.07546 5.27492 0
M  V30 27407 H 2721.85 -0.838878 5.67129 0
M  V30 27408 H 2720.25 -0.119122 5.99982 0
M  V30 27409 H 2721.32 0.638924 4.80672 0
M  V30 27410 N 2722.66 -1.57485 0.0601958 0
M  V30 27411 C 2723.59 -2.15086 -0.908852 0
M  V30 27412 C 2724.57 -1.07486 -1.31836 0
M  V30 27413 O 2725.76 -1.35468 -1.39147 0
M  V30 27414 C 2722.89 -2.70314 -2.18054 0
M  V30 27415 C 2721.84 -3.82978 -1.91081 0
M  V30 27416 C 2721.17 -4.2476 -3.24782 0
M  V30 27417 C 2722.47 -5.07725 -1.22526 0
M  V30 27418 H 2724.16 -2.9631 -0.429041 0
M  V30 27419 H 2721.71 -1.42534 -0.204927 0
M  V30 27420 H 2723.66 -3.09253 -2.86253 0
M  V30 27421 H 2722.38 -1.86295 -2.68257 0
M  V30 27422 H 2721.04 -3.44525 -1.25291 0
M  V30 27423 H 2720.69 -3.37679 -3.72803 0
M  V30 27424 H 2720.39 -5.00699 -3.07529 0
M  V30 27425 H 2721.91 -4.66306 -3.94197 0
M  V30 27426 H 2723.33 -5.44053 -1.80774 0
M  V30 27427 H 2721.73 -5.88866 -1.1557 0
M  V30 27428 H 2722.8 -4.84477 -0.202607 0
M  V30 27429 N 2724.14 0.213268 -1.5615 0
M  V30 27430 C 2725.38 0.933371 -1.8072 0
M  V30 27431 C 2725.74 1.81638 -0.634473 0
M  V30 27432 O 2725.03 1.87971 0.371149 0
M  V30 27433 C 2725.23 1.7998 -3.08775 0
M  V30 27434 C 2725.06 1.00217 -4.38391 0
M  V30 27435 C 2723.83 0.693797 -5.00514 0
M  V30 27436 C 2726.02 0.363508 -5.13014 0
M  V30 27437 N 2724.01 -0.124373 -6.13774 0
M  V30 27438 C 2725.38 -0.317679 -6.19186 0
M  V30 27439 C 2727.43 0.277381 -4.97127 0
M  V30 27440 C 2726.13 -1.07676 -7.11195 0
M  V30 27441 C 2728.16 -0.468259 -5.89543 0
M  V30 27442 C 2727.52 -1.13796 -6.95147 0
M  V30 27443 H 2723.62 0.321536 -0.712838 0
M  V30 27444 H 2726.21 0.203554 -1.93633 0
M  V30 27445 H 2724.38 2.50137 -2.9713 0
M  V30 27446 H 2726.11 2.458 -3.21503 0
M  V30 27447 H 2722.86 1.01383 -4.62621 0
M  V30 27448 H 2723.29 -0.522536 -6.7498 0
M  V30 27449 H 2727.93 0.780797 -4.15528 0
M  V30 27450 H 2725.65 -1.59167 -7.9227 0
M  V30 27451 H 2729.23 -0.536013 -5.79326 0
M  V30 27452 H 2728.11 -1.7057 -7.65425 0
M  V30 27453 N 2725.62 1.50103 0.480296 0
M  V30 27454 C 2726.84 1.64644 1.26123 0
M  V30 27455 C 2727.27 0.325855 1.85256 0
M  V30 27456 O 2726.62 -0.709164 1.66855 0
M  V30 27457 C 2726.67 2.73305 2.35238 0
M  V30 27458 O 2725.78 2.33917 3.39642 0
M  V30 27459 H 2725.12 0.55038 0.371453 0
M  V30 27460 H 2727.65 1.96422 0.572661 0
M  V30 27461 H 2727.66 2.96103 2.8069 0
M  V30 27462 H 2726.33 3.69154 1.91568 0
M  V30 27463 H 2724.91 2.2153 2.99965 0
M  V30 27464 N 2727.09 -0.732829 1.39526 0
M  V30 27465 C 2728.06 -1.82854 1.38192 0
M  V30 27466 C 2729.06 -1.58367 0.278651 0
M  V30 27467 O 2730.25 -1.65727 0.536668 0
M  V30 27468 C 2727.38 -3.20678 1.15666 0
M  V30 27469 H 2728.57 -1.8544 2.35695 0
M  V30 27470 H 2726.13 -0.936706 1.25122 0
M  V30 27471 H 2726.86 -3.23751 0.188539 0
M  V30 27472 H 2726.65 -3.39848 1.95565 0
M  V30 27473 H 2728.14 -4.00735 1.17479 0
M  V30 27474 N 2728.57 -1.24737 -0.963244 0
M  V30 27475 C 2729.52 -1.04367 -2.05855 0
M  V30 27476 C 2730.49 0.0444659 -1.6604 0
M  V30 27477 O 2731.67 -0.111033 -1.90477 0
M  V30 27478 C 2728.81 -0.659295 -3.38744 0
M  V30 27479 C 2727.93 -1.82138 -3.91727 0
M  V30 27480 C 2727.06 -1.38217 -5.12903 0
M  V30 27481 C 2726.1 -2.51392 -5.58094 0
M  V30 27482 N 2725.24 -2.08307 -6.70487 0
M  V30 27483 H 2730.08 -1.9811 -2.22612 0
M  V30 27484 H 2727.62 -0.986681 -1.09101 0
M  V30 27485 H 2729.57 -0.417444 -4.15106 0
M  V30 27486 H 2728.2 0.241145 -3.21898 0
M  V30 27487 H 2727.26 -2.17677 -3.11963 0
M  V30 27488 H 2728.57 -2.67161 -4.2122 0
M  V30 27489 H 2727.72 -1.09946 -5.96655 0
M  V30 27490 H 2726.46 -0.502541 -4.85104 0
M  V30 27491 H 2725.47 -2.80418 -4.72912 0
M  V30 27492 H 2726.69 -3.39919 -5.87905 0
M  V30 27493 H 2724.64 -1.22749 -6.44414 0
M  V30 27494 H 2724.55 -2.86881 -6.99453 0
M  V30 27495 H 2725.82 -1.83188 -7.57669 0
M  V30 27496 N 2730.05 1.16459 -1.06184 0
M  V30 27497 C 2731.3 1.86301 -0.77296 0
M  V30 27498 C 2731.61 1.82524 0.703155 0
M  V30 27499 O 2732.82 2.47935 1.10637 0
M  V30 27500 C 2731.27 3.34322 -1.33254 0
M  V30 27501 C 2730.88 3.46576 -2.83882 0
M  V30 27502 C 2732.63 4.09427 -1.12115 0
M  V30 27503 C 2730.53 4.88676 -3.33091 0
M  V30 27504 H 2729.46 0.697873 -0.285464 0
M  V30 27505 H 2732.11 1.31445 -1.28041 0
M  V30 27506 H 2730.5 3.88777 -0.752868 0
M  V30 27507 H 2731.67 3.02287 -3.47792 0
M  V30 27508 H 2729.99 2.84903 -3.03676 0
M  V30 27509 H 2732.58 5.14276 -1.4637 0
M  V30 27510 H 2732.93 4.16258 -0.0594564 0
M  V30 27511 H 2733.46 3.61207 -1.66656 0
M  V30 27512 H 2730.2 4.87024 -4.38734 0
M  V30 27513 H 2729.72 5.33594 -2.73929 0
M  V30 27514 H 2731.4 5.57488 -3.28353 0
M  V30 27515 N 2731.53 0.844266 1.33079 0
M  V30 27516 C 2732.94 0.532755 1.50446 0
M  V30 27517 C 2733.14 -0.938806 1.78294 0
M  V30 27518 O 2732.2 -1.72236 1.84638 0
M  V30 27519 C 2733.51 1.41076 2.65552 0
M  V30 27520 C 2735.06 1.4101 2.79437 0
M  V30 27521 C 2735.54 2.27308 3.97612 0
M  V30 27522 N 2737.03 2.25047 4.04856 0
M  V30 27523 C 2737.76 2.88555 4.95503 0
M  V30 27524 N 2737.26 3.61136 5.9123 0
M  V30 27525 N 2739.05 2.77997 4.88543 0
M  V30 27526 H 2731.2 1.79679 1.13266 0
M  V30 27527 H 2733.47 0.766871 0.557327 0
M  V30 27528 H 2733.17 2.45672 2.5167 0
M  V30 27529 H 2733.05 1.09067 3.61087 0
M  V30 27530 H 2735.43 0.371835 2.92748 0
M  V30 27531 H 2735.51 1.77029 1.84647 0
M  V30 27532 H 2735.16 3.31197 3.8506 0
M  V30 27533 H 2735.09 1.88628 4.91657 0
M  V30 27534 H 2737.58 1.7227 3.3635 0
M  V30 27535 H 2737.89 4.06787 6.57072 0
M  V30 27536 H 2736.24 3.65244 5.91288 0
M  V30 27537 H 2739.43 2.20853 4.12725 0
M  V30 27538 H 2739.6 3.27775 5.58988 0
M  V30 27539 N 2733.01 -1.45682 0.60121 0
M  V30 27540 C 2733.96 -2.27553 -0.142646 0
M  V30 27541 C 2734.94 -1.36952 -0.844574 0
M  V30 27542 O 2736.13 -1.6099 -0.735616 0
M  V30 27543 C 2733.26 -3.23693 -1.14358 0
M  V30 27544 C 2732.35 -4.21782 -0.44282 0
M  V30 27545 N 2732.74 -5.03202 0.511979 0
M  V30 27546 C 2731.04 -4.40611 -0.6912 0
M  V30 27547 C 2731.74 -5.74326 0.923281 0
M  V30 27548 N 2730.71 -5.42937 0.268403 0
M  V30 27549 H 2734.52 -2.87901 0.590787 0
M  V30 27550 H 2732.03 -1.56757 0.424393 0
M  V30 27551 H 2734.03 -3.81073 -1.69083 0
M  V30 27552 H 2732.69 -2.64905 -1.87764 0
M  V30 27553 H 2733.7 -5.10223 0.888419 0
M  V30 27554 H 2730.37 -3.92955 -1.41042 0
M  V30 27555 H 2731.76 -6.49765 1.71041 0
M  V30 27556 N 2734.48 -0.340009 -1.53889 0
M  V30 27557 C 2735.43 0.534315 -2.21651 0
M  V30 27558 C 2736.42 1.06885 -1.20268 0
M  V30 27559 O 2737.61 1.00314 -1.45829 0
M  V30 27560 C 2734.74 1.68653 -2.99017 0
M  V30 27561 C 2733.83 1.16611 -4.07753 0
M  V30 27562 N 2734.22 0.366628 -5.0447 0
M  V30 27563 C 2732.51 1.44333 -4.22 0
M  V30 27564 C 2733.22 0.0846253 -5.81638 0
M  V30 27565 N 2732.19 0.675296 -5.39389 0
M  V30 27566 H 2735.99 -0.0836079 -2.93781 0
M  V30 27567 H 2733.51 -0.146693 -1.61736 0
M  V30 27568 H 2735.5 2.32483 -3.4606 0
M  V30 27569 H 2734.16 2.30777 -2.28412 0
M  V30 27570 H 2735.18 0.00801935 -5.17899 0
M  V30 27571 H 2731.85 2.06921 -3.62615 0
M  V30 27572 H 2733.24 -0.56006 -6.69562 0
M  V30 27573 N 2735.96 1.57451 -0.0685468 0
M  V30 27574 C 2737.21 1.92542 0.600864 0
M  V30 27575 C 2737.53 0.950269 1.70966 0
M  V30 27576 O 2738.73 1.19388 2.43842 0
M  V30 27577 C 2737.19 3.42025 1.12013 0
M  V30 27578 C 2736.8 4.4798 0.042524 0
M  V30 27579 C 2738.54 3.86122 1.7638 0
M  V30 27580 C 2736.45 5.88592 0.575655 0
M  V30 27581 H 2735.38 0.718634 0.228213 0
M  V30 27582 H 2738.03 1.82963 -0.140255 0
M  V30 27583 H 2736.41 3.46666 1.91412 0
M  V30 27584 H 2737.58 4.5495 -0.7319 0
M  V30 27585 H 2735.9 4.1333 -0.504715 0
M  V30 27586 H 2738.5 4.88557 2.17293 0
M  V30 27587 H 2738.84 3.23313 2.62249 0
M  V30 27588 H 2739.37 3.8407 1.03608 0
M  V30 27589 H 2736.11 6.55039 -0.245807 0
M  V30 27590 H 2735.63 5.85147 1.31767 0
M  V30 27591 H 2737.31 6.38372 1.05309 0
M  V30 27592 N 2737.44 -0.204984 1.56261 0
M  V30 27593 C 2738.72 -0.952203 1.70858 0
M  V30 27594 C 2739.1 -2.01774 0.620536 0
M  V30 27595 O 2738.45 -2.25485 -0.369995 0
M  V30 27596 C 2738.66 -1.54761 3.1281 0
M  V30 27597 C 2740 -2.03354 3.72736 0
M  V30 27598 O 2741.03 -1.64623 3.15876 0
M  V30 27599 O 2739.89 -2.74592 4.72506 0
M  V30 27600 H 2736.98 -0.445883 0.696504 0
M  V30 27601 H 2739.53 -0.19546 1.68571 0
M  V30 27602 H 2738.3 -0.779064 3.83466 0
M  V30 27603 H 2737.92 -2.36946 3.19284 0
M  V30 27604 N 2738.92 -1.50356 -0.472329 0
M  V30 27605 C 2740.2 -1.518 -1.23353 0
M  V30 27606 C 2740.58 -0.261967 -2.09468 0
M  V30 27607 O 2739.92 0.754653 -2.15679 0
M  V30 27608 C 2740.13 -2.81305 -2.06563 0
M  V30 27609 C 2741.48 -3.31918 -2.64794 0
M  V30 27610 O 2742.51 -2.82618 -2.16807 0
M  V30 27611 O 2741.37 -4.17853 -3.52224 0
M  V30 27612 H 2738.46 -0.608826 -0.559697 0
M  V30 27613 H 2741.01 -1.62644 -0.484252 0
M  V30 27614 H 2739.78 -3.64197 -1.43096 0
M  V30 27615 H 2739.4 -2.73459 -2.88628 0
M  V30 27616 N 2740.4 0.725419 -1.39912 0
M  V30 27617 C 2741.33 1.85252 -1.42141 0
M  V30 27618 C 2742.31 1.6772 -0.283542 0
M  V30 27619 O 2743.49 1.87897 -0.49075 0
M  V30 27620 C 2740.62 3.23105 -1.27359 0
M  V30 27621 C 2739.58 3.55291 -2.38646 0
M  V30 27622 C 2738.9 4.92184 -2.08947 0
M  V30 27623 C 2740.2 3.57288 -3.80976 0
M  V30 27624 H 2741.9 1.83644 -2.36464 0
M  V30 27625 H 2739.44 0.882118 -1.13819 0
M  V30 27626 H 2741.4 4.01637 -1.27537 0
M  V30 27627 H 2740.12 3.25264 -0.295083 0
M  V30 27628 H 2738.78 2.79094 -2.37701 0
M  V30 27629 H 2738.43 4.90934 -1.09511 0
M  V30 27630 H 2738.13 5.14686 -2.835 0
M  V30 27631 H 2739.65 5.73061 -2.10791 0
M  V30 27632 H 2741.07 4.25878 -3.83798 0
M  V30 27633 H 2739.46 3.91312 -4.54967 0
M  V30 27634 H 2740.53 2.56883 -4.11265 0
M  V30 27635 N 2741.88 1.25246 0.956615 0
M  V30 27636 C 2743.12 1.10039 1.7035 0
M  V30 27637 C 2743.45 -0.358122 1.90869 0
M  V30 27638 O 2742.73 -1.26408 1.47822 0
M  V30 27639 C 2743.01 1.85304 3.08763 0
M  V30 27640 C 2742.87 3.38972 2.95666 0
M  V30 27641 C 2744.18 1.63458 4.08619 0
M  V30 27642 H 2741.3 0.401134 0.618272 0
M  V30 27643 H 2743.95 1.54053 1.1121 0
M  V30 27644 H 2742.1 1.47893 3.59249 0
M  V30 27645 H 2743.77 3.86045 2.5252 0
M  V30 27646 H 2742.01 3.66785 2.31628 0
M  V30 27647 H 2742.68 3.86846 3.93769 0
M  V30 27648 H 2745.16 1.96022 3.67035 0
M  V30 27649 H 2744.03 2.1856 5.03511 0
M  V30 27650 H 2744.29 0.575434 4.38339 0
M  V30 27651 N 2743.35 -1.15894 1.068 0
M  V30 27652 C 2744.29 -2.19402 0.627542 0
M  V30 27653 C 2745.26 -1.58737 -0.352324 0
M  V30 27654 O 2746.45 -1.86697 -0.260078 0
M  V30 27655 C 2743.58 -3.38607 -0.0792965 0
M  V30 27656 C 2742.62 -4.17778 0.858131 0
M  V30 27657 S 2743.45 -4.80881 2.35614 0
M  V30 27658 C 2744.61 -6.0346 1.66094 0
M  V30 27659 H 2744.84 -2.56424 1.50445 0
M  V30 27660 H 2742.38 -1.26767 0.88145 0
M  V30 27661 H 2744.33 -4.07674 -0.480878 0
M  V30 27662 H 2743 -2.9994 -0.932471 0
M  V30 27663 H 2742.19 -5.03045 0.310197 0
M  V30 27664 H 2741.79 -3.54232 1.19983 0
M  V30 27665 H 2744.08 -6.70528 0.969455 0
M  V30 27666 H 2745.03 -6.62812 2.49171 0
M  V30 27667 H 2745.43 -5.52842 1.14132 0
M  V30 27668 N 2744.83 -0.851312 -1.32629 0
M  V30 27669 C 2745.78 -0.265342 -2.26451 0
M  V30 27670 C 2746.77 0.586873 -1.49815 0
M  V30 27671 O 2747.96 0.436804 -1.71526 0
M  V30 27672 C 2745.09 0.548152 -3.38896 0
M  V30 27673 C 2744.17 -0.316264 -4.22919 0
M  V30 27674 N 2744.56 -1.40093 -4.86012 0
M  V30 27675 C 2742.86 -0.105434 -4.45875 0
M  V30 27676 C 2743.56 -1.93245 -5.48663 0
M  V30 27677 N 2742.54 -1.2321 -5.29453 0
M  V30 27678 H 2746.34 -1.09462 -2.72755 0
M  V30 27679 H 2743.85 -0.697073 -1.46679 0
M  V30 27680 H 2745.85 0.984331 -4.05113 0
M  V30 27681 H 2744.51 1.37526 -2.94137 0
M  V30 27682 H 2745.52 -1.78385 -4.86209 0
M  V30 27683 H 2742.2 0.687227 -4.11805 0
M  V30 27684 H 2743.59 -2.84146 -6.0886 0
M  V30 27685 N 2746.31 1.45361 -0.608928 0
M  V30 27686 C 2747.24 2.27652 0.158019 0
M  V30 27687 C 2748.22 1.37217 0.872373 0
M  V30 27688 O 2749.4 1.66647 0.880972 0
M  V30 27689 C 2746.53 3.1562 1.2289 0
M  V30 27690 C 2745.58 4.22006 0.617533 0
M  V30 27691 S 2746.41 5.32397 -0.575611 0
M  V30 27692 C 2747.57 6.23933 0.495828 0
M  V30 27693 H 2747.8 2.92352 -0.540146 0
M  V30 27694 H 2745.33 1.49223 -0.396482 0
M  V30 27695 H 2747.29 3.66858 1.84188 0
M  V30 27696 H 2745.95 2.50183 1.89914 0
M  V30 27697 H 2745.14 4.83485 1.42333 0
M  V30 27698 H 2744.75 3.73915 0.0796616 0
M  V30 27699 H 2747.04 6.6341 1.37453 0
M  V30 27700 H 2747.98 7.08052 -0.0828352 0
M  V30 27701 H 2748.39 5.58633 0.811758 0
M  V30 27702 N 2747.79 0.348166 1.53706 0
M  V30 27703 C 2749.01 -0.250847 2.05877 0
M  V30 27704 C 2749.44 -1.4307 1.22117 0
M  V30 27705 O 2748.8 -1.79757 0.236017 0
M  V30 27706 C 2748.84 -0.639354 3.54887 0
M  V30 27707 O 2747.95 -1.73881 3.73951 0
M  V30 27708 H 2747.29 -0.0406414 0.662755 0
M  V30 27709 H 2749.82 0.50372 1.98302 0
M  V30 27710 H 2749.83 -0.915225 3.97602 0
M  V30 27711 H 2748.5 0.223459 4.15299 0
M  V30 27712 H 2747.08 -1.45985 3.43137 0
M  V30 27713 N 2749.27 -1.57412 0.0768958 0
M  V30 27714 C 2750.2 -2.10004 -0.918211 0
M  V30 27715 C 2751.21 -1.03328 -1.25806 0
M  V30 27716 O 2752.4 -1.30827 -1.21436 0
M  V30 27717 C 2749.5 -2.54968 -2.23259 0
M  V30 27718 C 2748.67 -3.85274 -2.07081 0
M  V30 27719 C 2747.73 -4.16278 -3.21869 0
M  V30 27720 O 2746.76 -4.85795 -2.96634 0
M  V30 27721 N 2747.96 -3.70229 -4.47114 0
M  V30 27722 H 2750.72 -2.96005 -0.469157 0
M  V30 27723 H 2748.29 -1.61535 -0.108697 0
M  V30 27724 H 2750.28 -2.72767 -2.98965 0
M  V30 27725 H 2748.85 -1.74076 -2.59646 0
M  V30 27726 H 2748.07 -3.76804 -1.15812 0
M  V30 27727 H 2749.36 -4.70557 -1.93529 0
M  V30 27728 H 2748.75 -3.14079 -4.70501 0
M  V30 27729 H 2747.31 -3.93218 -5.1983 0
M  V30 27730 N 2750.74 0.196695 -1.56368 0
M  V30 27731 C 2752.16 0.547464 -1.49917 0
M  V30 27732 C 2752.36 1.85932 -0.776623 0
M  V30 27733 O 2751.42 2.5038 -0.326484 0
M  V30 27734 C 2752.73 0.603682 -2.94578 0
M  V30 27735 C 2754.28 0.692624 -3.0524 0
M  V30 27736 C 2754.75 0.779967 -4.5131 0
M  V30 27737 N 2756.24 0.843536 -4.55454 0
M  V30 27738 C 2756.98 0.931259 -5.65787 0
M  V30 27739 N 2756.47 0.981382 -6.85814 0
M  V30 27740 N 2758.27 0.968323 -5.53697 0
M  V30 27741 H 2750.42 -0.663838 -2.0176 0
M  V30 27742 H 2752.68 -0.236254 -0.918089 0
M  V30 27743 H 2752.39 -0.291111 -3.50493 0
M  V30 27744 H 2752.26 1.45892 -3.47844 0
M  V30 27745 H 2754.65 1.57785 -2.49375 0
M  V30 27746 H 2754.73 -0.188781 -2.55102 0
M  V30 27747 H 2754.37 -0.1009 -5.078 0
M  V30 27748 H 2754.3 1.67715 -4.99179 0
M  V30 27749 H 2756.79 0.814111 -3.69027 0
M  V30 27750 H 2757.11 1.04879 -7.6565 0
M  V30 27751 H 2755.45 0.950087 -6.88475 0
M  V30 27752 H 2758.64 0.925991 -4.5885 0
M  V30 27753 H 2758.82 1.03323 -6.3971 0
M  V30 27754 N 2752.22 1.50604 0.464349 0
M  V30 27755 C 2753.17 1.70496 1.58221 0
M  V30 27756 C 2754.16 0.570864 1.59491 0
M  V30 27757 O 2755.37 0.751545 1.6356 0
M  V30 27758 H 2751.75 0.538256 0.525152 0
M  V30 27759 H 2753.72 2.64254 1.38608 0
M  V30 27760 C 2752.47 1.82248 2.9611 0
M  V30 27761 H 2751.79 2.68907 2.95854 0
M  V30 27762 H 2753.23 2.00189 3.73765 0
M  V30 27763 C 2751.69 0.575686 3.31945 0
M  V30 27764 O 2752.22 -0.282082 4.00708 0
M  V30 27765 N 2750.42 0.427715 2.87435 0
M  V30 27766 H 2749.97 1.12678 2.3165 0
M  V30 27767 H 2749.93 -0.405325 3.11776 0
M  V30 27768 N 2753.7 -0.717989 1.40295 0
M  V30 27769 C 2754.66 -1.81378 1.40123 0
M  V30 27770 C 2755.66 -1.58063 0.295433 0
M  V30 27771 O 2756.85 -1.65149 0.554216 0
M  V30 27772 C 2753.99 -3.19433 1.19061 0
M  V30 27773 H 2755.18 -1.82929 2.37649 0
M  V30 27774 H 2752.73 -0.923382 1.26108 0
M  V30 27775 H 2753.47 -3.23533 0.222866 0
M  V30 27776 H 2753.25 -3.37755 1.99158 0
M  V30 27777 H 2754.74 -3.99466 1.21723 0
M  V30 27778 N 2755.18 -1.25752 -0.94996 0
M  V30 27779 C 2756.42 -1.10941 -1.69764 0
M  V30 27780 C 2756.76 0.347995 -1.91057 0
M  V30 27781 O 2756.03 1.25622 -1.4849 0
M  V30 27782 C 2756.32 -1.86939 -3.07776 0
M  V30 27783 C 2756.17 -3.40535 -2.93864 0
M  V30 27784 C 2757.49 -1.65623 -4.07746 0
M  V30 27785 H 2754.61 -0.404407 -0.616136 0
M  V30 27786 H 2757.25 -1.54641 -1.10391 0
M  V30 27787 H 2755.4 -1.49797 -3.5846 0
M  V30 27788 H 2757.07 -3.87379 -2.5047 0
M  V30 27789 H 2755.31 -3.68008 -2.2968 0
M  V30 27790 H 2755.98 -3.88929 -3.91712 0
M  V30 27791 H 2758.46 -1.97966 -3.6599 0
M  V30 27792 H 2757.34 -2.21227 -5.02344 0
M  V30 27793 H 2757.6 -0.598672 -4.38028 0
M  V30 27794 N 2756.66 1.15326 -1.07413 0
M  V30 27795 C 2757.93 1.82229 -0.710764 0
M  V30 27796 C 2758.31 1.95078 0.806697 0
M  V30 27797 O 2757.66 1.50271 1.72136 0
M  V30 27798 C 2757.87 3.18541 -1.42592 0
M  V30 27799 C 2759.22 3.94171 -1.57843 0
M  V30 27800 O 2760.24 3.28097 -1.38674 0
M  V30 27801 O 2759.1 5.12635 -1.89389 0
M  V30 27802 H 2756.2 0.787355 -0.252984 0
M  V30 27803 H 2758.74 1.22432 -1.1751 0
M  V30 27804 H 2757.51 3.04291 -2.46013 0
M  V30 27805 H 2757.14 3.86025 -0.9524 0
M  V30 27806 N 2758.13 0.858334 1.32176 0
M  V30 27807 C 2759.06 0.321082 2.31282 0
M  V30 27808 C 2760.05 -0.581758 1.59842 0
M  V30 27809 O 2761.23 -0.501229 1.8762 0
M  V30 27810 C 2758.36 -0.48826 3.43851 0
M  V30 27811 C 2757.31 0.320466 4.26799 0
M  V30 27812 C 2756.64 -0.61384 5.31165 0
M  V30 27813 C 2757.94 1.54822 4.98826 0
M  V30 27814 H 2759.63 1.1492 2.76467 0
M  V30 27815 H 2757.18 0.554051 1.32915 0
M  V30 27816 H 2759.13 -0.874553 4.12225 0
M  V30 27817 H 2757.86 -1.34978 2.97403 0
M  V30 27818 H 2756.52 0.68856 3.60076 0
M  V30 27819 H 2756.16 -1.47231 4.8097 0
M  V30 27820 H 2755.86 -0.0767064 5.8755 0
M  V30 27821 H 2757.39 -0.99723 6.02402 0
M  V30 27822 H 2758.8 1.23401 5.59862 0
M  V30 27823 H 2757.2 2.02356 5.64953 0
M  V30 27824 H 2758.27 2.30746 4.26479 0
M  V30 27825 N 2759.61 -1.45036 0.616628 0
M  V30 27826 C 2760.86 -2.02471 0.115537 0
M  V30 27827 C 2761.19 -1.48282 -1.25404 0
M  V30 27828 O 2760.47 -0.661083 -1.82921 0
M  V30 27829 C 2760.75 -3.59996 0.0864221 0
M  V30 27830 C 2760.6 -4.24499 1.4873 0
M  V30 27831 C 2761.92 -4.36036 -0.596685 0
M  V30 27832 H 2759.04 -0.735718 0.0434591 0
M  V30 27833 H 2761.68 -1.72782 0.79033 0
M  V30 27834 H 2759.83 -3.8542 -0.488209 0
M  V30 27835 H 2761.5 -4.1023 2.10971 0
M  V30 27836 H 2759.75 -3.82551 2.04541 0
M  V30 27837 H 2760.42 -5.33447 1.41909 0
M  V30 27838 H 2762.89 -4.15959 -0.108166 0
M  V30 27839 H 2761.77 -5.45761 -0.586193 0
M  V30 27840 H 2762.03 -4.09572 -1.66444 0
M  V30 27841 N 2761.09 -0.356312 -1.53519 0
M  V30 27842 C 2762.32 0.236947 -2.05237 0
M  V30 27843 C 2762.73 1.43746 -1.23019 0
M  V30 27844 O 2762.07 1.81829 -0.261532 0
M  V30 27845 C 2762.13 0.703438 -3.52551 0
M  V30 27846 C 2761.8 -0.379139 -4.55425 0
M  V30 27847 C 2762.79 -1.22601 -5.05238 0
M  V30 27848 C 2760.48 -0.536726 -4.99424 0
M  V30 27849 C 2762.47 -2.21589 -5.97643 0
M  V30 27850 C 2760.16 -1.52999 -5.91637 0
M  V30 27851 C 2761.16 -2.36801 -6.40636 0
M  V30 27852 O 2760.85 -3.34434 -7.31033 0
M  V30 27853 H 2760.58 0.0472422 -0.674347 0
M  V30 27854 H 2763.13 -0.510273 -1.98961 0
M  V30 27855 H 2761.36 1.50211 -3.56333 0
M  V30 27856 H 2763.05 1.21867 -3.87174 0
M  V30 27857 H 2763.82 -1.11541 -4.72 0
M  V30 27858 H 2759.7 0.105753 -4.60879 0
M  V30 27859 H 2763.24 -2.87036 -6.35811 0
M  V30 27860 H 2759.14 -1.6411 -6.2429 0
M  V30 27861 H 2759.91 -3.30054 -7.49004 0
M  V30 27862 N 2762.57 1.57369 -0.0852427 0
M  V30 27863 C 2763.98 1.57275 0.271408 0
M  V30 27864 C 2764.18 1.09568 1.69107 0
M  V30 27865 O 2763.24 0.767653 2.40548 0
M  V30 27866 C 2764.55 3.00621 0.0688109 0
M  V30 27867 C 2766.1 3.12699 0.137318 0
M  V30 27868 C 2766.58 4.57985 -0.0371637 0
M  V30 27869 N 2768.07 4.63197 0.0179979 0
M  V30 27870 C 2768.8 5.73326 -0.0923961 0
M  V30 27871 N 2768.3 6.92323 -0.25707 0
M  V30 27872 N 2770.09 5.62089 -0.034369 0
M  V30 27873 H 2762.24 1.86692 -1.01292 0
M  V30 27874 H 2764.51 0.861259 -0.396154 0
M  V30 27875 H 2764.21 3.39687 -0.911337 0
M  V30 27876 H 2764.09 3.68282 0.815377 0
M  V30 27877 H 2766.47 2.73511 1.10796 0
M  V30 27878 H 2766.55 2.47649 -0.640575 0
M  V30 27879 H 2766.2 4.97865 -1.00463 0
M  V30 27880 H 2766.13 5.21083 0.760301 0
M  V30 27881 H 2768.62 3.77629 0.143135 0
M  V30 27882 H 2768.93 7.72082 -0.333085 0
M  V30 27883 H 2767.28 6.94384 -0.292609 0
M  V30 27884 H 2770.47 4.68007 0.0930782 0
M  V30 27885 H 2770.64 6.47882 -0.123854 0
M  V30 27886 N 2764.05 -0.188399 1.5647 0
M  V30 27887 C 2765.01 -1.21715 1.94212 0
M  V30 27888 C 2766.01 -1.38087 0.823925 0
M  V30 27889 O 2767.2 -1.35785 1.09124 0
M  V30 27890 C 2764.33 -2.58533 2.22202 0
M  V30 27891 H 2765.52 -0.894367 2.86254 0
M  V30 27892 H 2763.08 -0.430185 1.50263 0
M  V30 27893 H 2763.81 -2.95854 1.32819 0
M  V30 27894 H 2763.6 -2.48019 3.03692 0
M  V30 27895 H 2765.09 -3.32705 2.52382 0
M  V30 27896 N 2765.53 -1.50848 -0.456355 0
M  V30 27897 C 2766.44 -1.73597 -1.57802 0
M  V30 27898 C 2767.45 -0.619504 -1.62598 0
M  V30 27899 O 2768.63 -0.899564 -1.80194 0
M  V30 27900 C 2765.69 -1.83875 -2.93923 0
M  V30 27901 C 2764.75 -3.07669 -2.99397 0
M  V30 27902 C 2763.99 -3.17448 -4.29025 0
M  V30 27903 O 2764.21 -2.3364 -5.20354 0
M  V30 27904 O 2763.14 -4.10289 -4.40394 0
M  V30 27905 H 2766.97 -2.68708 -1.41526 0
M  V30 27906 H 2764.55 -1.35121 -0.637398 0
M  V30 27907 H 2766.44 -1.92731 -3.74743 0
M  V30 27908 H 2765.11 -0.919494 -3.10366 0
M  V30 27909 H 2764.02 -3.04304 -2.17601 0
M  V30 27910 H 2765.35 -3.99221 -2.87894 0
M  V30 27911 N 2767 0.710538 -1.40674 0
M  V30 27912 C 2768.28 1.46396 -1.29721 0
M  V30 27913 C 2768.66 2.1094 0.0821399 0
M  V30 27914 O 2768.01 2.00536 1.09533 0
M  V30 27915 C 2768.22 2.49558 -2.43971 0
M  V30 27916 C 2769.57 3.15243 -2.84441 0
M  V30 27917 O 2770.59 2.59879 -2.43601 0
M  V30 27918 O 2769.45 4.15483 -3.55015 0
M  V30 27919 H 2766.54 0.65125 -0.509709 0
M  V30 27920 H 2769.09 0.742285 -1.52605 0
M  V30 27921 H 2767.86 2.00415 -3.3608 0
M  V30 27922 H 2767.48 3.29254 -2.22885 0
M  V30 27923 N 2768.48 1.26254 0.943277 0
M  V30 27924 C 2769.43 1.04301 2.02745 0
M  V30 27925 C 2770.42 -0.0239152 1.60882 0
M  V30 27926 O 2771.61 0.192788 1.75947 0
M  V30 27927 C 2768.74 0.675759 3.36583 0
M  V30 27928 C 2767.82 1.78003 3.84936 0
M  V30 27929 N 2768.21 3.01711 4.05961 0
M  V30 27930 C 2766.51 1.66315 4.1383 0
M  V30 27931 C 2767.21 3.73466 4.4598 0
M  V30 27932 N 2766.19 3.01143 4.52564 0
M  V30 27933 H 2769.99 1.98203 2.17009 0
M  V30 27934 H 2767.5 1.1674 1.12896 0
M  V30 27935 H 2769.5 0.499643 4.13895 0
M  V30 27936 H 2768.16 -0.255806 3.23691 0
M  V30 27937 H 2769.17 3.37638 3.9271 0
M  V30 27938 H 2765.85 0.801339 4.09737 0
M  V30 27939 H 2767.24 4.79709 4.70456 0
M  V30 27940 N 2769.96 -1.14755 1.08024 0
M  V30 27941 C 2770.92 -2.17909 0.710519 0
M  V30 27942 C 2771.92 -1.58802 -0.252703 0
M  V30 27943 O 2773.11 -1.74169 -0.0327609 0
M  V30 27944 C 2770.24 -3.40866 0.0483802 0
M  V30 27945 H 2771.44 -2.52131 1.62389 0
M  V30 27946 H 2768.99 -1.29335 0.877618 0
M  V30 27947 H 2769.73 -3.12219 -0.876904 0
M  V30 27948 H 2769.51 -3.8503 0.741256 0
M  V30 27949 H 2771 -4.17143 -0.195397 0
M  V30 27950 N 2771.44 -0.865331 -1.31719 0
M  V30 27951 C 2772.4 -0.322667 -2.26917 0
M  V30 27952 C 2773.4 0.523725 -1.52032 0
M  V30 27953 O 2774.59 0.333697 -1.70974 0
M  V30 27954 C 2771.72 0.542279 -3.36559 0
M  V30 27955 H 2772.92 -1.16303 -2.7643 0
M  V30 27956 H 2770.47 -0.640537 -1.42572 0
M  V30 27957 H 2771.2 1.40402 -2.92331 0
M  V30 27958 H 2770.99 -0.0637084 -3.92048 0
M  V30 27959 H 2772.48 0.914388 -4.07466 0
M  V30 27960 N 2772.92 1.44707 -0.624311 0
M  V30 27961 C 2773.83 2.34442 0.0860671 0
M  V30 27962 C 2774.84 1.52222 0.842883 0
M  V30 27963 O 2776.02 1.84972 0.79669 0
M  V30 27964 C 2773.08 3.301 1.05993 0
M  V30 27965 C 2772.14 4.28228 0.303241 0
M  V30 27966 C 2771.38 5.19316 1.23072 0
M  V30 27967 O 2771.6 5.14186 2.4692 0
M  V30 27968 O 2770.53 5.97593 0.718725 0
M  V30 27969 H 2774.36 2.96623 -0.651808 0
M  V30 27970 H 2771.94 1.44367 -0.384519 0
M  V30 27971 H 2773.83 3.89 1.6204 0
M  V30 27972 H 2772.5 2.70462 1.77854 0
M  V30 27973 H 2771.41 3.72894 -0.300098 0
M  V30 27974 H 2772.74 4.90768 -0.375209 0
M  V30 27975 N 2774.39 0.364449 1.53328 0
M  V30 27976 C 2775.64 -0.225599 2.01239 0
M  V30 27977 C 2775.97 -1.48867 1.25175 0
M  V30 27978 O 2775.22 -1.9284 0.333323 0
M  V30 27979 C 2775.52 -0.564599 3.52912 0
M  V30 27980 C 2775.19 0.604014 4.46836 0
M  V30 27981 C 2773.85 0.924668 4.72232 0
M  V30 27982 C 2776.2 1.387 5.02406 0
M  V30 27983 C 2773.53 2.0303 5.50451 0
M  V30 27984 C 2775.88 2.48303 5.81832 0
M  V30 27985 C 2774.55 2.80905 6.05515 0
M  V30 27986 H 2773.82 -0.0825525 0.736387 0
M  V30 27987 H 2776.46 0.496678 1.84947 0
M  V30 27988 H 2774.77 -1.36788 3.67146 0
M  V30 27989 H 2776.47 -1.03337 3.87456 0
M  V30 27990 H 2773.06 0.344058 4.27217 0
M  V30 27991 H 2777.24 1.15252 4.82733 0
M  V30 27992 H 2772.5 2.28688 5.6702 0
M  V30 27993 H 2776.67 3.09391 6.23899 0
M  V30 27994 H 2774.3 3.667 6.65909 0
M  V30 27995 N 2775.87 -1.57322 0.0935872 0
M  V30 27996 C 2776.8 -2.10966 -0.895886 0
M  V30 27997 C 2777.82 -1.04656 -1.24703 0
M  V30 27998 O 2779.01 -1.32107 -1.20041 0
M  V30 27999 C 2776.11 -2.57322 -2.20542 0
M  V30 28000 C 2775.28 -3.87449 -2.02983 0
M  V30 28001 C 2774.34 -4.19668 -3.17435 0
M  V30 28002 O 2773.36 -4.88914 -2.91465 0
M  V30 28003 N 2774.57 -3.7495 -4.43162 0
M  V30 28004 H 2777.33 -2.96486 -0.437736 0
M  V30 28005 H 2774.89 -1.61641 -0.0915579 0
M  V30 28006 H 2776.88 -2.75923 -2.96055 0
M  V30 28007 H 2775.45 -1.7682 -2.57785 0
M  V30 28008 H 2774.67 -3.78011 -1.11809 0
M  V30 28009 H 2775.96 -4.72583 -1.88527 0
M  V30 28010 H 2775.36 -3.19051 -4.67143 0
M  V30 28011 H 2773.92 -3.98709 -5.1563 0
M  V30 28012 N 2777.35 0.180099 -1.56568 0
M  V30 28013 C 2778.77 0.531532 -1.50489 0
M  V30 28014 C 2778.97 1.85098 -0.7963 0
M  V30 28015 O 2778.02 2.5002 -0.353022 0
M  V30 28016 C 2779.33 0.572404 -2.95202 0
M  V30 28017 C 2780.88 0.66021 -3.05958 0
M  V30 28018 C 2781.36 0.732056 -4.52112 0
M  V30 28019 N 2782.85 0.795182 -4.56323 0
M  V30 28020 C 2783.58 0.871197 -5.66743 0
M  V30 28021 N 2783.08 0.908587 -6.86816 0
M  V30 28022 N 2784.87 0.909542 -5.54692 0
M  V30 28023 H 2777.02 -0.6852 -2.01044 0
M  V30 28024 H 2779.29 -0.245978 -0.915532 0
M  V30 28025 H 2778.99 -0.32827 -3.50165 0
M  V30 28026 H 2778.87 1.42194 -3.49372 0
M  V30 28027 H 2781.25 1.55131 -2.51035 0
M  V30 28028 H 2781.33 -0.215828 -2.54888 0
M  V30 28029 H 2780.98 -0.154754 -5.07664 0
M  V30 28030 H 2780.91 1.62411 -5.00929 0
M  V30 28031 H 2783.4 0.774925 -3.69869 0
M  V30 28032 H 2783.71 0.967519 -7.6672 0
M  V30 28033 H 2782.06 0.877011 -6.89444 0
M  V30 28034 H 2785.25 0.877272 -4.59806 0
M  V30 28035 H 2785.42 0.965322 -6.40769 0
M  V30 28036 N 2778.83 1.51088 0.448349 0
M  V30 28037 C 2779.76 1.74547 1.55099 0
M  V30 28038 C 2780.74 0.594961 1.59356 0
M  V30 28039 O 2781.92 0.836522 1.7526 0
M  V30 28040 C 2779.05 1.86046 2.93265 0
M  V30 28041 C 2778.01 3.01407 3.03871 0
M  V30 28042 C 2777.33 2.98075 4.43909 0
M  V30 28043 C 2778.63 4.41556 2.78972 0
M  V30 28044 H 2780.33 2.66872 1.3572 0
M  V30 28045 H 2777.87 1.2842 0.651475 0
M  V30 28046 H 2779.83 2.01041 3.70352 0
M  V30 28047 H 2778.55 0.903603 3.13851 0
M  V30 28048 H 2777.21 2.861 2.29222 0
M  V30 28049 H 2776.86 2.0019 4.61447 0
M  V30 28050 H 2776.56 3.75535 4.51937 0
M  V30 28051 H 2778.08 3.15149 5.22985 0
M  V30 28052 H 2779.5 4.57271 3.45797 0
M  V30 28053 H 2777.89 5.20638 2.98422 0
M  V30 28054 H 2778.96 4.52353 1.74655 0
M  V30 28055 N 2780.31 -0.703068 1.41049 0
M  V30 28056 C 2781.27 -1.79882 1.42039 0
M  V30 28057 C 2782.27 -1.57741 0.312181 0
M  V30 28058 O 2783.46 -1.64552 0.571701 0
M  V30 28059 C 2780.59 -3.18152 1.22443 0
M  V30 28060 H 2781.78 -1.80398 2.39575 0
M  V30 28061 H 2779.34 -0.909955 1.27081 0
M  V30 28062 H 2780.07 -3.23279 0.257169 0
M  V30 28063 H 2779.86 -3.35624 2.02729 0
M  V30 28064 H 2781.35 -3.98153 1.25953 0
M  V30 28065 N 2781.78 -1.26752 -0.936569 0
M  V30 28066 C 2783.06 -1.03309 -1.66092 0
M  V30 28067 C 2783.44 0.435021 -2.06569 0
M  V30 28068 O 2782.79 1.41637 -1.79307 0
M  V30 28069 C 2783 -1.98624 -2.86966 0
M  V30 28070 C 2784.35 -2.27495 -3.58512 0
M  V30 28071 O 2785.37 -1.96527 -2.97078 0
M  V30 28072 O 2784.23 -2.80243 -4.69176 0
M  V30 28073 H 2781.32 -0.393171 -0.727561 0
M  V30 28074 H 2783.87 -1.37981 -0.98789 0
M  V30 28075 H 2782.64 -2.97674 -2.5398 0
M  V30 28076 H 2782.27 -1.6446 -3.61993 0
M  V30 28077 N 2783.26 1.1418 -1.08631 0
M  V30 28078 C 2784.51 1.85545 -0.818589 0
M  V30 28079 C 2784.84 1.82855 0.654044 0
M  V30 28080 O 2784.12 1.26086 1.48097 0
M  V30 28081 C 2784.4 3.34078 -1.34403 0
M  V30 28082 C 2784.25 3.45328 -2.88217 0
M  V30 28083 C 2785.57 4.29251 -0.971144 0
M  V30 28084 H 2782.69 0.673697 -0.298833 0
M  V30 28085 H 2785.33 1.34068 -1.34632 0
M  V30 28086 H 2783.48 3.78047 -0.89513 0
M  V30 28087 H 2785.15 3.10128 -3.41494 0
M  V30 28088 H 2783.4 2.86465 -3.25761 0
M  V30 28089 H 2784.07 4.49743 -3.20055 0
M  V30 28090 H 2786.54 3.9331 -1.35816 0
M  V30 28091 H 2785.42 5.31632 -1.36595 0
M  V30 28092 H 2785.68 4.41933 0.121581 0
M  V30 28093 N 2784.74 0.872304 1.31258 0
M  V30 28094 C 2785.67 0.345595 2.30928 0
M  V30 28095 C 2786.65 -0.564772 1.6045 0
M  V30 28096 O 2787.84 -0.481301 1.88141 0
M  V30 28097 C 2784.97 -0.451762 3.44349 0
M  V30 28098 C 2783.92 0.365716 4.26435 0
M  V30 28099 C 2783.25 -0.557469 5.31786 0
M  V30 28100 C 2784.55 1.60104 4.97156 0
M  V30 28101 H 2786.24 1.17846 2.75232 0
M  V30 28102 H 2783.79 0.568117 1.32319 0
M  V30 28103 H 2785.74 -0.830782 4.13129 0
M  V30 28104 H 2784.46 -1.31816 2.98818 0
M  V30 28105 H 2783.12 0.726712 3.59325 0
M  V30 28106 H 2782.77 -1.42121 4.82505 0
M  V30 28107 H 2782.47 -0.0143845 5.87598 0
M  V30 28108 H 2783.99 -0.933281 6.03425 0
M  V30 28109 H 2785.41 1.29333 5.58521 0
M  V30 28110 H 2783.81 2.08337 5.62775 0
M  V30 28111 H 2784.88 2.35257 4.24007 0
M  V30 28112 N 2786.22 -1.44374 0.631976 0
M  V30 28113 C 2787.45 -2.061 0.143695 0
M  V30 28114 C 2787.86 -1.47308 -1.18731 0
M  V30 28115 O 2787.2 -0.590755 -1.73942 0
M  V30 28116 C 2787.26 -3.59472 -0.044547 0
M  V30 28117 C 2786.93 -4.40734 1.20843 0
M  V30 28118 C 2787.92 -4.7416 2.13232 0
M  V30 28119 C 2785.61 -4.81094 1.44408 0
M  V30 28120 C 2787.6 -5.46832 3.27496 0
M  V30 28121 C 2785.29 -5.53515 2.58969 0
M  V30 28122 C 2786.29 -5.86303 3.50339 0
M  V30 28123 O 2785.97 -6.57249 4.62903 0
M  V30 28124 H 2785.71 -0.671565 0.0773057 0
M  V30 28125 H 2788.26 -1.86218 0.86671 0
M  V30 28126 H 2786.49 -3.77847 -0.822716 0
M  V30 28127 H 2788.18 -4.02962 -0.48749 0
M  V30 28128 H 2788.95 -4.43516 1.96261 0
M  V30 28129 H 2784.82 -4.54993 0.741776 0
M  V30 28130 H 2788.37 -5.72342 3.98836 0
M  V30 28131 H 2784.27 -5.83574 2.75883 0
M  V30 28132 H 2785.03 -6.75718 4.61895 0
M  V30 28133 N 2787.7 -0.372575 -1.53133 0
M  V30 28134 C 2788.92 0.218062 -2.0625 0
M  V30 28135 C 2789.35 1.41109 -1.24378 0
M  V30 28136 O 2788.7 1.79359 -0.264585 0
M  V30 28137 C 2788.75 0.582814 -3.55859 0
M  V30 28138 O 2787.86 1.6791 -3.7667 0
M  V30 28139 H 2787.2 0.0300924 -0.663318 0
M  V30 28140 H 2789.73 -0.535204 -1.97476 0
M  V30 28141 H 2789.74 0.851855 -3.99008 0
M  V30 28142 H 2788.41 -0.289501 -4.14891 0
M  V30 28143 H 2786.99 1.40507 -3.45416 0
M  V30 28144 N 2789.17 1.5727 -0.101929 0
M  V30 28145 C 2790.42 1.94214 0.559057 0
M  V30 28146 C 2790.74 0.984978 1.68295 0
M  V30 28147 O 2790.01 0.0382319 1.95863 0
M  V30 28148 H 2788.59 0.717018 0.209508 0
M  V30 28149 H 2791.26 1.94184 -0.166866 0
M  V30 28150 H 2790.35 2.96813 0.964798 0
M  V30 28151 N 2790.65 -0.171793 1.56661 0
M  V30 28152 C 2791.58 -1.21494 1.99403 0
M  V30 28153 C 2792.56 -1.46195 0.869541 0
M  V30 28154 O 2793.75 -1.57537 1.13559 0
M  V30 28155 C 2790.88 -2.55396 2.35351 0
M  V30 28156 C 2789.83 -2.45265 3.50755 0
M  V30 28157 C 2789.16 -3.83653 3.72444 0
M  V30 28158 C 2790.46 -1.95778 4.84219 0
M  V30 28159 H 2792.15 -0.859648 2.86793 0
M  V30 28160 H 2789.7 -0.412079 1.37978 0
M  V30 28161 H 2791.65 -3.28575 2.63849 0
M  V30 28162 H 2790.38 -2.92713 1.44869 0
M  V30 28163 H 2789.03 -1.74541 3.22383 0
M  V30 28164 H 2788.68 -4.18362 2.79253 0
M  V30 28165 H 2788.38 -3.77743 4.50093 0
M  V30 28166 H 2789.91 -4.58418 4.03342 0
M  V30 28167 H 2791.32 -2.58731 5.11597 0
M  V30 28168 H 2789.72 -2.00817 5.65502 0
M  V30 28169 H 2790.79 -0.912075 4.76245 0
M  V30 28170 N 2792.13 -1.51324 -0.44033 0
M  V30 28171 C 2793.04 -1.75261 -1.55952 0
M  V30 28172 C 2794.06 -0.636715 -1.61932 0
M  V30 28173 O 2795.23 -0.918625 -1.7923 0
M  V30 28174 C 2792.3 -1.86982 -2.91956 0
M  V30 28175 C 2791.36 -3.10827 -2.96117 0
M  V30 28176 C 2790.59 -3.2198 -4.25634 0
M  V30 28177 O 2790.81 -2.39146 -5.17847 0
M  V30 28178 O 2789.75 -4.14937 -4.36017 0
M  V30 28179 H 2793.57 -2.70194 -1.38668 0
M  V30 28180 H 2791.16 -1.35789 -0.623031 0
M  V30 28181 H 2793.04 -1.96695 -3.72678 0
M  V30 28182 H 2791.72 -0.952361 -3.09373 0
M  V30 28183 H 2790.62 -3.06595 -2.14361 0
M  V30 28184 H 2791.96 -4.02252 -2.83644 0
M  V30 28185 N 2793.61 0.695578 -1.41419 0
M  V30 28186 C 2794.56 1.83082 -1.43471 0
M  V30 28187 C 2795.55 1.66488 -0.312748 0
M  V30 28188 O 2796.76 1.73349 -0.484775 0
M  V30 28189 H 2793.13 0.603317 -0.448902 0
M  V30 28190 H 2795.1 1.78469 -2.39147 0
M  V30 28191 C 2793.85 3.21101 -1.33376 0
M  V30 28192 H 2793.17 3.34486 -2.18995 0
M  V30 28193 H 2794.61 4.00613 -1.38872 0
M  V30 28194 C 2793.07 3.36868 -0.0461076 0
M  V30 28195 O 2793.6 3.91276 0.909189 0
M  V30 28196 N 2791.81 2.90585 0.0299712 0
M  V30 28197 H 2791.36 2.46496 -0.748173 0
M  V30 28198 H 2791.31 3.01512 0.890938 0
M  V30 28199 N 2795.09 1.27247 0.929833 0
M  V30 28200 C 2796.34 1.12844 1.6718 0
M  V30 28201 C 2796.65 -0.325632 1.9287 0
M  V30 28202 O 2797.86 -0.590526 2.65 0
M  V30 28203 C 2796.31 1.97156 3.01094 0
M  V30 28204 C 2795.92 3.47208 2.83109 0
M  V30 28205 C 2797.66 1.91395 3.78904 0
M  V30 28206 C 2795.57 4.23726 4.12565 0
M  V30 28207 H 2794.5 0.418708 0.627056 0
M  V30 28208 H 2797.15 1.5165 1.03317 0
M  V30 28209 H 2795.53 1.51193 3.66001 0
M  V30 28210 H 2796.71 4.01019 2.26982 0
M  V30 28211 H 2795.02 3.54325 2.1873 0
M  V30 28212 H 2797.62 2.45842 4.74832 0
M  V30 28213 H 2797.96 0.887118 4.06738 0
M  V30 28214 H 2798.5 2.35242 3.20789 0
M  V30 28215 H 2795.23 5.26925 3.89911 0
M  V30 28216 H 2794.75 3.74693 4.68364 0
M  V30 28217 H 2796.43 4.32785 4.80943 0
M  V30 28218 N 2796.57 -1.13603 1.09235 0
M  V30 28219 C 2797.98 -1.36825 0.821654 0
M  V30 28220 C 2798.18 -1.93417 -0.564987 0
M  V30 28221 O 2797.24 -2.15236 -1.32022 0
M  V30 28222 C 2798.55 -2.32143 1.91128 0
M  V30 28223 C 2800.1 -2.45763 1.93828 0
M  V30 28224 C 2800.57 -3.44388 3.01929 0
M  V30 28225 N 2802.06 -3.51937 3.01155 0
M  V30 28226 C 2802.8 -4.28124 3.81442 0
M  V30 28227 N 2802.3 -5.07481 4.7163 0
M  V30 28228 N 2804.09 -4.23405 3.69709 0
M  V30 28229 H 2796.24 -0.7522 1.98635 0
M  V30 28230 H 2798.5 -0.393467 0.862489 0
M  V30 28231 H 2798.21 -1.97712 2.90865 0
M  V30 28232 H 2798.08 -3.32139 1.78783 0
M  V30 28233 H 2800.47 -2.79482 0.947309 0
M  V30 28234 H 2800.55 -1.45699 2.10251 0
M  V30 28235 H 2800.19 -3.11401 4.01238 0
M  V30 28236 H 2800.12 -4.44252 2.8275 0
M  V30 28237 H 2802.62 -2.95313 2.35794 0
M  V30 28238 H 2802.93 -5.62915 5.29478 0
M  V30 28239 H 2801.27 -5.0672 4.75667 0
M  V30 28240 H 2804.46 -3.60484 2.98612 0
M  V30 28241 H 2804.64 -4.82528 4.32517 0
M  V30 28242 N 2798.04 -0.879253 -1.30793 0
M  V30 28243 C 2798.99 -0.331152 -2.30231 0
M  V30 28244 C 2799.99 0.558766 -1.59919 0
M  V30 28245 O 2801.19 0.443835 -1.74442 0
M  V30 28246 H 2797.57 -0.0884221 -0.746783 0
M  V30 28247 H 2799.54 -1.18358 -2.73923 0
M  V30 28248 C 2798.29 0.444341 -3.44849 0
M  V30 28249 H 2797.61 -0.231176 -3.99131 0
M  V30 28250 H 2799.05 0.793036 -4.16518 0
M  V30 28251 C 2797.51 1.63921 -2.94332 0
M  V30 28252 O 2798.04 2.73857 -2.9388 0
M  V30 28253 N 2796.24 1.47445 -2.50416 0
M  V30 28254 H 2795.79 0.580106 -2.50983 0
M  V30 28255 H 2795.75 2.2753 -2.16973 0
M  V30 28256 N 2799.52 1.44037 -0.639624 0
M  V30 28257 C 2800.77 2.02261 -0.147734 0
M  V30 28258 C 2801.1 1.50258 1.23029 0
M  V30 28259 O 2800.38 0.6901 1.81846 0
M  V30 28260 C 2800.66 3.59813 -0.143683 0
M  V30 28261 C 2800.51 4.22079 -1.55465 0
M  V30 28262 C 2801.83 4.3693 0.52724 0
M  V30 28263 H 2798.95 0.734933 -0.0551582 0
M  V30 28264 H 2801.59 1.71503 -0.817718 0
M  V30 28265 H 2799.74 3.86148 0.42683 0
M  V30 28266 H 2801.41 4.06822 -2.17471 0
M  V30 28267 H 2799.66 3.79249 -2.10601 0
M  V30 28268 H 2800.33 5.31122 -1.50378 0
M  V30 28269 H 2802.8 4.16079 0.0419772 0
M  V30 28270 H 2801.68 5.46624 0.499293 0
M  V30 28271 H 2801.94 4.12168 1.59907 0
M  V30 28272 N 2801 0.380691 1.52933 0
M  V30 28273 C 2802.22 -0.207121 2.06363 0
M  V30 28274 C 2802.65 -1.40447 1.25124 0
M  V30 28275 O 2802.01 -1.79216 0.274094 0
M  V30 28276 C 2802.06 -0.563933 3.56163 0
M  V30 28277 O 2801.16 -1.6591 3.77555 0
M  V30 28278 H 2800.5 -0.0265742 0.663468 0
M  V30 28279 H 2803.03 0.545669 1.97189 0
M  V30 28280 H 2803.04 -0.830682 3.99454 0
M  V30 28281 H 2801.72 0.3115 4.14732 0
M  V30 28282 H 2800.29 -1.38674 3.46156 0
M  V30 28283 N 2802.48 -1.57214 0.110268 0
M  V30 28284 C 2803.41 -2.17869 -0.839964 0
M  V30 28285 C 2804.39 -1.11626 -1.2835 0
M  V30 28286 O 2805.57 -1.39826 -1.34767 0
M  V30 28287 C 2802.7 -2.77114 -2.09344 0
M  V30 28288 C 2801.66 -3.88863 -1.788 0
M  V30 28289 C 2800.98 -4.34877 -3.11104 0
M  V30 28290 C 2802.28 -5.11366 -1.06311 0
M  V30 28291 H 2803.98 -2.97525 -0.334555 0
M  V30 28292 H 2801.52 -1.43114 -0.159477 0
M  V30 28293 H 2803.48 -3.18203 -2.76269 0
M  V30 28294 H 2802.2 -1.94735 -2.62194 0
M  V30 28295 H 2800.86 -3.48337 -1.14267 0
M  V30 28296 H 2800.51 -3.49368 -3.61871 0
M  V30 28297 H 2800.21 -5.10229 -2.91444 0
M  V30 28298 H 2801.73 -4.78611 -3.79162 0
M  V30 28299 H 2803.15 -5.49529 -1.63374 0
M  V30 28300 H 2801.54 -5.92245 -0.967772 0
M  V30 28301 H 2802.61 -4.84876 -0.0483717 0
M  V30 28302 N 2803.96 0.163482 -1.5675 0
M  V30 28303 C 2804.9 1.22155 -1.97941 0
M  V30 28304 C 2805.9 1.45394 -0.869314 0
M  V30 28305 O 2807.1 1.45881 -1.05445 0
M  V30 28306 H 2803.48 0.410804 -0.629876 0
M  V30 28307 H 2805.45 0.84733 -2.86117 0
M  V30 28308 C 2804.2 2.55147 -2.3621 0
M  V30 28309 H 2803.52 2.38091 -3.21174 0
M  V30 28310 H 2804.96 3.2785 -2.68869 0
M  V30 28311 C 2803.42 3.1448 -1.20847 0
M  V30 28312 O 2803.95 3.98572 -0.500328 0
M  V30 28313 N 2802.16 2.73685 -0.976991 0
M  V30 28314 H 2801.7 2.05402 -1.5546 0
M  V30 28315 H 2801.66 3.13718 -0.206967 0
M  V30 28316 N 2805.43 1.51555 0.432299 0
M  V30 28317 C 2806.4 1.72636 1.50762 0
M  V30 28318 C 2807.4 0.59634 1.49333 0
M  V30 28319 O 2808.59 0.863952 1.51266 0
M  V30 28320 C 2805.72 1.78746 2.90281 0
M  V30 28321 H 2806.91 2.68611 1.33372 0
M  V30 28322 H 2804.46 1.41621 0.661304 0
M  V30 28323 H 2805.2 0.846032 3.1307 0
M  V30 28324 H 2804.98 2.60875 2.92723 0
M  V30 28325 H 2806.47 1.96877 3.68279 0
M  V30 28326 N 2806.91 -0.688069 1.41786 0
M  V30 28327 C 2808.14 -1.4767 1.44917 0
M  V30 28328 C 2808.55 -1.88715 0.0566118 0
M  V30 28329 O 2807.91 -1.57276 -0.925762 0
M  V30 28330 C 2807.96 -2.73442 2.36456 0
M  V30 28331 O 2807.68 -2.34124 3.70294 0
M  V30 28332 C 2809.18 -3.67121 2.4847 0
M  V30 28333 H 2806.4 -0.454824 0.493332 0
M  V30 28334 H 2808.95 -0.846561 1.86155 0
M  V30 28335 H 2807.1 -3.32676 1.98508 0
M  V30 28336 H 2807.52 -3.15248 4.19189 0
M  V30 28337 H 2808.99 -4.52133 3.1667 0
M  V30 28338 H 2809.47 -4.1212 1.51833 0
M  V30 28339 H 2810.07 -3.13787 2.87085 0
M  V30 28340 N 2808.39 -1.27739 -0.923072 0
M  V30 28341 C 2809.61 -1.17286 -1.71052 0
M  V30 28342 C 2810.04 0.26612 -1.86208 0
M  V30 28343 O 2809.4 1.19267 -1.36547 0
M  V30 28344 C 2809.45 -1.86647 -3.08537 0
M  V30 28345 O 2808.55 -1.16759 -3.95526 0
M  V30 28346 H 2807.89 -0.407658 -0.524129 0
M  V30 28347 H 2810.42 -1.68892 -1.15484 0
M  V30 28348 H 2810.43 -1.94188 -3.58824 0
M  V30 28349 H 2809.11 -2.91323 -2.96823 0
M  V30 28350 H 2807.68 -1.17318 -3.53965 0
M  V30 28351 N 2809.87 1.13022 -1.09836 0
M  V30 28352 C 2810.83 2.16751 -0.745096 0
M  V30 28353 C 2811.83 1.59184 0.227407 0
M  V30 28354 O 2813.02 1.74199 0.00504798 0
M  V30 28355 C 2810.15 3.40746 -0.102603 0
M  V30 28356 H 2811.35 2.49515 -1.66379 0
M  V30 28357 H 2808.9 1.27922 -0.898083 0
M  V30 28358 H 2809.63 3.13575 0.827122 0
M  V30 28359 H 2809.42 3.83802 -0.802418 0
M  V30 28360 H 2810.91 4.17401 0.129009 0
M  V30 28361 N 2811.35 0.886177 1.30325 0
M  V30 28362 C 2812.31 0.358726 2.26375 0
M  V30 28363 C 2813.31 -0.499471 1.52846 0
M  V30 28364 O 2814.5 -0.306455 1.71483 0
M  V30 28365 C 2811.63 -0.488666 3.37379 0
M  V30 28366 H 2812.82 1.20686 2.74545 0
M  V30 28367 H 2810.38 0.663138 1.41535 0
M  V30 28368 H 2811.11 -1.35734 2.94528 0
M  V30 28369 H 2810.9 0.126072 3.91897 0
M  V30 28370 H 2812.39 -0.849448 4.08869 0
M  V30 28371 N 2812.82 -1.43695 0.647253 0
M  V30 28372 C 2814.05 -2.05936 0.165546 0
M  V30 28373 C 2814.46 -1.48559 -1.17162 0
M  V30 28374 O 2813.81 -0.60917 -1.73306 0
M  V30 28375 C 2813.87 -3.59499 -0.00641763 0
M  V30 28376 C 2813.53 -4.39427 1.2551 0
M  V30 28377 C 2814.53 -4.71872 2.18249 0
M  V30 28378 C 2812.21 -4.79536 1.49502 0
M  V30 28379 C 2814.21 -5.43328 3.33278 0
M  V30 28380 C 2811.89 -5.50737 2.64825 0
M  V30 28381 C 2812.89 -5.82554 3.56538 0
M  V30 28382 O 2812.58 -6.52302 4.69848 0
M  V30 28383 H 2812.31 -0.670708 0.0844242 0
M  V30 28384 H 2814.87 -1.85289 0.886412 0
M  V30 28385 H 2813.1 -3.78698 -0.782594 0
M  V30 28386 H 2814.79 -4.03456 -0.444723 0
M  V30 28387 H 2815.55 -4.4141 2.00954 0
M  V30 28388 H 2811.43 -4.54181 0.789992 0
M  V30 28389 H 2814.97 -5.6808 4.04884 0
M  V30 28390 H 2810.87 -5.80615 2.82057 0
M  V30 28391 H 2811.64 -6.70781 4.69036 0
M  V30 28392 N 2814.3 -0.388796 -1.52729 0
M  V30 28393 C 2815.55 0.193842 -2.01871 0
M  V30 28394 C 2815.88 1.46503 -1.27477 0
M  V30 28395 O 2815.16 1.90849 -0.375096 0
M  V30 28396 C 2815.44 0.462273 -3.5712 0
M  V30 28397 C 2815.29 -0.824169 -4.42185 0
M  V30 28398 C 2816.61 1.25311 -4.21883 0
M  V30 28399 H 2813.73 0.068977 -0.733765 0
M  V30 28400 H 2816.37 -0.518263 -1.82795 0
M  V30 28401 H 2814.52 1.06889 -3.73506 0
M  V30 28402 H 2816.19 -1.46104 -4.37552 0
M  V30 28403 H 2814.44 -1.43959 -4.09216 0
M  V30 28404 H 2815.11 -0.591002 -5.48827 0
M  V30 28405 H 2817.58 0.739738 -4.09472 0
M  V30 28406 H 2816.46 1.40968 -5.3049 0
M  V30 28407 H 2816.72 2.26817 -3.79482 0
M  V30 28408 N 2815.78 1.57153 -0.118604 0
M  V30 28409 C 2816.73 2.11848 0.842887 0
M  V30 28410 C 2817.71 1.03916 1.22843 0
M  V30 28411 O 2818.91 1.3015 1.19958 0
M  V30 28412 C 2816.04 2.72113 2.09307 0
M  V30 28413 C 2815.12 3.87125 1.73192 0
M  V30 28414 N 2815.51 4.9419 1.07749 0
M  V30 28415 C 2813.81 3.97301 2.02652 0
M  V30 28416 C 2814.51 5.74575 0.90764 0
M  V30 28417 N 2813.49 5.24385 1.43251 0
M  V30 28418 H 2817.29 2.92003 0.333364 0
M  V30 28419 H 2814.8 1.62183 0.0838788 0
M  V30 28420 H 2816.8 3.0964 2.79157 0
M  V30 28421 H 2815.46 1.9342 2.60804 0
M  V30 28422 H 2816.47 5.12564 0.741523 0
M  V30 28423 H 2813.15 3.2965 2.56198 0
M  V30 28424 H 2814.54 6.70744 0.393994 0
M  V30 28425 N 2817.26 -0.155167 1.56834 0
M  V30 28426 C 2818.49 -0.883011 1.86779 0
M  V30 28427 C 2818.9 -1.7562 0.703855 0
M  V30 28428 O 2818.24 -1.80605 -0.335779 0
M  V30 28429 C 2818.3 -1.79755 3.11333 0
M  V30 28430 C 2817.97 -1.10235 4.43506 0
M  V30 28431 C 2818.96 -0.460113 5.1786 0
M  V30 28432 C 2816.65 -1.09429 4.90235 0
M  V30 28433 C 2818.64 0.180894 6.37143 0
M  V30 28434 C 2816.33 -0.449462 6.09445 0
M  V30 28435 C 2817.33 0.187008 6.82744 0
M  V30 28436 O 2817.01 0.821626 7.9969 0
M  V30 28437 H 2816.75 -0.261138 0.623524 0
M  V30 28438 H 2819.3 -0.155168 2.04813 0
M  V30 28439 H 2817.53 -2.56613 2.89287 0
M  V30 28440 H 2819.22 -2.39664 3.27591 0
M  V30 28441 H 2819.99 -0.458204 4.82831 0
M  V30 28442 H 2815.86 -1.5791 4.33111 0
M  V30 28443 H 2819.41 0.678276 6.94295 0
M  V30 28444 H 2815.31 -0.44901 6.43936 0
M  V30 28445 H 2816.07 0.72248 8.15305 0
M  V30 28446 N 2818.74 -1.51782 -0.424256 0
M  V30 28447 C 2819.68 -1.74631 -1.53645 0
M  V30 28448 C 2820.68 -0.61295 -1.57922 0
M  V30 28449 O 2821.88 -0.794646 -1.6151 0
M  V30 28450 H 2818.26 -0.55199 -0.510696 0
M  V30 28451 H 2820.23 -2.67836 -1.31553 0
M  V30 28452 C 2818.98 -1.90035 -2.91174 0
M  V30 28453 H 2818.3 -2.76656 -2.8862 0
M  V30 28454 H 2819.74 -2.10028 -3.68326 0
M  V30 28455 C 2818.2 -0.663493 -3.30302 0
M  V30 28456 O 2818.73 0.175742 -4.01315 0
M  V30 28457 N 2816.94 -0.503773 -2.862 0
M  V30 28458 H 2816.48 -1.1878 -2.28581 0
M  V30 28459 H 2816.44 0.32252 -3.12741 0
M  V30 28460 N 2820.21 0.68054 -1.42149 0
M  V30 28461 C 2821.46 1.43633 -1.41606 0
M  V30 28462 C 2821.78 1.95571 -0.033823 0
M  V30 28463 O 2822.98 2.71336 0.0942111 0
M  V30 28464 C 2821.44 2.59802 -2.4906 0
M  V30 28465 C 2821.05 2.14587 -3.93264 0
M  V30 28466 C 2822.79 3.37348 -2.57676 0
M  V30 28467 C 2820.7 3.27804 -4.92238 0
M  V30 28468 H 2819.63 0.539573 -0.526666 0
M  V30 28469 H 2822.28 0.73734 -1.68034 0
M  V30 28470 H 2820.66 3.32041 -2.15788 0
M  V30 28471 H 2821.83 1.49539 -4.35861 0
M  V30 28472 H 2820.15 1.49996 -3.88446 0
M  V30 28473 H 2822.75 4.21656 -3.28801 0
M  V30 28474 H 2823.09 3.83552 -1.61844 0
M  V30 28475 H 2823.62 2.72174 -2.90114 0
M  V30 28476 H 2820.36 2.86597 -5.89527 0
M  V30 28477 H 2819.88 3.91653 -4.54277 0
M  V30 28478 H 2821.56 3.93358 -5.13691 0
M  V30 28479 N 2821.69 1.28226 0.916285 0
M  V30 28480 C 2822.62 1.07736 2.02301 0
M  V30 28481 C 2823.64 0.0298707 1.62773 0
M  V30 28482 O 2824.83 0.272657 1.76405 0
M  V30 28483 C 2821.93 0.614562 3.33281 0
M  V30 28484 C 2821.1 1.73689 4.01436 0
M  V30 28485 C 2820.16 1.2679 5.10696 0
M  V30 28486 O 2819.18 1.96967 5.34034 0
M  V30 28487 N 2820.39 0.129726 5.80355 0
M  V30 28488 H 2823.15 2.03045 2.20438 0
M  V30 28489 H 2820.71 1.19945 1.08742 0
M  V30 28490 H 2822.7 0.284468 4.03699 0
M  V30 28491 H 2821.27 -0.245609 3.11634 0
M  V30 28492 H 2820.49 2.2367 3.246 0
M  V30 28493 H 2821.78 2.48983 4.43717 0
M  V30 28494 H 2821.18 -0.455748 5.63861 0
M  V30 28495 H 2819.74 -0.141109 6.51647 0
M  V30 28496 N 2823.17 -1.12438 1.10433 0
M  V30 28497 C 2824.4 -1.88311 0.869122 0
M  V30 28498 C 2824.82 -1.791 -0.57488 0
M  V30 28499 O 2824.18 -1.14592 -1.40494 0
M  V30 28500 C 2824.23 -3.35487 1.32214 0
M  V30 28501 O 2823.33 -4.09512 0.487164 0
M  V30 28502 H 2822.67 -0.585116 0.313904 0
M  V30 28503 H 2825.2 -1.42193 1.47114 0
M  V30 28504 H 2825.21 -3.86327 1.31208 0
M  V30 28505 H 2823.89 -3.41509 2.3737 0
M  V30 28506 H 2822.46 -3.68634 0.562436 0
M  V30 28507 N 2824.65 -0.893076 -1.29853 0
M  V30 28508 C 2825.58 -0.382289 -2.30349 0
M  V30 28509 C 2826.56 0.539174 -1.61329 0
M  V30 28510 O 2827.75 0.451309 -1.88883 0
M  V30 28511 C 2824.88 0.396922 -3.45024 0
M  V30 28512 C 2823.83 -0.433512 -4.25799 0
M  V30 28513 C 2823.16 0.472796 -5.32606 0
M  V30 28514 C 2824.46 -1.67993 -4.94546 0
M  V30 28515 H 2826.15 -1.2221 -2.73322 0
M  V30 28516 H 2823.7 -0.589096 -1.31399 0
M  V30 28517 H 2825.65 0.764951 -4.14399 0
M  V30 28518 H 2824.37 1.27045 -3.00877 0
M  V30 28519 H 2823.03 -0.783786 -3.58123 0
M  V30 28520 H 2822.68 1.34427 -4.84704 0
M  V30 28521 H 2822.38 -0.0790991 -5.87547 0
M  V30 28522 H 2823.9 0.837163 -6.04834 0
M  V30 28523 H 2825.32 -1.38202 -5.56393 0
M  V30 28524 H 2823.71 -2.17264 -5.59389 0
M  V30 28525 H 2824.78 -2.41972 -4.20211 0
M  V30 28526 N 2826.13 1.4335 -0.654865 0
M  V30 28527 C 2827.38 2.01014 -0.16625 0
M  V30 28528 C 2827.69 1.5228 1.22761 0
M  V30 28529 O 2828.9 2.02228 1.81153 0
M  V30 28530 C 2827.35 3.59056 -0.246404 0
M  V30 28531 C 2826.96 4.16782 -1.64306 0
M  V30 28532 C 2828.7 4.24099 0.184522 0
M  V30 28533 C 2826.61 5.67123 -1.67705 0
M  V30 28534 H 2825.54 0.751736 -0.0583901 0
M  V30 28535 H 2828.19 1.64302 -0.81714 0
M  V30 28536 H 2826.57 3.93177 0.472023 0
M  V30 28537 H 2827.75 3.94158 -2.38697 0
M  V30 28538 H 2826.06 3.64116 -2.0201 0
M  V30 28539 H 2828.66 5.344 0.178994 0
M  V30 28540 H 2829 3.98137 1.21625 0
M  V30 28541 H 2829.54 3.94867 -0.48221 0
M  V30 28542 H 2826.27 5.97855 -2.68793 0
M  V30 28543 H 2825.79 5.91799 -0.976417 0
M  V30 28544 H 2827.47 6.31191 -1.42153 0
M  V30 28545 N 2827.61 0.39689 1.52521 0
M  V30 28546 C 2828.52 -0.44174 2.30404 0
M  V30 28547 C 2829.53 -1.06466 1.37626 0
M  V30 28548 O 2830.71 -1.06883 1.70699 0
M  V30 28549 C 2827.77 -1.5498 3.10132 0
M  V30 28550 C 2826.83 -0.951206 4.18629 0
M  V30 28551 C 2826.07 -2.00646 4.94547 0
M  V30 28552 O 2826.29 -3.22272 4.70634 0
M  V30 28553 O 2825.22 -1.61952 5.79703 0
M  V30 28554 H 2829.05 0.192946 3.03086 0
M  V30 28555 H 2826.63 0.160406 1.48536 0
M  V30 28556 H 2828.52 -2.19335 3.5982 0
M  V30 28557 H 2827.19 -2.16931 2.40255 0
M  V30 28558 H 2826.1 -0.270707 3.73119 0
M  V30 28559 H 2827.43 -0.375801 4.90763 0
M  V30 28560 N 2829.08 -1.57088 0.126936 0
M  V30 28561 C 2829.99 -2.19282 -0.833828 0
M  V30 28562 C 2831.01 -1.17124 -1.28678 0
M  V30 28563 O 2832.19 -1.49625 -1.34812 0
M  V30 28564 C 2829.25 -2.7863 -2.06315 0
M  V30 28565 C 2828.31 -3.9585 -1.66136 0
M  V30 28566 C 2827.54 -4.52359 -2.83209 0
M  V30 28567 O 2827.77 -4.07757 -3.98861 0
M  V30 28568 O 2826.7 -5.42926 -2.59836 0
M  V30 28569 H 2830.53 -3.01852 -0.334511 0
M  V30 28570 H 2828.11 -1.49071 -0.0990829 0
M  V30 28571 H 2829.99 -3.1643 -2.78298 0
M  V30 28572 H 2828.67 -1.99086 -2.55238 0
M  V30 28573 H 2827.58 -3.62804 -0.912372 0
M  V30 28574 H 2828.91 -4.76854 -1.21948 0
M  V30 28575 N 2830.56 0.146848 -1.56914 0
M  V30 28576 C 2831.79 0.878353 -1.87882 0
M  V30 28577 C 2832.21 1.73941 -0.715975 0
M  V30 28578 O 2831.57 1.78189 0.334416 0
M  V30 28579 C 2831.62 1.71078 -3.17434 0
M  V30 28580 O 2830.72 2.81504 -3.01379 0
M  V30 28581 H 2830.06 0.244633 -0.617293 0
M  V30 28582 H 2832.59 0.137618 -2.04137 0
M  V30 28583 H 2832.6 2.10576 -3.49459 0
M  V30 28584 H 2831.28 1.07849 -4.01673 0
M  V30 28585 H 2829.85 2.45411 -2.80763 0
M  V30 28586 N 2832.04 1.52005 0.4162 0
M  V30 28587 C 2832.95 1.77719 1.53144 0
M  V30 28588 C 2833.97 0.662396 1.60898 0
M  V30 28589 O 2835.14 0.947023 1.77745 0
M  V30 28590 C 2832.21 1.91604 2.88945 0
M  V30 28591 C 2831.27 3.15499 2.91134 0
M  V30 28592 C 2830.5 3.28711 4.20458 0
M  V30 28593 O 2830.72 2.47354 5.13977 0
M  V30 28594 O 2829.66 4.21821 4.29361 0
M  V30 28595 H 2833.48 2.72366 1.34352 0
M  V30 28596 H 2831.07 1.36763 0.601349 0
M  V30 28597 H 2832.95 2.02599 3.69502 0
M  V30 28598 H 2831.63 1.00146 3.07819 0
M  V30 28599 H 2830.53 3.09966 2.09456 0
M  V30 28600 H 2831.87 4.06714 2.77208 0
M  V30 28601 N 2833.52 -0.672992 1.42508 0
M  V30 28602 C 2834.43 -1.8159 1.48533 0
M  V30 28603 C 2835.44 -1.69934 0.373937 0
M  V30 28604 O 2836.62 -1.91453 0.625112 0
M  V30 28605 C 2833.68 -3.17745 1.38705 0
M  V30 28606 C 2832.75 -3.41344 2.60352 0
M  V30 28607 C 2831.98 -4.71002 2.50983 0
M  V30 28608 O 2832.2 -5.4903 1.54669 0
M  V30 28609 O 2831.14 -4.95886 3.41147 0
M  V30 28610 H 2834.96 -1.79463 2.45004 0
M  V30 28611 H 2832.55 -0.828968 1.24292 0
M  V30 28612 H 2834.43 -3.98989 1.35593 0
M  V30 28613 H 2833.1 -3.20506 0.453612 0
M  V30 28614 H 2832.01 -2.5994 2.69039 0
M  V30 28615 H 2833.34 -3.43414 3.52601 0
M  V30 28616 N 2835 -1.2871 -0.909472 0
M  V30 28617 C 2835.93 -1.15545 -2.02908 0
M  V30 28618 C 2836.91 -0.0521316 -1.7002 0
M  V30 28619 O 2838.09 -0.229883 -1.92835 0
M  V30 28620 C 2835.22 -0.820994 -3.37457 0
M  V30 28621 C 2834.18 -1.87956 -3.84521 0
M  V30 28622 C 2833.5 -1.39864 -5.16084 0
M  V30 28623 C 2834.8 -3.28683 -4.05912 0
M  V30 28624 H 2836.5 -2.09207 -2.1418 0
M  V30 28625 H 2834.04 -1.00723 -1.02912 0
M  V30 28626 H 2835.99 -0.715644 -4.15279 0
M  V30 28627 H 2834.72 0.151317 -3.26249 0
M  V30 28628 H 2833.38 -1.97413 -3.08907 0
M  V30 28629 H 2833.03 -0.415268 -5.01283 0
M  V30 28630 H 2832.73 -2.1065 -5.48544 0
M  V30 28631 H 2834.25 -1.30659 -5.96457 0
M  V30 28632 H 2835.66 -3.22124 -4.74246 0
M  V30 28633 H 2834.06 -3.97342 -4.4971 0
M  V30 28634 H 2835.13 -3.72385 -3.10576 0
M  V30 28635 N 2836.47 1.1185 -1.11028 0
M  V30 28636 C 2837.44 2.15948 -0.768044 0
M  V30 28637 C 2838.44 1.59416 0.21051 0
M  V30 28638 O 2839.63 1.74195 -0.0134285 0
M  V30 28639 C 2836.76 3.40618 -0.138738 0
M  V30 28640 H 2837.95 2.47737 -1.69017 0
M  V30 28641 H 2835.5 1.26963 -0.9116 0
M  V30 28642 H 2836.24 3.14434 0.793817 0
M  V30 28643 H 2836.02 3.82929 -0.84308 0
M  V30 28644 H 2837.51 4.17514 0.0847305 0
M  V30 28645 N 2837.95 0.89995 1.29378 0
M  V30 28646 C 2839.37 0.596085 1.48051 0
M  V30 28647 C 2839.57 -0.86234 1.82115 0
M  V30 28648 O 2838.62 -1.6425 1.91777 0
M  V30 28649 C 2839.94 1.52212 2.5933 0
M  V30 28650 C 2841.48 1.52735 2.73205 0
M  V30 28651 C 2841.96 2.43968 3.87613 0
M  V30 28652 N 2843.45 2.42016 3.94946 0
M  V30 28653 C 2844.19 3.09312 4.82819 0
M  V30 28654 N 2843.68 3.85887 5.75381 0
M  V30 28655 N 2845.47 2.98468 4.76312 0
M  V30 28656 H 2837.63 1.84321 1.05543 0
M  V30 28657 H 2839.89 0.789819 0.5243 0
M  V30 28658 H 2839.59 2.56126 2.41024 0
M  V30 28659 H 2839.47 1.24284 3.56137 0
M  V30 28660 H 2841.86 0.495665 2.90907 0
M  V30 28661 H 2841.94 1.84701 1.76972 0
M  V30 28662 H 2841.58 3.47231 3.70666 0
M  V30 28663 H 2841.51 2.09311 4.83215 0
M  V30 28664 H 2844 1.8638 3.28741 0
M  V30 28665 H 2844.31 4.3429 6.39228 0
M  V30 28666 H 2842.66 3.89994 5.75265 0
M  V30 28667 H 2845.85 2.38159 4.02986 0
M  V30 28668 H 2846.02 3.51189 5.44583 0
M  V30 28669 N 2839.43 -1.43001 0.662458 0
M  V30 28670 C 2840.71 -1.95295 0.10913 0
M  V30 28671 C 2841.09 -1.60341 -1.3731 0
M  V30 28672 O 2840.44 -0.893224 -2.10318 0
M  V30 28673 C 2840.65 -3.47084 0.365157 0
M  V30 28674 C 2841.99 -4.23708 0.275039 0
M  V30 28675 O 2843.02 -3.54949 0.298222 0
M  V30 28676 O 2841.88 -5.46109 0.206645 0
M  V30 28677 H 2838.97 -0.826989 -0.0042827 0
M  V30 28678 H 2841.52 -1.52893 0.736335 0
M  V30 28679 H 2840.29 -3.65687 1.39243 0
M  V30 28680 H 2839.91 -3.96507 -0.294664 0
M  V30 28681 N 2840.91 -0.404973 -1.52308 0
M  V30 28682 C 2841.87 0.410612 -2.25492 0
M  V30 28683 C 2842.87 0.977132 -1.27706 0
M  V30 28684 O 2844.06 0.856665 -1.5168 0
M  V30 28685 C 2841.19 1.5776 -3.022 0
M  V30 28686 H 2842.39 -0.230329 -2.99014 0
M  V30 28687 H 2839.94 -0.157405 -1.55505 0
M  V30 28688 H 2840.67 2.25552 -2.33016 0
M  V30 28689 H 2840.46 1.17791 -3.73989 0
M  V30 28690 H 2841.95 2.15463 -3.57723 0
M  V30 28691 N 2842.39 1.57018 -0.135265 0
M  V30 28692 C 2843.34 2.1273 0.82037 0
M  V30 28693 C 2844.32 1.05213 1.21734 0
M  V30 28694 O 2845.51 1.31415 1.18571 0
M  V30 28695 C 2842.64 2.74317 2.0641 0
M  V30 28696 C 2841.73 3.8894 1.69076 0
M  V30 28697 N 2842.12 4.95305 1.02502 0
M  V30 28698 C 2840.42 3.99428 1.98427 0
M  V30 28699 C 2841.12 5.75506 0.846648 0
M  V30 28700 N 2840.09 5.25875 1.37681 0
M  V30 28701 H 2843.9 2.9234 0.302375 0
M  V30 28702 H 2841.41 1.62263 0.0666724 0
M  V30 28703 H 2843.41 3.12584 2.75857 0
M  V30 28704 H 2842.07 1.96176 2.58738 0
M  V30 28705 H 2843.08 5.13322 0.687117 0
M  V30 28706 H 2839.75 3.32348 2.52687 0
M  V30 28707 H 2841.14 6.71124 0.322831 0
M  V30 28708 N 2843.86 -0.138524 1.5699 0
M  V30 28709 C 2845.28 -0.491446 1.51845 0
M  V30 28710 C 2845.48 -1.82922 0.845095 0
M  V30 28711 O 2844.54 -2.48996 0.419187 0
M  V30 28712 C 2845.85 -0.493935 2.96616 0
M  V30 28713 C 2847.4 -0.578859 3.07601 0
M  V30 28714 C 2847.87 -0.611929 4.53894 0
M  V30 28715 N 2849.36 -0.673916 4.58271 0
M  V30 28716 C 2850.1 -0.720629 5.68854 0
M  V30 28717 N 2849.59 -0.72617 6.88984 0
M  V30 28718 N 2851.39 -0.762155 5.56909 0
M  V30 28719 H 2843.54 0.738263 1.99157 0
M  V30 28720 H 2845.8 0.270165 0.908688 0
M  V30 28721 H 2845.51 0.420994 3.49171 0
M  V30 28722 H 2845.38 -1.32881 3.53019 0
M  V30 28723 H 2847.77 -1.48421 2.55059 0
M  V30 28724 H 2847.85 0.283331 2.54226 0
M  V30 28725 H 2847.49 0.289297 5.07075 0
M  V30 28726 H 2847.42 -1.49073 5.05059 0
M  V30 28727 H 2849.91 -0.676589 3.71794 0
M  V30 28728 H 2850.23 -0.763897 7.69015 0
M  V30 28729 H 2848.57 -0.693909 6.91527 0
M  V30 28730 H 2851.76 -0.755054 4.6197 0
M  V30 28731 H 2851.94 -0.795094 6.43104 0
M  V30 28732 N 2845.34 -1.52224 -0.408133 0
M  V30 28733 C 2846.57 -1.70181 -1.17669 0
M  V30 28734 C 2846.99 -0.411728 -1.84256 0
M  V30 28735 O 2846.34 0.612324 -1.71921 0
M  V30 28736 C 2846.39 -2.8381 -2.23906 0
M  V30 28737 O 2846.11 -4.07823 -1.60037 0
M  V30 28738 C 2847.62 -3.13286 -3.13634 0
M  V30 28739 H 2844.84 -0.5703 -0.353552 0
M  V30 28740 H 2847.38 -1.98786 -0.480048 0
M  V30 28741 H 2845.53 -2.57722 -2.89237 0
M  V30 28742 H 2845.95 -4.71149 -2.30476 0
M  V30 28743 H 2847.42 -3.96305 -3.84248 0
M  V30 28744 H 2847.9 -2.26879 -3.76062 0
M  V30 28745 H 2848.51 -3.41143 -2.53971 0
M  V30 28746 N 2846.82 0.665425 -1.42863 0
M  V30 28747 C 2848.07 1.42754 -1.44045 0
M  V30 28748 C 2848.4 1.94107 -0.059997 0
M  V30 28749 O 2847.67 1.71513 0.917256 0
M  V30 28750 C 2847.96 2.61781 -2.4727 0
M  V30 28751 C 2847.81 2.16 -3.94543 0
M  V30 28752 C 2849.13 3.63999 -2.47372 0
M  V30 28753 H 2846.25 0.517739 -0.524515 0
M  V30 28754 H 2848.89 0.755435 -1.74336 0
M  V30 28755 H 2847.04 3.19122 -2.21571 0
M  V30 28756 H 2848.71 1.63754 -4.31257 0
M  V30 28757 H 2846.96 1.47484 -4.07959 0
M  V30 28758 H 2847.63 3.01538 -4.62363 0
M  V30 28759 H 2850.1 3.16394 -2.70248 0
M  V30 28760 H 2848.98 4.44849 -3.2156 0
M  V30 28761 H 2849.24 4.15765 -1.50307 0
M  V30 28762 N 2848.3 1.29191 0.902633 0
M  V30 28763 C 2849.53 1.19872 1.68637 0
M  V30 28764 C 2849.94 -0.241088 1.87254 0
M  V30 28765 O 2849.3 -1.16174 1.40747 0
M  V30 28766 C 2849.35 1.90476 3.07247 0
M  V30 28767 O 2849.07 3.28834 2.89482 0
M  V30 28768 C 2850.57 1.87597 4.01649 0
M  V30 28769 H 2847.79 0.415606 0.526795 0
M  V30 28770 H 2850.34 1.70512 1.12898 0
M  V30 28771 H 2848.49 1.43679 3.59771 0
M  V30 28772 H 2848.9 3.64352 3.7729 0
M  V30 28773 H 2850.38 2.41569 4.96335 0
M  V30 28774 H 2850.86 0.850832 4.3088 0
M  V30 28775 H 2851.46 2.34125 3.55057 0
M  V30 28776 N 2849.78 -1.1126 1.1162 0
M  V30 28777 C 2850.69 -2.20934 0.789019 0
M  V30 28778 C 2851.7 -1.72621 -0.21864 0
M  V30 28779 O 2852.88 -2.01327 -0.0543472 0
M  V30 28780 C 2849.94 -3.45875 0.239075 0
M  V30 28781 C 2849 -4.08966 1.30558 0
M  V30 28782 C 2848.24 -5.27943 0.78178 0
M  V30 28783 O 2848.46 -5.69082 -0.387505 0
M  V30 28784 O 2847.39 -5.81668 1.54744 0
M  V30 28785 H 2851.22 -2.51336 1.70481 0
M  V30 28786 H 2848.81 -1.19832 0.892224 0
M  V30 28787 H 2850.69 -4.21353 -0.0631571 0
M  V30 28788 H 2849.36 -3.17119 -0.649398 0
M  V30 28789 H 2848.27 -3.35211 1.66085 0
M  V30 28790 H 2849.6 -4.41905 2.16751 0
M  V30 28791 N 2851.25 -0.906798 -1.28899 0
M  V30 28792 C 2852.48 -0.552004 -1.994 0
M  V30 28793 C 2852.9 0.865019 -1.67818 0
M  V30 28794 O 2852.25 1.57197 -0.927105 0
M  V30 28795 C 2852.31 -0.743214 -3.53778 0
M  V30 28796 O 2852.03 -2.10447 -3.84244 0
M  V30 28797 C 2853.53 -0.394318 -4.41543 0
M  V30 28798 H 2850.75 -0.211118 -0.636923 0
M  V30 28799 H 2853.29 -1.21809 -1.64264 0
M  V30 28800 H 2851.45 -0.124211 -3.87201 0
M  V30 28801 H 2851.86 -2.13903 -4.78901 0
M  V30 28802 H 2853.33 -0.578911 -5.48956 0
M  V30 28803 H 2853.81 0.669061 -4.34074 0
M  V30 28804 H 2854.42 -0.990564 -4.13604 0
M  V30 28805 N 2852.73 1.42648 -0.670032 0
M  V30 28806 C 2853.96 2.06462 -0.196991 0
M  V30 28807 C 2854.38 1.49985 1.13517 0
M  V30 28808 O 2853.74 0.616427 1.70499 0
M  V30 28809 C 2853.79 3.60338 -0.137444 0
M  V30 28810 O 2852.89 4.02561 0.895452 0
M  V30 28811 H 2852.23 0.656027 -0.10259 0
M  V30 28812 H 2854.76 1.82864 -0.917701 0
M  V30 28813 H 2854.77 4.0798 0.0402908 0
M  V30 28814 H 2853.45 4.00818 -1.10984 0
M  V30 28815 H 2852.03 3.66477 0.689145 0
M  V30 28816 N 2854.21 0.413044 1.52091 0
M  V30 28817 C 2855.14 -0.401527 2.30022 0
M  V30 28818 C 2856.12 -1.04267 1.34397 0
M  V30 28819 O 2857.31 -1.05094 1.63306 0
M  V30 28820 C 2854.44 -1.51632 3.1245 0
M  V30 28821 C 2853.39 -0.999977 4.16154 0
M  V30 28822 C 2852.72 -2.20867 4.86952 0
M  V30 28823 C 2854.02 -0.0512839 5.22275 0
M  V30 28824 H 2855.71 0.248757 2.98365 0
M  V30 28825 H 2853.26 0.121077 1.4349 0
M  V30 28826 H 2855.21 -2.09319 3.65737 0
M  V30 28827 H 2853.93 -2.19454 2.41883 0
M  V30 28828 H 2852.59 -0.445485 3.63883 0
M  V30 28829 H 2852.24 -2.87252 4.1291 0
M  V30 28830 H 2851.94 -1.86968 5.57061 0
M  V30 28831 H 2853.47 -2.79153 5.43053 0
M  V30 28832 H 2854.88 -0.537076 5.70779 0
M  V30 28833 H 2853.28 0.199082 5.9977 0
M  V30 28834 H 2854.35 0.892819 4.7661 0
M  V30 28835 N 2855.69 -1.56945 0.143591 0
M  V30 28836 C 2856.62 -2.19602 -0.793561 0
M  V30 28837 C 2857.6 -1.14323 -1.25953 0
M  V30 28838 O 2858.79 -1.42654 -1.31771 0
M  V30 28839 C 2855.92 -2.81492 -2.03419 0
M  V30 28840 C 2854.87 -3.92568 -1.70512 0
M  V30 28841 C 2854.2 -4.41379 -3.0181 0
M  V30 28842 C 2855.5 -5.13506 -0.9544 0
M  V30 28843 H 2857.19 -2.98168 -0.271371 0
M  V30 28844 H 2854.74 -1.4342 -0.129085 0
M  V30 28845 H 2856.69 -3.23991 -2.69458 0
M  V30 28846 H 2855.41 -2.00253 -2.58005 0
M  V30 28847 H 2854.07 -3.50682 -1.06853 0
M  V30 28848 H 2853.72 -3.56965 -3.54379 0
M  V30 28849 H 2853.42 -5.16296 -2.80556 0
M  V30 28850 H 2854.94 -4.86546 -3.68925 0
M  V30 28851 H 2856.36 -5.52871 -1.51681 0
M  V30 28852 H 2854.75 -5.94165 -0.84193 0
M  V30 28853 H 2855.82 -4.84869 0.0544885 0
M  V30 28854 N 2857.17 0.130197 -1.57061 0
M  V30 28855 C 2858.39 0.858376 -1.88803 0
M  V30 28856 C 2858.82 1.73172 -0.734384 0
M  V30 28857 O 2858.18 1.78534 0.315497 0
M  V30 28858 C 2858.22 1.67702 -3.19231 0
M  V30 28859 O 2857.33 2.78291 -3.04348 0
M  V30 28860 H 2856.67 0.238072 -0.619853 0
M  V30 28861 H 2859.2 0.115959 -2.04271 0
M  V30 28862 H 2859.21 2.06858 -3.51673 0
M  V30 28863 H 2857.88 1.03583 -4.02795 0
M  V30 28864 H 2856.46 2.4242 -2.8335 0
M  V30 28865 N 2858.65 1.52438 0.400055 0
M  V30 28866 C 2859.56 1.79334 1.5125 0
M  V30 28867 C 2860.57 0.679425 1.60187 0
M  V30 28868 O 2861.75 0.965822 1.76731 0
M  V30 28869 C 2858.81 1.94657 2.86896 0
M  V30 28870 C 2857.87 3.18569 2.87772 0
M  V30 28871 C 2857.11 3.33152 4.16948 0
M  V30 28872 O 2857.33 2.52792 5.11324 0
M  V30 28873 O 2856.26 4.26351 4.24863 0
M  V30 28874 H 2860.09 2.73775 1.31456 0
M  V30 28875 H 2857.67 1.37393 0.58681 0
M  V30 28876 H 2859.56 2.06507 3.67332 0
M  V30 28877 H 2858.23 1.03405 3.06739 0
M  V30 28878 H 2857.14 3.1217 2.06157 0
M  V30 28879 H 2858.47 4.09631 2.72879 0
M  V30 28880 N 2860.12 -0.657839 1.43214 0
M  V30 28881 C 2861.35 -1.45061 1.4823 0
M  V30 28882 C 2861.77 -1.87834 0.100027 0
M  V30 28883 O 2861.13 -1.57083 -0.905241 0
M  V30 28884 C 2861.18 -2.66486 2.42936 0
M  V30 28885 O 2860.28 -3.65376 1.91243 0
M  V30 28886 H 2859.62 -0.435126 0.501559 0
M  V30 28887 H 2862.15 -0.805398 1.88081 0
M  V30 28888 H 2862.16 -3.14356 2.60085 0
M  V30 28889 H 2860.84 -2.34695 3.43352 0
M  V30 28890 H 2859.42 -3.24495 1.83732 0
M  V30 28891 N 2861.6 -1.29668 -0.895769 0
M  V30 28892 C 2862.53 -1.17691 -2.01671 0
M  V30 28893 C 2863.51 -0.0701615 -1.69955 0
M  V30 28894 O 2864.7 -0.250322 -1.9258 0
M  V30 28895 C 2861.83 -0.85674 -3.36567 0
M  V30 28896 C 2860.78 -1.92024 -3.82506 0
M  V30 28897 C 2860.11 -1.45329 -5.14571 0
M  V30 28898 C 2861.41 -3.3297 -4.02403 0
M  V30 28899 H 2863.1 -2.11466 -2.11949 0
M  V30 28900 H 2860.65 -1.01809 -1.01838 0
M  V30 28901 H 2862.6 -0.759649 -4.14496 0
M  V30 28902 H 2861.32 0.116705 -3.26391 0
M  V30 28903 H 2859.98 -2.00678 -3.06796 0
M  V30 28904 H 2859.63 -0.468413 -5.00814 0
M  V30 28905 H 2859.33 -2.16456 -5.46279 0
M  V30 28906 H 2860.86 -1.36978 -5.95037 0
M  V30 28907 H 2862.27 -3.27136 -4.70803 0
M  V30 28908 H 2860.67 -4.02089 -4.45471 0
M  V30 28909 H 2861.74 -3.75658 -3.06609 0
M  V30 28910 N 2863.08 1.10667 -1.12208 0
M  V30 28911 C 2864.33 1.82847 -0.877204 0
M  V30 28912 C 2864.66 1.84843 0.595539 0
M  V30 28913 O 2863.93 1.30734 1.4401 0
M  V30 28914 C 2864.22 3.29633 -1.44963 0
M  V30 28915 C 2864.07 3.35984 -2.99057 0
M  V30 28916 C 2865.39 4.25945 -1.10722 0
M  V30 28917 H 2862.51 0.663849 -0.320115 0
M  V30 28918 H 2865.15 1.29717 -1.38829 0
M  V30 28919 H 2863.3 3.75008 -1.01495 0
M  V30 28920 H 2864.97 2.99107 -3.51188 0
M  V30 28921 H 2863.21 2.75956 -3.3471 0
M  V30 28922 H 2863.89 4.39333 -3.34201 0
M  V30 28923 H 2866.36 3.88791 -1.4826 0
M  V30 28924 H 2865.24 5.27018 -1.5344 0
M  V30 28925 H 2865.5 4.42096 -0.0190777 0
M  V30 28926 N 2864.56 0.913621 1.28416 0
M  V30 28927 C 2865.78 0.561934 1.99642 0
M  V30 28928 C 2866.21 -0.849578 1.67821 0
M  V30 28929 O 2865.57 -1.56777 0.910531 0
M  V30 28930 C 2865.61 0.777684 3.52114 0
M  V30 28931 O 2864.72 -0.163385 4.12076 0
M  V30 28932 H 2864.06 0.217909 0.627226 0
M  V30 28933 H 2866.59 1.22902 1.63573 0
M  V30 28934 H 2866.6 0.687737 4.02162 0
M  V30 28935 H 2865.27 1.80667 3.7461 0
M  V30 28936 H 2863.85 -0.0247172 3.72892 0
M  V30 28937 N 2866.04 -1.4229 0.677588 0
M  V30 28938 C 2866.98 -2.32598 -0.0106346 0
M  V30 28939 C 2867.98 -1.49977 -0.787616 0
M  V30 28940 O 2869.18 -1.6603 -0.695266 0
M  V30 28941 H 2865.56 -0.751671 -0.022235 0
M  V30 28942 H 2867.53 -2.88338 0.768362 0
M  V30 28943 C 2866.28 -3.34581 -0.946083 0
M  V30 28944 H 2865.6 -3.98197 -0.357631 0
M  V30 28945 H 2867.04 -4.0035 -1.39627 0
M  V30 28946 C 2865.5 -2.6706 -2.05379 0
M  V30 28947 O 2866.03 -2.50464 -3.14055 0
M  V30 28948 N 2864.24 -2.26041 -1.82631 0
M  V30 28949 H 2863.78 -2.39739 -0.942492 0
M  V30 28950 H 2863.74 -1.81196 -2.56934 0
M  V30 28951 N 2867.51 -0.421104 -1.5187 0
M  V30 28952 C 2868.76 0.150457 -2.01539 0
M  V30 28953 C 2869.08 1.4462 -1.30805 0
M  V30 28954 O 2868.35 1.9095 -0.437601 0
M  V30 28955 H 2866.93 0.058591 -0.744699 0
M  V30 28956 H 2869.59 -0.560092 -1.86679 0
M  V30 28957 H 2868.69 0.338013 -3.10264 0
M  V30 28958 N 2868.99 1.56866 -0.151912 0
M  V30 28959 C 2869.94 2.17008 0.785897 0
M  V30 28960 C 2870.91 1.10437 1.24068 0
M  V30 28961 O 2872.09 1.38501 1.31233 0
M  V30 28962 C 2869.23 2.79972 2.01766 0
M  V30 28963 C 2868.35 4.00949 1.60823 0
M  V30 28964 C 2867.48 4.51898 2.79216 0
M  V30 28965 C 2866.52 5.65328 2.3467 0
M  V30 28966 N 2865.66 6.10874 3.46089 0
M  V30 28967 H 2870.5 2.96808 0.266234 0
M  V30 28968 H 2868.04 1.46612 0.119694 0
M  V30 28969 H 2869.99 3.14625 2.73983 0
M  V30 28970 H 2868.62 2.02808 2.51135 0
M  V30 28971 H 2867.68 3.72243 0.783527 0
M  V30 28972 H 2868.99 4.83113 1.2411 0
M  V30 28973 H 2868.14 4.88631 3.59617 0
M  V30 28974 H 2866.88 3.68751 3.19177 0
M  V30 28975 H 2865.89 5.28166 1.52711 0
M  V30 28976 H 2867.11 6.50264 1.9579 0
M  V30 28977 H 2865.06 5.30661 3.85662 0
M  V30 28978 H 2864.97 6.87977 3.13407 0
M  V30 28979 H 2866.24 6.52253 4.26832 0
M  V30 28980 N 2870.47 -0.121866 1.57128 0
M  V30 28981 C 2871.43 -1.13368 1.99199 0
M  V30 28982 C 2872.43 -1.34469 0.881751 0
M  V30 28983 O 2873.62 -1.31034 1.14785 0
M  V30 28984 C 2870.76 -2.48876 2.32967 0
M  V30 28985 H 2871.95 -0.772153 2.89789 0
M  V30 28986 H 2869.5 -0.366066 1.51953 0
M  V30 28987 H 2870.24 -2.89955 1.45248 0
M  V30 28988 H 2870.02 -2.34915 3.13938 0
M  V30 28989 H 2871.51 -3.21702 2.66266 0
M  V30 28990 N 2871.95 -1.52648 -0.391965 0
M  V30 28991 C 2872.91 -1.76573 -1.46132 0
M  V30 28992 C 2873.91 -0.635724 -1.477 0
M  V30 28993 O 2875.1 -0.903754 -1.48923 0
M  V30 28994 C 2872.23 -1.86379 -2.85439 0
M  V30 28995 H 2873.43 -2.72053 -1.26203 0
M  V30 28996 H 2870.98 -1.43324 -0.623523 0
M  V30 28997 H 2871.71 -0.92874 -3.10717 0
M  V30 28998 H 2871.5 -2.68544 -2.85703 0
M  V30 28999 H 2872.99 -2.06572 -3.62929 0
M  V30 29000 N 2873.43 0.650235 -1.43561 0
M  V30 29001 C 2874.67 1.41219 -1.45551 0
M  V30 29002 C 2875.01 1.94033 -0.0805813 0
M  V30 29003 O 2874.28 1.72476 0.899013 0
M  V30 29004 C 2874.56 2.59144 -2.50033 0
M  V30 29005 C 2874.42 2.11803 -3.96812 0
M  V30 29006 C 2875.74 3.61355 -2.51218 0
M  V30 29007 H 2872.85 0.512146 -0.529976 0
M  V30 29008 H 2875.5 0.736902 -1.75128 0
M  V30 29009 H 2873.65 3.16754 -2.24943 0
M  V30 29010 H 2875.32 1.59171 -4.32969 0
M  V30 29011 H 2873.56 1.43149 -4.09501 0
M  V30 29012 H 2874.23 2.96617 -4.65535 0
M  V30 29013 H 2876.71 3.1351 -2.73589 0
M  V30 29014 H 2875.58 4.41413 -3.2626 0
M  V30 29015 H 2875.85 4.14147 -1.54708 0
M  V30 29016 N 2874.9 1.30141 0.88888 0
M  V30 29017 C 2875.84 1.12003 1.9997 0
M  V30 29018 C 2876.85 0.0643905 1.62673 0
M  V30 29019 O 2878.04 0.310013 1.75787 0
M  V30 29020 C 2875.14 0.685118 3.31903 0
M  V30 29021 C 2874.31 1.82165 3.97661 0
M  V30 29022 C 2873.37 1.37594 5.07892 0
M  V30 29023 O 2872.4 2.0825 5.29736 0
M  V30 29024 N 2873.6 0.252799 5.79949 0
M  V30 29025 H 2876.36 2.07675 2.16082 0
M  V30 29026 H 2873.92 1.22225 1.06173 0
M  V30 29027 H 2875.92 0.370035 4.03005 0
M  V30 29028 H 2874.49 -0.179452 3.12084 0
M  V30 29029 H 2873.71 2.30505 3.19783 0
M  V30 29030 H 2874.99 2.58339 4.38336 0
M  V30 29031 H 2874.39 -0.336042 5.64701 0
M  V30 29032 H 2872.95 -0.00285356 6.518 0
M  V30 29033 N 2876.38 -1.1007 1.12794 0
M  V30 29034 C 2877.8 -1.34141 0.864768 0
M  V30 29035 C 2878 -1.95117 -0.503167 0
M  V30 29036 O 2877.05 -2.19327 -1.25107 0
M  V30 29037 C 2878.37 -2.25945 1.98417 0
M  V30 29038 C 2879.92 -2.39473 2.01549 0
M  V30 29039 C 2880.39 -3.34608 3.12733 0
M  V30 29040 N 2881.88 -3.42178 3.122 0
M  V30 29041 C 2882.62 -4.15772 3.94869 0
M  V30 29042 N 2882.11 -4.92219 4.87537 0
M  V30 29043 N 2883.91 -4.11428 3.82992 0
M  V30 29044 H 2876.06 -0.688625 2.00927 0
M  V30 29045 H 2878.32 -0.365828 0.87457 0
M  V30 29046 H 2878.03 -1.88359 2.97008 0
M  V30 29047 H 2877.9 -3.26283 1.89259 0
M  V30 29048 H 2880.29 -2.76327 1.03574 0
M  V30 29049 H 2880.37 -1.38936 2.1478 0
M  V30 29050 H 2880.01 -2.98478 4.10942 0
M  V30 29051 H 2879.94 -4.35032 2.9674 0
M  V30 29052 H 2882.43 -2.87661 2.4507 0
M  V30 29053 H 2882.75 -5.45785 5.47119 0
M  V30 29054 H 2881.09 -4.91331 4.91547 0
M  V30 29055 H 2884.28 -3.50801 3.09929 0
M  V30 29056 H 2884.45 -4.68523 4.47649 0
M  V30 29057 N 2877.86 -0.920419 -1.2793 0
M  V30 29058 C 2879.09 -0.572514 -1.99342 0
M  V30 29059 C 2879.51 0.840666 -1.68269 0
M  V30 29060 O 2878.87 1.56292 -0.918832 0
M  V30 29061 C 2878.92 -0.796346 -3.51697 0
M  V30 29062 O 2878.02 0.141529 -4.12157 0
M  V30 29063 H 2877.36 -0.221232 -0.626061 0
M  V30 29064 H 2879.89 -1.23768 -1.62919 0
M  V30 29065 H 2879.9 -0.709055 -4.01792 0
M  V30 29066 H 2878.58 -1.82651 -3.73646 0
M  V30 29067 H 2877.15 0.00494146 -3.729 0
M  V30 29068 N 2879.34 1.41929 -0.685124 0
M  V30 29069 C 2880.56 2.06242 -0.218878 0
M  V30 29070 C 2880.99 1.5118 1.1192 0
M  V30 29071 O 2880.35 0.634476 1.69835 0
M  V30 29072 C 2880.39 3.60172 -0.175655 0
M  V30 29073 O 2879.5 4.03488 0.852705 0
M  V30 29074 H 2878.84 0.654902 -0.109542 0
M  V30 29075 H 2881.37 1.81881 -0.937045 0
M  V30 29076 H 2881.38 4.08 -0.00298323 0
M  V30 29077 H 2880.05 3.99619 -1.15229 0
M  V30 29078 H 2878.63 3.67187 0.650236 0
M  V30 29079 N 2880.82 0.429152 1.51644 0
M  V30 29080 C 2882.23 0.081022 1.59394 0
M  V30 29081 C 2882.43 -1.40879 1.44067 0
M  V30 29082 O 2881.49 -2.17784 1.27774 0
M  V30 29083 C 2882.8 0.593825 2.94778 0
M  V30 29084 C 2884.35 0.553548 3.08066 0
M  V30 29085 C 2884.82 1.04319 4.45961 0
M  V30 29086 N 2886.32 1.00084 4.52258 0
M  V30 29087 C 2887.05 1.35066 5.57265 0
M  V30 29088 N 2886.55 1.77293 6.6973 0
M  V30 29089 N 2888.34 1.26935 5.4758 0
M  V30 29090 H 2880.49 1.3986 1.59853 0
M  V30 29091 H 2882.75 0.575818 0.753085 0
M  V30 29092 H 2882.46 1.63588 3.11339 0
M  V30 29093 H 2882.33 0.0142865 3.77197 0
M  V30 29094 H 2884.72 -0.479505 2.91178 0
M  V30 29095 H 2884.8 1.16939 2.27506 0
M  V30 29096 H 2884.45 2.07467 4.63595 0
M  V30 29097 H 2884.38 0.403966 5.25048 0
M  V30 29098 H 2886.87 0.69063 3.71536 0
M  V30 29099 H 2887.18 2.02245 7.45866 0
M  V30 29100 H 2885.52 1.81214 6.7096 0
M  V30 29101 H 2888.72 0.93817 4.58602 0
M  V30 29102 H 2888.89 1.54527 6.29306 0
M  V30 29103 N 2882.29 -1.56783 0.160229 0
M  V30 29104 C 2883.54 -1.96543 -0.487553 0
M  V30 29105 C 2883.87 -1.04572 -1.63997 0
M  V30 29106 O 2883.12 -0.0775555 -1.95546 0
M  V30 29107 C 2883.42 -3.4246 -1.02253 0
M  V30 29108 C 2883.09 -4.50898 0.0128228 0
M  V30 29109 C 2881.75 -4.8028 0.297403 0
M  V30 29110 C 2884.1 -5.16256 0.716169 0
M  V30 29111 C 2881.43 -5.72322 1.29091 0
M  V30 29112 C 2883.78 -6.09369 1.69858 0
M  V30 29113 C 2882.45 -6.37124 1.99072 0
M  V30 29114 H 2881.72 -0.719202 -0.178408 0
M  V30 29115 H 2884.36 -1.89863 0.249852 0
M  V30 29116 H 2882.67 -3.46037 -1.83753 0
M  V30 29117 H 2884.37 -3.70559 -1.53255 0
M  V30 29118 H 2880.96 -4.28039 -0.21916 0
M  V30 29119 H 2885.14 -4.93678 0.509515 0
M  V30 29120 H 2880.4 -5.92113 1.52355 0
M  V30 29121 H 2884.57 -6.59084 2.24902 0
M  V30 29122 H 2882.2 -7.08247 2.76206 0
M  V30 29123 N 2883.77 0.113531 -1.57191 0
M  V30 29124 C 2884.7 1.1401 -2.03774 0
M  V30 29125 C 2885.68 1.42867 -0.923201 0
M  V30 29126 O 2886.87 1.53214 -1.19327 0
M  V30 29127 C 2884 2.46486 -2.44667 0
M  V30 29128 C 2882.95 2.32078 -3.59616 0
M  V30 29129 C 2882.28 3.69566 -3.86426 0
M  V30 29130 C 2883.58 1.77672 -4.91152 0
M  V30 29131 H 2885.27 0.752615 -2.89786 0
M  V30 29132 H 2882.82 0.360585 -1.39412 0
M  V30 29133 H 2884.77 3.18556 -2.75862 0
M  V30 29134 H 2883.5 2.87134 -1.55633 0
M  V30 29135 H 2882.16 1.62456 -3.28639 0
M  V30 29136 H 2881.8 4.07709 -2.94588 0
M  V30 29137 H 2881.5 3.60778 -4.63803 0
M  V30 29138 H 2883.03 4.43133 -4.20078 0
M  V30 29139 H 2884.44 2.39565 -5.20847 0
M  V30 29140 H 2882.84 1.79691 -5.72566 0
M  V30 29141 H 2883.91 0.734692 -4.79302 0
M  V30 29142 N 2885.25 1.52854 0.383864 0
M  V30 29143 C 2886.2 1.77997 1.46921 0
M  V30 29144 C 2887.17 0.623423 1.53957 0
M  V30 29145 O 2888.35 0.863687 1.70133 0
M  V30 29146 C 2885.49 1.95926 2.8409 0
M  V30 29147 C 2884.61 3.23626 2.86165 0
M  V30 29148 C 2883.74 3.31843 4.14794 0
M  V30 29149 C 2882.78 4.53646 4.1094 0
M  V30 29150 N 2881.92 4.59116 5.31184 0
M  V30 29151 H 2886.76 2.70617 1.24781 0
M  V30 29152 H 2884.29 1.34072 0.605242 0
M  V30 29153 H 2886.25 2.04305 3.63751 0
M  V30 29154 H 2884.88 1.06661 3.04669 0
M  V30 29155 H 2883.93 3.24292 1.98844 0
M  V30 29156 H 2885.25 4.13348 2.79187 0
M  V30 29157 H 2884.4 3.39434 5.02861 0
M  V30 29158 H 2883.14 2.40104 4.24501 0
M  V30 29159 H 2882.14 4.46175 3.2126 0
M  V30 29160 H 2883.37 5.46707 4.02851 0
M  V30 29161 H 2881.32 3.70272 5.41512 0
M  V30 29162 H 2881.23 5.42718 5.26302 0
M  V30 29163 H 2882.5 4.70969 6.21135 0
M  V30 29164 N 2886.73 -0.642612 1.43904 0
M  V30 29165 C 2887.64 -1.78399 1.52352 0
M  V30 29166 C 2888.66 -1.69103 0.409899 0
M  V30 29167 O 2889.83 -1.90084 0.665581 0
M  V30 29168 C 2886.9 -3.14731 1.45414 0
M  V30 29169 C 2885.96 -3.35744 2.67533 0
M  V30 29170 C 2885.19 -4.65573 2.60917 0
M  V30 29171 O 2885.41 -5.45626 1.6628 0
M  V30 29172 O 2884.35 -4.88538 3.51589 0
M  V30 29173 H 2888.17 -1.74225 2.48755 0
M  V30 29174 H 2885.76 -0.802417 1.26022 0
M  V30 29175 H 2887.64 -3.96023 1.44026 0
M  V30 29176 H 2886.32 -3.19472 0.521494 0
M  V30 29177 H 2885.22 -2.54175 2.74492 0
M  V30 29178 H 2886.56 -3.35858 3.59806 0
M  V30 29179 N 2888.21 -1.30611 -0.881966 0
M  V30 29180 C 2889.46 -1.19371 -1.6308 0
M  V30 29181 C 2889.78 0.251113 -1.93376 0
M  V30 29182 O 2889.05 1.16855 -1.57232 0
M  V30 29183 H 2887.63 -0.438802 -0.604535 0
M  V30 29184 H 2890.29 -1.63778 -1.05655 0
M  V30 29185 H 2889.38 -1.75675 -2.57963 0
M  V30 29186 N 2889.69 1.0947 -1.13376 0
M  V30 29187 C 2890.63 2.18184 -0.806143 0
M  V30 29188 C 2891.63 1.68077 0.21133 0
M  V30 29189 O 2892.83 1.7987 0.0685242 0
M  V30 29190 H 2889.21 0.711686 -0.242913 0
M  V30 29191 H 2891.18 2.43048 -1.73119 0
M  V30 29192 C 2889.93 3.46505 -0.287989 0
M  V30 29193 H 2889.25 3.8543 -1.06224 0
M  V30 29194 H 2890.69 4.23889 -0.0971799 0
M  V30 29195 C 2889.15 3.22142 0.986199 0
M  V30 29196 O 2889.68 3.44732 2.06211 0
M  V30 29197 N 2887.89 2.75749 0.917104 0
M  V30 29198 H 2887.43 2.57567 0.0414157 0
M  V30 29199 H 2887.39 2.59826 1.77025 0
M  V30 29200 N 2891.16 0.92719 1.2744 0
M  V30 29201 C 2892.11 0.416373 2.28843 0
M  V30 29202 C 2893.11 -0.499028 1.61883 0
M  V30 29203 O 2894.31 -0.378786 1.75969 0
M  V30 29204 H 2890.69 0.116078 0.742987 0
M  V30 29205 H 2892.66 1.28443 2.69342 0
M  V30 29206 C 2891.41 -0.316046 3.46261 0
M  V30 29207 H 2890.73 0.379152 3.97998 0
M  V30 29208 H 2892.17 -0.637901 4.19174 0
M  V30 29209 C 2890.63 -1.52884 3.00213 0
M  V30 29210 O 2891.16 -2.62761 3.03841 0
M  V30 29211 N 2889.36 -1.3805 2.55716 0
M  V30 29212 H 2888.91 -0.486556 2.52963 0
M  V30 29213 H 2888.87 -2.19321 2.25268 0
M  V30 29214 N 2892.64 -1.41564 0.692641 0
M  V30 29215 C 2893.57 -2.33466 0.0397735 0
M  V30 29216 C 2894.55 -1.51658 -0.770307 0
M  V30 29217 O 2895.74 -1.80205 -0.723871 0
M  V30 29218 C 2892.87 -3.35451 -0.899436 0
M  V30 29219 C 2891.82 -4.27548 -0.196663 0
M  V30 29220 C 2891.15 -5.19883 -1.25003 0
M  V30 29221 C 2892.45 -5.13858 0.935248 0
M  V30 29222 H 2894.14 -2.88309 0.807346 0
M  V30 29223 H 2891.69 -1.38627 0.389689 0
M  V30 29224 H 2893.64 -3.98667 -1.36538 0
M  V30 29225 H 2892.36 -2.78951 -1.69864 0
M  V30 29226 H 2891.02 -3.65752 0.249222 0
M  V30 29227 H 2890.67 -4.597 -2.04169 0
M  V30 29228 H 2890.37 -5.82335 -0.784829 0
M  V30 29229 H 2891.9 -5.85975 -1.71655 0
M  V30 29230 H 2893.31 -5.70658 0.54972 0
M  V30 29231 H 2891.71 -5.85236 1.32736 0
M  V30 29232 H 2892.78 -4.51197 1.77621 0
M  V30 29233 N 2894.12 -0.437188 -1.51415 0
M  V30 29234 C 2895.34 0.130388 -2.0699 0
M  V30 29235 C 2895.77 1.35707 -1.30251 0
M  V30 29236 O 2895.13 1.78075 -0.34042 0
M  V30 29237 C 2895.18 0.431357 -3.58011 0
M  V30 29238 O 2894.28 1.51783 -3.83452 0
M  V30 29239 H 2893.62 0.00193172 -0.663997 0
M  V30 29240 H 2896.15 -0.618479 -1.95028 0
M  V30 29241 H 2896.16 0.681855 -4.02262 0
M  V30 29242 H 2894.84 -0.46521 -4.1329 0
M  V30 29243 H 2893.41 1.25731 -3.51064 0
M  V30 29244 N 2895.6 1.56696 -0.168541 0
M  V30 29245 C 2897.01 1.58493 0.187658 0
M  V30 29246 C 2897.21 1.18378 1.63061 0
M  V30 29247 O 2896.27 0.894083 2.36141 0
M  V30 29248 C 2897.58 3.00563 -0.0906386 0
M  V30 29249 C 2899.13 3.12987 -0.02863 0
M  V30 29250 C 2899.61 4.57144 -0.279879 0
M  V30 29251 N 2901.1 4.62641 -0.227558 0
M  V30 29252 C 2901.83 5.7203 -0.396174 0
M  V30 29253 N 2901.33 6.89987 -0.623694 0
M  V30 29254 N 2903.12 5.61117 -0.332272 0
M  V30 29255 H 2895.27 1.8106 -1.11045 0
M  V30 29256 H 2897.53 0.839048 -0.44125 0
M  V30 29257 H 2897.24 3.34379 -1.09012 0
M  V30 29258 H 2897.11 3.72086 0.619012 0
M  V30 29259 H 2899.5 2.78999 0.961422 0
M  V30 29260 H 2899.58 2.43906 -0.770948 0
M  V30 29261 H 2899.23 4.9184 -1.26713 0
M  V30 29262 H 2899.16 5.2438 0.483017 0
M  V30 29263 H 2901.65 3.77857 -0.0572387 0
M  V30 29264 H 2901.96 7.69231 -0.741881 0
M  V30 29265 H 2900.31 6.91856 -0.660275 0
M  V30 29266 H 2903.5 4.67843 -0.155133 0
M  V30 29267 H 2903.67 6.46314 -0.467108 0
M  V30 29268 N 2897.08 -0.105193 1.57249 0
M  V30 29269 C 2898.02 -1.12832 2.0134 0
M  V30 29270 C 2898.99 -1.40375 0.887922 0
M  V30 29271 O 2900.18 -1.52008 1.15318 0
M  V30 29272 C 2897.32 -2.44607 2.43437 0
M  V30 29273 C 2896.43 -2.23881 3.69461 0
M  V30 29274 C 2895.57 -3.48984 4.00479 0
M  V30 29275 C 2894.6 -3.23476 5.19644 0
M  V30 29276 N 2893.74 -4.40818 5.46465 0
M  V30 29277 H 2898.58 -0.745336 2.88529 0
M  V30 29278 H 2896.12 -0.35651 1.42714 0
M  V30 29279 H 2898.08 -3.21498 2.65885 0
M  V30 29280 H 2896.71 -2.80771 1.59271 0
M  V30 29281 H 2895.76 -1.37841 3.54548 0
M  V30 29282 H 2897.07 -2.01018 4.56501 0
M  V30 29283 H 2896.22 -4.34288 4.2365 0
M  V30 29284 H 2894.96 -3.74892 3.11941 0
M  V30 29285 H 2893.97 -2.36565 4.96303 0
M  V30 29286 H 2895.19 -2.98925 6.09771 0
M  V30 29287 H 2893.14 -4.66821 4.60885 0
M  V30 29288 H 2893.06 -4.21109 6.27856 0
M  V30 29289 H 2894.32 -5.27215 5.74164 0
M  V30 29290 N 2898.55 -1.53055 -0.375752 0
M  V30 29291 C 2899.48 -1.81748 -1.46594 0
M  V30 29292 C 2900.47 -0.670314 -1.56336 0
M  V30 29293 O 2901.65 -0.919188 -1.71069 0
M  V30 29294 C 2898.78 -1.99826 -2.84054 0
M  V30 29295 C 2897.73 -3.15562 -2.89145 0
M  V30 29296 C 2897.06 -3.18915 -4.29182 0
M  V30 29297 C 2898.36 -4.54363 -2.57587 0
M  V30 29298 H 2900.05 -2.73043 -1.22832 0
M  V30 29299 H 2897.6 -1.31382 -0.589462 0
M  V30 29300 H 2899.55 -2.18482 -3.60338 0
M  V30 29301 H 2898.28 -1.05232 -3.09183 0
M  V30 29302 H 2896.94 -2.9671 -2.15311 0
M  V30 29303 H 2896.58 -2.21978 -4.5137 0
M  V30 29304 H 2896.28 -3.9667 -4.33505 0
M  V30 29305 H 2897.81 -3.39742 -5.07353 0
M  V30 29306 H 2899.22 -4.73249 -3.23587 0
M  V30 29307 H 2897.62 -5.34283 -2.73242 0
M  V30 29308 H 2898.69 -4.60171 -1.52874 0
M  V30 29309 N 2900.03 0.634971 -1.44242 0
M  V30 29310 C 2901.44 1.21653 -1.41625 0
M  V30 29311 C 2901.79 1.95771 -0.129618 0
M  V30 29312 O 2900.92 2.0223 0.770189 0
M  V30 29313 C 2901.51 2.21274 -2.56561 0
M  V30 29314 C 2900.07 2.74865 -2.5715 0
M  V30 29315 C 2899.22 1.498 -2.33357 0
M  V30 29316 H 2902.17 0.425878 -1.52879 0
M  V30 29317 H 2902.19 3.03803 -2.29094 0
M  V30 29318 H 2901.7 1.673 -3.50189 0
M  V30 29319 H 2899.81 3.32852 -1.67453 0
M  V30 29320 H 2899.92 3.21166 -3.55513 0
M  V30 29321 H 2898.28 1.77796 -1.82375 0
M  V30 29322 H 2899.07 0.977344 -3.29094 0
M  V30 29323 N 2901.51 1.31076 0.875027 0
M  V30 29324 C 2902.76 1.20234 1.62445 0
M  V30 29325 C 2903.08 -0.240854 1.93507 0
M  V30 29326 O 2902.35 -1.16019 1.57849 0
M  V30 29327 H 2900.93 0.442002 0.602199 0
M  V30 29328 H 2903.59 1.64336 1.04785 0
M  V30 29329 H 2902.69 1.7704 2.57028 0
M  V30 29330 N 2902.99 -1.08867 1.13955 0
M  V30 29331 C 2904.24 -1.80534 0.899463 0
M  V30 29332 C 2904.55 -1.86934 -0.575748 0
M  V30 29333 O 2905.76 -2.54967 -0.932944 0
M  V30 29334 C 2904.21 -3.24348 1.55969 0
M  V30 29335 C 2903.82 -3.26197 3.07083 0
M  V30 29336 C 2905.56 -4.00731 1.40054 0
M  V30 29337 C 2903.47 -4.64569 3.65963 0
M  V30 29338 H 2902.4 -0.67655 0.332861 0
M  V30 29339 H 2905.05 -1.22312 1.36792 0
M  V30 29340 H 2903.43 -3.82668 1.0189 0
M  V30 29341 H 2904.61 -2.7761 3.67789 0
M  V30 29342 H 2902.92 -2.63307 3.22581 0
M  V30 29343 H 2905.52 -5.02971 1.8145 0
M  V30 29344 H 2905.86 -4.14859 0.346066 0
M  V30 29345 H 2906.4 -3.48868 1.91143 0
M  V30 29346 H 2903.14 -4.55644 4.71242 0
M  V30 29347 H 2902.66 -5.13456 3.10036 0
M  V30 29348 H 2904.33 -5.33544 3.65978 0
M  V30 29349 N 2904.47 -0.933936 -1.26946 0
M  V30 29350 C 2905.43 -0.442497 -2.24888 0
M  V30 29351 C 2906.43 0.442399 -1.54595 0
M  V30 29352 O 2907.62 0.242599 -1.72502 0
M  V30 29353 C 2904.75 0.363114 -3.38961 0
M  V30 29354 H 2905.94 -1.30792 -2.69877 0
M  V30 29355 H 2903.5 -0.715211 -1.38976 0
M  V30 29356 H 2904.23 1.24709 -2.99363 0
M  V30 29357 H 2904.02 -0.271435 -3.91159 0
M  V30 29358 H 2905.51 0.697114 -4.1174 0
M  V30 29359 N 2905.94 1.41194 -0.700139 0
M  V30 29360 C 2906.87 2.33442 -0.0521542 0
M  V30 29361 C 2907.86 1.52065 0.762254 0
M  V30 29362 O 2909.04 1.80586 0.714304 0
M  V30 29363 C 2906.17 3.35923 0.881634 0
M  V30 29364 C 2905.12 4.27646 0.173987 0
M  V30 29365 C 2904.45 5.20539 1.22244 0
M  V30 29366 C 2905.75 5.13355 -0.962487 0
M  V30 29367 H 2907.44 2.87877 -0.822625 0
M  V30 29368 H 2904.99 1.38418 -0.397036 0
M  V30 29369 H 2906.94 3.99385 1.34422 0
M  V30 29370 H 2905.67 2.79848 1.68382 0
M  V30 29371 H 2904.33 3.65615 -0.268615 0
M  V30 29372 H 2903.97 4.60776 2.01728 0
M  V30 29373 H 2903.67 5.82743 0.753935 0
M  V30 29374 H 2905.2 5.86877 1.68545 0
M  V30 29375 H 2906.61 5.70359 -0.579975 0
M  V30 29376 H 2905.01 5.84524 -1.35838 0
M  V30 29377 H 2906.08 4.50249 -1.80011 0
M  V30 29378 N 2907.42 0.445212 1.51181 0
M  V30 29379 C 2908.33 -0.368215 2.31692 0
M  V30 29380 C 2909.35 -1.02033 1.40944 0
M  V30 29381 O 2910.52 -1.01398 1.74013 0
M  V30 29382 C 2907.59 -1.45035 3.14906 0
M  V30 29383 C 2906.65 -0.81754 4.21444 0
M  V30 29384 C 2905.88 -1.84811 5.0068 0
M  V30 29385 O 2906.11 -3.07136 4.80649 0
M  V30 29386 O 2905.04 -1.43427 5.84562 0
M  V30 29387 H 2908.87 0.289273 3.02319 0
M  V30 29388 H 2906.45 0.207581 1.47951 0
M  V30 29389 H 2908.33 -2.07776 3.66616 0
M  V30 29390 H 2907.01 -2.09178 2.47035 0
M  V30 29391 H 2905.92 -0.151865 3.73792 0
M  V30 29392 H 2907.25 -0.219478 4.9171 0
M  V30 29393 N 2908.9 -1.56605 0.176849 0
M  V30 29394 C 2909.83 -2.21235 -0.746802 0
M  V30 29395 C 2910.81 -1.16969 -1.235 0
M  V30 29396 O 2912 -1.45417 -1.28715 0
M  V30 29397 C 2909.13 -2.85744 -1.97402 0
M  V30 29398 C 2908.08 -3.96097 -1.62146 0
M  V30 29399 C 2907.41 -4.47681 -2.92379 0
M  V30 29400 C 2908.71 -5.15415 -0.845263 0
M  V30 29401 H 2910.4 -2.98676 -0.208064 0
M  V30 29402 H 2907.95 -1.43662 -0.0986342 0
M  V30 29403 H 2909.9 -3.29634 -2.62525 0
M  V30 29404 H 2908.62 -2.0568 -2.53699 0
M  V30 29405 H 2907.28 -3.5287 -0.993902 0
M  V30 29406 H 2906.93 -3.64402 -3.46728 0
M  V30 29407 H 2906.63 -5.22131 -2.69542 0
M  V30 29408 H 2908.15 -4.94262 -3.58522 0
M  V30 29409 H 2909.57 -5.55964 -1.39919 0
M  V30 29410 H 2907.97 -5.95817 -0.71571 0
M  V30 29411 H 2909.04 -4.84645 0.157324 0
M  V30 29412 N 2910.38 0.0968524 -1.57302 0
M  V30 29413 C 2911.6 0.818135 -1.90582 0
M  V30 29414 C 2912.03 1.71575 -0.770951 0
M  V30 29415 O 2911.39 1.79163 0.277557 0
M  V30 29416 C 2911.43 1.60893 -3.22716 0
M  V30 29417 O 2910.54 2.71773 -3.10182 0
M  V30 29418 H 2909.88 0.224871 -0.624763 0
M  V30 29419 H 2912.41 0.072604 -2.04471 0
M  V30 29420 H 2912.42 1.99352 -3.55981 0
M  V30 29421 H 2911.09 0.950156 -4.04901 0
M  V30 29422 H 2909.67 2.36355 -2.88428 0
M  V30 29423 N 2911.86 1.53252 0.36763 0
M  V30 29424 C 2912.77 1.82502 1.47412 0
M  V30 29425 C 2913.78 0.71325 1.5871 0
M  V30 29426 O 2914.96 1.00309 1.74643 0
M  V30 29427 C 2912.02 2.00699 2.82703 0
M  V30 29428 C 2911.08 3.24601 2.8095 0
M  V30 29429 C 2910.32 3.41921 4.09787 0
M  V30 29430 O 2910.54 2.63581 5.05847 0
M  V30 29431 O 2909.47 4.35267 4.15724 0
M  V30 29432 H 2913.3 2.76502 1.25619 0
M  V30 29433 H 2910.89 1.38607 0.557535 0
M  V30 29434 H 2912.77 2.14252 3.62869 0
M  V30 29435 H 2911.44 1.09888 3.04477 0
M  V30 29436 H 2910.35 3.16473 1.99489 0
M  V30 29437 H 2911.68 4.15327 2.64129 0
M  V30 29438 N 2913.34 -0.627313 1.44577 0
M  V30 29439 C 2914.27 -1.7502 1.54565 0
M  V30 29440 C 2915.25 -1.65368 0.398407 0
M  V30 29441 O 2916.43 -1.8407 0.619022 0
M  V30 29442 C 2913.56 -3.13564 1.49315 0
M  V30 29443 C 2912.52 -3.38008 2.62555 0
M  V30 29444 C 2911.84 -4.76621 2.42356 0
M  V30 29445 C 2913.14 -3.30195 4.04684 0
M  V30 29446 H 2914.84 -1.66918 2.48553 0
M  V30 29447 H 2912.38 -0.801615 1.19625 0
M  V30 29448 H 2914.33 -3.91897 1.54902 0
M  V30 29449 H 2913.06 -3.22459 0.518449 0
M  V30 29450 H 2911.72 -2.62057 2.56363 0
M  V30 29451 H 2911.37 -4.82224 1.4307 0
M  V30 29452 H 2911.07 -4.93934 3.18282 0
M  V30 29453 H 2912.59 -5.57179 2.49768 0
M  V30 29454 H 2914 -3.98427 4.12224 0
M  V30 29455 H 2912.4 -3.59041 4.80842 0
M  V30 29456 H 2913.47 -2.27941 4.27984 0
M  V30 29457 N 2914.81 -1.31539 -0.868063 0
M  V30 29458 C 2916.23 -1.10237 -1.15412 0
M  V30 29459 C 2916.43 0.125912 -2.01106 0
M  V30 29460 O 2915.49 0.814691 -2.38996 0
M  V30 29461 C 2916.8 -2.37491 -1.84441 0
M  V30 29462 C 2918.35 -2.43119 -1.97134 0
M  V30 29463 C 2918.82 -3.70259 -2.69578 0
M  V30 29464 N 2920.31 -3.71164 -2.77113 0
M  V30 29465 C 2921.05 -4.66236 -3.33783 0
M  V30 29466 N 2920.54 -5.71666 -3.9137 0
M  V30 29467 N 2922.34 -4.53753 -3.31759 0
M  V30 29468 H 2914.49 -2.10312 -0.297072 0
M  V30 29469 H 2916.75 -0.927893 -0.194211 0
M  V30 29470 H 2916.46 -3.27218 -1.28924 0
M  V30 29471 H 2916.33 -2.47433 -2.84704 0
M  V30 29472 H 2918.72 -1.5386 -2.51815 0
M  V30 29473 H 2918.8 -2.3714 -0.959078 0
M  V30 29474 H 2918.44 -4.59885 -2.15564 0
M  V30 29475 H 2918.37 -3.73505 -3.71216 0
M  V30 29476 H 2920.86 -2.94953 -2.36244 0
M  V30 29477 H 2921.18 -6.40286 -4.32729 0
M  V30 29478 H 2919.52 -5.75437 -3.8974 0
M  V30 29479 H 2922.71 -3.70562 -2.8601 0
M  V30 29480 H 2922.89 -5.28023 -3.75627 0
M  V30 29481 N 2916.29 1.08262 -1.1453 0
M  V30 29482 C 2917.24 2.17316 -0.829239 0
M  V30 29483 C 2918.23 1.68291 0.193492 0
M  V30 29484 O 2919.44 1.79932 0.0494428 0
M  V30 29485 H 2915.81 0.70907 -0.250448 0
M  V30 29486 H 2917.79 2.41198 -1.75687 0
M  V30 29487 C 2916.53 3.4618 -0.324724 0
M  V30 29488 H 2915.86 3.84282 -1.10306 0
M  V30 29489 H 2917.3 4.23762 -0.142134 0
M  V30 29490 C 2915.76 3.2317 0.951976 0
M  V30 29491 O 2916.29 3.469 2.02543 0
M  V30 29492 N 2914.49 2.76706 0.887806 0
M  V30 29493 H 2914.04 2.57596 0.0140949 0
M  V30 29494 H 2914 2.61689 1.74259 0
M  V30 29495 N 2917.77 0.940655 1.26449 0
M  V30 29496 C 2918.72 0.448537 2.264 0
M  V30 29497 C 2919.69 -0.491518 1.58661 0
M  V30 29498 O 2920.87 -0.407841 1.8639 0
M  V30 29499 C 2918.01 -0.280654 3.43957 0
M  V30 29500 C 2917.12 0.695012 4.26373 0
M  V30 29501 C 2916.26 -0.0553253 5.31171 0
M  V30 29502 C 2915.3 0.912197 6.05265 0
M  V30 29503 N 2914.44 0.193647 7.01833 0
M  V30 29504 H 2919.28 1.30581 2.67867 0
M  V30 29505 H 2916.81 0.655136 1.31706 0
M  V30 29506 H 2918.77 -0.719868 4.10943 0
M  V30 29507 H 2917.4 -1.10207 3.03405 0
M  V30 29508 H 2916.45 1.25274 3.59181 0
M  V30 29509 H 2917.76 1.4339 4.77745 0
M  V30 29510 H 2916.92 -0.553845 6.04167 0
M  V30 29511 H 2915.66 -0.827099 4.80635 0
M  V30 29512 H 2914.66 1.42185 5.31097 0
M  V30 29513 H 2915.89 1.68397 6.5789 0
M  V30 29514 H 2913.83 -0.559644 6.53608 0
M  V30 29515 H 2913.75 0.871876 7.50956 0
M  V30 29516 H 2915.02 -0.283795 7.78983 0
M  V30 29517 N 2919.25 -1.40821 0.707617 0
M  V30 29518 C 2920.48 -2.05346 0.253109 0
M  V30 29519 C 2920.89 -1.53291 -1.10215 0
M  V30 29520 O 2920.25 -0.686135 -1.69111 0
M  V30 29521 C 2920.3 -3.60857 0.215474 0
M  V30 29522 O 2920.02 -4.10989 1.51721 0
M  V30 29523 C 2921.52 -4.42545 -0.258559 0
M  V30 29524 H 2918.74 -0.661025 0.115268 0
M  V30 29525 H 2921.28 -1.80375 0.963586 0
M  V30 29526 H 2919.44 -3.84825 -0.44591 0
M  V30 29527 H 2919.85 -5.05127 1.41235 0
M  V30 29528 H 2921.33 -5.51505 -0.233752 0
M  V30 29529 H 2921.8 -4.19537 -1.29943 0
M  V30 29530 H 2922.41 -4.23668 0.37226 0
M  V30 29531 N 2920.73 -0.453223 -1.50943 0
M  V30 29532 C 2921.67 0.364379 -2.29728 0
M  V30 29533 C 2922.67 1.00662 -1.36248 0
M  V30 29534 O 2923.87 0.939767 -1.5352 0
M  V30 29535 H 2920.25 0.136334 -0.739538 0
M  V30 29536 H 2922.22 -0.320748 -2.96671 0
M  V30 29537 C 2920.97 1.44409 -3.16293 0
M  V30 29538 H 2920.29 0.959275 -3.88121 0
M  V30 29539 H 2921.73 1.9891 -3.74447 0
M  V30 29540 C 2920.19 2.43618 -2.32706 0
M  V30 29541 O 2920.72 3.48504 -1.99769 0
M  V30 29542 N 2918.93 2.14894 -1.95625 0
M  V30 29543 H 2918.47 1.29625 -2.2261 0
M  V30 29544 H 2918.43 2.8151 -1.39998 0
M  V30 29545 N 2922.2 1.56509 -0.185151 0
M  V30 29546 C 2923.62 1.58683 0.170837 0
M  V30 29547 C 2923.82 1.201 1.61797 0
M  V30 29548 O 2922.88 0.919079 2.35179 0
M  V30 29549 C 2924.19 3.0045 -0.122512 0
M  V30 29550 C 2925.74 3.12939 -0.0618249 0
M  V30 29551 C 2926.21 4.56821 -0.32835 0
M  V30 29552 N 2927.7 4.62373 -0.276614 0
M  V30 29553 C 2928.44 5.71577 -0.456823 0
M  V30 29554 N 2927.93 6.89287 -0.696841 0
M  V30 29555 N 2929.73 5.60733 -0.391767 0
M  V30 29556 H 2921.88 1.79872 -1.1296 0
M  V30 29557 H 2924.14 0.834321 -0.450124 0
M  V30 29558 H 2923.85 3.33204 -1.12552 0
M  V30 29559 H 2923.72 3.72722 0.579513 0
M  V30 29560 H 2926.11 2.80003 0.931776 0
M  V30 29561 H 2926.19 2.43074 -0.796774 0
M  V30 29562 H 2925.83 4.90468 -1.31922 0
M  V30 29563 H 2925.76 5.24863 0.427373 0
M  V30 29564 H 2928.25 3.77775 -0.0973123 0
M  V30 29565 H 2928.57 7.68401 -0.823426 0
M  V30 29566 H 2926.91 6.91117 -0.733619 0
M  V30 29567 H 2930.1 4.67652 -0.204745 0
M  V30 29568 H 2930.28 6.45782 -0.535632 0
M  V30 29569 N 2923.68 -0.0885089 1.57351 0
M  V30 29570 C 2924.93 -0.790791 1.86421 0
M  V30 29571 C 2925.26 -1.78411 0.774593 0
M  V30 29572 O 2924.51 -1.9433 -0.231156 0
M  V30 29573 C 2924.81 -1.54874 3.22101 0
M  V30 29574 C 2924.48 -0.696946 4.45481 0
M  V30 29575 C 2923.14 -0.462153 4.78976 0
M  V30 29576 C 2925.49 -0.105223 5.21094 0
M  V30 29577 C 2922.82 0.374119 5.85506 0
M  V30 29578 C 2925.17 0.718409 6.28507 0
M  V30 29579 C 2923.83 0.963232 6.60514 0
M  V30 29580 H 2923.1 -0.289371 0.682162 0
M  V30 29581 H 2925.75 -0.0520625 1.91429 0
M  V30 29582 H 2924.06 -2.35922 3.12807 0
M  V30 29583 H 2925.75 -2.09663 3.41822 0
M  V30 29584 H 2922.34 -0.890064 4.19256 0
M  V30 29585 H 2926.53 -0.273769 4.95544 0
M  V30 29586 H 2921.78 0.572713 6.08712 0
M  V30 29587 H 2925.96 1.18374 6.86266 0
M  V30 29588 H 2923.58 1.61303 7.4289 0
M  V30 29589 N 2925.16 -1.53445 -0.359498 0
M  V30 29590 C 2926.09 -1.76604 -1.46095 0
M  V30 29591 C 2927.1 -0.646939 -1.49394 0
M  V30 29592 O 2928.29 -0.923334 -1.52764 0
M  V30 29593 C 2925.39 -1.8364 -2.84832 0
M  V30 29594 C 2924.57 -3.13364 -3.05159 0
M  V30 29595 C 2923.63 -3.11563 -4.24046 0
M  V30 29596 O 2922.65 -3.85342 -4.18928 0
M  V30 29597 N 2923.85 -2.32809 -5.31771 0
M  V30 29598 H 2926.62 -2.71646 -1.26605 0
M  V30 29599 H 2924.18 -1.52298 -0.549267 0
M  V30 29600 H 2926.17 -1.79906 -3.62513 0
M  V30 29601 H 2924.74 -0.958562 -2.97541 0
M  V30 29602 H 2923.96 -3.30351 -2.15085 0
M  V30 29603 H 2925.25 -3.99082 -3.15612 0
M  V30 29604 H 2924.65 -1.7239 -5.38793 0
M  V30 29605 H 2923.2 -2.34888 -6.08006 0
M  V30 29606 N 2926.64 0.619637 -1.44908 0
M  V30 29607 C 2927.55 1.75952 -1.55171 0
M  V30 29608 C 2928.56 1.6843 -0.43675 0
M  V30 29609 O 2929.74 1.89001 -0.695738 0
M  V30 29610 C 2926.8 3.12378 -1.50403 0
M  V30 29611 C 2925.87 3.31446 -2.72841 0
M  V30 29612 C 2925.1 4.61363 -2.68291 0
M  V30 29613 O 2925.32 5.42911 -1.74939 0
M  V30 29614 O 2924.26 4.82882 -3.59316 0
M  V30 29615 H 2928.08 1.70246 -2.51496 0
M  V30 29616 H 2925.67 0.782266 -1.27283 0
M  V30 29617 H 2927.55 3.93682 -1.50308 0
M  V30 29618 H 2926.22 3.18602 -0.572253 0
M  V30 29619 H 2925.13 2.49776 -2.78501 0
M  V30 29620 H 2926.46 3.30091 -3.65104 0
M  V30 29621 N 2928.12 1.31997 0.861075 0
M  V30 29622 C 2929.06 1.2034 1.9905 0
M  V30 29623 C 2930.06 0.109653 1.69045 0
M  V30 29624 O 2931.26 0.272148 1.77931 0
M  V30 29625 H 2927.64 0.372854 0.653057 0
M  V30 29626 H 2929.61 2.15875 2.06011 0
M  V30 29627 C 2928.36 0.936722 3.34844 0
M  V30 29628 H 2927.68 1.77052 3.58459 0
M  V30 29629 H 2929.12 0.895375 4.14438 0
M  V30 29630 C 2927.58 -0.360548 3.34965 0
M  V30 29631 O 2928.11 -1.37449 3.77453 0
M  V30 29632 N 2926.32 -0.380246 2.88102 0
M  V30 29633 H 2925.86 0.445396 2.5372 0
M  V30 29634 H 2925.82 -1.24811 2.88565 0
M  V30 29635 N 2929.59 -1.07653 1.15103 0
M  V30 29636 C 2930.56 -2.12949 0.847662 0
M  V30 29637 C 2931.56 -1.60088 -0.151199 0
M  V30 29638 O 2932.75 -1.74025 0.0780705 0
M  V30 29639 C 2929.88 -3.39868 0.26506 0
M  V30 29640 H 2931.07 -2.41293 1.78095 0
M  V30 29641 H 2928.63 -1.23492 0.958094 0
M  V30 29642 H 2929.36 -3.17164 -0.67657 0
M  V30 29643 H 2929.15 -3.79536 0.98462 0
M  V30 29644 H 2930.64 -4.17541 0.0702855 0
M  V30 29645 N 2931.07 -0.947348 -1.25949 0
M  V30 29646 C 2932.32 -0.599098 -1.93749 0
M  V30 29647 C 2932.65 0.860602 -1.7409 0
M  V30 29648 O 2931.93 1.61652 -1.08161 0
M  V30 29649 C 2932.21 -0.949695 -3.47351 0
M  V30 29650 C 2932.06 -2.46459 -3.76269 0
M  V30 29651 C 2933.38 -0.469519 -4.37588 0
M  V30 29652 H 2930.5 -0.219127 -0.703671 0
M  V30 29653 H 2933.14 -1.18268 -1.48703 0
M  V30 29654 H 2931.29 -0.453076 -3.85849 0
M  V30 29655 H 2932.96 -3.03441 -3.4745 0
M  V30 29656 H 2931.21 -2.90543 -3.22129 0
M  V30 29657 H 2931.88 -2.66041 -4.83659 0
M  V30 29658 H 2934.35 -0.895412 -4.06352 0
M  V30 29659 H 2933.23 -0.743595 -5.4384 0
M  V30 29660 H 2933.49 0.630541 -4.3758 0
M  V30 29661 N 2932.55 1.40444 -0.715075 0
M  V30 29662 C 2933.46 2.34515 -0.0632036 0
M  V30 29663 C 2934.48 1.57274 0.744369 0
M  V30 29664 O 2935.65 1.89665 0.677442 0
M  V30 29665 C 2932.72 3.36173 0.847855 0
M  V30 29666 C 2931.78 4.29289 0.0302901 0
M  V30 29667 C 2931.01 5.26092 0.897959 0
M  V30 29668 O 2931.23 5.28848 2.1372 0
M  V30 29669 O 2930.17 6.00955 0.337223 0
M  V30 29670 H 2933.99 2.91877 -0.839129 0
M  V30 29671 H 2931.58 1.41629 -0.475552 0
M  V30 29672 H 2933.46 3.98518 1.36973 0
M  V30 29673 H 2932.14 2.81225 1.60294 0
M  V30 29674 H 2931.04 3.70231 -0.536638 0
M  V30 29675 H 2932.38 4.87388 -0.68656 0
M  V30 29676 N 2934.03 0.461222 1.507 0
M  V30 29677 C 2935.28 -0.0987923 2.01458 0
M  V30 29678 C 2935.59 -1.4167 1.34866 0
M  V30 29679 O 2936.8 -2.06108 1.76725 0
M  V30 29680 C 2935.25 -0.226585 3.59186 0
M  V30 29681 C 2934.86 1.08231 4.3473 0
M  V30 29682 C 2936.6 -0.739087 4.18016 0
M  V30 29683 C 2934.51 0.91885 5.84218 0
M  V30 29684 H 2933.44 -0.0406958 0.752901 0
M  V30 29685 H 2936.09 0.59462 1.73599 0
M  V30 29686 H 2934.47 -0.983554 3.83591 0
M  V30 29687 H 2935.65 1.84946 4.22056 0
M  V30 29688 H 2933.96 1.52516 3.87463 0
M  V30 29689 H 2936.56 -0.878254 5.27438 0
M  V30 29690 H 2936.9 -1.72786 3.78749 0
M  V30 29691 H 2937.44 -0.039777 3.9778 0
M  V30 29692 H 2934.18 1.8807 6.27941 0
M  V30 29693 H 2933.7 0.191907 5.99493 0
M  V30 29694 H 2935.37 0.581518 6.44381 0
M  V30 29695 N 2935.51 -1.56408 0.193449 0
M  V30 29696 C 2936.73 -2.01916 -0.451402 0
M  V30 29697 C 2937.15 -1.07359 -1.55304 0
M  V30 29698 O 2936.51 -0.0781832 -1.82332 0
M  V30 29699 C 2936.56 -3.47126 -1.00925 0
M  V30 29700 O 2936.28 -4.38073 0.0484393 0
M  V30 29701 C 2937.78 -4.08143 -1.73014 0
M  V30 29702 H 2935 -0.661334 -0.113484 0
M  V30 29703 H 2937.54 -2.02263 0.301671 0
M  V30 29704 H 2935.7 -3.47484 -1.71271 0
M  V30 29705 H 2936.11 -5.23218 -0.366552 0
M  V30 29706 H 2937.59 -5.11605 -2.0728 0
M  V30 29707 H 2938.06 -3.51507 -2.63324 0
M  V30 29708 H 2938.67 -4.11553 -1.07257 0
M  V30 29709 N 2936.98 0.0801629 -1.57396 0
M  V30 29710 C 2938.4 0.434751 -1.53565 0
M  V30 29711 C 2938.6 1.79659 -0.912403 0
M  V30 29712 O 2937.66 2.47269 -0.511311 0
M  V30 29713 C 2938.97 0.383508 -2.98244 0
M  V30 29714 C 2940.52 0.464296 -3.09537 0
M  V30 29715 C 2940.99 0.443047 -4.55852 0
M  V30 29716 N 2942.48 0.503367 -4.60457 0
M  V30 29717 C 2943.22 0.509006 -5.71136 0
M  V30 29718 N 2942.71 0.469958 -6.91204 0
M  V30 29719 N 2944.51 0.554937 -5.59354 0
M  V30 29720 H 2936.66 -0.81167 -1.9628 0
M  V30 29721 H 2938.92 -0.303705 -0.898035 0
M  V30 29722 H 2938.63 -0.550297 -3.47368 0
M  V30 29723 H 2938.5 1.19688 -3.57708 0
M  V30 29724 H 2940.89 1.38852 -2.60392 0
M  V30 29725 H 2940.97 -0.37749 -2.52999 0
M  V30 29726 H 2940.61 -0.477296 -5.05652 0
M  V30 29727 H 2940.54 1.30225 -5.10244 0
M  V30 29728 H 2943.03 0.538134 -3.74049 0
M  V30 29729 H 2943.35 0.477956 -7.71321 0
M  V30 29730 H 2941.69 0.436775 -6.93626 0
M  V30 29731 H 2944.88 0.583077 -4.64454 0
M  V30 29732 H 2945.06 0.555862 -6.45611 0
M  V30 29733 N 2938.46 1.53634 0.351355 0
M  V30 29734 C 2939.39 1.77376 1.45156 0
M  V30 29735 C 2940.41 0.654852 1.49049 0
M  V30 29736 O 2941.6 0.931423 1.52272 0
M  V30 29737 C 2938.7 1.85148 2.83854 0
M  V30 29738 C 2937.87 3.14978 3.03493 0
M  V30 29739 C 2936.93 3.13808 4.22388 0
M  V30 29740 O 2935.95 3.87558 4.16878 0
M  V30 29741 N 2937.16 2.35626 5.30529 0
M  V30 29742 H 2939.92 2.72313 1.25162 0
M  V30 29743 H 2937.48 1.52587 0.541183 0
M  V30 29744 H 2939.47 1.81826 3.61554 0
M  V30 29745 H 2938.04 0.974327 2.97028 0
M  V30 29746 H 2937.26 3.31487 2.1333 0
M  V30 29747 H 2938.55 4.0075 3.13491 0
M  V30 29748 H 2937.95 1.75245 5.37871 0
M  V30 29749 H 2936.51 2.38109 6.06751 0
M  V30 29750 N 2939.94 -0.611943 1.45234 0
M  V30 29751 C 2941.17 -1.39781 1.52541 0
M  V30 29752 C 2941.58 -1.8815 0.156566 0
M  V30 29753 O 2940.94 -1.61963 -0.841092 0
M  V30 29754 C 2940.99 -2.60524 2.50619 0
M  V30 29755 O 2940.71 -2.14166 3.82184 0
M  V30 29756 C 2942.21 -3.53434 2.67581 0
M  V30 29757 H 2939.43 -0.428034 0.516748 0
M  V30 29758 H 2941.98 -0.746694 1.9038 0
M  V30 29759 H 2940.13 -3.21686 2.15863 0
M  V30 29760 H 2940.55 -2.92584 4.3531 0
M  V30 29761 H 2942.02 -4.34711 3.40192 0
M  V30 29762 H 2942.5 -4.03493 1.73466 0
M  V30 29763 H 2943.1 -2.98128 3.03315 0
M  V30 29764 N 2941.42 -1.32452 -0.854063 0
M  V30 29765 C 2942.37 -1.21394 -1.98409 0
M  V30 29766 C 2943.36 -0.118616 -1.68984 0
M  V30 29767 O 2944.57 -0.28158 -1.77784 0
M  V30 29768 H 2940.94 -0.376312 -0.651071 0
M  V30 29769 H 2942.91 -2.16965 -2.04863 0
M  V30 29770 C 2941.66 -0.954466 -3.34343 0
M  V30 29771 H 2940.98 -1.7895 -3.57515 0
M  V30 29772 H 2942.42 -0.917341 -4.13958 0
M  V30 29773 C 2940.88 0.342779 -3.35152 0
M  V30 29774 O 2941.41 1.35446 -3.78176 0
M  V30 29775 N 2939.62 0.364961 -2.88299 0
M  V30 29776 H 2939.17 -0.458845 -2.53481 0
M  V30 29777 H 2939.12 1.23279 -2.89223 0
M  V30 29778 N 2942.9 1.07041 -1.15672 0
M  V30 29779 C 2943.81 2.17853 -0.870473 0
M  V30 29780 C 2944.82 1.73313 0.154422 0
M  V30 29781 O 2946 2.0139 -0.0204113 0
M  V30 29782 C 2943.06 3.44749 -0.367279 0
M  V30 29783 C 2942.13 4.03839 -1.45646 0
M  V30 29784 C 2941.36 5.24678 -0.977184 0
M  V30 29785 O 2941.58 5.70128 0.176027 0
M  V30 29786 O 2940.52 5.75524 -1.76225 0
M  V30 29787 H 2944.34 2.44836 -1.79692 0
M  V30 29788 H 2941.93 1.16438 -0.936085 0
M  V30 29789 H 2943.81 4.21297 -0.0932687 0
M  V30 29790 H 2942.48 3.19311 0.531254 0
M  V30 29791 H 2941.39 3.28816 -1.78412 0
M  V30 29792 H 2942.72 4.33556 -2.33002 0
M  V30 29793 N 2944.38 0.954014 1.25445 0
M  V30 29794 C 2945.6 0.625164 1.97754 0
M  V30 29795 C 2946.03 -0.795757 1.70439 0
M  V30 29796 O 2945.38 -1.53801 0.959947 0
M  V30 29797 C 2945.43 0.889313 3.49462 0
M  V30 29798 O 2944.54 -0.0322032 4.12387 0
M  V30 29799 H 2943.88 0.237753 0.619975 0
M  V30 29800 H 2946.41 1.28044 1.5958 0
M  V30 29801 H 2946.42 0.815333 3.9977 0
M  V30 29802 H 2945.09 1.92493 3.68672 0
M  V30 29803 H 2943.67 0.093928 3.72782 0
M  V30 29804 N 2945.85 -1.40063 0.722513 0
M  V30 29805 C 2946.78 -2.33329 0.0892862 0
M  V30 29806 C 2947.76 -1.53258 -0.737965 0
M  V30 29807 O 2948.95 -1.817 -0.685484 0
M  V30 29808 C 2946.08 -3.37283 -0.828079 0
M  V30 29809 C 2945.03 -4.27869 -0.10593 0
M  V30 29810 C 2944.36 -5.22417 -1.13948 0
M  V30 29811 C 2945.66 -5.11759 1.04404 0
M  V30 29812 H 2947.35 -2.86532 0.868319 0
M  V30 29813 H 2944.9 -1.37769 0.419006 0
M  V30 29814 H 2946.85 -4.01473 -1.28051 0
M  V30 29815 H 2945.58 -2.82492 -1.63909 0
M  V30 29816 H 2944.24 -3.65141 0.326747 0
M  V30 29817 H 2943.88 -4.63927 -1.94372 0
M  V30 29818 H 2943.58 -5.83869 -0.661131 0
M  V30 29819 H 2945.11 -5.89485 -1.59187 0
M  V30 29820 H 2946.52 -5.69364 0.670641 0
M  V30 29821 H 2944.92 -5.82289 1.4512 0
M  V30 29822 H 2945.99 -4.47328 1.87152 0
M  V30 29823 N 2947.33 -0.469207 -1.50453 0
M  V30 29824 C 2948.26 0.315879 -2.31354 0
M  V30 29825 C 2949.24 0.99207 -1.38174 0
M  V30 29826 O 2950.43 0.989604 -1.67094 0
M  V30 29827 C 2947.56 1.39931 -3.17862 0
M  V30 29828 C 2946.51 0.844835 -4.19579 0
M  V30 29829 C 2945.84 2.02642 -4.94814 0
M  V30 29830 C 2947.14 -0.14259 -5.22105 0
M  V30 29831 H 2948.83 -0.359322 -2.97236 0
M  V30 29832 H 2946.38 -0.174249 -1.42942 0
M  V30 29833 H 2948.33 1.95601 -3.73254 0
M  V30 29834 H 2947.05 2.10326 -2.49861 0
M  V30 29835 H 2945.71 0.310125 -3.65286 0
M  V30 29836 H 2945.36 2.7173 -4.23287 0
M  V30 29837 H 2945.06 1.66164 -5.63616 0
M  V30 29838 H 2946.59 2.58805 -5.53039 0
M  V30 29839 H 2948 0.324865 -5.72379 0
M  V30 29840 H 2946.4 -0.421546 -5.98618 0
M  V30 29841 H 2947.47 -1.06909 -4.72968 0
M  V30 29842 N 2948.81 1.56303 -0.201741 0
M  V30 29843 C 2950.06 1.96942 0.435522 0
M  V30 29844 C 2950.37 1.09174 1.62297 0
M  V30 29845 O 2951.58 1.39624 2.32846 0
M  V30 29846 C 2950.03 3.50288 0.826236 0
M  V30 29847 C 2949.64 4.46728 -0.337294 0
M  V30 29848 C 2951.39 3.99681 1.43021 0
M  V30 29849 C 2949.29 5.91353 0.0747499 0
M  V30 29850 H 2948.22 0.73539 0.166487 0
M  V30 29851 H 2950.87 1.81116 -0.294813 0
M  V30 29852 H 2949.26 3.61641 1.61343 0
M  V30 29853 H 2950.43 4.47111 -1.11484 0
M  V30 29854 H 2948.74 4.07565 -0.853198 0
M  V30 29855 H 2951.34 5.05215 1.75106 0
M  V30 29856 H 2951.68 3.44375 2.33905 0
M  V30 29857 H 2952.22 3.9147 0.706856 0
M  V30 29858 H 2948.96 6.50599 -0.800071 0
M  V30 29859 H 2948.48 5.94209 0.817018 0
M  V30 29860 H 2950.16 6.45 0.508275 0
M  V30 29861 N 2950.29 -0.0718147 1.57436 0
M  V30 29862 C 2951.22 -1.08567 2.06726 0
M  V30 29863 C 2952.2 -1.40369 0.960756 0
M  V30 29864 O 2953.38 -1.49997 1.23348 0
M  V30 29865 C 2950.51 -2.39912 2.51117 0
M  V30 29866 C 2949.47 -2.22462 3.65643 0
M  V30 29867 C 2948.79 -3.59191 3.96089 0
M  V30 29868 C 2950.09 -1.64587 4.9569 0
M  V30 29869 H 2951.79 -0.675518 2.9168 0
M  V30 29870 H 2949.33 -0.323496 1.40319 0
M  V30 29871 H 2951.29 -3.1113 2.84211 0
M  V30 29872 H 2950.01 -2.82907 1.63191 0
M  V30 29873 H 2948.67 -1.53685 3.32831 0
M  V30 29874 H 2948.32 -3.99756 3.05294 0
M  V30 29875 H 2948.02 -3.48354 4.73205 0
M  V30 29876 H 2949.54 -4.31839 4.31679 0
M  V30 29877 H 2950.96 -2.25671 5.27015 0
M  V30 29878 H 2949.35 -1.64447 5.77128 0
M  V30 29879 H 2950.42 -0.607355 4.81081 0
M  V30 29880 N 2951.77 -1.53818 -0.343203 0
M  V30 29881 C 2953.18 -1.44089 -0.68633 0
M  V30 29882 C 2953.38 -0.597916 -1.92425 0
M  V30 29883 O 2952.44 -0.0890362 -2.52343 0
M  V30 29884 C 2953.75 -2.87577 -0.878648 0
M  V30 29885 C 2955.3 -2.97353 -0.977243 0
M  V30 29886 C 2955.77 -4.41949 -1.20187 0
M  V30 29887 N 2957.26 -4.45476 -1.26907 0
M  V30 29888 C 2958 -5.54491 -1.46039 0
M  V30 29889 N 2957.5 -6.73511 -1.62342 0
M  V30 29890 N 2959.29 -5.42105 -1.4859 0
M  V30 29891 H 2951.44 -2.07118 0.470715 0
M  V30 29892 H 2953.7 -0.93627 0.148668 0
M  V30 29893 H 2953.41 -3.51677 -0.0405402 0
M  V30 29894 H 2953.28 -3.32544 -1.78028 0
M  V30 29895 H 2955.67 -2.33393 -1.80587 0
M  V30 29896 H 2955.75 -2.55746 -0.0525048 0
M  V30 29897 H 2955.39 -5.0649 -0.378173 0
M  V30 29898 H 2955.32 -4.81148 -2.14018 0
M  V30 29899 H 2957.82 -3.5971 -1.15831 0
M  V30 29900 H 2958.13 -7.52356 -1.76578 0
M  V30 29901 H 2956.47 -6.76455 -1.59478 0
M  V30 29902 H 2959.66 -4.48079 -1.35436 0
M  V30 29903 H 2959.84 -6.27123 -1.63159 0
M  V30 29904 N 2953.24 0.604233 -1.45557 0
M  V30 29905 C 2954.21 1.6967 -1.54094 0
M  V30 29906 C 2955.21 1.55215 -0.420103 0
M  V30 29907 O 2956.4 1.60222 -0.683699 0
M  V30 29908 C 2953.53 3.08961 -1.44068 0
M  V30 29909 H 2954.72 1.63466 -2.51434 0
M  V30 29910 H 2952.27 0.82025 -1.33047 0
M  V30 29911 H 2953.01 3.20739 -0.479258 0
M  V30 29912 H 2952.79 3.20861 -2.25368 0
M  V30 29913 H 2954.28 3.8853 -1.53082 0
M  V30 29914 N 2954.72 1.32903 0.847027 0
M  V30 29915 C 2955.97 1.23248 1.59665 0
M  V30 29916 C 2956.28 -0.202315 1.94551 0
M  V30 29917 O 2957.49 -0.4208 2.68219 0
M  V30 29918 C 2955.95 2.15906 2.87946 0
M  V30 29919 C 2955.55 3.6451 2.60455 0
M  V30 29920 C 2957.3 2.15105 3.65965 0
M  V30 29921 C 2955.2 4.49106 3.84783 0
M  V30 29922 H 2954.13 0.457739 0.599159 0
M  V30 29923 H 2956.79 1.57914 0.934634 0
M  V30 29924 H 2955.17 1.74163 3.55645 0
M  V30 29925 H 2956.34 4.14642 2.01019 0
M  V30 29926 H 2954.66 3.67518 1.95753 0
M  V30 29927 H 2957.25 2.75542 4.58237 0
M  V30 29928 H 2957.6 1.14399 4.00273 0
M  V30 29929 H 2958.13 2.55167 3.05179 0
M  V30 29930 H 2954.87 5.50655 3.55611 0
M  V30 29931 H 2954.39 4.03721 4.43587 0
M  V30 29932 H 2956.07 4.62495 4.52446 0
M  V30 29933 N 2956.2 -1.06426 1.16238 0
M  V30 29934 C 2957.61 -1.60666 0.950971 0
M  V30 29935 C 2957.96 -1.89577 -0.505457 0
M  V30 29936 O 2957.09 -1.6682 -1.3784 0
M  V30 29937 C 2957.68 -2.91901 1.71987 0
M  V30 29938 C 2956.24 -3.42847 1.55348 0
M  V30 29939 C 2955.39 -2.1676 1.72946 0
M  V30 29940 H 2958.34 -0.893936 1.31128 0
M  V30 29941 H 2958.36 -3.61251 1.1949 0
M  V30 29942 H 2957.87 -2.70826 2.77983 0
M  V30 29943 H 2955.97 -3.68984 0.517865 0
M  V30 29944 H 2956.09 -4.18263 2.33651 0
M  V30 29945 H 2954.45 -2.26916 1.15677 0
M  V30 29946 H 2955.23 -1.9817 2.80327 0
M  V30 29947 N 2957.68 -0.960653 -1.24937 0
M  V30 29948 C 2958.63 -0.484498 -2.25657 0
M  V30 29949 C 2959.6 0.466214 -1.59423 0
M  V30 29950 O 2960.78 0.378136 -1.87015 0
M  V30 29951 C 2957.92 0.225898 -3.4436 0
M  V30 29952 C 2957.03 -0.762756 -4.25213 0
M  V30 29953 C 2956.17 -0.0291865 -5.31192 0
M  V30 29954 C 2955.21 -1.00837 -6.03737 0
M  V30 29955 N 2954.34 -0.305278 -7.01436 0
M  V30 29956 H 2959.18 -1.34826 -2.65756 0
M  V30 29957 H 2956.72 -0.676006 -1.30647 0
M  V30 29958 H 2958.68 0.6544 -4.12036 0
M  V30 29959 H 2957.31 1.05366 -3.05119 0
M  V30 29960 H 2956.36 -1.30972 -3.57142 0
M  V30 29961 H 2957.67 -1.50973 -4.75404 0
M  V30 29962 H 2956.83 0.457657 -6.04971 0
M  V30 29963 H 2955.57 0.750529 -4.8189 0
M  V30 29964 H 2954.57 -1.50616 -5.28767 0
M  V30 29965 H 2955.8 -1.78842 -6.55128 0
M  V30 29966 H 2953.74 0.455589 -6.54416 0
M  V30 29967 H 2953.66 -0.991236 -7.49473 0
M  V30 29968 H 2954.93 0.159829 -7.79336 0
M  V30 29969 N 2959.16 1.39677 -0.729931 0
M  V30 29970 C 2960.4 2.00219 -0.275112 0
M  V30 29971 C 2960.73 1.58201 1.14007 0
M  V30 29972 O 2960 0.827935 1.77544 0
M  V30 29973 H 2958.58 0.740447 -0.0987258 0
M  V30 29974 H 2961.24 1.70802 -0.93876 0
M  V30 29975 H 2960.33 3.1046 -0.3195 0
M  V30 29976 N 2960.63 0.47718 1.50202 0
M  V30 29977 C 2961.88 -0.0774194 2.01551 0
M  V30 29978 C 2962.2 -1.40232 1.36361 0
M  V30 29979 O 2963.4 -2.04222 1.78901 0
M  V30 29980 C 2961.86 -0.188476 3.59406 0
M  V30 29981 C 2961.47 1.12836 4.33558 0
M  V30 29982 C 2963.21 -0.694709 4.18777 0
M  V30 29983 C 2961.12 0.980762 5.83211 0
M  V30 29984 H 2960.05 -0.032708 0.75329 0
M  V30 29985 H 2962.7 0.612999 1.72958 0
M  V30 29986 H 2961.08 -0.942814 3.84613 0
M  V30 29987 H 2962.25 1.89412 4.20071 0
M  V30 29988 H 2960.57 1.56617 3.85824 0
M  V30 29989 H 2963.17 -0.822263 5.2834 0
M  V30 29990 H 2963.51 -1.68759 3.8056 0
M  V30 29991 H 2964.04 0.00241512 3.978 0
M  V30 29992 H 2960.78 1.9472 6.25911 0
M  V30 29993 H 2960.3 0.25548 5.99256 0
M  V30 29994 H 2961.98 0.649831 6.43728 0
M  V30 29995 N 2962.11 -1.56194 0.210027 0
M  V30 29996 C 2963.53 -1.58935 -0.145571 0
M  V30 29997 C 2963.73 -1.22659 -1.59865 0
M  V30 29998 O 2962.78 -0.956378 -2.33687 0
M  V30 29999 C 2964.1 -3.00217 0.170296 0
M  V30 30000 C 2965.65 -3.12801 0.111603 0
M  V30 30001 C 2966.12 -4.56241 0.400985 0
M  V30 30002 N 2967.61 -4.61875 0.350139 0
M  V30 30003 C 2968.35 -5.70778 0.547698 0
M  V30 30004 N 2967.84 -6.88091 0.806412 0
M  V30 30005 N 2969.64 -5.60039 0.480926 0
M  V30 30006 H 2961.79 -1.78052 1.15807 0
M  V30 30007 H 2964.05 -0.827055 0.463341 0
M  V30 30008 H 2963.76 -3.31371 1.17839 0
M  V30 30009 H 2963.63 -3.73597 -0.520143 0
M  V30 30010 H 2966.02 -2.8145 -0.887112 0
M  V30 30011 H 2966.1 -2.41776 0.835345 0
M  V30 30012 H 2965.74 -4.88307 1.39709 0
M  V30 30013 H 2965.67 -5.25476 -0.343818 0
M  V30 30014 H 2968.16 -3.77572 0.157401 0
M  V30 30015 H 2968.48 -7.66993 0.945568 0
M  V30 30016 H 2966.82 -6.89863 0.843476 0
M  V30 30017 H 2970.01 -4.67267 0.279119 0
M  V30 30018 H 2970.18 -6.44849 0.638302 0
M  V30 30019 N 2963.59 0.0634645 -1.57472 0
M  V30 30020 C 2964.87 0.794507 -1.78737 0
M  V30 30021 C 2965.25 1.95367 -0.79968 0
M  V30 30022 O 2964.6 2.279 0.165481 0
M  V30 30023 C 2964.81 1.2597 -3.25473 0
M  V30 30024 C 2966.15 1.68969 -3.89531 0
M  V30 30025 O 2967.18 1.35515 -3.29415 0
M  V30 30026 O 2966.04 2.30935 -4.95309 0
M  V30 30027 H 2963.13 0.381363 -0.733819 0
M  V30 30028 H 2965.68 0.042896 -1.69646 0
M  V30 30029 H 2964.45 0.430652 -3.88923 0
M  V30 30030 H 2964.07 2.07237 -3.39321 0
M  V30 30031 N 2965.07 1.53998 0.33504 0
M  V30 30032 C 2966.02 1.82581 1.41183 0
M  V30 30033 C 2966.99 0.672088 1.51895 0
M  V30 30034 O 2968.17 0.917376 1.67299 0
M  V30 30035 C 2965.31 2.04865 2.77713 0
M  V30 30036 C 2964.42 3.32566 2.75724 0
M  V30 30037 C 2963.56 3.44871 4.04026 0
M  V30 30038 C 2962.6 4.6649 3.963 0
M  V30 30039 N 2961.73 4.75783 5.16309 0
M  V30 30040 H 2966.57 2.7445 1.16108 0
M  V30 30041 H 2964.11 1.35929 0.562281 0
M  V30 30042 H 2966.07 2.15775 3.57068 0
M  V30 30043 H 2964.7 1.163 3.01122 0
M  V30 30044 H 2963.75 3.30454 1.88427 0
M  V30 30045 H 2965.06 4.22021 2.65895 0
M  V30 30046 H 2964.22 3.5526 4.91808 0
M  V30 30047 H 2962.96 2.53488 4.16648 0
M  V30 30048 H 2961.96 4.5617 3.06903 0
M  V30 30049 H 2963.19 5.59246 3.85254 0
M  V30 30050 H 2961.13 3.87312 5.29458 0
M  V30 30051 H 2961.05 5.59187 5.08769 0
M  V30 30052 H 2962.32 4.90491 6.05837 0
M  V30 30053 N 2966.55 -0.596505 1.45875 0
M  V30 30054 C 2967.79 -1.35251 1.50172 0
M  V30 30055 C 2968.12 -1.94428 0.14928 0
M  V30 30056 O 2967.39 -1.7779 -0.822648 0
M  V30 30057 H 2965.97 -0.502129 0.55306 0
M  V30 30058 H 2968.63 -0.699639 1.81909 0
M  V30 30059 H 2967.72 -2.16628 2.24674 0
M  V30 30060 N 2968.02 -1.3335 -0.839967 0
M  V30 30061 C 2968.99 -1.2343 -1.93126 0
M  V30 30062 C 2969.99 -0.153627 -1.60064 0
M  V30 30063 O 2971.18 -0.405079 -1.69425 0
M  V30 30064 C 2968.31 -0.901679 -3.28759 0
M  V30 30065 H 2969.5 -2.2043 -2.03348 0
M  V30 30066 H 2967.06 -1.17393 -1.03192 0
M  V30 30067 H 2967.79 0.0658768 -3.24233 0
M  V30 30068 H 2967.58 -1.68317 -3.54135 0
M  V30 30069 H 2969.07 -0.856985 -4.08712 0
M  V30 30070 N 2969.5 1.05808 -1.16801 0
M  V30 30071 C 2970.45 2.13404 -0.879057 0
M  V30 30072 C 2971.42 1.65181 0.174512 0
M  V30 30073 O 2972.6 1.90761 0.0386508 0
M  V30 30074 C 2969.74 3.4287 -0.391676 0
M  V30 30075 C 2968.86 4.04801 -1.50864 0
M  V30 30076 C 2967.99 5.22161 -0.975774 0
M  V30 30077 C 2967.03 5.76086 -2.06861 0
M  V30 30078 N 2966.17 6.84755 -1.55097 0
M  V30 30079 H 2971.01 2.3746 -1.80047 0
M  V30 30080 H 2968.55 1.16501 -0.898103 0
M  V30 30081 H 2970.5 4.17101 -0.090698 0
M  V30 30082 H 2969.13 3.19016 0.492784 0
M  V30 30083 H 2968.19 3.28069 -1.92548 0
M  V30 30084 H 2969.5 4.4087 -2.33313 0
M  V30 30085 H 2968.65 6.03438 -0.628271 0
M  V30 30086 H 2967.39 4.87551 -0.120652 0
M  V30 30087 H 2966.4 4.93442 -2.42476 0
M  V30 30088 H 2967.62 6.12746 -2.92778 0
M  V30 30089 H 2965.57 6.52054 -0.71846 0
M  V30 30090 H 2965.48 7.19793 -2.31158 0
M  V30 30091 H 2966.75 7.69699 -1.2322 0
M  V30 30092 N 2970.98 0.967265 1.24426 0
M  V30 30093 C 2972.21 0.646511 1.9654 0
M  V30 30094 C 2972.62 -0.783966 1.71754 0
M  V30 30095 O 2971.98 -1.52595 1.00105 0
M  V30 30096 C 2972.03 0.91116 3.49829 0
M  V30 30097 O 2971.75 2.2854 3.73766 0
M  V30 30098 C 2973.25 0.604535 4.39159 0
M  V30 30099 H 2970.47 0.241266 0.626124 0
M  V30 30100 H 2973.02 1.29508 1.58265 0
M  V30 30101 H 2971.17 0.308808 3.86167 0
M  V30 30102 H 2971.59 2.36508 4.6815 0
M  V30 30103 H 2973.06 0.840165 5.45569 0
M  V30 30104 H 2973.54 -0.461197 4.36772 0
M  V30 30105 H 2974.14 1.18677 4.08406 0
M  V30 30106 N 2972.46 -1.39288 0.737328 0
M  V30 30107 C 2973.41 -2.30588 0.0988769 0
M  V30 30108 C 2974.38 -1.49336 -0.727179 0
M  V30 30109 O 2975.56 -1.78016 -0.686663 0
M  V30 30110 C 2972.7 -3.35683 -0.800675 0
M  V30 30111 C 2971.81 -4.31983 0.038249 0
M  V30 30112 C 2970.95 -5.24146 -0.862792 0
M  V30 30113 C 2969.99 -6.12097 -0.0192563 0
M  V30 30114 N 2969.13 -6.96609 -0.876358 0
M  V30 30115 H 2973.97 -2.84615 0.883081 0
M  V30 30116 H 2971.5 -1.4014 0.447136 0
M  V30 30117 H 2973.46 -3.95207 -1.33669 0
M  V30 30118 H 2972.09 -2.83106 -1.55083 0
M  V30 30119 H 2971.14 -3.74058 0.691707 0
M  V30 30120 H 2972.45 -4.93999 0.690381 0
M  V30 30121 H 2971.61 -5.88708 -1.46656 0
M  V30 30122 H 2970.35 -4.62457 -1.5487 0
M  V30 30123 H 2969.35 -5.46546 0.597298 0
M  V30 30124 H 2970.58 -6.75851 0.663467 0
M  V30 30125 H 2968.52 -6.37486 -1.54751 0
M  V30 30126 H 2968.44 -7.55478 -0.280759 0
M  V30 30127 H 2969.71 -7.65598 -1.46562 0
M  V30 30128 N 2973.94 -0.485139 -1.49947 0
M  V30 30129 C 2974.85 0.306656 -2.32587 0
M  V30 30130 C 2975.86 0.982607 -1.436 0
M  V30 30131 O 2977.04 0.967488 -1.7664 0
M  V30 30132 C 2974.1 1.36635 -3.18641 0
M  V30 30133 C 2973.17 0.705515 -4.23463 0
M  V30 30134 C 2972.4 1.71472 -5.05404 0
M  V30 30135 O 2972.62 2.94285 -4.88623 0
M  V30 30136 O 2971.56 1.27878 -5.88159 0
M  V30 30137 H 2975.38 -0.369325 -3.01446 0
M  V30 30138 H 2972.97 -0.246735 -1.47349 0
M  V30 30139 H 2974.85 1.97983 -3.71995 0
M  V30 30140 H 2973.52 2.02555 -2.52494 0
M  V30 30141 H 2972.43 0.0527075 -3.74063 0
M  V30 30142 H 2973.76 0.0890322 -4.92119 0
M  V30 30143 N 2975.42 1.56081 -0.218307 0
M  V30 30144 C 2976.35 2.23138 0.687883 0
M  V30 30145 C 2977.33 1.20202 1.20355 0
M  V30 30146 O 2978.51 1.48778 1.24815 0
M  V30 30147 C 2975.64 2.90877 1.89757 0
M  V30 30148 C 2974.6 4.00256 1.51588 0
M  V30 30149 C 2973.92 4.55276 2.80407 0
M  V30 30150 C 2975.22 5.17475 0.708313 0
M  V30 30151 H 2976.92 2.99123 0.128802 0
M  V30 30152 H 2974.46 1.43873 0.0605101 0
M  V30 30153 H 2976.41 3.36479 2.53693 0
M  V30 30154 H 2975.14 2.12334 2.48157 0
M  V30 30155 H 2973.8 3.55381 0.899995 0
M  V30 30156 H 2973.45 3.73467 3.36944 0
M  V30 30157 H 2973.15 5.29094 2.55603 0
M  V30 30158 H 2974.67 5.03593 3.45291 0
M  V30 30159 H 2976.08 5.59478 1.2513 0
M  V30 30160 H 2974.48 5.97505 0.557488 0
M  V30 30161 H 2975.55 4.84057 -0.285764 0
M  V30 30162 N 2976.89 -0.0551124 1.57504 0
M  V30 30163 C 2977.86 -1.04817 2.03828 0
M  V30 30164 C 2978.86 -1.30608 0.937991 0
M  V30 30165 O 2980.05 -1.26048 1.2024 0
M  V30 30166 C 2977.18 -2.38771 2.43313 0
M  V30 30167 H 2978.37 -0.648548 2.92803 0
M  V30 30168 H 2975.92 -0.301288 1.53369 0
M  V30 30169 H 2976.66 -2.83533 1.57415 0
M  V30 30170 H 2976.44 -2.21389 3.23619 0
M  V30 30171 H 2977.93 -3.10119 2.79671 0
M  V30 30172 N 2978.37 -1.54173 -0.326869 0
M  V30 30173 C 2979.6 -1.76179 -1.08483 0
M  V30 30174 C 2980.01 -0.508819 -1.81814 0
M  V30 30175 O 2979.37 0.520331 -1.74925 0
M  V30 30176 C 2979.42 -2.9528 -2.08547 0
M  V30 30177 O 2979.14 -4.15733 -1.38194 0
M  V30 30178 C 2980.64 -3.29471 -2.96587 0
M  V30 30179 H 2977.86 -0.588239 -0.322825 0
M  V30 30180 H 2980.41 -2.01051 -0.374001 0
M  V30 30181 H 2978.56 -2.72692 -2.75169 0
M  V30 30182 H 2978.98 -4.82703 -2.05177 0
M  V30 30183 H 2980.45 -4.16116 -3.62701 0
M  V30 30184 H 2980.93 -2.46494 -3.63507 0
M  V30 30185 H 2981.53 -3.54126 -2.35531 0
M  V30 30186 N 2979.85 0.58876 -1.4619 0
M  V30 30187 C 2981.07 1.37823 -1.54982 0
M  V30 30188 C 2981.5 1.87143 -0.189531 0
M  V30 30189 O 2980.86 1.61223 0.829264 0
M  V30 30190 C 2980.91 2.54591 -2.55374 0
M  V30 30191 O 2980.01 3.55836 -2.08458 0
M  V30 30192 H 2979.35 0.410701 -0.521748 0
M  V30 30193 H 2981.88 0.714745 -1.9171 0
M  V30 30194 H 2981.89 3.01589 -2.74788 0
M  V30 30195 H 2980.57 2.18046 -3.54159 0
M  V30 30196 H 2979.14 3.15359 -1.99005 0
M  V30 30197 N 2981.33 1.33794 0.832883 0
M  V30 30198 C 2982.29 1.24452 1.92469 0
M  V30 30199 C 2983.29 0.162113 1.59981 0
M  V30 30200 O 2984.48 0.414058 1.69208 0
M  V30 30201 C 2981.61 0.919102 3.28276 0
M  V30 30202 H 2982.81 2.21506 2.02176 0
M  V30 30203 H 2980.36 1.17938 1.02568 0
M  V30 30204 H 2981.09 -0.048681 3.24263 0
M  V30 30205 H 2980.88 1.70193 3.53238 0
M  V30 30206 H 2982.37 0.878648 4.08252 0
M  V30 30207 N 2982.81 -1.05187 1.1736 0
M  V30 30208 C 2984.03 -1.82402 0.987122 0
M  V30 30209 C 2984.46 -1.82393 -0.459816 0
M  V30 30210 O 2983.81 -1.23294 -1.32922 0
M  V30 30211 C 2983.86 -3.264 1.53282 0
M  V30 30212 O 2982.97 -4.05585 0.746612 0
M  V30 30213 H 2982.31 -0.563968 0.35048 0
M  V30 30214 H 2984.84 -1.32549 1.55859 0
M  V30 30215 H 2984.85 -3.77201 1.55511 0
M  V30 30216 H 2983.52 -3.25721 2.58608 0
M  V30 30217 H 2982.1 -3.64311 0.795735 0
M  V30 30218 N 2984.28 -0.97385 -1.23911 0
M  V30 30219 C 2985.22 -0.466803 -2.24396 0
M  V30 30220 C 2986.23 0.427801 -1.57079 0
M  V30 30221 O 2987.42 0.232988 -1.76973 0
M  V30 30222 C 2984.52 0.344738 -3.37142 0
M  V30 30223 C 2983.69 -0.541426 -4.34036 0
M  V30 30224 C 2982.75 0.215151 -5.2576 0
M  V30 30225 O 2981.78 -0.39301 -5.67842 0
M  V30 30226 N 2982.98 1.503 -5.60705 0
M  V30 30227 H 2985.74 -1.33078 -2.68533 0
M  V30 30228 H 2983.3 -0.84637 -1.38015 0
M  V30 30229 H 2985.3 0.859063 -3.95477 0
M  V30 30230 H 2983.87 1.10969 -2.92241 0
M  V30 30231 H 2983.09 -1.23666 -3.743 0
M  V30 30232 H 2984.37 -1.14558 -4.95736 0
M  V30 30233 H 2983.77 2.01873 -5.28454 0
M  V30 30234 H 2982.33 1.9629 -6.21541 0
M  V30 30235 N 2985.76 1.38895 -0.744705 0
M  V30 30236 C 2986.99 2.05128 -0.306155 0
M  V30 30237 C 2987.41 1.55791 1.05407 0
M  V30 30238 O 2986.77 0.705938 1.66992 0
M  V30 30239 C 2986.82 3.59103 -0.328258 0
M  V30 30240 O 2985.92 4.06742 0.680804 0
M  V30 30241 H 2985.26 0.649666 -0.13722 0
M  V30 30242 H 2987.79 1.77743 -1.01334 0
M  V30 30243 H 2987.8 4.0762 -0.176027 0
M  V30 30244 H 2986.48 3.94372 -1.32074 0
M  V30 30245 H 2985.05 3.69615 0.493915 0
M  V30 30246 N 2987.24 0.493084 1.49688 0
M  V30 30247 C 2988.2 -0.278445 2.27502 0
M  V30 30248 C 2989.2 -0.901014 1.33186 0
M  V30 30249 O 2990.39 -0.766774 1.56417 0
M  V30 30250 C 2987.53 -1.39872 3.10883 0
M  V30 30251 H 2988.72 0.404271 2.97163 0
M  V30 30252 H 2986.27 0.247801 1.54323 0
M  V30 30253 H 2987.01 -2.11583 2.4577 0
M  V30 30254 H 2986.79 -0.957857 3.8022 0
M  V30 30255 H 2988.28 -1.9424 3.69676 0
M  V30 30256 N 2988.72 -1.55963 0.226582 0
M  V30 30257 C 2989.96 -1.98728 -0.404352 0
M  V30 30258 C 2990.3 -1.11421 -1.59057 0
M  V30 30259 O 2989.57 -0.173005 -1.93729 0
M  V30 30260 C 2989.86 -3.50309 -0.834019 0
M  V30 30261 C 2989.71 -4.48388 0.356183 0
M  V30 30262 C 2991.03 -4.06426 -1.68838 0
M  V30 30263 H 2988.15 -0.722494 -0.145502 0
M  V30 30264 H 2990.79 -1.8722 0.323824 0
M  V30 30265 H 2988.94 -3.60246 -1.45447 0
M  V30 30266 H 2990.61 -4.50455 0.994399 0
M  V30 30267 H 2988.85 -4.22051 1.00277 0
M  V30 30268 H 2989.52 -5.51999 0.0125303 0
M  V30 30269 H 2992 -3.99463 -1.16482 0
M  V30 30270 H 2990.88 -5.12793 -1.95791 0
M  V30 30271 H 2991.14 -3.53619 -2.65341 0
M  V30 30272 N 2990.2 0.0467589 -1.57531 0
M  V30 30273 C 2991.42 0.757089 -1.93088 0
M  V30 30274 C 2991.85 1.69035 -0.825146 0
M  V30 30275 O 2991.2 1.79955 0.220417 0
M  V30 30276 C 2991.25 1.50544 -3.27672 0
M  V30 30277 O 2990.36 2.61767 -3.18672 0
M  V30 30278 H 2989.7 0.204881 -0.631601 0
M  V30 30279 H 2992.23 0.00751636 -2.04599 0
M  V30 30280 H 2992.24 1.87926 -3.62143 0
M  V30 30281 H 2990.91 0.820859 -4.07719 0
M  V30 30282 H 2989.49 2.27059 -2.95802 0
M  V30 30283 N 2991.67 1.54344 0.318688 0
M  V30 30284 C 2992.9 1.76752 1.07547 0
M  V30 30285 C 2993.32 0.518454 1.81542 0
M  V30 30286 O 2992.67 -0.511047 1.75199 0
M  V30 30287 C 2992.73 2.96382 2.06978 0
M  V30 30288 O 2992.45 4.1646 1.35988 0
M  V30 30289 C 2993.95 3.31039 2.94835 0
M  V30 30290 H 2991.17 0.589943 0.319701 0
M  V30 30291 H 2993.71 2.01246 0.363333 0
M  V30 30292 H 2991.87 2.74147 2.73719 0
M  V30 30293 H 2992.28 4.83785 2.02615 0
M  V30 30294 H 2993.75 4.18033 3.60489 0
M  V30 30295 H 2994.23 2.48418 3.62195 0
M  V30 30296 H 2994.84 3.5537 2.3365 0
M  V30 30297 N 2993.15 -0.580999 1.465 0
M  V30 30298 C 2994.08 -1.70014 1.60055 0
M  V30 30299 C 2995.06 -1.64017 0.450816 0
M  V30 30300 O 2996.25 -1.82007 0.677269 0
M  V30 30301 C 2993.38 -3.08655 1.59215 0
M  V30 30302 C 2992.33 -3.29483 2.73175 0
M  V30 30303 C 2991.66 -4.68669 2.57397 0
M  V30 30304 C 2992.96 -3.17153 4.14984 0
M  V30 30305 H 2994.65 -1.58926 2.53738 0
M  V30 30306 H 2992.2 -0.763152 1.22115 0
M  V30 30307 H 2994.15 -3.86771 1.67292 0
M  V30 30308 H 2992.88 -3.20646 0.620775 0
M  V30 30309 H 2991.53 -2.53768 2.6457 0
M  V30 30310 H 2991.18 -4.77428 1.58339 0
M  V30 30311 H 2990.88 -4.83558 3.33835 0
M  V30 30312 H 2992.41 -5.48951 2.67367 0
M  V30 30313 H 2993.82 -3.85111 4.24691 0
M  V30 30314 H 2992.22 -3.43562 4.92022 0
M  V30 30315 H 2993.29 -2.1421 4.3502 0
M  V30 30316 N 2994.63 -1.34234 -0.825776 0
M  V30 30317 C 2996.05 -1.13853 -1.11846 0
M  V30 30318 C 2996.25 0.0618677 -2.01405 0
M  V30 30319 O 2995.3 0.738244 -2.41467 0
M  V30 30320 C 2996.62 -2.43238 -1.76792 0
M  V30 30321 C 2998.16 -2.49268 -1.893 0
M  V30 30322 C 2998.64 -3.78648 -2.57662 0
M  V30 30323 N 3000.13 -3.79792 -2.65164 0
M  V30 30324 C 3000.86 -4.76619 -3.18781 0
M  V30 30325 N 3000.36 -5.83827 -3.72985 0
M  V30 30326 N 3002.15 -4.64078 -3.17156 0
M  V30 30327 H 2994.3 -2.11151 -0.230012 0
M  V30 30328 H 2996.57 -0.933602 -0.164592 0
M  V30 30329 H 2996.27 -3.31154 -1.18449 0
M  V30 30330 H 2996.15 -2.56366 -2.76688 0
M  V30 30331 H 2998.53 -1.61794 -2.46793 0
M  V30 30332 H 2998.62 -2.40071 -0.883148 0
M  V30 30333 H 2998.26 -4.6651 -2.00824 0
M  V30 30334 H 2998.19 -3.85126 -3.59145 0
M  V30 30335 H 3000.68 -3.02319 -2.26741 0
M  V30 30336 H 3000.99 -6.53729 -4.12139 0
M  V30 30337 H 2999.34 -5.87545 -3.71236 0
M  V30 30338 H 3002.53 -3.79474 -2.74076 0
M  V30 30339 H 3002.7 -5.39706 -3.58638 0
M  V30 30340 N 2996.11 1.04563 -1.17917 0
M  V30 30341 C 2997.39 1.74625 -0.881218 0
M  V30 30342 C 2997.77 2.01879 0.617088 0
M  V30 30343 O 2997.11 1.65994 1.57029 0
M  V30 30344 C 2997.32 3.035 -1.72304 0
M  V30 30345 C 2998.67 3.77332 -1.94695 0
M  V30 30346 O 2999.7 3.13386 -1.69315 0
M  V30 30347 O 2998.55 4.92249 -2.37388 0
M  V30 30348 H 2995.65 0.759658 -0.326878 0
M  V30 30349 H 2998.19 1.10674 -1.28644 0
M  V30 30350 H 2996.97 2.79458 -2.73896 0
M  V30 30351 H 2996.59 3.7519 -1.316 0
M  V30 30352 N 2997.59 0.980408 1.23393 0
M  V30 30353 C 2998.83 0.650256 1.92092 0
M  V30 30354 C 2999.17 -0.814142 1.7631 0
M  V30 30355 O 2998.44 -1.58728 1.12409 0
M  V30 30356 C 2998.72 1.04145 3.44711 0
M  V30 30357 C 2998.58 2.56348 3.69602 0
M  V30 30358 C 2999.9 0.585372 4.3619 0
M  V30 30359 H 2997.01 0.237707 0.697613 0
M  V30 30360 H 2999.66 1.22169 1.45515 0
M  V30 30361 H 2997.81 0.555218 3.84512 0
M  V30 30362 H 2999.48 3.12546 3.39282 0
M  V30 30363 H 2997.72 2.98981 3.14313 0
M  V30 30364 H 2998.39 2.78771 4.76436 0
M  V30 30365 H 3000.87 1.00283 4.03835 0
M  V30 30366 H 2999.74 0.887524 5.41677 0
M  V30 30367 H 3000.01 -0.514303 4.39098 0
M  V30 30368 N 2999.06 -1.38498 0.75206 0
M  V30 30369 C 3000.03 -2.28822 0.131627 0
M  V30 30370 C 3001.03 -1.47116 -0.649123 0
M  V30 30371 O 3002.22 -1.67581 -0.475615 0
M  V30 30372 C 2999.35 -3.3084 -0.822043 0
M  V30 30373 H 3000.54 -2.85194 0.927601 0
M  V30 30374 H 2998.1 -1.47433 0.518971 0
M  V30 30375 H 2998.83 -2.79556 -1.64375 0
M  V30 30376 H 2998.62 -3.91206 -0.264621 0
M  V30 30377 H 3000.11 -3.98384 -1.25219 0
M  V30 30378 N 3000.54 -0.501015 -1.49424 0
M  V30 30379 C 3001.79 0.043414 -2.02053 0
M  V30 30380 C 3002.11 1.37483 -1.38287 0
M  V30 30381 O 3001.38 1.88362 -0.538204 0
M  V30 30382 H 2999.96 0.0190338 -0.746757 0
M  V30 30383 H 3002.62 -0.658259 -1.83447 0
M  V30 30384 H 3001.72 0.173074 -3.1162 0
M  V30 30385 N 3002.02 1.5584 -0.234849 0
M  V30 30386 C 3002.95 2.23855 0.664177 0
M  V30 30387 C 3003.93 1.21472 1.19074 0
M  V30 30388 O 3005.12 1.50094 1.2323 0
M  V30 30389 C 3002.25 2.92874 1.86661 0
M  V30 30390 C 3001.2 4.01842 1.47334 0
M  V30 30391 C 3000.53 4.58224 2.75563 0
M  V30 30392 C 3001.83 5.18197 0.653388 0
M  V30 30393 H 3003.52 2.99243 0.0970687 0
M  V30 30394 H 3001.07 1.43929 0.0452471 0
M  V30 30395 H 3003.02 3.39151 2.5011 0
M  V30 30396 H 3001.74 2.14954 2.45891 0
M  V30 30397 H 3000.4 3.56316 0.862252 0
M  V30 30398 H 3000.05 3.7702 3.32964 0
M  V30 30399 H 2999.75 5.31775 2.49977 0
M  V30 30400 H 3001.28 5.07227 3.39931 0
M  V30 30401 H 3002.69 5.60774 1.19189 0
M  V30 30402 H 3001.09 5.98063 0.494083 0
M  V30 30403 H 3002.16 4.83727 -0.337089 0
M  V30 30404 N 3003.5 -0.038404 1.57553 0
M  V30 30405 C 3004.72 -0.746838 1.93487 0
M  V30 30406 C 3005.15 -1.68595 0.834099 0
M  V30 30407 O 3004.51 -1.8007 -0.21087 0
M  V30 30408 C 3004.56 -1.48805 3.28465 0
M  V30 30409 O 3003.66 -2.60074 3.20055 0
M  V30 30410 H 3003 -0.201528 0.632679 0
M  V30 30411 H 3005.53 0.00333411 2.046 0
M  V30 30412 H 3005.54 -1.86003 3.63135 0
M  V30 30413 H 3004.22 -0.799225 4.08149 0
M  V30 30414 H 3002.79 -2.25487 2.97002 0
M  V30 30415 N 3004.98 -1.54511 -0.310498 0
M  V30 30416 C 3005.91 -1.81163 -1.40402 0
M  V30 30417 C 3006.92 -0.69414 -1.4726 0
M  V30 30418 O 3008.11 -0.971467 -1.49749 0
M  V30 30419 C 3005.21 -1.92609 -2.78846 0
M  V30 30420 C 3004.38 -3.22913 -2.95035 0
M  V30 30421 C 3003.44 -3.24896 -4.13919 0
M  V30 30422 O 3002.47 -3.98474 -4.06456 0
M  V30 30423 N 3003.67 -2.49609 -5.24095 0
M  V30 30424 H 3006.44 -2.75536 -1.17898 0
M  V30 30425 H 3004 -1.53968 -0.500537 0
M  V30 30426 H 3005.99 -1.91348 -3.56606 0
M  V30 30427 H 3004.56 -1.05274 -2.9434 0
M  V30 30428 H 3003.78 -3.37027 -2.04466 0
M  V30 30429 H 3005.07 -4.08921 -3.02756 0
M  V30 30430 H 3004.47 -1.89444 -5.33036 0
M  V30 30431 H 3003.02 -2.54112 -6.00225 0
M  V30 30432 N 3006.46 0.573222 -1.46806 0
M  V30 30433 C 3007.37 1.70927 -1.6069 0
M  V30 30434 C 3008.38 1.66955 -0.490113 0
M  V30 30435 O 3009.56 1.86692 -0.755515 0
M  V30 30436 C 3006.62 3.07435 -1.60264 0
M  V30 30437 C 3005.68 3.22598 -2.83248 0
M  V30 30438 C 3004.92 4.52594 -2.82833 0
M  V30 30439 O 3005.14 5.37071 -1.92123 0
M  V30 30440 O 3004.07 4.71207 -3.74497 0
M  V30 30441 H 3007.9 1.62159 -2.56784 0
M  V30 30442 H 3005.48 0.741376 -1.29707 0
M  V30 30443 H 3007.37 3.88701 -1.62756 0
M  V30 30444 H 3006.04 3.1662 -0.673324 0
M  V30 30445 H 3004.95 2.40789 -2.86306 0
M  V30 30446 H 3006.28 3.18309 -3.7542 0
M  V30 30447 N 3007.93 1.3467 0.818645 0
M  V30 30448 C 3008.86 1.29249 1.94466 0
M  V30 30449 C 3009.84 0.169131 1.69257 0
M  V30 30450 O 3011.03 0.362176 1.90793 0
M  V30 30451 C 3008.16 1.05151 3.30999 0
M  V30 30452 C 3007.11 2.13999 3.7066 0
M  V30 30453 C 3006.44 1.75083 5.05223 0
M  V30 30454 C 3007.74 3.55865 3.82305 0
M  V30 30455 H 3009.43 2.23464 1.99259 0
M  V30 30456 H 3006.98 1.07573 0.957286 0
M  V30 30457 H 3008.93 1.00002 4.09362 0
M  V30 30458 H 3007.66 0.0737886 3.26517 0
M  V30 30459 H 3006.32 2.18224 2.94574 0
M  V30 30460 H 3005.96 0.759605 4.97231 0
M  V30 30461 H 3005.66 2.47938 5.32729 0
M  V30 30462 H 3007.19 1.71437 5.86039 0
M  V30 30463 H 3008.6 3.54028 4.50929 0
M  V30 30464 H 3007 4.27378 4.2127 0
M  V30 30465 H 3008.07 3.92895 2.84186 0
M  V30 30466 N 3009.41 -1.03936 1.1847 0
M  V30 30467 C 3010.34 -2.139 0.936427 0
M  V30 30468 C 3011.32 -1.6963 -0.126351 0
M  V30 30469 O 3012.51 -1.94182 0.0265098 0
M  V30 30470 C 3009.64 -3.44203 0.46279 0
M  V30 30471 C 3008.59 -4.02103 1.4662 0
M  V30 30472 C 3007.92 -5.279 0.850033 0
M  V30 30473 C 3009.22 -4.38125 2.8433 0
M  V30 30474 H 3010.91 -2.34927 1.85607 0
M  V30 30475 H 3008.46 -1.12902 0.893826 0
M  V30 30476 H 3010.41 -4.20492 0.276456 0
M  V30 30477 H 3009.13 -3.22867 -0.49242 0
M  V30 30478 H 3007.79 -3.27896 1.6395 0
M  V30 30479 H 3007.44 -5.02874 -0.112405 0
M  V30 30480 H 3007.14 -5.67601 1.51998 0
M  V30 30481 H 3008.67 -6.06866 0.674258 0
M  V30 30482 H 3010.08 -5.05395 2.70645 0
M  V30 30483 H 3008.48 -4.88878 3.4802 0
M  V30 30484 H 3009.55 -3.47895 3.37783 0
M  V30 30485 N 3010.89 -0.986938 -1.22871 0
M  V30 30486 C 3011.84 -0.525082 -2.26596 0
M  V30 30487 C 3012.83 0.421223 -1.64079 0
M  V30 30488 O 3014.04 0.294398 -1.77576 0
M  V30 30489 H 3010.41 -0.151394 -0.736603 0
M  V30 30490 H 3012.38 -1.41147 -2.62907 0
M  V30 30491 C 3011.13 0.150481 -3.47374 0
M  V30 30492 H 3010.46 -0.56861 -3.95736 0
M  V30 30493 H 3011.9 0.437182 -4.2174 0
M  V30 30494 C 3010.35 1.38387 -3.07166 0
M  V30 30495 O 3010.88 2.47965 -3.16032 0
M  V30 30496 N 3009.09 1.25692 -2.62011 0
M  V30 30497 H 3008.64 0.36531 -2.54997 0
M  V30 30498 H 3008.6 2.08323 -2.35476 0
M  V30 30499 N 3012.37 1.38098 -0.759394 0
M  V30 30500 C 3013.6 2.04265 -0.329147 0
M  V30 30501 C 3014.01 1.57276 1.0445 0
M  V30 30502 O 3013.37 0.748427 1.66448 0
M  V30 30503 C 3013.42 3.59809 -0.349256 0
M  V30 30504 O 3013.14 4.05075 -1.6687 0
M  V30 30505 C 3014.64 4.432 0.0941327 0
M  V30 30506 H 3011.86 0.656292 -0.139722 0
M  V30 30507 H 3014.4 1.76675 -1.02987 0
M  V30 30508 H 3012.56 3.86215 0.302778 0
M  V30 30509 H 3012.97 4.99537 -1.59885 0
M  V30 30510 H 3014.45 5.51992 0.0289033 0
M  V30 30511 H 3014.92 4.24071 1.14283 0
M  V30 30512 H 3015.53 4.21994 -0.529245 0
M  V30 30513 N 3013.85 0.508932 1.49156 0
M  V30 30514 C 3015.07 -0.0314817 2.07376 0
M  V30 30515 C 3015.5 -1.29338 1.36577 0
M  V30 30516 O 3014.85 -1.76248 0.424994 0
M  V30 30517 C 3014.9 -0.260054 3.59661 0
M  V30 30518 O 3014.01 -1.33315 3.90257 0
M  V30 30519 H 3013.35 0.0297506 0.663333 0
M  V30 30520 H 3015.88 0.710825 1.91855 0
M  V30 30521 H 3015.89 -0.489154 4.05057 0
M  V30 30522 H 3014.56 0.661866 4.106 0
M  V30 30523 H 3013.14 -1.08838 3.56663 0
M  V30 30524 N 3015.32 -1.55714 0.243111 0
M  V30 30525 C 3016.29 -2.19946 -0.644684 0
M  V30 30526 C 3017.29 -1.16761 -1.1056 0
M  V30 30527 O 3018.48 -1.41866 -1.01092 0
M  V30 30528 C 3015.61 -2.84001 -1.88564 0
M  V30 30529 H 3016.8 -2.99781 -0.0843312 0
M  V30 30530 H 3014.35 -1.56299 -0.00644499 0
M  V30 30531 H 3015.09 -2.08093 -2.48732 0
M  V30 30532 H 3014.87 -3.59584 -1.56339 0
M  V30 30533 H 3016.36 -3.3317 -2.51769 0
M  V30 30534 N 3016.8 0.030048 -1.57571 0
M  V30 30535 C 3018.03 0.736567 -1.9388 0
M  V30 30536 C 3018.45 1.68151 -0.843028 0
M  V30 30537 O 3017.81 1.80179 0.201318 0
M  V30 30538 C 3017.86 1.47061 -3.2925 0
M  V30 30539 O 3016.96 2.58373 -3.2143 0
M  V30 30540 H 3016.3 0.19817 -0.633739 0
M  V30 30541 H 3018.83 -0.0141845 -2.04595 0
M  V30 30542 H 3018.84 1.84074 -3.64116 0
M  V30 30543 H 3017.52 0.777569 -4.08567 0
M  V30 30544 H 3016.1 2.23909 -2.98193 0
M  V30 30545 N 3018.28 1.54674 0.3023 0
M  V30 30546 C 3019.21 1.88535 1.37756 0
M  V30 30547 C 3020.19 0.74414 1.52959 0
M  V30 30548 O 3021.38 0.99976 1.66489 0
M  V30 30549 C 3018.51 2.13151 2.74197 0
M  V30 30550 C 3017.46 3.28998 2.7376 0
M  V30 30551 C 3016.79 3.39029 4.13477 0
M  V30 30552 C 3018.09 4.66136 2.35616 0
M  V30 30553 H 3019.78 2.78593 1.09665 0
M  V30 30554 H 3017.33 1.34045 0.526107 0
M  V30 30555 H 3019.28 2.35425 3.49504 0
M  V30 30556 H 3018 1.19863 3.0381 0
M  V30 30557 H 3016.66 3.06645 2.00909 0
M  V30 30558 H 3016.31 2.43261 4.40265 0
M  V30 30559 H 3016.01 4.16901 4.14086 0
M  V30 30560 H 3017.53 3.63562 4.90566 0
M  V30 30561 H 3018.95 4.88149 3.00639 0
M  V30 30562 H 3017.35 5.46712 2.4744 0
M  V30 30563 H 3018.42 4.66941 1.30745 0
M  V30 30564 N 3019.76 -0.565428 1.47108 0
M  V30 30565 C 3020.98 -1.3534 1.57155 0
M  V30 30566 C 3021.41 -1.86817 0.21928 0
M  V30 30567 O 3020.77 -1.62522 -0.80351 0
M  V30 30568 C 3020.81 -2.50496 2.59392 0
M  V30 30569 O 3019.92 -3.52474 2.14092 0
M  V30 30570 H 3019.26 -0.402348 0.528216 0
M  V30 30571 H 3021.79 -0.684155 1.92822 0
M  V30 30572 H 3021.8 -2.97179 2.79551 0
M  V30 30573 H 3020.47 -2.12384 3.57583 0
M  V30 30574 H 3019.05 -3.12153 2.03997 0
M  V30 30575 N 3021.24 -1.35102 -0.811492 0
M  V30 30576 C 3022.65 -1.15033 -1.10632 0
M  V30 30577 C 3022.85 0.0405025 -2.01459 0
M  V30 30578 O 3021.91 0.712592 -2.42236 0
M  V30 30579 C 3023.22 -2.451 -1.74203 0
M  V30 30580 C 3024.77 -2.51262 -1.86645 0
M  V30 30581 C 3025.24 -3.81359 -2.53632 0
M  V30 30582 N 3026.74 -3.82583 -2.61121 0
M  V30 30583 C 3027.47 -4.79974 -3.13708 0
M  V30 30584 N 3026.97 -5.87751 -3.66771 0
M  V30 30585 N 3028.76 -4.67416 -3.12216 0
M  V30 30586 H 3020.91 -2.11383 -0.207604 0
M  V30 30587 H 3023.17 -0.935296 -0.154681 0
M  V30 30588 H 3022.88 -3.32391 -1.1493 0
M  V30 30589 H 3022.75 -2.59286 -2.73954 0
M  V30 30590 H 3025.14 -1.64402 -2.45063 0
M  V30 30591 H 3025.22 -2.40994 -0.857636 0
M  V30 30592 H 3024.87 -4.68614 -1.95865 0
M  V30 30593 H 3024.8 -3.88914 -3.5504 0
M  V30 30594 H 3027.29 -3.04707 -2.23522 0
M  V30 30595 H 3027.6 -6.58063 -4.05183 0
M  V30 30596 H 3025.94 -5.91449 -3.64983 0
M  V30 30597 H 3029.14 -3.82359 -2.70035 0
M  V30 30598 H 3029.31 -5.4348 -3.52893 0
M  V30 30599 N 3022.71 1.03306 -1.19019 0
M  V30 30600 C 3023.96 1.76898 -0.991712 0
M  V30 30601 C 3024.29 1.88256 0.47678 0
M  V30 30602 O 3023.57 1.39627 1.35405 0
M  V30 30603 C 3023.85 3.19746 -1.65633 0
M  V30 30604 C 3023.7 3.16285 -3.19819 0
M  V30 30605 C 3025.02 4.18041 -1.37586 0
M  V30 30606 H 3022.14 0.642147 -0.361685 0
M  V30 30607 H 3024.78 1.20626 -1.46797 0
M  V30 30608 H 3022.93 3.67794 -1.25139 0
M  V30 30609 H 3024.61 2.76167 -3.69499 0
M  V30 30610 H 3022.85 2.54111 -3.51582 0
M  V30 30611 H 3023.52 4.1719 -3.61465 0
M  V30 30612 H 3026 3.78575 -1.72686 0
M  V30 30613 H 3024.87 5.16193 -1.86645 0
M  V30 30614 H 3025.13 4.4108 -0.300196 0
M  V30 30615 N 3024.19 0.99344 1.22346 0
M  V30 30616 C 3025.14 0.537092 2.26314 0
M  V30 30617 C 3026.13 -0.412516 1.64301 0
M  V30 30618 O 3027.34 -0.284976 1.7773 0
M  V30 30619 H 3023.72 0.155299 0.73579 0
M  V30 30620 H 3025.69 1.42539 2.62155 0
M  V30 30621 C 3024.44 -0.132057 3.47449 0
M  V30 30622 H 3023.76 0.589589 3.95429 0
M  V30 30623 H 3025.2 -0.41481 4.21966 0
M  V30 30624 C 3023.66 -1.36756 3.07895 0
M  V30 30625 O 3024.19 -2.46286 3.17343 0
M  V30 30626 N 3022.39 -1.24301 2.62674 0
M  V30 30627 H 3021.94 -0.351781 2.55187 0
M  V30 30628 H 3021.9 -2.07072 2.36577 0
M  V30 30629 N 3025.67 -1.37693 0.766707 0
M  V30 30630 C 3026.9 -2.04088 0.339975 0
M  V30 30631 C 3027.31 -1.57828 -1.03614 0
M  V30 30632 O 3026.67 -0.757243 -1.66048 0
M  V30 30633 C 3026.72 -3.59619 0.368332 0
M  V30 30634 O 3026.44 -4.04185 1.69016 0
M  V30 30635 C 3027.94 -4.43244 -0.0706274 0
M  V30 30636 H 3025.16 -0.655542 0.1432 0
M  V30 30637 H 3027.71 -1.76126 1.03922 0
M  V30 30638 H 3025.86 -3.8637 -0.282292 0
M  V30 30639 H 3026.28 -4.98682 1.62532 0
M  V30 30640 H 3027.75 -5.52 0.000370566 0
M  V30 30641 H 3028.23 -4.24671 -1.12032 0
M  V30 30642 H 3028.83 -4.21708 0.551617 0
M  V30 30643 N 3027.15 -0.516835 -1.48884 0
M  V30 30644 C 3028.38 0.0183653 -2.06892 0
M  V30 30645 C 3028.79 1.29366 -1.37514 0
M  V30 30646 O 3028.15 1.76648 -0.45844 0
M  V30 30647 C 3028.2 0.25961 -3.60567 0
M  V30 30648 O 3027.92 -0.96514 -4.27337 0
M  V30 30649 C 3029.42 0.836674 -4.35333 0
M  V30 30650 H 3026.64 -0.0275861 -0.670433 0
M  V30 30651 H 3029.19 -0.718723 -1.91454 0
M  V30 30652 H 3027.34 0.946714 -3.75654 0
M  V30 30653 H 3027.75 -0.737738 -5.19286 0
M  V30 30654 H 3029.23 0.95497 -5.43677 0
M  V30 30655 H 3029.71 1.83838 -3.98873 0
M  V30 30656 H 3030.31 0.186547 -4.24891 0
M  V30 30657 N 3028.63 1.55583 -0.251365 0
M  V30 30658 C 3029.56 2.24547 0.640397 0
M  V30 30659 C 3030.54 1.22728 1.17778 0
M  V30 30660 O 3031.72 1.51392 1.21631 0
M  V30 30661 C 3028.85 2.94837 1.83544 0
M  V30 30662 C 3027.81 4.03382 1.43063 0
M  V30 30663 C 3027.13 4.61121 2.70687 0
M  V30 30664 C 3028.43 5.18861 0.598389 0
M  V30 30665 H 3030.13 2.99329 0.0653245 0
M  V30 30666 H 3027.67 1.43969 0.0299789 0
M  V30 30667 H 3029.63 3.41784 2.46499 0
M  V30 30668 H 3028.35 2.1755 2.43597 0
M  V30 30669 H 3027.01 3.5721 0.824411 0
M  V30 30670 H 3026.66 3.8053 3.28947 0
M  V30 30671 H 3026.36 5.34397 2.44323 0
M  V30 30672 H 3027.88 5.10804 3.34532 0
M  V30 30673 H 3029.29 5.62006 1.13234 0
M  V30 30674 H 3027.69 5.98553 0.430623 0
M  V30 30675 H 3028.76 4.83342 -0.388375 0
M  V30 30676 N 3030.1 -0.0216912 1.57585 0
M  V30 30677 C 3031.52 -0.377457 1.55072 0
M  V30 30678 C 3031.72 -1.76149 0.978454 0
M  V30 30679 O 3030.78 -2.45201 0.602731 0
M  V30 30680 C 3032.09 -0.272552 2.99462 0
M  V30 30681 C 3033.64 -0.349093 3.11047 0
M  V30 30682 C 3034.11 -0.273556 4.57182 0
M  V30 30683 N 3035.6 -0.332125 4.62008 0
M  V30 30684 C 3036.34 -0.296682 5.72632 0
M  V30 30685 N 3035.83 -0.213099 6.92472 0
M  V30 30686 N 3037.63 -0.346954 5.61028 0
M  V30 30687 H 3029.78 0.883959 1.93132 0
M  V30 30688 H 3032.04 0.336825 0.886145 0
M  V30 30689 H 3031.75 0.678841 3.45086 0
M  V30 30690 H 3031.62 -1.06329 3.61903 0
M  V30 30691 H 3034.01 -1.29092 2.65366 0
M  V30 30692 H 3034.09 0.471129 2.51424 0
M  V30 30693 H 3033.73 0.664637 5.03533 0
M  V30 30694 H 3033.66 -1.11198 5.14726 0
M  V30 30695 H 3036.15 -0.398937 3.75788 0
M  V30 30696 H 3036.47 -0.191356 7.72563 0
M  V30 30697 H 3034.81 -0.179039 6.94769 0
M  V30 30698 H 3038 -0.410296 4.66298 0
M  V30 30699 H 3038.18 -0.315865 6.4723 0
M  V30 30700 N 3031.58 -1.54832 -0.294093 0
M  V30 30701 C 3032.49 -1.89327 -1.38537 0
M  V30 30702 C 3033.51 -0.78816 -1.55126 0
M  V30 30703 O 3034.69 -1.08527 -1.69658 0
M  V30 30704 C 3031.75 -2.13959 -2.72805 0
M  V30 30705 C 3030.81 -3.37636 -2.65142 0
M  V30 30706 C 3030.04 -3.61083 -3.93007 0
M  V30 30707 O 3030.27 -2.87415 -4.92695 0
M  V30 30708 O 3029.2 -4.54606 -3.94483 0
M  V30 30709 H 3033.03 -2.82181 -1.12284 0
M  V30 30710 H 3030.61 -1.41109 -0.490769 0
M  V30 30711 H 3032.49 -2.31321 -3.52234 0
M  V30 30712 H 3031.17 -1.2429 -2.98887 0
M  V30 30713 H 3030.08 -3.2563 -1.84162 0
M  V30 30714 H 3031.41 -4.27456 -2.44012 0
M  V30 30715 N 3033.06 0.557619 -1.47405 0
M  V30 30716 C 3034.29 1.34023 -1.57624 0
M  V30 30717 C 3034.7 1.87439 -0.226289 0
M  V30 30718 O 3034.06 1.64973 0.780401 0
M  V30 30719 C 3034.11 2.51043 -2.60115 0
M  V30 30720 O 3033.83 1.99834 -3.89869 0
M  V30 30721 C 3035.33 3.43259 -2.80514 0
M  V30 30722 H 3032.55 0.40856 -0.532278 0
M  V30 30723 H 3035.1 0.675521 -1.93021 0
M  V30 30724 H 3033.25 3.13453 -2.27654 0
M  V30 30725 H 3033.67 2.76226 -4.45869 0
M  V30 30726 H 3035.14 4.21785 -3.56091 0
M  V30 30727 H 3035.62 3.96777 -1.88321 0
M  V30 30728 H 3036.22 2.86665 -3.14171 0
M  V30 30729 N 3034.54 1.35531 0.804316 0
M  V30 30730 C 3035.49 1.25178 1.90563 0
M  V30 30731 C 3036.47 0.14654 1.60231 0
M  V30 30732 O 3037.67 0.377973 1.72917 0
M  V30 30733 C 3034.79 1.02829 3.27538 0
M  V30 30734 C 3033.88 2.17755 3.63928 0
M  V30 30735 N 3034.27 3.42993 3.71738 0
M  V30 30736 C 3032.57 2.09191 3.93897 0
M  V30 30737 C 3033.27 4.18581 4.03936 0
M  V30 30738 N 3032.25 3.47362 4.18139 0
M  V30 30739 H 3036.05 2.20063 1.94806 0
M  V30 30740 H 3033.56 1.28036 0.999028 0
M  V30 30741 H 3035.56 0.935012 4.0628 0
M  V30 30742 H 3034.22 0.0883121 3.2458 0
M  V30 30743 H 3035.23 3.77316 3.54758 0
M  V30 30744 H 3031.91 1.23061 3.98951 0
M  V30 30745 H 3033.3 5.26819 4.17027 0
M  V30 30746 N 3036.02 -1.02674 1.19565 0
M  V30 30747 C 3036.95 -2.11084 0.893091 0
M  V30 30748 C 3037.96 -1.62393 -0.115072 0
M  V30 30749 O 3039.15 -1.78132 0.114621 0
M  V30 30750 C 3036.25 -3.37427 0.315593 0
M  V30 30751 C 3035.42 -4.15298 1.37283 0
M  V30 30752 C 3034.48 -5.19952 0.808489 0
M  V30 30753 O 3033.51 -5.49441 1.48671 0
M  V30 30754 N 3034.71 -5.79208 -0.387151 0
M  V30 30755 H 3037.48 -2.37629 1.82626 0
M  V30 30756 H 3035.04 -1.18982 1.09794 0
M  V30 30757 H 3037.03 -4.04629 -0.0758455 0
M  V30 30758 H 3035.6 -3.08212 -0.521907 0
M  V30 30759 H 3034.82 -3.43213 1.93903 0
M  V30 30760 H 3036.11 -4.6411 2.08517 0
M  V30 30761 H 3035.51 -5.5757 -0.955627 0
M  V30 30762 H 3034.06 -6.47807 -0.720344 0
M  V30 30763 N 3037.5 -0.999914 -1.21817 0
M  V30 30764 C 3038.43 -0.576136 -2.26281 0
M  V30 30765 C 3039.41 0.400508 -1.65318 0
M  V30 30766 O 3040.59 0.289606 -1.92028 0
M  V30 30767 C 3037.72 0.103084 -3.47147 0
M  V30 30768 C 3036.68 -0.792819 -4.20593 0
M  V30 30769 C 3036 0.0197086 -5.34696 0
M  V30 30770 C 3037.3 -2.09302 -4.78529 0
M  V30 30771 H 3039 -1.44934 -2.61982 0
M  V30 30772 H 3036.54 -0.698338 -1.25933 0
M  V30 30773 H 3038.49 0.410994 -4.19391 0
M  V30 30774 H 3037.22 1.01089 -3.10562 0
M  V30 30775 H 3035.88 -1.08448 -3.50192 0
M  V30 30776 H 3035.53 0.928642 -4.94353 0
M  V30 30777 H 3035.23 -0.576763 -5.84763 0
M  V30 30778 H 3036.75 0.321551 -6.09753 0
M  V30 30779 H 3038.16 -1.84859 -5.42679 0
M  V30 30780 H 3036.56 -2.63891 -5.38964 0
M  V30 30781 H 3037.63 -2.76715 -3.98192 0
M  V30 30782 N 3038.97 1.37284 -0.773999 0
M  V30 30783 C 3039.9 2.32837 -0.175823 0
M  V30 30784 C 3040.88 1.55892 0.680576 0
M  V30 30785 O 3042.07 1.84119 0.617575 0
M  V30 30786 C 3039.2 3.40124 0.702328 0
M  V30 30787 C 3038.15 4.27967 -0.052944 0
M  V30 30788 C 3037.48 5.26287 0.944799 0
M  V30 30789 C 3038.78 5.07531 -1.23325 0
M  V30 30790 H 3040.47 2.83112 -0.974066 0
M  V30 30791 H 3038.02 1.36119 -0.46985 0
M  V30 30792 H 3039.97 4.05949 1.13062 0
M  V30 30793 H 3038.7 2.8838 1.53311 0
M  V30 30794 H 3037.36 3.63677 -0.462042 0
M  V30 30795 H 3037 4.70822 1.7702 0
M  V30 30796 H 3036.7 5.8592 0.443976 0
M  V30 30797 H 3038.23 5.94986 1.37199 0
M  V30 30798 H 3039.64 5.66483 -0.881495 0
M  V30 30799 H 3038.04 5.76502 -1.66631 0
M  V30 30800 H 3039.11 4.40074 -2.03625 0
M  V30 30801 N 3040.45 0.524724 1.48608 0
M  V30 30802 C 3041.38 -0.27796 2.27508 0
M  V30 30803 C 3042.4 -0.909234 1.35044 0
M  V30 30804 O 3043.59 -0.788564 1.60137 0
M  V30 30805 C 3040.69 -1.40838 3.0825 0
M  V30 30806 C 3039.86 -0.880008 4.28456 0
M  V30 30807 C 3038.92 -1.89091 4.91051 0
M  V30 30808 O 3037.94 -1.44995 5.50423 0
M  V30 30809 N 3039.15 -3.22279 4.82821 0
M  V30 30810 H 3041.91 0.398694 2.97036 0
M  V30 30811 H 3039.47 0.358726 1.57876 0
M  V30 30812 H 3041.46 -2.0827 3.46995 0
M  V30 30813 H 3040.03 -1.98879 2.41176 0
M  V30 30814 H 3039.25 -0.0298536 3.94189 0
M  V30 30815 H 3040.54 -0.505792 5.0628 0
M  V30 30816 H 3039.94 -3.60775 4.35727 0
M  V30 30817 H 3038.5 -3.85359 5.25682 0
M  V30 30818 N 3041.93 -1.55447 0.259613 0
M  V30 30819 C 3043.21 -1.912 -0.412561 0
M  V30 30820 C 3043.59 -1.18197 -1.74907 0
M  V30 30821 O 3042.93 -0.303643 -2.26474 0
M  V30 30822 C 3043.14 -3.44345 -0.568134 0
M  V30 30823 C 3044.49 -4.15837 -0.85818 0
M  V30 30824 O 3045.52 -3.50154 -0.653526 0
M  V30 30825 O 3044.38 -5.32044 -1.24865 0
M  V30 30826 H 3041.47 -0.796258 -0.223389 0
M  V30 30827 H 3044.02 -1.66944 0.30462 0
M  V30 30828 H 3042.79 -3.89518 0.373058 0
M  V30 30829 H 3042.41 -3.74504 -1.33537 0
M  V30 30830 N 3043.41 0.0133338 -1.57594 0
M  V30 30831 C 3044.63 0.715962 -1.9465 0
M  V30 30832 C 3045.06 1.67247 -0.860815 0
M  V30 30833 O 3044.42 1.80382 0.182196 0
M  V30 30834 C 3044.46 1.4356 -3.30791 0
M  V30 30835 O 3043.57 2.54949 -3.24152 0
M  V30 30836 H 3042.91 0.191437 -0.635805 0
M  V30 30837 H 3045.44 -0.0358837 -2.04569 0
M  V30 30838 H 3045.45 1.80202 -3.66048 0
M  V30 30839 H 3044.12 0.734191 -4.09368 0
M  V30 30840 H 3042.7 2.20733 -3.00551 0
M  V30 30841 N 3044.89 1.54985 0.285878 0
M  V30 30842 C 3046.11 1.78994 1.03773 0
M  V30 30843 C 3046.53 0.556845 1.80401 0
M  V30 30844 O 3045.89 -0.47377 1.76243 0
M  V30 30845 C 3045.94 3.00706 2.00645 0
M  V30 30846 O 3045.66 4.19251 1.27123 0
M  V30 30847 C 3047.16 3.37219 2.87747 0
M  V30 30848 H 3044.38 0.596591 0.307115 0
M  V30 30849 H 3046.92 2.01972 0.320564 0
M  V30 30850 H 3045.08 2.79891 2.67843 0
M  V30 30851 H 3045.49 4.87974 1.92307 0
M  V30 30852 H 3046.97 4.25586 3.51541 0
M  V30 30853 H 3047.44 2.56045 3.56844 0
M  V30 30854 H 3048.05 3.60246 2.26059 0
M  V30 30855 N 3046.36 -0.549794 1.47699 0
M  V30 30856 C 3047.3 -1.67213 1.55291 0
M  V30 30857 C 3048.28 -1.57487 0.40456 0
M  V30 30858 O 3049.46 -1.7824 0.613403 0
M  V30 30859 C 3046.59 -3.05503 1.46239 0
M  V30 30860 C 3045.63 -3.3365 2.65668 0
M  V30 30861 S 3046.47 -3.22091 4.27806 0
M  V30 30862 C 3047.62 -4.62862 4.21319 0
M  V30 30863 H 3047.85 -1.6052 2.50241 0
M  V30 30864 H 3045.39 -0.731203 1.35988 0
M  V30 30865 H 3047.35 -3.85267 1.41703 0
M  V30 30866 H 3046.01 -3.09654 0.526598 0
M  V30 30867 H 3045.2 -4.34485 2.55418 0
M  V30 30868 H 3044.8 -2.6152 2.67364 0
M  V30 30869 H 3047.09 -5.5397 3.9003 0
M  V30 30870 H 3048.04 -4.78168 5.22266 0
M  V30 30871 H 3048.44 -4.41256 3.5207 0
M  V30 30872 N 3047.84 -1.35955 -0.797117 0
M  V30 30873 C 3048.81 -1.29512 -1.89102 0
M  V30 30874 C 3049.81 -0.204472 -1.59495 0
M  V30 30875 O 3051 -0.458775 -1.6805 0
M  V30 30876 C 3048.13 -1.00582 -3.25724 0
M  V30 30877 H 3049.32 -2.26788 -1.96233 0
M  V30 30878 H 3046.87 -1.20616 -0.994053 0
M  V30 30879 H 3047.61 -0.0373089 -3.24279 0
M  V30 30880 H 3047.39 -1.79498 -3.48601 0
M  V30 30881 H 3048.88 -0.98658 -4.05779 0
M  V30 30882 N 3049.32 1.02038 -1.20108 0
M  V30 30883 C 3050.55 1.79185 -1.03443 0
M  V30 30884 C 3050.96 1.84148 0.41651 0
M  V30 30885 O 3050.32 1.29171 1.28923 0
M  V30 30886 C 3050.37 3.23833 -1.60669 0
M  V30 30887 O 3050.09 3.19188 -3.00085 0
M  V30 30888 C 3051.59 4.17543 -1.48905 0
M  V30 30889 H 3048.81 0.563623 -0.364102 0
M  V30 30890 H 3051.36 1.28467 -1.59112 0
M  V30 30891 H 3049.51 3.71712 -1.09129 0
M  V30 30892 H 3049.93 4.09952 -3.27169 0
M  V30 30893 H 3051.4 5.16894 -1.93712 0
M  V30 30894 H 3051.88 4.36981 -0.44092 0
M  V30 30895 H 3052.48 3.75544 -1.99617 0
M  V30 30896 N 3050.8 1.00636 1.21285 0
M  V30 30897 C 3051.73 0.588128 2.25972 0
M  V30 30898 C 3052.71 -0.391735 1.65528 0
M  V30 30899 O 3053.89 -0.279418 1.92179 0
M  V30 30900 C 3051.02 -0.0846726 3.47197 0
M  V30 30901 C 3049.98 0.815113 4.20167 0
M  V30 30902 C 3049.3 0.00864792 5.34699 0
M  V30 30903 C 3050.6 2.11836 4.77412 0
M  V30 30904 H 3052.3 1.46322 2.61209 0
M  V30 30905 H 3049.84 0.705007 1.25561 0
M  V30 30906 H 3051.8 -0.388747 4.19603 0
M  V30 30907 H 3050.52 -0.994401 3.11094 0
M  V30 30908 H 3049.18 1.10303 3.49612 0
M  V30 30909 H 3048.83 -0.902412 4.94839 0
M  V30 30910 H 3048.53 0.607767 5.84448 0
M  V30 30911 H 3050.05 -0.28921 6.09915 0
M  V30 30912 H 3051.47 1.87735 5.41691 0
M  V30 30913 H 3049.86 2.66745 5.37557 0
M  V30 30914 H 3050.93 2.78823 3.96719 0
M  V30 30915 N 3052.28 -1.36872 0.781268 0
M  V30 30916 C 3053.21 -2.32741 0.188169 0
M  V30 30917 C 3054.19 -1.5625 -0.672299 0
M  V30 30918 O 3055.37 -1.84444 -0.607802 0
M  V30 30919 C 3052.5 -3.40492 -0.684281 0
M  V30 30920 C 3051.46 -4.27933 0.0756394 0
M  V30 30921 C 3050.78 -5.2678 -0.916875 0
M  V30 30922 C 3052.08 -5.0687 1.26015 0
M  V30 30923 H 3053.78 -2.82591 0.989066 0
M  V30 30924 H 3051.32 -1.35868 0.477062 0
M  V30 30925 H 3053.28 -4.06543 -1.10908 0
M  V30 30926 H 3052 -2.89189 -1.5178 0
M  V30 30927 H 3050.66 -3.63427 0.481322 0
M  V30 30928 H 3050.31 -4.71754 -1.7452 0
M  V30 30929 H 3050.01 -5.86148 -0.412897 0
M  V30 30930 H 3051.53 -5.95706 -1.34041 0
M  V30 30931 H 3052.94 -5.66007 0.911524 0
M  V30 30932 H 3051.34 -5.7561 1.69686 0
M  V30 30933 H 3052.41 -4.38988 2.05956 0
M  V30 30934 N 3053.75 -0.532597 -1.48328 0
M  V30 30935 C 3054.72 0.218029 -2.28161 0
M  V30 30936 C 3055.72 0.865385 -1.35528 0
M  V30 30937 O 3056.91 0.725033 -1.58395 0
M  V30 30938 C 3054.04 1.31581 -3.14483 0
M  V30 30939 H 3055.23 -0.482917 -2.95986 0
M  V30 30940 H 3052.79 -0.28863 -1.53612 0
M  V30 30941 H 3053.52 2.04992 -2.51294 0
M  V30 30942 H 3053.31 0.856711 -3.82626 0
M  V30 30943 H 3054.8 1.8437 -3.74696 0
M  V30 30944 N 3055.23 1.55307 -0.267853 0
M  V30 30945 C 3056.48 1.99041 0.350308 0
M  V30 30946 C 3056.8 1.15761 1.56922 0
M  V30 30947 O 3056.07 0.24537 1.94357 0
M  V30 30948 H 3054.65 0.735169 0.132422 0
M  V30 30949 H 3057.31 1.91327 -0.371504 0
M  V30 30950 H 3056.41 3.05359 0.64515 0
M  V30 30951 N 3056.71 -0.00497598 1.57599 0
M  V30 30952 C 3058.13 -0.360988 1.55464 0
M  V30 30953 C 3058.33 -1.75101 0.997082 0
M  V30 30954 O 3057.38 -2.44548 0.628704 0
M  V30 30955 C 3058.7 -0.240775 2.99734 0
M  V30 30956 C 3060.24 -0.316083 3.114 0
M  V30 30957 C 3060.72 -0.22505 4.57447 0
M  V30 30958 N 3062.21 -0.283104 4.62334 0
M  V30 30959 C 3062.94 -0.23593 5.72914 0
M  V30 30960 N 3062.44 -0.139641 6.92659 0
M  V30 30961 N 3064.23 -0.28743 5.61365 0
M  V30 30962 H 3056.38 0.904393 1.92183 0
M  V30 30963 H 3058.65 0.346205 0.882522 0
M  V30 30964 H 3058.35 0.715404 3.44347 0
M  V30 30965 H 3058.23 -1.02485 3.63011 0
M  V30 30966 H 3060.61 -1.2627 2.6672 0
M  V30 30967 H 3060.7 0.497769 2.5091 0
M  V30 30968 H 3060.34 0.718006 5.02799 0
M  V30 30969 H 3060.27 -1.05732 5.15876 0
M  V30 30970 H 3062.76 -0.359057 3.7619 0
M  V30 30971 H 3063.07 -0.109404 7.72723 0
M  V30 30972 H 3061.42 -0.10534 6.9492 0
M  V30 30973 H 3064.61 -0.360815 4.66707 0
M  V30 30974 H 3064.78 -0.2472 6.47528 0
M  V30 30975 N 3058.19 -1.55135 -0.277654 0
M  V30 30976 C 3059.14 -1.87695 -1.3431 0
M  V30 30977 C 3060.11 -0.728 -1.49296 0
M  V30 30978 O 3061.29 -0.978835 -1.63779 0
M  V30 30979 C 3058.43 -2.15031 -2.69918 0
M  V30 30980 C 3057.54 -3.4257 -2.63191 0
M  V30 30981 C 3056.68 -3.59629 -3.90948 0
M  V30 30982 C 3055.72 -4.80877 -3.78713 0
M  V30 30983 N 3054.85 -4.94618 -4.98295 0
M  V30 30984 H 3059.69 -2.7857 -1.05842 0
M  V30 30985 H 3057.23 -1.37923 -0.511445 0
M  V30 30986 H 3059.19 -2.28878 -3.48813 0
M  V30 30987 H 3057.82 -1.27396 -2.96598 0
M  V30 30988 H 3056.87 -3.37219 -1.76032 0
M  V30 30989 H 3058.18 -4.31598 -2.50049 0
M  V30 30990 H 3057.34 -3.73268 -4.78284 0
M  V30 30991 H 3056.08 -2.68777 -4.06952 0
M  V30 30992 H 3055.08 -4.67246 -2.89761 0
M  V30 30993 H 3056.31 -5.73159 -3.64232 0
M  V30 30994 H 3054.25 -4.06696 -5.14718 0
M  V30 30995 H 3054.17 -5.77684 -4.87665 0
M  V30 30996 H 3055.44 -5.12638 -5.87216 0
M  V30 30997 N 3059.67 0.541953 -1.47989 0
M  V30 30998 C 3060.91 1.30033 -1.55626 0
M  V30 30999 C 3061.25 1.929 -0.224288 0
M  V30 31000 O 3060.52 1.7867 0.768598 0
M  V30 31001 C 3060.8 2.39883 -2.68567 0
M  V30 31002 C 3060.66 1.81785 -4.1143 0
M  V30 31003 C 3061.98 3.41724 -2.77331 0
M  V30 31004 H 3059.09 0.471423 -0.566506 0
M  V30 31005 H 3061.74 0.604966 -1.80112 0
M  V30 31006 H 3059.89 2.99195 -2.47819 0
M  V30 31007 H 3061.56 1.26616 -4.43583 0
M  V30 31008 H 3059.8 1.12378 -4.18991 0
M  V30 31009 H 3060.47 2.61267 -4.86255 0
M  V30 31010 H 3062.95 2.92352 -2.96091 0
M  V30 31011 H 3061.82 4.15996 -3.58104 0
M  V30 31012 H 3062.09 4.0153 -1.85002 0
M  V30 31013 N 3061.15 1.36376 0.789896 0
M  V30 31014 C 3062.09 1.30664 1.90252 0
M  V30 31015 C 3063.06 0.175419 1.65171 0
M  V30 31016 O 3064.25 0.361856 1.87337 0
M  V30 31017 C 3061.39 1.10131 3.27055 0
M  V30 31018 C 3060.5 2.32323 3.64211 0
M  V30 31019 C 3059.64 2.04806 4.9013 0
M  V30 31020 C 3058.67 3.22962 5.19963 0
M  V30 31021 N 3057.81 2.95113 6.37066 0
M  V30 31022 H 3062.65 2.258 1.9447 0
M  V30 31023 H 3060.19 1.12225 0.951002 0
M  V30 31024 H 3062.15 0.962525 4.05945 0
M  V30 31025 H 3060.78 0.1865 3.22261 0
M  V30 31026 H 3059.83 2.57007 2.80449 0
M  V30 31027 H 3061.14 3.20499 3.82207 0
M  V30 31028 H 3060.29 1.87855 5.76884 0
M  V30 31029 H 3059.03 1.13941 4.74203 0
M  V30 31030 H 3058.04 3.40473 4.31693 0
M  V30 31031 H 3059.26 4.14653 5.3781 0
M  V30 31032 H 3057.21 2.06859 6.22532 0
M  V30 31033 H 3057.13 3.76827 6.55391 0
M  V30 31034 H 3058.39 2.8174 7.26803 0
M  V30 31035 N 3062.62 -1.014 1.20647 0
M  V30 31036 C 3063.9 -1.72227 0.927206 0
M  V30 31037 C 3064.28 -2.03444 -0.563346 0
M  V30 31038 O 3063.63 -1.70099 -1.52573 0
M  V30 31039 C 3063.84 -2.98825 1.8029 0
M  V30 31040 C 3065.19 -3.72037 2.04631 0
M  V30 31041 O 3066.21 -3.08787 1.77565 0
M  V30 31042 O 3065.07 -4.85782 2.50355 0
M  V30 31043 H 3062.16 -0.750724 0.346904 0
M  V30 31044 H 3064.71 -1.07224 1.31533 0
M  V30 31045 H 3063.48 -2.72098 2.81209 0
M  V30 31046 H 3063.1 -3.71569 1.41501 0
M  V30 31047 N 3064.1 -1.01278 -1.2075 0
M  V30 31048 C 3065.35 -0.700958 -1.90301 0
M  V30 31049 C 3065.68 0.767111 -1.78407 0
M  V30 31050 O 3064.96 1.55691 -1.16578 0
M  V30 31051 C 3065.24 -1.13248 -3.41829 0
M  V30 31052 C 3065.09 -2.66058 -3.62675 0
M  V30 31053 C 3066.41 -0.700814 -4.34484 0
M  V30 31054 H 3063.53 -0.256119 -0.691066 0
M  V30 31055 H 3066.17 -1.25984 -1.42225 0
M  V30 31056 H 3064.32 -0.656969 -3.82905 0
M  V30 31057 H 3065.99 -3.21432 -3.30876 0
M  V30 31058 H 3064.24 -3.0721 -3.06276 0
M  V30 31059 H 3064.91 -2.91304 -4.68877 0
M  V30 31060 H 3067.38 -1.10955 -4.01034 0
M  V30 31061 H 3066.26 -1.03083 -5.39134 0
M  V30 31062 H 3066.52 0.397703 -4.40308 0
M  V30 31063 N 3065.58 1.36456 -0.788516 0
M  V30 31064 C 3066.49 2.3385 -0.187426 0
M  V30 31065 C 3067.51 1.60999 0.659955 0
M  V30 31066 O 3068.68 1.92989 0.575952 0
M  V30 31067 C 3065.75 3.40195 0.668465 0
M  V30 31068 C 3064.81 4.28846 -0.197309 0
M  V30 31069 C 3064.04 5.30112 0.617827 0
M  V30 31070 O 3064.26 5.39433 1.85386 0
M  V30 31071 O 3063.2 6.01897 0.0181958 0
M  V30 31072 H 3067.02 2.87019 -0.992667 0
M  V30 31073 H 3064.61 1.38909 -0.549958 0
M  V30 31074 H 3066.49 4.05218 1.15655 0
M  V30 31075 H 3065.17 2.89327 1.45161 0
M  V30 31076 H 3064.07 3.66866 -0.732135 0
M  V30 31077 H 3065.41 4.83064 -0.943948 0
M  V30 31078 N 3067.06 0.540456 1.48043 0
M  V30 31079 C 3068.31 0.00813507 2.01698 0
M  V30 31080 C 3068.62 -1.34322 1.42186 0
M  V30 31081 O 3069.83 -1.9645 1.87402 0
M  V30 31082 C 3068.28 -0.0358697 3.59882 0
M  V30 31083 C 3067.89 1.31123 4.28382 0
M  V30 31084 C 3069.63 -0.516466 4.21347 0
M  V30 31085 C 3067.54 1.22724 5.78526 0
M  V30 31086 H 3066.47 -0.00072892 0.754 0
M  V30 31087 H 3069.12 0.685805 1.70203 0
M  V30 31088 H 3067.5 -0.778838 3.88266 0
M  V30 31089 H 3068.68 2.07059 4.11659 0
M  V30 31090 H 3066.99 1.7284 3.78834 0
M  V30 31091 H 3069.59 -0.597436 5.31352 0
M  V30 31092 H 3069.93 -1.52466 3.87375 0
M  V30 31093 H 3070.47 0.171133 3.97432 0
M  V30 31094 H 3067.2 2.21091 6.17089 0
M  V30 31095 H 3066.72 0.509415 5.97633 0
M  V30 31096 H 3068.4 0.922273 6.40393 0
M  V30 31097 N 3068.54 -1.55163 0.276085 0
M  V30 31098 C 3069.47 -2.1996 -0.644216 0
M  V30 31099 C 3070.48 -1.18461 -1.11673 0
M  V30 31100 O 3071.67 -1.45183 -1.03847 0
M  V30 31101 C 3068.77 -2.81245 -1.89088 0
M  V30 31102 C 3067.94 -4.08443 -1.56502 0
M  V30 31103 C 3067 -4.53767 -2.66425 0
M  V30 31104 O 3066.03 -5.19519 -2.3257 0
M  V30 31105 N 3067.23 -4.23989 -3.96502 0
M  V30 31106 H 3069.99 -2.99566 -0.0896281 0
M  V30 31107 H 3067.56 -1.61608 0.0972265 0
M  V30 31108 H 3069.55 -3.0851 -2.61923 0
M  V30 31109 H 3068.12 -2.05626 -2.3545 0
M  V30 31110 H 3067.34 -3.88457 -0.670454 0
M  V30 31111 H 3068.63 -4.91316 -1.32233 0
M  V30 31112 H 3068.02 -3.71261 -4.26828 0
M  V30 31113 H 3066.58 -4.56022 -4.65712 0
M  V30 31114 N 3070.01 -0.00338196 -1.576 0
M  V30 31115 C 3070.98 0.971801 -2.07578 0
M  V30 31116 C 3071.98 1.27036 -0.985819 0
M  V30 31117 O 3073.17 1.21498 -1.24835 0
M  V30 31118 C 3070.3 2.29576 -2.52007 0
M  V30 31119 H 3071.49 0.53943 -2.95009 0
M  V30 31120 H 3069.04 0.244159 -1.54381 0
M  V30 31121 H 3069.78 2.77495 -1.6783 0
M  V30 31122 H 3069.56 2.09225 -3.31613 0
M  V30 31123 H 3071.05 2.99525 -2.90988 0
M  V30 31124 N 3071.49 1.5528 0.269423 0
M  V30 31125 C 3072.44 1.892 1.353 0
M  V30 31126 C 3073.43 0.768697 1.50955 0
M  V30 31127 O 3074.64 0.953081 1.52697 0
M  V30 31128 H 3071.01 0.600562 0.45258 0
M  V30 31129 H 3072.99 2.79711 1.03944 0
M  V30 31130 C 3071.73 2.1836 2.70581 0
M  V30 31131 H 3071.06 3.04286 2.59327 0
M  V30 31132 H 3072.5 2.46013 3.45331 0
M  V30 31133 C 3070.96 0.992384 3.21952 0
M  V30 31134 O 3071.49 0.228839 4.01048 0
M  V30 31135 N 3069.69 0.789111 2.79681 0
M  V30 31136 H 3069.24 1.41171 2.15473 0
M  V30 31137 H 3069.2 -0.00629249 3.14399 0
M  V30 31138 N 3072.97 -0.534097 1.48274 0
M  V30 31139 C 3073.9 -1.64836 1.65383 0
M  V30 31140 C 3074.88 -1.625 0.502769 0
M  V30 31141 O 3076.07 -1.79761 0.734831 0
M  V30 31142 C 3073.2 -3.03433 1.68954 0
M  V30 31143 C 3072.15 -3.20626 2.83519 0
M  V30 31144 C 3071.48 -4.60243 2.72177 0
M  V30 31145 C 3072.78 -3.0379 4.24864 0
M  V30 31146 H 3074.47 -1.50773 2.58666 0
M  V30 31147 H 3072.02 -0.723916 1.24481 0
M  V30 31148 H 3073.97 -3.81252 1.79512 0
M  V30 31149 H 3072.69 -3.18509 0.722471 0
M  V30 31150 H 3071.35 -2.45222 2.7251 0
M  V30 31151 H 3071 -4.72149 1.73448 0
M  V30 31152 H 3070.7 -4.72692 3.4905 0
M  V30 31153 H 3072.22 -5.40167 2.84696 0
M  V30 31154 H 3073.64 -3.71405 4.36728 0
M  V30 31155 H 3072.03 -3.27735 5.02703 0
M  V30 31156 H 3073.1 -2.00262 4.41614 0
M  V30 31157 N 3074.45 -1.36793 -0.782652 0
M  V30 31158 C 3075.38 -1.34359 -1.90971 0
M  V30 31159 C 3076.36 -0.213947 -1.68749 0
M  V30 31160 O 3077.54 -0.412634 -1.89766 0
M  V30 31161 C 3074.67 -1.1389 -3.28095 0
M  V30 31162 C 3073.63 -2.23751 -3.64856 0
M  V30 31163 C 3072.95 -1.88417 -5.00403 0
M  V30 31164 C 3074.25 -3.65876 -3.72736 0
M  V30 31165 H 3075.95 -2.28668 -1.93264 0
M  V30 31166 H 3073.49 -1.10074 -0.928428 0
M  V30 31167 H 3075.45 -1.1082 -4.06567 0
M  V30 31168 H 3074.17 -0.160333 -3.26206 0
M  V30 31169 H 3072.83 -2.25957 -2.88685 0
M  V30 31170 H 3072.48 -0.89117 -4.95043 0
M  V30 31171 H 3072.18 -2.61975 -5.25969 0
M  V30 31172 H 3073.7 -1.86915 -5.81288 0
M  V30 31173 H 3075.12 -3.65859 -4.41384 0
M  V30 31174 H 3073.51 -4.38397 -4.09791 0
M  V30 31175 H 3074.58 -4.00291 -2.73669 0
M  V30 31176 N 3075.93 1.00759 -1.21184 0
M  V30 31177 C 3077.17 1.74496 -1.02749 0
M  V30 31178 C 3077.5 1.89474 0.43931 0
M  V30 31179 O 3076.76 1.42411 1.3423 0
M  V30 31180 C 3077.06 3.16155 -1.66676 0
M  V30 31181 C 3076.72 3.21131 -3.16521 0
M  V30 31182 C 3075.38 3.22197 -3.57411 0
M  V30 31183 C 3077.74 3.18579 -4.12501 0
M  V30 31184 C 3075.06 3.18392 -4.92791 0
M  V30 31185 C 3077.42 3.16316 -5.47838 0
M  V30 31186 C 3076.08 3.1569 -5.88129 0
M  V30 31187 H 3075.35 0.638527 -0.375985 0
M  V30 31188 H 3078 1.18111 -1.50738 0
M  V30 31189 H 3076.3 3.75756 -1.10972 0
M  V30 31190 H 3078 3.71922 -1.49918 0
M  V30 31191 H 3074.59 3.21043 -2.83953 0
M  V30 31192 H 3078.77 3.16919 -3.81938 0
M  V30 31193 H 3074.03 3.16244 -5.23259 0
M  V30 31194 H 3078.2 3.13295 -6.21948 0
M  V30 31195 H 3075.83 3.12496 -6.93001 0
M  V30 31196 N 3077.4 1.01917 1.20211 0
M  V30 31197 C 3078.68 0.624983 1.85346 0
M  V30 31198 C 3079.06 -0.89682 1.91103 0
M  V30 31199 O 3078.41 -1.78958 1.42078 0
M  V30 31200 C 3078.62 1.27577 3.24846 0
M  V30 31201 C 3079.97 1.39284 4.01105 0
M  V30 31202 O 3080.99 1.23218 3.34209 0
M  V30 31203 O 3079.85 1.65269 5.20911 0
M  V30 31204 H 3076.94 0.215979 0.798299 0
M  V30 31205 H 3079.49 1.11671 1.2778 0
M  V30 31206 H 3078.26 2.3155 3.15436 0
M  V30 31207 H 3077.89 0.771289 3.90047 0
M  V30 31208 N 3078.88 -1.36036 0.795742 0
M  V30 31209 C 3080.3 -1.52268 0.478172 0
M  V30 31210 C 3080.5 -1.74793 -1.00247 0
M  V30 31211 O 3079.55 -1.78308 -1.7878 0
M  V30 31212 C 3080.87 -2.70466 1.31411 0
M  V30 31213 C 3082.42 -2.84339 1.30845 0
M  V30 31214 C 3082.89 -4.05548 2.12826 0
M  V30 31215 N 3084.38 -4.12706 2.10305 0
M  V30 31216 C 3085.12 -5.05584 2.70504 0
M  V30 31217 N 3084.61 -6.03865 3.39587 0
M  V30 31218 N 3086.41 -4.98247 2.60204 0
M  V30 31219 H 3078.56 -1.1967 1.75479 0
M  V30 31220 H 3080.82 -0.584611 0.74628 0
M  V30 31221 H 3080.53 -2.60363 2.3644 0
M  V30 31222 H 3080.4 -3.64785 0.95979 0
M  V30 31223 H 3082.79 -2.93898 0.266055 0
M  V30 31224 H 3082.87 -1.90909 1.70257 0
M  V30 31225 H 3082.51 -3.96749 3.171 0
M  V30 31226 H 3082.44 -4.98138 1.70781 0
M  V30 31227 H 3084.93 -3.42342 1.60032 0
M  V30 31228 H 3085.25 -6.7131 3.82835 0
M  V30 31229 H 3083.59 -6.04071 3.4369 0
M  V30 31230 H 3086.78 -4.20418 2.0583 0
M  V30 31231 H 3086.95 -5.70441 3.0741 0
M  V30 31232 N 3080.36 -0.5483 -1.47755 0
M  V30 31233 C 3081.29 0.192799 -2.32703 0
M  V30 31234 C 3082.27 0.917432 -1.43238 0
M  V30 31235 O 3083.46 0.899639 -1.72105 0
M  V30 31236 C 3080.59 1.22885 -3.24833 0
M  V30 31237 C 3079.54 0.621237 -4.23467 0
M  V30 31238 C 3078.87 1.76128 -5.04859 0
M  V30 31239 C 3080.17 -0.419146 -5.20615 0
M  V30 31240 H 3081.86 -0.516375 -2.94913 0
M  V30 31241 H 3079.41 -0.249775 -1.41817 0
M  V30 31242 H 3081.36 1.7554 -3.83097 0
M  V30 31243 H 3080.08 1.96785 -2.60659 0
M  V30 31244 H 3078.74 0.116059 -3.66416 0
M  V30 31245 H 3078.39 2.4891 -4.37096 0
M  V30 31246 H 3078.09 1.36055 -5.71632 0
M  V30 31247 H 3079.61 2.29126 -5.6598 0
M  V30 31248 H 3081.03 0.0210026 -5.73296 0
M  V30 31249 H 3079.43 -0.738267 -5.95541 0
M  V30 31250 H 3080.5 -1.3183 -4.66636 0
M  V30 31251 N 3081.84 1.55014 -0.28431 0
M  V30 31252 C 3082.79 2.22887 0.599155 0
M  V30 31253 C 3083.76 1.20555 1.14262 0
M  V30 31254 O 3084.94 1.49125 1.19023 0
M  V30 31255 C 3082.08 2.96065 1.77312 0
M  V30 31256 C 3081.19 4.13136 1.26264 0
M  V30 31257 C 3080.33 4.73936 2.39913 0
M  V30 31258 C 3079.37 5.83183 1.85914 0
M  V30 31259 N 3078.5 6.38007 2.93072 0
M  V30 31260 H 3083.34 2.97997 0.0137292 0
M  V30 31261 H 3080.88 1.47099 -0.00499088 0
M  V30 31262 H 3082.84 3.36714 2.46333 0
M  V30 31263 H 3081.47 2.23362 2.33043 0
M  V30 31264 H 3080.52 3.77544 0.46523 0
M  V30 31265 H 3081.83 4.91893 0.827197 0
M  V30 31266 H 3080.99 5.17351 3.16911 0
M  V30 31267 H 3079.73 3.94475 2.86777 0
M  V30 31268 H 3078.73 5.39208 1.074 0
M  V30 31269 H 3079.96 6.64518 1.39975 0
M  V30 31270 H 3077.9 5.61437 3.39301 0
M  V30 31271 H 3077.82 7.12063 2.53974 0
M  V30 31272 H 3079.09 6.86081 3.70018 0
M  V30 31273 N 3083.32 0.0117398 1.57596 0
M  V30 31274 C 3084.73 -0.52949 1.79034 0
M  V30 31275 C 3085.08 -1.73275 0.920329 0
M  V30 31276 O 3084.2 -2.16033 0.125972 0
M  V30 31277 C 3084.8 -0.967348 3.24697 0
M  V30 31278 C 3083.36 -1.4538 3.47191 0
M  V30 31279 C 3082.5 -0.410418 2.74246 0
M  V30 31280 H 3085.46 0.237863 1.56907 0
M  V30 31281 H 3085.48 -1.83273 3.33454 0
M  V30 31282 H 3084.99 -0.0913923 3.87992 0
M  V30 31283 H 3083.09 -2.35027 2.89125 0
M  V30 31284 H 3083.2 -1.47317 4.55889 0
M  V30 31285 H 3081.57 -0.874678 2.3921 0
M  V30 31286 H 3082.35 0.456772 3.40248 0
M  V30 31287 N 3084.79 -1.55421 -0.261185 0
M  V30 31288 C 3085.72 -1.92121 -1.32709 0
M  V30 31289 C 3086.71 -0.784433 -1.50933 0
M  V30 31290 O 3087.89 -1.04355 -1.63779 0
M  V30 31291 C 3085.02 -2.20346 -2.68449 0
M  V30 31292 C 3083.97 -3.36141 -2.64941 0
M  V30 31293 C 3083.3 -3.49872 -4.04343 0
M  V30 31294 C 3084.6 -4.72219 -2.23174 0
M  V30 31295 H 3086.29 -2.81402 -1.0224 0
M  V30 31296 H 3083.84 -1.35393 -0.490382 0
M  V30 31297 H 3085.79 -2.44609 -3.43139 0
M  V30 31298 H 3084.52 -1.27876 -3.00525 0
M  V30 31299 H 3083.18 -3.11864 -1.92708 0
M  V30 31300 H 3082.82 -2.54848 -4.33661 0
M  V30 31301 H 3082.52 -4.27733 -4.02887 0
M  V30 31302 H 3084.05 -3.76441 -4.80754 0
M  V30 31303 H 3085.46 -4.95948 -2.87591 0
M  V30 31304 H 3083.86 -5.5308 -2.32858 0
M  V30 31305 H 3084.93 -4.70243 -1.18318 0
M  V30 31306 N 3086.27 0.526227 -1.48555 0
M  V30 31307 C 3087.22 1.63043 -1.63357 0
M  V30 31308 C 3088.19 1.59147 -0.475537 0
M  V30 31309 O 3089.37 1.77516 -0.699484 0
M  V30 31310 C 3086.51 3.01292 -1.68277 0
M  V30 31311 C 3085.63 3.15394 -2.95213 0
M  V30 31312 C 3084.76 4.44225 -2.91269 0
M  V30 31313 C 3083.8 4.51869 -4.12894 0
M  V30 31314 N 3082.94 5.72093 -4.07006 0
M  V30 31315 H 3087.78 1.49732 -2.57651 0
M  V30 31316 H 3085.32 0.728916 -1.2777 0
M  V30 31317 H 3087.27 3.81389 -1.69111 0
M  V30 31318 H 3085.9 3.13366 -0.774696 0
M  V30 31319 H 3084.96 2.28525 -3.04106 0
M  V30 31320 H 3086.27 3.16904 -3.85193 0
M  V30 31321 H 3085.42 5.32616 -2.90526 0
M  V30 31322 H 3084.16 4.45242 -1.99024 0
M  V30 31323 H 3083.17 3.61884 -4.13908 0
M  V30 31324 H 3084.39 4.52587 -5.06302 0
M  V30 31325 H 3082.34 5.74001 -3.17583 0
M  V30 31326 H 3082.25 5.75112 -4.90695 0
M  V30 31327 H 3083.52 6.62761 -4.10327 0
M  V30 31328 N 3087.75 1.37206 0.775387 0
M  V30 31329 C 3088.68 1.2704 1.89568 0
M  V30 31330 C 3089.66 0.151671 1.61891 0
M  V30 31331 O 3090.85 0.32525 1.85673 0
M  V30 31332 C 3087.97 0.963373 3.2471 0
M  V30 31333 C 3087.02 2.09849 3.71303 0
M  V30 31334 S 3087.85 3.71785 3.85404 0
M  V30 31335 C 3089.01 3.43225 5.234 0
M  V30 31336 H 3089.24 2.21861 1.97902 0
M  V30 31337 H 3086.77 1.22786 0.936105 0
M  V30 31338 H 3088.73 0.793054 4.02767 0
M  V30 31339 H 3087.39 0.0327113 3.14083 0
M  V30 31340 H 3086.59 1.83858 4.69268 0
M  V30 31341 H 3086.19 2.22875 3.00338 0
M  V30 31342 H 3088.48 2.97988 6.08448 0
M  V30 31343 H 3089.42 4.40505 5.54402 0
M  V30 31344 H 3089.83 2.7824 4.91165 0
M  V30 31345 N 3089.23 -1.00115 1.21716 0
M  V30 31346 C 3090.16 -2.10813 1.004 0
M  V30 31347 C 3091.14 -1.69946 -0.0723203 0
M  V30 31348 O 3092.32 -1.93999 0.0882739 0
M  V30 31349 C 3089.45 -3.42556 0.572061 0
M  V30 31350 C 3088.41 -3.97235 1.59338 0
M  V30 31351 C 3087.73 -5.24929 1.01755 0
M  V30 31352 C 3089.03 -4.28858 2.98125 0
M  V30 31353 H 3090.73 -2.28903 1.92987 0
M  V30 31354 H 3088.27 -1.10001 0.929292 0
M  V30 31355 H 3090.23 -4.194 0.410092 0
M  V30 31356 H 3088.95 -3.2427 -0.389453 0
M  V30 31357 H 3087.61 -3.22515 1.74298 0
M  V30 31358 H 3087.26 -5.02977 0.0476375 0
M  V30 31359 H 3086.96 -5.62478 1.69979 0
M  V30 31360 H 3088.48 -6.04414 0.866987 0
M  V30 31361 H 3089.9 -4.96529 2.86586 0
M  V30 31362 H 3088.29 -4.77559 3.63397 0
M  V30 31363 H 3089.36 -3.36973 3.4868 0
M  V30 31364 N 3090.71 -1.02553 -1.19669 0
M  V30 31365 C 3091.62 -0.613368 -2.2644 0
M  V30 31366 C 3092.63 0.353309 -1.70375 0
M  V30 31367 O 3093.81 0.212029 -2.00281 0
M  V30 31368 C 3090.87 0.0328419 -3.46684 0
M  V30 31369 C 3089.94 -0.980911 -4.17943 0
M  V30 31370 C 3089.17 -0.365443 -5.32447 0
M  V30 31371 O 3089.39 0.832497 -5.64292 0
M  V30 31372 O 3088.33 -1.08662 -5.9201 0
M  V30 31373 H 3092.15 -1.5025 -2.63929 0
M  V30 31374 H 3089.74 -0.795524 -1.26459 0
M  V30 31375 H 3091.62 0.393321 -4.1956 0
M  V30 31376 H 3090.29 0.896034 -3.11051 0
M  V30 31377 H 3089.2 -1.39292 -3.47201 0
M  V30 31378 H 3090.53 -1.81436 -4.57539 0
M  V30 31379 N 3092.19 1.35612 -0.802945 0
M  V30 31380 C 3093.1 2.33638 -0.212218 0
M  V30 31381 C 3094.11 1.6169 0.642842 0
M  V30 31382 O 3095.29 1.93589 0.555451 0
M  V30 31383 C 3092.35 3.40885 0.632346 0
M  V30 31384 C 3091.41 4.28613 -0.242783 0
M  V30 31385 C 3090.65 5.30737 0.561567 0
M  V30 31386 O 3090.87 5.41369 1.79654 0
M  V30 31387 O 3089.8 6.01883 -0.0456445 0
M  V30 31388 H 3093.63 2.8595 -1.02305 0
M  V30 31389 H 3091.21 1.38318 -0.564661 0
M  V30 31390 H 3093.1 4.06422 1.11351 0
M  V30 31391 H 3091.77 2.9085 1.42084 0
M  V30 31392 H 3090.68 3.66069 -0.771005 0
M  V30 31393 H 3092.01 4.82035 -0.99513 0
M  V30 31394 N 3093.66 0.556128 1.47462 0
M  V30 31395 C 3094.61 -0.205258 2.31693 0
M  V30 31396 C 3095.61 -0.910369 1.42859 0
M  V30 31397 O 3096.81 -0.831778 1.59629 0
M  V30 31398 H 3093.19 -0.0850644 0.747173 0
M  V30 31399 H 3095.16 0.524356 2.93757 0
M  V30 31400 C 3093.91 -1.22278 3.2549 0
M  V30 31401 H 3093.23 -0.689628 3.93807 0
M  V30 31402 H 3094.67 -1.72643 3.8726 0
M  V30 31403 C 3093.13 -2.27008 2.48935 0
M  V30 31404 O 3093.66 -3.33915 2.23302 0
M  V30 31405 N 3091.86 -2.00907 2.09963 0
M  V30 31406 H 3091.41 -1.13982 2.3101 0
M  V30 31407 H 3091.37 -2.71197 1.59058 0
M  V30 31408 N 3095.14 -1.54861 0.292527 0
M  V30 31409 C 3096.07 -2.26166 -0.580638 0
M  V30 31410 C 3097.05 -1.25808 -1.14483 0
M  V30 31411 O 3098.24 -1.54564 -1.17574 0
M  V30 31412 C 3095.37 -2.996 -1.75663 0
M  V30 31413 C 3094.32 -4.07033 -1.32318 0
M  V30 31414 C 3093.65 -4.68136 -2.58366 0
M  V30 31415 C 3094.95 -5.20265 -0.460612 0
M  V30 31416 H 3096.64 -2.99397 0.0140601 0
M  V30 31417 H 3094.19 -1.43998 0.00820238 0
M  V30 31418 H 3096.14 -3.482 -2.3735 0
M  V30 31419 H 3094.86 -2.23932 -2.37743 0
M  V30 31420 H 3093.52 -3.5927 -0.729414 0
M  V30 31421 H 3093.17 -3.89118 -3.18742 0
M  V30 31422 H 3092.87 -5.40687 -2.30069 0
M  V30 31423 H 3094.4 -5.19494 -3.20871 0
M  V30 31424 H 3095.81 -5.64811 -0.982938 0
M  V30 31425 H 3094.21 -5.99484 -0.271776 0
M  V30 31426 H 3095.28 -4.82143 0.516388 0
M  V30 31427 N 3096.62 -0.0200973 -1.57587 0
M  V30 31428 C 3097.84 0.674513 -1.96125 0
M  V30 31429 C 3098.27 1.65384 -0.896097 0
M  V30 31430 O 3097.63 1.80728 0.143894 0
M  V30 31431 C 3097.68 1.36511 -3.33762 0
M  V30 31432 O 3096.78 2.48016 -3.29487 0
M  V30 31433 H 3096.12 0.177908 -0.639722 0
M  V30 31434 H 3098.65 -0.0792677 -2.04446 0
M  V30 31435 H 3098.66 1.72397 -3.69788 0
M  V30 31436 H 3097.34 0.647193 -4.10834 0
M  V30 31437 H 3095.91 2.14309 -3.05166 0
M  V30 31438 N 3098.1 1.55557 0.252939 0
M  V30 31439 C 3099.51 1.47846 0.601154 0
M  V30 31440 C 3099.71 0.709088 1.88611 0
M  V30 31441 O 3098.77 0.236008 2.51395 0
M  V30 31442 C 3100.08 2.9221 0.709488 0
M  V30 31443 C 3101.63 3.02545 0.802215 0
M  V30 31444 C 3102.11 4.48205 0.942161 0
M  V30 31445 N 3103.6 4.52117 1.00718 0
M  V30 31446 C 3104.33 5.62062 1.13462 0
M  V30 31447 N 3103.83 6.8183 1.22799 0
M  V30 31448 N 3105.62 5.49846 1.16731 0
M  V30 31449 H 3097.77 2.04022 -0.590671 0
M  V30 31450 H 3100.03 0.92601 -0.203002 0
M  V30 31451 H 3099.74 3.51315 -0.164566 0
M  V30 31452 H 3099.61 3.42358 1.58337 0
M  V30 31453 H 3102 2.43525 1.66673 0
M  V30 31454 H 3102.08 2.55617 -0.0966918 0
M  V30 31455 H 3101.73 5.07833 0.0822316 0
M  V30 31456 H 3101.66 4.92808 1.85602 0
M  V30 31457 H 3104.15 3.65852 0.94662 0
M  V30 31458 H 3104.46 7.61372 1.32413 0
M  V30 31459 H 3102.81 6.84603 1.19767 0
M  V30 31460 H 3106 4.55213 1.09081 0
M  V30 31461 H 3106.17 6.35569 1.26318 0
M  V30 31462 N 3099.58 -0.518341 1.48832 0
M  V30 31463 C 3100.52 -1.64265 1.64681 0
M  V30 31464 C 3101.52 -1.61446 0.512995 0
M  V30 31465 O 3102.72 -1.66163 0.692092 0
M  V30 31466 H 3099.1 -0.544215 0.518974 0
M  V30 31467 H 3101.07 -1.48045 2.59085 0
M  V30 31468 C 3099.82 -3.02487 1.71454 0
M  V30 31469 H 3099.14 -3.05356 2.58066 0
M  V30 31470 H 3100.58 -3.80739 1.86584 0
M  V30 31471 C 3099.04 -3.33805 0.455643 0
M  V30 31472 O 3099.57 -3.99431 -0.426357 0
M  V30 31473 N 3097.78 -2.8879 0.323814 0
M  V30 31474 H 3097.32 -2.35561 1.04253 0
M  V30 31475 H 3097.28 -3.10112 -0.517459 0
M  V30 31476 N 3101.05 -1.37615 -0.7681 0
M  V30 31477 C 3101.98 -1.36377 -1.89535 0
M  V30 31478 C 3102.96 -0.231833 -1.68513 0
M  V30 31479 O 3104.15 -0.432738 -1.89317 0
M  V30 31480 C 3101.28 -1.17363 -3.26869 0
M  V30 31481 C 3100.23 -2.27608 -3.62462 0
M  V30 31482 C 3099.56 -1.93714 -4.98377 0
M  V30 31483 C 3100.86 -3.69809 -3.68834 0
M  V30 31484 H 3102.55 -2.30705 -1.90828 0
M  V30 31485 H 3100.1 -1.11052 -0.916701 0
M  V30 31486 H 3102.05 -1.15126 -4.05369 0
M  V30 31487 H 3100.78 -0.194922 -3.26018 0
M  V30 31488 H 3099.44 -2.29007 -2.86272 0
M  V30 31489 H 3099.08 -0.943626 -4.9407 0
M  V30 31490 H 3098.78 -2.67539 -5.2316 0
M  V30 31491 H 3100.31 -1.9307 -5.79272 0
M  V30 31492 H 3101.72 -3.7052 -4.37479 0
M  V30 31493 H 3100.12 -4.42718 -4.05118 0
M  V30 31494 H 3101.19 -4.03172 -2.69408 0
M  V30 31495 N 3102.53 0.994677 -1.22245 0
M  V30 31496 C 3103.76 1.77485 -1.07302 0
M  V30 31497 C 3104.18 1.84379 0.37227 0
M  V30 31498 O 3103.54 1.29496 1.26888 0
M  V30 31499 C 3103.59 3.18715 -1.6868 0
M  V30 31500 O 3102.69 4.01561 -0.939272 0
M  V30 31501 H 3102.03 0.546604 -0.376988 0
M  V30 31502 H 3104.56 1.24962 -1.62005 0
M  V30 31503 H 3104.57 3.69351 -1.73331 0
M  V30 31504 H 3103.25 3.13012 -2.73855 0
M  V30 31505 H 3101.82 3.60099 -0.968647 0
M  V30 31506 N 3104.01 1.03186 1.19123 0
M  V30 31507 C 3104.92 0.625369 2.26111 0
M  V30 31508 C 3105.94 -0.344268 1.7056 0
M  V30 31509 O 3107.11 -0.201404 2.0039 0
M  V30 31510 C 3104.18 -0.0144559 3.46697 0
M  V30 31511 C 3103.24 1.00306 4.17417 0
M  V30 31512 C 3102.47 0.393675 5.32246 0
M  V30 31513 O 3102.69 -0.802559 5.64726 0
M  V30 31514 O 3101.63 1.118 5.91426 0
M  V30 31515 H 3105.45 1.51648 2.63129 0
M  V30 31516 H 3103.04 0.80222 1.26035 0
M  V30 31517 H 3104.92 -0.371065 4.19763 0
M  V30 31518 H 3103.6 -0.879526 3.11522 0
M  V30 31519 H 3102.5 1.41131 3.46458 0
M  V30 31520 H 3103.84 1.8386 4.5657 0
M  V30 31521 N 3105.49 -1.35184 0.810125 0
M  V30 31522 C 3106.74 -1.97921 0.388624 0
M  V30 31523 C 3107.05 -1.6498 -1.05076 0
M  V30 31524 O 3108.26 -2.21108 -1.57555 0
M  V30 31525 C 3106.71 -3.54093 0.643926 0
M  V30 31526 C 3106.32 -3.9594 2.09609 0
M  V30 31527 C 3108.06 -4.23522 0.287958 0
M  V30 31528 C 3105.97 -5.44972 2.29695 0
M  V30 31529 H 3104.9 -0.740589 0.141575 0
M  V30 31530 H 3107.55 -1.54202 0.99468 0
M  V30 31531 H 3105.93 -3.95987 -0.0321282 0
M  V30 31532 H 3107.11 -3.65187 2.81025 0
M  V30 31533 H 3105.42 -3.3941 2.41226 0
M  V30 31534 H 3108.02 -5.33079 0.416039 0
M  V30 31535 H 3108.36 -4.09188 -0.766233 0
M  V30 31536 H 3108.9 -3.87061 0.918072 0
M  V30 31537 H 3105.64 -5.64278 3.33573 0
M  V30 31538 H 3105.16 -5.77281 1.62808 0
M  V30 31539 H 3106.83 -6.11482 2.11422 0
M  V30 31540 N 3106.97 -0.56394 -1.47165 0
M  V30 31541 C 3107.91 0.179973 -2.30097 0
M  V30 31542 C 3108.88 0.901995 -1.39475 0
M  V30 31543 O 3110.07 0.896366 -1.68434 0
M  V30 31544 C 3107.21 1.19972 -3.23575 0
M  V30 31545 C 3106.32 0.483073 -4.29291 0
M  V30 31546 C 3105.46 1.4887 -5.09913 0
M  V30 31547 C 3104.5 0.757406 -6.07396 0
M  V30 31548 N 3103.63 1.71019 -6.80953 0
M  V30 31549 H 3108.47 -0.533341 -2.93188 0
M  V30 31550 H 3106.01 -0.27484 -1.4451 0
M  V30 31551 H 3107.97 1.80361 -3.76199 0
M  V30 31552 H 3106.6 1.88098 -2.62334 0
M  V30 31553 H 3105.65 -0.235481 -3.7967 0
M  V30 31554 H 3106.96 -0.0894952 -4.9872 0
M  V30 31555 H 3106.12 2.16593 -5.66721 0
M  V30 31556 H 3104.85 2.09519 -4.40401 0
M  V30 31557 H 3103.86 0.0662874 -5.4976 0
M  V30 31558 H 3105.08 0.156566 -6.78919 0
M  V30 31559 H 3103.03 2.30513 -6.14166 0
M  V30 31560 H 3102.95 1.18994 -7.46576 0
M  V30 31561 H 3104.22 2.37835 -7.4233 0
M  V30 31562 N 3108.44 1.54704 -0.300735 0
M  V30 31563 C 3109.37 2.2647 0.568635 0
M  V30 31564 C 3110.36 1.26413 1.13814 0
M  V30 31565 O 3111.54 1.55185 1.16753 0
M  V30 31566 C 3108.67 3.00527 1.74071 0
M  V30 31567 C 3107.62 4.07729 1.30158 0
M  V30 31568 C 3106.95 4.69499 2.5588 0
M  V30 31569 C 3108.25 5.20502 0.433015 0
M  V30 31570 H 3109.94 2.99385 -0.0299377 0
M  V30 31571 H 3107.49 1.43991 -0.0158388 0
M  V30 31572 H 3109.44 3.49453 2.355 0
M  V30 31573 H 3108.17 2.2519 2.36552 0
M  V30 31574 H 3106.83 3.59652 0.71035 0
M  V30 31575 H 3106.47 3.90802 3.16674 0
M  V30 31576 H 3106.17 5.41899 2.27198 0
M  V30 31577 H 3107.7 5.21189 3.18111 0
M  V30 31578 H 3109.11 5.65324 0.95297 0
M  V30 31579 H 3107.51 5.9962 0.23998 0
M  V30 31580 H 3108.58 4.81862 -0.54195 0
M  V30 31581 N 3109.92 0.0284543 1.57574 0
M  V30 31582 C 3110.85 -0.952002 2.13212 0
M  V30 31583 C 3111.83 -1.33975 1.04808 0
M  V30 31584 O 3113.02 -1.41849 1.32637 0
M  V30 31585 C 3110.15 -2.23456 2.65866 0
M  V30 31586 C 3109.1 -1.98758 3.7905 0
M  V30 31587 C 3108.43 -3.33274 4.1813 0
M  V30 31588 C 3109.73 -1.3273 5.05153 0
M  V30 31589 H 3111.42 -0.488653 2.95385 0
M  V30 31590 H 3108.97 -0.233603 1.42093 0
M  V30 31591 H 3110.92 -2.92426 3.03423 0
M  V30 31592 H 3109.65 -2.71956 1.80852 0
M  V30 31593 H 3108.3 -1.32207 3.41931 0
M  V30 31594 H 3107.95 -3.79531 3.30099 0
M  V30 31595 H 3107.65 -3.17555 4.94401 0
M  V30 31596 H 3109.18 -4.03512 4.58269 0
M  V30 31597 H 3110.59 -1.91698 5.403 0
M  V30 31598 H 3108.99 -1.27411 5.86418 0
M  V30 31599 H 3110.06 -0.300176 4.8397 0
M  V30 31600 N 3111.4 -1.55689 -0.244686 0
M  V30 31601 C 3112.65 -1.76826 -0.970341 0
M  V30 31602 C 3112.96 -0.592797 -1.86401 0
M  V30 31603 O 3114.17 -0.687232 -2.62658 0
M  V30 31604 C 3112.62 -3.13061 -1.77541 0
M  V30 31605 C 3112.23 -4.38261 -0.929027 0
M  V30 31606 C 3113.98 -3.43535 -2.49367 0
M  V30 31607 C 3111.88 -5.65527 -1.73012 0
M  V30 31608 H 3110.81 -0.659192 -0.366036 0
M  V30 31609 H 3113.46 -1.82116 -0.224932 0
M  V30 31610 H 3111.85 -3.01883 -2.56286 0
M  V30 31611 H 3113.02 -4.60433 -0.183755 0
M  V30 31612 H 3111.34 -4.15138 -0.323998 0
M  V30 31613 H 3113.93 -4.35836 -3.0976 0
M  V30 31614 H 3114.28 -2.64961 -3.21094 0
M  V30 31615 H 3114.81 -3.55938 -1.77631 0
M  V30 31616 H 3111.55 -6.46929 -1.05655 0
M  V30 31617 H 3111.07 -5.47453 -2.45061 0
M  V30 31618 H 3112.75 -6.04864 -2.29669 0
M  V30 31619 N 3112.88 0.510441 -1.49105 0
M  V30 31620 C 3114.1 1.29414 -1.6207 0
M  V30 31621 C 3114.53 1.85875 -0.288465 0
M  V30 31622 O 3113.89 1.65392 0.742637 0
M  V30 31623 C 3113.93 2.40697 -2.6851 0
M  V30 31624 O 3113.04 3.44286 -2.27027 0
M  V30 31625 H 3112.38 0.382467 -0.542785 0
M  V30 31626 H 3114.91 0.612119 -1.95229 0
M  V30 31627 H 3114.92 2.86599 -2.90388 0
M  V30 31628 H 3113.59 1.98967 -3.65219 0
M  V30 31629 H 3112.17 3.04367 -2.15442 0
M  V30 31630 N 3114.36 1.38021 0.760791 0
M  V30 31631 C 3115.29 1.30553 1.88384 0
M  V30 31632 C 3116.3 0.219147 1.61318 0
M  V30 31633 O 3117.49 0.476152 1.72032 0
M  V30 31634 C 3114.59 0.998348 3.23861 0
M  V30 31635 C 3113.76 2.19239 3.78488 0
M  V30 31636 C 3112.82 1.85377 4.92465 0
M  V30 31637 O 3111.85 2.57794 5.07475 0
M  V30 31638 N 3113.05 0.80442 5.74899 0
M  V30 31639 H 3115.82 2.27325 1.95304 0
M  V30 31640 H 3113.38 1.31788 0.9404 0
M  V30 31641 H 3115.37 0.75247 3.97643 0
M  V30 31642 H 3113.94 0.118825 3.12374 0
M  V30 31643 H 3113.16 2.59936 2.96356 0
M  V30 31644 H 3114.45 2.98943 4.11717 0
M  V30 31645 H 3113.84 0.203727 5.65333 0
M  V30 31646 H 3112.4 0.618415 6.4886 0
M  V30 31647 N 3115.83 -0.98818 1.22771 0
M  V30 31648 C 3116.8 -2.06075 1.00329 0
M  V30 31649 C 3117.8 -1.60768 -0.0320335 0
M  V30 31650 O 3118.99 -1.72966 0.206943 0
M  V30 31651 C 3116.12 -3.36966 0.516436 0
M  V30 31652 H 3117.31 -2.27418 1.95503 0
M  V30 31653 H 3114.87 -1.16045 1.04706 0
M  V30 31654 H 3115.6 -3.21309 -0.439441 0
M  V30 31655 H 3115.39 -3.71187 1.26344 0
M  V30 31656 H 3116.88 -4.15869 0.379813 0
M  V30 31657 N 3117.31 -1.03816 -1.18575 0
M  V30 31658 C 3118.73 -0.756934 -1.40509 0
M  V30 31659 C 3118.93 0.654598 -1.90571 0
M  V30 31660 O 3117.98 1.41918 -2.08843 0
M  V30 31661 C 3119.3 -1.80091 -2.40806 0
M  V30 31662 C 3120.85 -1.82153 -2.54538 0
M  V30 31663 C 3121.32 -2.85535 -3.58097 0
M  V30 31664 N 3122.81 -2.8441 -3.65602 0
M  V30 31665 C 3123.55 -3.61055 -4.45451 0
M  V30 31666 N 3123.04 -4.47444 -5.28929 0
M  V30 31667 N 3124.84 -3.49555 -4.4019 0
M  V30 31668 H 3116.99 -1.9491 -0.84404 0
M  V30 31669 H 3119.25 -0.843196 -0.433272 0
M  V30 31670 H 3118.96 -2.81326 -2.11065 0
M  V30 31671 H 3118.83 -1.63095 -3.40118 0
M  V30 31672 H 3121.22 -0.815905 -2.83597 0
M  V30 31673 H 3121.3 -2.03225 -1.55348 0
M  V30 31674 H 3120.94 -3.86275 -3.29779 0
M  V30 31675 H 3120.87 -2.61718 -4.56959 0
M  V30 31676 H 3123.36 -2.21762 -3.0599 0
M  V30 31677 H 3123.68 -5.02642 -5.87001 0
M  V30 31678 H 3122.02 -4.51512 -5.28358 0
M  V30 31679 H 3125.21 -2.81471 -3.74021 0
M  V30 31680 H 3125.38 -4.09537 -5.02179 0
M  V30 31681 N 3118.79 1.34753 -0.817283 0
M  V30 31682 C 3119.74 2.29619 -0.233148 0
M  V30 31683 C 3120.71 1.53322 0.638875 0
M  V30 31684 O 3121.89 1.81716 0.581707 0
M  V30 31685 C 3119.03 3.3978 0.6036 0
M  V30 31686 C 3118.15 4.31025 -0.290042 0
M  V30 31687 C 3117.28 5.28285 0.555732 0
M  V30 31688 C 3116.32 6.11168 -0.337647 0
M  V30 31689 N 3115.46 7.00534 0.468724 0
M  V30 31690 H 3120.3 2.78982 -1.04752 0
M  V30 31691 H 3117.83 1.37294 -0.52808 0
M  V30 31692 H 3119.79 4.02328 1.104 0
M  V30 31693 H 3118.42 2.91666 1.38313 0
M  V30 31694 H 3117.47 3.69389 -0.908617 0
M  V30 31695 H 3118.79 4.89134 -0.977222 0
M  V30 31696 H 3117.94 5.96257 1.12083 0
M  V30 31697 H 3116.68 4.707 1.27644 0
M  V30 31698 H 3115.68 5.42134 -0.914934 0
M  V30 31699 H 3116.91 6.70833 -1.05638 0
M  V30 31700 H 3114.85 6.45424 1.17321 0
M  V30 31701 H 3114.77 7.5583 -0.160184 0
M  V30 31702 H 3116.04 7.7284 1.01676 0
M  V30 31703 N 3120.27 0.571737 1.46864 0
M  V30 31704 C 3121.2 -0.205439 2.28277 0
M  V30 31705 C 3122.21 -0.86581 1.37868 0
M  V30 31706 O 3123.4 -0.737218 1.62565 0
M  V30 31707 C 3120.5 -1.3096 3.12574 0
M  V30 31708 C 3119.68 -0.743252 4.31039 0
M  V30 31709 C 3118.74 -1.73373 4.96818 0
M  V30 31710 O 3117.76 -1.2741 5.54757 0
M  V30 31711 N 3118.96 -3.06755 4.9283 0
M  V30 31712 H 3121.73 0.492992 2.95617 0
M  V30 31713 H 3119.29 0.408771 1.56655 0
M  V30 31714 H 3121.28 -1.97125 3.53446 0
M  V30 31715 H 3119.85 -1.91105 2.47381 0
M  V30 31716 H 3119.07 0.0955697 3.94084 0
M  V30 31717 H 3120.36 -0.344467 5.07633 0
M  V30 31718 H 3119.76 -3.4673 4.46984 0
M  V30 31719 H 3118.31 -3.68439 5.37676 0
M  V30 31720 N 3121.75 -1.54542 0.308935 0
M  V30 31721 C 3122.71 -2.22483 -0.550818 0
M  V30 31722 C 3123.71 -1.21345 -1.05508 0
M  V30 31723 O 3124.9 -1.46026 -0.94984 0
M  V30 31724 C 3122.03 -2.91743 -1.76349 0
M  V30 31725 H 3123.23 -2.99869 0.0428922 0
M  V30 31726 H 3120.78 -1.56185 0.0598524 0
M  V30 31727 H 3121.51 -2.18456 -2.39682 0
M  V30 31728 H 3121.3 -3.65891 -1.40947 0
M  V30 31729 H 3122.79 -3.43549 -2.37411 0
M  V30 31730 N 3123.23 -0.0368104 -1.57557 0
M  V30 31731 C 3124.19 0.927552 -2.09593 0
M  V30 31732 C 3125.19 1.24917 -1.01254 0
M  V30 31733 O 3126.38 1.18823 -1.27384 0
M  V30 31734 C 3123.51 2.24179 -2.5682 0
M  V30 31735 H 3124.7 0.476732 -2.96087 0
M  V30 31736 H 3122.26 0.211357 -1.54864 0
M  V30 31737 H 3122.99 2.73873 -1.73678 0
M  V30 31738 H 3122.78 2.02144 -3.35976 0
M  V30 31739 H 3124.27 2.93286 -2.97276 0
M  V30 31740 N 3124.7 1.55817 0.236426 0
M  V30 31741 C 3125.93 1.82546 0.984458 0
M  V30 31742 C 3126.35 0.615237 1.77754 0
M  V30 31743 O 3125.71 -0.435864 1.75983 0
M  V30 31744 C 3125.76 3.07121 1.88968 0
M  V30 31745 O 3124.86 2.84772 2.98293 0
M  V30 31746 H 3124.2 0.602278 0.279566 0
M  V30 31747 H 3126.73 2.03014 0.254241 0
M  V30 31748 H 3126.74 3.36833 2.30234 0
M  V30 31749 H 3125.42 3.94841 1.30664 0
M  V30 31750 H 3124 2.66255 2.6108 0
M  V30 31751 N 3126.18 -0.502526 1.49373 0
M  V30 31752 C 3127.43 -1.25336 1.58031 0
M  V30 31753 C 3127.74 -1.93706 0.271528 0
M  V30 31754 O 3128.95 -2.70467 0.236632 0
M  V30 31755 C 3127.41 -2.27568 2.78821 0
M  V30 31756 C 3127.01 -1.65144 4.16451 0
M  V30 31757 C 3128.76 -3.03489 2.96807 0
M  V30 31758 C 3126.66 -2.65477 5.28466 0
M  V30 31759 H 3125.59 -0.471484 0.588404 0
M  V30 31760 H 3128.25 -0.527409 1.75757 0
M  V30 31761 H 3126.63 -3.03319 2.54585 0
M  V30 31762 H 3127.8 -0.95395 4.50818 0
M  V30 31763 H 3126.12 -1.01618 4.0381 0
M  V30 31764 H 3128.71 -3.78517 3.77662 0
M  V30 31765 H 3129.06 -3.61011 2.07309 0
M  V30 31766 H 3129.59 -2.34853 3.21075 0
M  V30 31767 H 3126.33 -2.12738 6.20018 0
M  V30 31768 H 3125.85 -3.3347 4.98556 0
M  V30 31769 H 3127.53 -3.27933 5.57736 0
M  V30 31770 N 3127.66 -1.38422 -0.75346 0
M  V30 31771 C 3128.61 -1.35662 -1.8672 0
M  V30 31772 C 3129.58 -0.21915 -1.64648 0
M  V30 31773 O 3130.76 -0.411398 -1.86312 0
M  V30 31774 C 3127.9 -1.18763 -3.24021 0
M  V30 31775 C 3127.01 -2.41898 -3.57924 0
M  V30 31776 C 3126.15 -2.17729 -4.84528 0
M  V30 31777 C 3125.19 -3.36635 -5.11218 0
M  V30 31778 N 3124.33 -3.119 -6.29017 0
M  V30 31779 H 3129.17 -2.30876 -1.88415 0
M  V30 31780 H 3126.7 -1.14707 -0.920913 0
M  V30 31781 H 3128.66 -1.06982 -4.0325 0
M  V30 31782 H 3127.29 -0.271876 -3.21653 0
M  V30 31783 H 3126.34 -2.64352 -2.73537 0
M  V30 31784 H 3127.65 -3.3052 -3.73575 0
M  V30 31785 H 3126.81 -2.03084 -5.71701 0
M  V30 31786 H 3125.55 -1.26473 -4.71016 0
M  V30 31787 H 3124.55 -3.51799 -4.22514 0
M  V30 31788 H 3125.78 -4.28766 -5.26627 0
M  V30 31789 H 3123.72 -2.23291 -6.16828 0
M  V30 31790 H 3123.64 -3.94071 -6.4517 0
M  V30 31791 H 3124.91 -3.00911 -7.19078 0
M  V30 31792 N 3129.14 0.981655 -1.23294 0
M  V30 31793 C 3130.38 1.72533 -1.06585 0
M  V30 31794 C 3130.72 1.90109 0.396505 0
M  V30 31795 O 3129.99 1.45245 1.29361 0
M  V30 31796 C 3130.27 3.12434 -1.79045 0
M  V30 31797 C 3130.13 3.02435 -3.32946 0
M  V30 31798 C 3131.45 4.11829 -1.55193 0
M  V30 31799 H 3128.57 0.626229 -0.388596 0
M  V30 31800 H 3131.21 1.14291 -1.51781 0
M  V30 31801 H 3129.36 3.62156 -1.40625 0
M  V30 31802 H 3131.03 2.60247 -3.80879 0
M  V30 31803 H 3129.27 2.38971 -3.62043 0
M  V30 31804 H 3129.94 4.01483 -3.78834 0
M  V30 31805 H 3132.42 3.7091 -1.88587 0
M  V30 31806 H 3131.3 5.07812 -2.08371 0
M  V30 31807 H 3131.56 4.39409 -0.487002 0
M  V30 31808 N 3130.62 1.04444 1.18022 0
M  V30 31809 C 3131.58 0.643174 2.19991 0
M  V30 31810 C 3132.58 -0.301416 1.5795 0
M  V30 31811 O 3133.77 -0.0863035 1.73986 0
M  V30 31812 C 3130.9 -0.0564609 3.40853 0
M  V30 31813 H 3132.09 1.54559 2.57005 0
M  V30 31814 H 3129.65 0.837432 1.31973 0
M  V30 31815 H 3130.38 -0.972499 3.09375 0
M  V30 31816 H 3130.17 0.622507 3.87127 0
M  V30 31817 H 3131.66 -0.323579 4.16344 0
M  V30 31818 N 3132.09 -1.34317 0.824418 0
M  V30 31819 C 3133.34 -1.98533 0.413814 0
M  V30 31820 C 3133.67 -1.65203 -1.02086 0
M  V30 31821 O 3132.95 -0.924432 -1.71127 0
M  V30 31822 C 3133.23 -3.54756 0.618073 0
M  V30 31823 C 3133.08 -3.97823 2.09897 0
M  V30 31824 C 3134.4 -4.40066 0.0549815 0
M  V30 31825 H 3131.52 -0.721192 0.151828 0
M  V30 31826 H 3134.16 -1.59188 1.03726 0
M  V30 31827 H 3132.31 -3.88402 0.087379 0
M  V30 31828 H 3133.99 -3.74504 2.69341 0
M  V30 31829 H 3132.23 -3.4808 2.58887 0
M  V30 31830 H 3132.9 -5.06582 2.19269 0
M  V30 31831 H 3135.38 -4.12982 0.508421 0
M  V30 31832 H 3134.25 -5.48428 0.227691 0
M  V30 31833 H 3134.51 -4.29689 -1.04017 0
M  V30 31834 N 3133.57 -0.579517 -1.46558 0
M  V30 31835 C 3134.8 -0.067496 -2.0729 0
M  V30 31836 C 3135.22 1.22674 -1.42593 0
M  V30 31837 O 3134.58 1.7402 -0.5086 0
M  V30 31838 C 3134.63 0.0881594 -3.60492 0
M  V30 31839 O 3133.73 1.14544 -3.96174 0
M  V30 31840 H 3133.07 -0.0613652 -0.661158 0
M  V30 31841 H 3135.6 -0.801552 -1.88245 0
M  V30 31842 H 3135.61 0.295339 -4.0693 0
M  V30 31843 H 3134.29 -0.857015 -4.06974 0
M  V30 31844 H 3132.86 0.916969 -3.6145 0
M  V30 31845 N 3135.05 1.54376 -0.317127 0
M  V30 31846 C 3136.01 2.22772 0.539011 0
M  V30 31847 C 3137.01 1.21903 1.04863 0
M  V30 31848 O 3138.2 1.46528 0.942083 0
M  V30 31849 C 3135.34 2.92674 1.74799 0
M  V30 31850 H 3136.53 2.99842 -0.0587944 0
M  V30 31851 H 3134.08 1.56151 -0.0681345 0
M  V30 31852 H 3134.82 2.19724 2.3852 0
M  V30 31853 H 3134.6 3.66633 1.39005 0
M  V30 31854 H 3136.09 3.44803 2.35586 0
M  V30 31855 N 3136.53 0.0451655 1.57535 0
M  V30 31856 C 3137.81 -0.669491 1.83786 0
M  V30 31857 C 3138.19 -1.89394 0.932364 0
M  V30 31858 O 3137.53 -2.28499 -0.00809212 0
M  V30 31859 C 3137.74 -1.03249 3.33378 0
M  V30 31860 C 3139.09 -1.41734 4.00246 0
M  V30 31861 O 3140.12 -1.12501 3.37967 0
M  V30 31862 O 3138.97 -1.96266 5.10041 0
M  V30 31863 H 3136.07 -0.329906 0.758348 0
M  V30 31864 H 3138.61 0.0740713 1.69538 0
M  V30 31865 H 3137.39 -0.161709 3.90966 0
M  V30 31866 H 3137.01 -1.8337 3.52791 0
M  V30 31867 N 3138.01 -1.5594 -0.228159 0
M  V30 31868 C 3139.42 -1.48783 -0.577557 0
M  V30 31869 C 3139.62 -0.739004 -1.87459 0
M  V30 31870 O 3138.68 -0.275973 -2.50987 0
M  V30 31871 C 3139.99 -2.93302 -0.66291 0
M  V30 31872 C 3141.54 -3.03783 -0.753982 0
M  V30 31873 C 3142.01 -4.49647 -0.870736 0
M  V30 31874 N 3143.51 -4.53662 -0.935128 0
M  V30 31875 C 3144.24 -5.63796 -1.04506 0
M  V30 31876 N 3143.74 -6.83697 -1.11936 0
M  V30 31877 N 3145.53 -5.51633 -1.07968 0
M  V30 31878 H 3137.68 -2.03056 0.623054 0
M  V30 31879 H 3139.94 -0.922663 0.217709 0
M  V30 31880 H 3139.65 -3.51008 0.220437 0
M  V30 31881 H 3139.52 -3.44834 -1.5287 0
M  V30 31882 H 3141.91 -2.46145 -1.62777 0
M  V30 31883 H 3141.99 -2.55431 0.137346 0
M  V30 31884 H 3141.64 -5.079 -0.00142932 0
M  V30 31885 H 3141.57 -4.95698 -1.77738 0
M  V30 31886 H 3144.06 -3.67311 -0.888296 0
M  V30 31887 H 3144.37 -7.63382 -1.20283 0
M  V30 31888 H 3142.71 -6.86421 -1.0886 0
M  V30 31889 H 3145.91 -4.56891 -1.01825 0
M  V30 31890 H 3146.08 -6.37498 -1.16191 0
M  V30 31891 N 3139.48 0.494597 -1.49638 0
M  V30 31892 C 3140.76 1.25593 -1.49952 0
M  V30 31893 C 3141.14 2.09834 -0.230842 0
M  V30 31894 O 3140.49 2.14534 0.786587 0
M  V30 31895 C 3140.7 2.10717 -2.78208 0
M  V30 31896 C 3142.05 2.69692 -3.2795 0
M  V30 31897 O 3143.07 2.20979 -2.79369 0
M  V30 31898 O 3141.93 3.58388 -4.12578 0
M  V30 31899 H 3139.02 0.568673 -0.60045 0
M  V30 31900 H 3141.57 0.508343 -1.61907 0
M  V30 31901 H 3140.34 1.48487 -3.62032 0
M  V30 31902 H 3139.97 2.92656 -2.69144 0
M  V30 31903 N 3140.96 1.3882 0.746109 0
M  V30 31904 C 3142.2 1.3686 1.51818 0
M  V30 31905 C 3142.57 -0.0391124 1.9196 0
M  V30 31906 O 3143.77 -0.183642 2.68172 0
M  V30 31907 C 3142.04 2.30415 2.7321 0
M  V30 31908 S 3143.6 2.46542 3.62991 0
M  V30 31909 H 3140.42 0.485491 0.519441 0
M  V30 31910 H 3143.02 1.74815 0.875214 0
M  V30 31911 H 3141.72 3.31574 2.41841 0
M  V30 31912 H 3141.25 1.93636 3.42445 0
M  V30 31913 H 3143.27 1.69506 4.6635 0
M  V30 31914 N 3142.44 -0.975103 1.23812 0
M  V30 31915 C 3143.69 -1.71139 1.06744 0
M  V30 31916 C 3144 -1.91571 -0.394952 0
M  V30 31917 O 3145.21 -2.62699 -0.685677 0
M  V30 31918 C 3143.66 -3.08006 1.86173 0
M  V30 31919 C 3143.27 -2.95442 3.36776 0
M  V30 31920 C 3145.02 -3.85557 1.77611 0
M  V30 31921 C 3142.92 -4.27573 4.08577 0
M  V30 31922 H 3141.85 -0.641743 0.39583 0
M  V30 31923 H 3144.5 -1.08717 1.47827 0
M  V30 31924 H 3142.89 -3.71214 1.379 0
M  V30 31925 H 3144.06 -2.41291 3.92575 0
M  V30 31926 H 3142.38 -2.31362 3.46209 0
M  V30 31927 H 3144.97 -4.83387 2.28564 0
M  V30 31928 H 3145.32 -4.09672 0.739909 0
M  V30 31929 H 3145.85 -3.29062 2.23525 0
M  V30 31930 H 3142.59 -4.08653 5.12526 0
M  V30 31931 H 3142.11 -4.81568 3.57564 0
M  V30 31932 H 3143.79 -4.96232 4.15166 0
M  V30 31933 N 3143.92 -1.05068 -1.17467 0
M  V30 31934 C 3145.33 -0.771794 -1.39698 0
M  V30 31935 C 3145.53 0.634348 -1.91254 0
M  V30 31936 O 3144.59 1.39695 -2.10336 0
M  V30 31937 C 3145.9 -1.82635 -2.38883 0
M  V30 31938 C 3147.45 -1.84842 -2.52591 0
M  V30 31939 C 3147.93 -2.89317 -3.55049 0
M  V30 31940 N 3149.42 -2.88272 -3.62565 0
M  V30 31941 C 3150.15 -3.65759 -4.41597 0
M  V30 31942 N 3149.65 -4.53028 -5.24154 0
M  V30 31943 N 3151.44 -3.54205 -4.36458 0
M  V30 31944 H 3143.59 -1.95794 -0.82332 0
M  V30 31945 H 3145.86 -0.847744 -0.424305 0
M  V30 31946 H 3145.56 -2.83549 -2.0807 0
M  V30 31947 H 3145.44 -1.66693 -3.38369 0
M  V30 31948 H 3147.82 -0.845938 -2.82715 0
M  V30 31949 H 3147.9 -2.04862 -1.53184 0
M  V30 31950 H 3147.55 -3.89751 -3.25664 0
M  V30 31951 H 3147.48 -2.6655 -4.54157 0
M  V30 31952 H 3149.97 -2.24995 -3.03621 0
M  V30 31953 H 3150.28 -5.0884 -5.81637 0
M  V30 31954 H 3148.63 -4.5709 -5.23539 0
M  V30 31955 H 3151.82 -2.85422 -3.71015 0
M  V30 31956 H 3151.99 -4.1484 -4.97807 0
M  V30 31957 N 3145.4 1.33878 -0.831529 0
M  V30 31958 C 3146.36 2.27665 -0.264813 0
M  V30 31959 C 3147.36 1.5065 0.562246 0
M  V30 31960 O 3148.55 1.70069 0.377101 0
M  V30 31961 C 3145.68 3.3507 0.627755 0
M  V30 31962 H 3146.87 2.79301 -1.0923 0
M  V30 31963 H 3144.43 1.44156 -0.604046 0
M  V30 31964 H 3145.16 2.88664 1.47797 0
M  V30 31965 H 3144.95 3.92083 0.0360862 0
M  V30 31966 H 3146.44 4.05007 1.01779 0
M  V30 31967 N 3146.87 0.587281 1.46249 0
M  V30 31968 C 3148.1 0.0802498 2.06444 0
M  V30 31969 C 3148.51 -1.23205 1.43587 0
M  V30 31970 O 3147.86 -1.75676 0.536987 0
M  V30 31971 C 3147.92 -0.155066 3.59165 0
M  V30 31972 C 3147.58 1.07233 4.44241 0
M  V30 31973 C 3148.58 1.98551 4.80493 0
M  V30 31974 C 3146.26 1.29546 4.85307 0
M  V30 31975 C 3148.26 3.10526 5.56644 0
M  V30 31976 C 3145.94 2.41825 5.61216 0
M  V30 31977 C 3146.94 3.32144 5.96799 0
M  V30 31978 O 3146.63 4.42473 6.71173 0
M  V30 31979 H 3146.36 0.0566181 0.673625 0
M  V30 31980 H 3148.92 0.809037 1.88796 0
M  V30 31981 H 3147.15 -0.938517 3.75138 0
M  V30 31982 H 3148.84 -0.611173 4.01272 0
M  V30 31983 H 3149.6 1.82529 4.49342 0
M  V30 31984 H 3145.48 0.601512 4.57059 0
M  V30 31985 H 3149.02 3.81048 5.84336 0
M  V30 31986 H 3144.92 2.57807 5.91782 0
M  V30 31987 H 3145.69 4.40898 6.89602 0
M  V30 31988 N 3148.35 -1.54206 0.325309 0
M  V30 31989 C 3149.28 -2.21898 -0.573911 0
M  V30 31990 C 3150.3 -1.21954 -1.07848 0
M  V30 31991 O 3151.49 -1.48413 -0.991755 0
M  V30 31992 C 3148.59 -2.87118 -1.80045 0
M  V30 31993 C 3147.76 -4.13216 -1.43428 0
M  V30 31994 C 3146.82 -4.62013 -2.51854 0
M  V30 31995 O 3145.84 -5.26655 -2.15925 0
M  V30 31996 N 3147.05 -4.36388 -3.82812 0
M  V30 31997 H 3149.81 -2.99699 0.00572186 0
M  V30 31998 H 3147.37 -1.61217 0.148592 0
M  V30 31999 H 3149.36 -3.16686 -2.51976 0
M  V30 32000 H 3147.93 -2.13013 -2.28789 0
M  V30 32001 H 3147.15 -3.90393 -0.54653 0
M  V30 32002 H 3148.44 -4.95275 -1.16535 0
M  V30 32003 H 3147.84 -3.84652 -4.148 0
M  V30 32004 H 3146.4 -4.70607 -4.50968 0
M  V30 32005 N 3149.83 -0.0535194 -1.57509 0
M  V30 32006 C 3151.24 0.481836 -1.80375 0
M  V30 32007 C 3151.59 1.70774 -0.965947 0
M  V30 32008 O 3150.72 2.15623 -0.183205 0
M  V30 32009 C 3151.31 0.88092 -3.27147 0
M  V30 32010 C 3149.87 1.36124 -3.50923 0
M  V30 32011 C 3149.02 0.337562 -2.75238 0
M  V30 32012 H 3151.97 -0.279381 -1.56221 0
M  V30 32013 H 3151.99 1.74367 -3.38196 0
M  V30 32014 H 3151.5 -0.0115092 -3.88098 0
M  V30 32015 H 3149.6 2.27278 -2.95255 0
M  V30 32016 H 3149.72 1.35178 -4.59634 0
M  V30 32017 H 3148.08 0.810949 -2.41445 0
M  V30 32018 H 3148.86 -0.546823 -3.38917 0
M  V30 32019 N 3151.31 1.56059 0.219886 0
M  V30 32020 C 3152.24 1.8904 1.29601 0
M  V30 32021 C 3153.25 0.778816 1.42963 0
M  V30 32022 O 3154.44 1.05712 1.4383 0
M  V30 32023 C 3151.54 2.08539 2.67142 0
M  V30 32024 C 3150.72 3.39566 2.75706 0
M  V30 32025 C 3149.78 3.48476 3.94273 0
M  V30 32026 O 3148.8 4.21494 3.82533 0
M  V30 32027 N 3150 2.79741 5.0865 0
M  V30 32028 H 3152.77 2.81941 1.01633 0
M  V30 32029 H 3150.33 1.56625 0.409918 0
M  V30 32030 H 3152.32 2.11814 3.44843 0
M  V30 32031 H 3150.89 1.22255 2.87702 0
M  V30 32032 H 3150.11 3.48375 1.84469 0
M  V30 32033 H 3151.4 4.25877 2.784 0
M  V30 32034 H 3150.8 2.20199 5.21084 0
M  V30 32035 H 3149.35 2.88675 5.84389 0
M  V30 32036 N 3152.79 -0.486655 1.49898 0
M  V30 32037 C 3154.04 -1.23653 1.59351 0
M  V30 32038 C 3154.35 -1.93407 0.292058 0
M  V30 32039 O 3155.56 -2.70201 0.265305 0
M  V30 32040 C 3154.01 -2.24597 2.81219 0
M  V30 32041 C 3153.62 -1.60717 4.18179 0
M  V30 32042 C 3155.36 -3.00324 3.0001 0
M  V30 32043 C 3153.27 -2.59856 5.31252 0
M  V30 32044 H 3152.2 -0.465216 0.593372 0
M  V30 32045 H 3154.85 -0.508738 1.76307 0
M  V30 32046 H 3153.23 -3.00602 2.57788 0
M  V30 32047 H 3154.41 -0.906081 4.51804 0
M  V30 32048 H 3152.72 -0.973291 4.04865 0
M  V30 32049 H 3155.32 -3.7449 3.81656 0
M  V30 32050 H 3155.66 -3.58791 2.11126 0
M  V30 32051 H 3156.2 -2.31434 3.23548 0
M  V30 32052 H 3152.93 -2.0615 6.2224 0
M  V30 32053 H 3152.45 -3.28164 5.02064 0
M  V30 32054 H 3154.13 -3.21999 5.61182 0
M  V30 32055 N 3154.27 -1.39214 -0.738737 0
M  V30 32056 C 3155.49 -1.39683 -1.53308 0
M  V30 32057 C 3155.92 0.00765409 -1.88098 0
M  V30 32058 O 3155.27 0.993672 -1.51644 0
M  V30 32059 C 3155.32 -2.27284 -2.79954 0
M  V30 32060 O 3154.43 -1.70015 -3.75724 0
M  V30 32061 H 3153.77 -0.47583 -0.463122 0
M  V30 32062 H 3156.3 -1.83163 -0.911736 0
M  V30 32063 H 3156.31 -2.41665 -3.28728 0
M  V30 32064 H 3154.98 -3.29355 -2.53964 0
M  V30 32065 H 3153.56 -1.64857 -3.3448 0
M  V30 32066 N 3155.74 0.968523 -1.24328 0
M  V30 32067 C 3156.97 1.75169 -1.11043 0
M  V30 32068 C 3157.39 1.85128 0.333077 0
M  V30 32069 O 3156.75 1.32158 1.24112 0
M  V30 32070 C 3156.8 3.15065 -1.75403 0
M  V30 32071 O 3155.9 3.99479 -1.02424 0
M  V30 32072 H 3155.24 0.538485 -0.388498 0
M  V30 32073 H 3157.77 1.21497 -1.64619 0
M  V30 32074 H 3157.78 3.65592 -1.81126 0
M  V30 32075 H 3156.46 3.07133 -2.80432 0
M  V30 32076 H 3155.04 3.57964 -1.04481 0
M  V30 32077 N 3157.22 1.0569 1.16908 0
M  V30 32078 C 3158.45 0.790519 1.91203 0
M  V30 32079 C 3158.86 -0.654403 1.77096 0
M  V30 32080 O 3158.22 -1.44749 1.11148 0
M  V30 32081 C 3158.27 1.16814 3.42106 0
M  V30 32082 O 3157.99 2.55636 3.55784 0
M  V30 32083 C 3159.49 0.928626 4.33464 0
M  V30 32084 H 3156.71 0.287045 0.606503 0
M  V30 32085 H 3159.26 1.40891 1.48223 0
M  V30 32086 H 3157.41 0.594407 3.82813 0
M  V30 32087 H 3157.83 2.70583 4.49316 0
M  V30 32088 H 3159.3 1.24254 5.37834 0
M  V30 32089 H 3159.78 -0.135939 4.3899 0
M  V30 32090 H 3160.38 1.48645 3.98478 0
M  V30 32091 N 3158.7 -1.33435 0.838617 0
M  V30 32092 C 3159.65 -2.3114 0.260198 0
M  V30 32093 C 3160.64 -1.58125 -0.607678 0
M  V30 32094 O 3161.85 -1.72995 -0.497268 0
M  V30 32095 H 3158.22 -0.749149 0.0654163 0
M  V30 32096 H 3160.19 -2.77433 1.09879 0
M  V30 32097 C 3158.94 -3.4332 -0.550174 0
M  V30 32098 H 3158.27 -3.99653 0.108332 0
M  V30 32099 H 3159.71 -4.13882 -0.920742 0
M  V30 32100 C 3158.16 -2.89152 -1.72895 0
M  V30 32101 O 3158.69 -2.8532 -2.82764 0
M  V30 32102 N 3156.9 -2.45764 -1.55076 0
M  V30 32103 H 3156.45 -2.49081 -0.657011 0
M  V30 32104 H 3156.41 -2.09874 -2.34095 0
M  V30 32105 N 3160.18 -0.595029 -1.45935 0
M  V30 32106 C 3161.41 -0.0911969 -2.06399 0
M  V30 32107 C 3161.82 1.22441 -1.44239 0
M  V30 32108 O 3161.16 1.75389 -0.546296 0
M  V30 32109 C 3161.22 0.136016 -3.59243 0
M  V30 32110 C 3160.88 -1.09587 -4.43666 0
M  V30 32111 C 3161.88 -2.01096 -4.79433 0
M  V30 32112 C 3159.57 -1.32117 -4.84614 0
M  V30 32113 C 3161.56 -3.13473 -5.54989 0
M  V30 32114 C 3159.25 -2.44798 -5.59926 0
M  V30 32115 C 3160.25 -3.35305 -5.95029 0
M  V30 32116 O 3159.93 -4.46026 -6.68817 0
M  V30 32117 H 3159.67 -0.0601897 -0.673315 0
M  V30 32118 H 3162.22 -0.819038 -1.88364 0
M  V30 32119 H 3160.45 0.91861 -3.75631 0
M  V30 32120 H 3162.14 0.589884 -4.01591 0
M  V30 32121 H 3162.9 -1.8491 -4.48367 0
M  V30 32122 H 3158.78 -0.625742 -4.56733 0
M  V30 32123 H 3162.33 -3.84141 -5.82307 0
M  V30 32124 H 3158.22 -2.60942 -5.90406 0
M  V30 32125 H 3158.99 -4.44549 -6.87254 0
M  V30 32126 N 3161.66 1.54031 -0.333483 0
M  V30 32127 C 3162.6 2.26164 0.543374 0
M  V30 32128 C 3163.6 1.27936 1.11034 0
M  V30 32129 O 3164.8 1.45679 1.05724 0
M  V30 32130 H 3161.18 0.726573 0.193897 0
M  V30 32131 H 3163.15 2.98273 -0.0871576 0
M  V30 32132 C 3161.9 3.03997 1.68764 0
M  V30 32133 H 3161.22 3.79405 1.26063 0
M  V30 32134 H 3162.66 3.57699 2.27656 0
M  V30 32135 C 3161.12 2.12889 2.61113 0
M  V30 32136 O 3161.65 1.7183 3.63094 0
M  V30 32137 N 3159.86 1.78174 2.2957 0
M  V30 32138 H 3159.4 2.11761 1.4668 0
M  V30 32139 H 3159.36 1.17495 2.9162 0
M  V30 32140 N 3163.13 0.0618717 1.57479 0
M  V30 32141 C 3164.36 -0.618802 1.9743 0
M  V30 32142 C 3164.78 -1.63744 0.939854 0
M  V30 32143 O 3164.13 -1.82347 -0.0746853 0
M  V30 32144 C 3164.18 -1.29622 3.37462 0
M  V30 32145 O 3163.91 -0.318355 4.36942 0
M  V30 32146 C 3165.41 -2.06565 3.92232 0
M  V30 32147 H 3162.63 -0.168433 0.649516 0
M  V30 32148 H 3165.17 0.131339 2.04078 0
M  V30 32149 H 3163.33 -1.99751 3.31931 0
M  V30 32150 H 3163.74 -0.803148 5.18314 0
M  V30 32151 H 3165.21 -2.49369 4.92462 0
M  V30 32152 H 3165.69 -2.91818 3.28236 0
M  V30 32153 H 3166.3 -1.41323 4.01133 0
M  V30 32154 N 3164.61 -1.56173 -0.211607 0
M  V30 32155 C 3165.54 -1.96246 -1.26529 0
M  V30 32156 C 3166.52 -0.832054 -1.48361 0
M  V30 32157 O 3167.71 -1.09513 -1.60376 0
M  V30 32158 C 3164.84 -2.28775 -2.61303 0
M  V30 32159 C 3163.79 -3.44399 -2.54112 0
M  V30 32160 C 3163.12 -3.62559 -3.93007 0
M  V30 32161 C 3164.42 -4.7908 -2.08038 0
M  V30 32162 H 3166.11 -2.84513 -0.932357 0
M  V30 32163 H 3163.66 -1.36885 -0.44706 0
M  V30 32164 H 3165.61 -2.55402 -3.35184 0
M  V30 32165 H 3164.34 -1.37372 -2.96305 0
M  V30 32166 H 3162.99 -3.17837 -1.82689 0
M  V30 32167 H 3162.64 -2.68516 -4.25333 0
M  V30 32168 H 3162.34 -4.40334 -3.89075 0
M  V30 32169 H 3163.87 -3.91545 -4.68535 0
M  V30 32170 H 3165.28 -5.04846 -2.71667 0
M  V30 32171 H 3163.68 -5.60208 -2.15144 0
M  V30 32172 H 3164.75 -4.73769 -1.03298 0
M  V30 32173 N 3166.09 0.478699 -1.50154 0
M  V30 32174 C 3167.32 1.25479 -1.64507 0
M  V30 32175 C 3167.73 1.85976 -0.325328 0
M  V30 32176 O 3167.09 1.68878 0.691855 0
M  V30 32177 C 3167.14 2.36902 -2.73057 0
M  V30 32178 O 3166.86 1.78887 -3.99914 0
M  V30 32179 C 3168.36 3.27907 -2.98315 0
M  V30 32180 H 3165.58 0.379771 -0.553186 0
M  V30 32181 H 3168.13 0.572255 -1.9633 0
M  V30 32182 H 3166.28 3.00945 -2.43949 0
M  V30 32183 H 3166.7 2.52203 -4.59884 0
M  V30 32184 H 3168.17 4.02317 -3.77949 0
M  V30 32185 H 3168.65 3.86236 -2.09089 0
M  V30 32186 H 3169.25 2.69609 -3.28924 0
M  V30 32187 N 3167.57 1.39603 0.731343 0
M  V30 32188 C 3168.5 1.41355 1.85852 0
M  V30 32189 C 3169.48 0.27643 1.67839 0
M  V30 32190 O 3170.66 0.48278 1.88103 0
M  V30 32191 C 3167.79 1.25989 3.23642 0
M  V30 32192 C 3166.75 2.37138 3.563 0
M  V30 32193 C 3166.07 2.06859 4.93065 0
M  V30 32194 C 3167.37 3.79458 3.589 0
M  V30 32195 H 3169.07 2.35684 1.84644 0
M  V30 32196 H 3166.61 1.13444 0.886935 0
M  V30 32197 H 3168.57 1.25834 4.02174 0
M  V30 32198 H 3167.29 0.281292 3.25386 0
M  V30 32199 H 3165.95 2.36516 2.80099 0
M  V30 32200 H 3165.6 1.07429 4.91394 0
M  V30 32201 H 3165.3 2.81315 5.15883 0
M  V30 32202 H 3166.82 2.0836 5.7395 0
M  V30 32203 H 3168.24 3.81989 4.27501 0
M  V30 32204 H 3166.63 4.53304 3.93238 0
M  V30 32205 H 3167.7 4.10173 2.58624 0
M  V30 32206 N 3169.05 -0.961916 1.2484 0
M  V30 32207 C 3169.99 -2.07873 1.04364 0
M  V30 32208 C 3170.99 -1.69384 -0.0232233 0
M  V30 32209 O 3172.19 -1.79517 0.131805 0
M  V30 32210 H 3168.57 -0.68028 0.320504 0
M  V30 32211 H 3170.54 -2.22302 1.99058 0
M  V30 32212 C 3169.29 -3.41158 0.671306 0
M  V30 32213 H 3168.61 -3.71237 1.48402 0
M  V30 32214 H 3170.05 -4.20183 0.567682 0
M  V30 32215 C 3168.51 -3.31107 -0.622065 0
M  V30 32216 O 3169.04 -3.65514 -1.6662 0
M  V30 32217 N 3167.25 -2.84233 -0.604959 0
M  V30 32218 H 3166.79 -2.56431 0.245097 0
M  V30 32219 H 3166.75 -2.77891 -1.47051 0
M  V30 32220 N 3170.52 -1.06308 -1.16346 0
M  V30 32221 C 3171.77 -0.78104 -1.87157 0
M  V30 32222 C 3172.1 0.690752 -1.815 0
M  V30 32223 O 3171.38 1.50607 -1.23076 0
M  V30 32224 C 3171.66 -1.27644 -3.36718 0
M  V30 32225 C 3171.51 -2.81201 -3.51065 0
M  V30 32226 C 3172.83 -0.884463 -4.31121 0
M  V30 32227 H 3169.95 -0.285199 -0.679581 0
M  V30 32228 H 3172.59 -1.31903 -1.36753 0
M  V30 32229 H 3170.74 -0.818781 -3.79774 0
M  V30 32230 H 3172.42 -3.35176 -3.16946 0
M  V30 32231 H 3170.66 -3.19923 -2.9297 0
M  V30 32232 H 3171.33 -3.10929 -4.561 0
M  V30 32233 H 3173.81 -1.27864 -3.95967 0
M  V30 32234 H 3172.68 -1.25857 -5.34276 0
M  V30 32235 H 3172.94 0.210595 -4.41598 0
M  V30 32236 N 3172 1.32989 -0.845682 0
M  V30 32237 C 3172.95 2.29073 -0.281801 0
M  V30 32238 C 3173.92 1.54643 0.60621 0
M  V30 32239 O 3175.1 1.82909 0.543031 0
M  V30 32240 C 3172.24 3.40984 0.531391 0
M  V30 32241 C 3171.36 4.30313 -0.381404 0
M  V30 32242 C 3170.49 5.29345 0.44355 0
M  V30 32243 C 3169.53 6.10314 -0.467208 0
M  V30 32244 N 3168.67 7.0137 0.320025 0
M  V30 32245 H 3173.51 2.76697 -1.10646 0
M  V30 32246 H 3171.05 1.36143 -0.557084 0
M  V30 32247 H 3173 4.04579 1.01841 0
M  V30 32248 H 3171.63 2.94535 1.32096 0
M  V30 32249 H 3170.69 3.67379 -0.986766 0
M  V30 32250 H 3172 4.86951 -1.08075 0
M  V30 32251 H 3171.15 5.985 0.994107 0
M  V30 32252 H 3169.89 4.73301 1.17631 0
M  V30 32253 H 3168.9 5.40071 -1.02972 0
M  V30 32254 H 3170.12 6.68442 -1.19843 0
M  V30 32255 H 3168.07 6.47767 1.03604 0
M  V30 32256 H 3167.98 7.5532 -0.320471 0
M  V30 32257 H 3169.25 7.74823 0.852599 0
M  V30 32258 N 3173.48 0.60276 1.45618 0
M  V30 32259 C 3174.71 0.10229 2.06647 0
M  V30 32260 C 3175.12 -1.21128 1.44822 0
M  V30 32261 O 3174.48 -1.73675 0.560651 0
M  V30 32262 C 3174.53 -0.0489478 3.61467 0
M  V30 32263 O 3174.25 1.21265 4.20983 0
M  V30 32264 C 3175.75 -0.581439 4.3947 0
M  V30 32265 H 3172.97 0.0666273 0.667684 0
M  V30 32266 H 3175.52 0.829123 1.86938 0
M  V30 32267 H 3173.67 -0.726087 3.80535 0
M  V30 32268 H 3174.09 1.03924 5.14101 0
M  V30 32269 H 3175.56 -0.636366 5.4832 0
M  V30 32270 H 3176.04 -1.6027 4.08913 0
M  V30 32271 H 3176.64 0.0614937 4.25256 0
M  V30 32272 N 3174.96 -1.53852 0.341647 0
M  V30 32273 C 3175.89 -2.22495 -0.550343 0
M  V30 32274 C 3176.9 -1.23091 -1.06548 0
M  V30 32275 O 3178.09 -1.49457 -0.975958 0
M  V30 32276 C 3175.19 -2.89012 -1.7699 0
M  V30 32277 C 3174.37 -4.14714 -1.39037 0
M  V30 32278 C 3173.42 -4.64658 -2.46939 0
M  V30 32279 O 3172.45 -5.28915 -2.10326 0
M  V30 32280 N 3173.65 -4.40424 -3.78162 0
M  V30 32281 H 3176.42 -2.99677 0.0375087 0
M  V30 32282 H 3173.98 -1.6105 0.165682 0
M  V30 32283 H 3175.97 -3.19341 -2.48603 0
M  V30 32284 H 3174.54 -2.15428 -2.26517 0
M  V30 32285 H 3173.76 -3.90951 -0.505093 0
M  V30 32286 H 3175.05 -4.96483 -1.11276 0
M  V30 32287 H 3174.45 -3.8903 -4.10697 0
M  V30 32288 H 3173 -4.75364 -4.45951 0
M  V30 32289 N 3176.44 -0.0702223 -1.57443 0
M  V30 32290 C 3177.35 0.912339 -2.16133 0
M  V30 32291 C 3178.36 1.32817 -1.12409 0
M  V30 32292 O 3179.54 1.40119 -1.44667 0
M  V30 32293 C 3176.6 2.16226 -2.71011 0
M  V30 32294 C 3175.66 1.80299 -3.89603 0
M  V30 32295 C 3174.9 2.99333 -4.41855 0
M  V30 32296 O 3175.12 4.13302 -3.93113 0
M  V30 32297 O 3174.05 2.7924 -5.33206 0
M  V30 32298 H 3177.88 0.443114 -3.0045 0
M  V30 32299 H 3175.47 0.15276 -1.48617 0
M  V30 32300 H 3177.35 2.89525 -3.06192 0
M  V30 32301 H 3176.02 2.62249 -1.89755 0
M  V30 32302 H 3174.93 1.04257 -3.59279 0
M  V30 32303 H 3176.26 1.3906 -4.72147 0
M  V30 32304 N 3177.91 1.56283 0.203321 0
M  V30 32305 C 3179.33 1.70139 0.768734 0
M  V30 32306 C 3179.68 0.675391 1.84209 0
M  V30 32307 O 3178.8 -0.169862 2.15732 0
M  V30 32308 C 3179.4 3.08468 1.40118 0
M  V30 32309 C 3177.96 3.24117 1.91377 0
M  V30 32310 C 3177.1 2.66085 0.780638 0
M  V30 32311 H 3180.05 1.58685 -0.0216276 0
M  V30 32312 H 3180.07 3.0534 2.27041 0
M  V30 32313 H 3179.59 3.8312 0.619738 0
M  V30 32314 H 3177.69 2.54367 2.72265 0
M  V30 32315 H 3177.8 4.31535 2.08121 0
M  V30 32316 H 3176.16 2.25044 1.19277 0
M  V30 32317 H 3176.95 3.43298 0.0115747 0
M  V30 32318 N 3179.39 -0.470729 1.50406 0
M  V30 32319 C 3180.67 -1.23192 1.51931 0
M  V30 32320 C 3181.05 -2.0944 0.264196 0
M  V30 32321 O 3180.4 -2.15759 -0.752357 0
M  V30 32322 C 3180.61 -2.06264 2.81525 0
M  V30 32323 C 3181.96 -2.6444 3.32199 0
M  V30 32324 O 3182.98 -2.16506 2.82849 0
M  V30 32325 O 3181.84 -3.51779 4.18227 0
M  V30 32326 H 3178.93 -0.559049 0.609421 0
M  V30 32327 H 3181.48 -0.482521 1.62696 0
M  V30 32328 H 3180.25 -1.42709 3.64349 0
M  V30 32329 H 3179.87 -2.88337 2.73766 0
M  V30 32330 N 3180.87 -1.39989 -0.72393 0
M  V30 32331 C 3181.82 -1.39753 -1.85935 0
M  V30 32332 C 3182.81 -0.279141 -1.67084 0
M  V30 32333 O 3184.02 -0.449751 -1.74291 0
M  V30 32334 H 3180.39 -0.436655 -0.612239 0
M  V30 32335 H 3182.37 -2.35503 -1.83251 0
M  V30 32336 C 3181.11 -1.2688 -3.23723 0
M  V30 32337 H 3180.44 -2.12212 -3.38831 0
M  V30 32338 H 3181.88 -1.30772 -4.03329 0
M  V30 32339 C 3180.34 0.0217725 -3.36893 0
M  V30 32340 O 3180.87 0.987837 -3.89364 0
M  V30 32341 N 3179.07 0.0885107 -2.90465 0
M  V30 32342 H 3178.62 -0.698358 -2.47953 0
M  V30 32343 H 3178.58 0.951504 -2.99656 0
M  V30 32344 N 3182.35 0.955282 -1.25348 0
M  V30 32345 C 3183.28 2.06941 -1.08155 0
M  V30 32346 C 3184.26 1.70098 0.00919608 0
M  V30 32347 O 3185.45 1.93538 -0.160215 0
M  V30 32348 C 3182.58 3.40197 -0.698805 0
M  V30 32349 C 3181.53 3.91047 -1.73972 0
M  V30 32350 C 3180.86 5.2079 -1.21167 0
M  V30 32351 C 3182.16 4.17497 -3.13836 0
M  V30 32352 H 3183.85 2.21583 -2.01349 0
M  V30 32353 H 3181.4 1.06476 -0.969478 0
M  V30 32354 H 3183.35 4.17589 -0.565467 0
M  V30 32355 H 3182.07 3.25492 0.268834 0
M  V30 32356 H 3180.73 3.15823 -1.86148 0
M  V30 32357 H 3180.38 5.02454 -0.234281 0
M  V30 32358 H 3180.08 5.55781 -1.90738 0
M  V30 32359 H 3181.6 6.00779 -1.09071 0
M  V30 32360 H 3183.02 4.8555 -3.04817 0
M  V30 32361 H 3181.41 4.63743 -3.80871 0
M  V30 32362 H 3182.48 3.23799 -3.60946 0
M  V30 32363 N 3183.83 1.06924 1.1578 0
M  V30 32364 C 3184.76 0.707084 2.22537 0
M  V30 32365 C 3185.74 -0.303441 1.67372 0
M  V30 32366 O 3186.92 -0.177155 1.9339 0
M  V30 32367 C 3184.05 0.0994879 3.47157 0
M  V30 32368 C 3183.01 1.03669 4.15255 0
M  V30 32369 C 3182.33 0.292068 5.33902 0
M  V30 32370 C 3183.63 2.36845 4.65512 0
M  V30 32371 H 3185.33 1.59962 2.53086 0
M  V30 32372 H 3182.87 0.770573 1.21648 0
M  V30 32373 H 3184.83 -0.165778 4.21074 0
M  V30 32374 H 3183.55 -0.828099 3.15927 0
M  V30 32375 H 3182.21 1.2868 3.43274 0
M  V30 32376 H 3181.86 -0.63884 4.98927 0
M  V30 32377 H 3181.56 0.916716 5.80405 0
M  V30 32378 H 3183.08 0.0344988 6.1059 0
M  V30 32379 H 3184.5 2.16184 5.30978 0
M  V30 32380 H 3182.89 2.94865 5.22661 0
M  V30 32381 H 3183.96 2.9946 3.81381 0
M  V30 32382 N 3185.31 -1.32538 0.852723 0
M  V30 32383 C 3186.55 -1.97318 0.455158 0
M  V30 32384 C 3186.88 -1.67491 -0.988784 0
M  V30 32385 O 3186.14 -0.954513 -1.70844 0
M  V30 32386 C 3186.43 -3.51645 0.638819 0
M  V30 32387 C 3186.1 -4.01454 2.05294 0
M  V30 32388 C 3184.76 -4.14767 2.43971 0
M  V30 32389 C 3187.11 -4.27884 2.97598 0
M  V30 32390 C 3184.44 -4.51852 3.74228 0
M  V30 32391 C 3186.79 -4.66427 4.27351 0
M  V30 32392 C 3185.46 -4.77946 4.65965 0
M  V30 32393 H 3184.73 -0.722039 0.166554 0
M  V30 32394 H 3187.38 -1.57975 1.08241 0
M  V30 32395 H 3185.68 -3.91734 -0.0716705 0
M  V30 32396 H 3187.38 -3.9979 0.311289 0
M  V30 32397 H 3183.97 -3.91576 1.7426 0
M  V30 32398 H 3188.15 -4.17109 2.68949 0
M  V30 32399 H 3183.41 -4.58965 4.03932 0
M  V30 32400 H 3187.58 -4.85832 4.98939 0
M  V30 32401 H 3185.21 -5.06439 5.66943 0
M  V30 32402 N 3186.78 -0.610474 -1.45296 0
M  V30 32403 C 3188.01 -0.113083 -2.0629 0
M  V30 32404 C 3188.42 1.20905 -1.45529 0
M  V30 32405 O 3187.76 1.748 -0.564868 0
M  V30 32406 C 3187.83 0.0979061 -3.59367 0
M  V30 32407 C 3187.49 -1.14286 -4.42479 0
M  V30 32408 C 3188.49 -2.0617 -4.77274 0
M  V30 32409 C 3186.17 -1.3725 -4.83185 0
M  V30 32410 C 3188.17 -3.19342 -5.51633 0
M  V30 32411 C 3185.85 -2.50723 -5.57298 0
M  V30 32412 C 3186.85 -3.41597 -5.91439 0
M  V30 32413 O 3186.54 -4.53095 -6.64048 0
M  V30 32414 H 3186.27 -0.0673278 -0.672639 0
M  V30 32415 H 3188.83 -0.83897 -1.87485 0
M  V30 32416 H 3187.06 0.878717 -3.76584 0
M  V30 32417 H 3188.74 0.547257 -4.02194 0
M  V30 32418 H 3189.51 -1.89655 -4.46381 0
M  V30 32419 H 3185.39 -0.67415 -4.56044 0
M  V30 32420 H 3188.93 -3.90296 -5.782 0
M  V30 32421 H 3184.83 -2.67189 -5.87605 0
M  V30 32422 H 3185.6 -4.51813 -6.82501 0
M  V30 32423 N 3188.26 1.53669 -0.349801 0
M  V30 32424 C 3189.19 2.28165 0.496298 0
M  V30 32425 C 3190.17 1.2997 1.09735 0
M  V30 32426 O 3191.36 1.58821 1.11757 0
M  V30 32427 C 3188.49 3.05913 1.64422 0
M  V30 32428 C 3187.44 4.11664 1.1712 0
M  V30 32429 C 3186.77 4.77402 2.40813 0
M  V30 32430 C 3188.07 5.21616 0.267202 0
M  V30 32431 H 3189.76 2.99138 -0.12517 0
M  V30 32432 H 3187.31 1.43868 -0.0616405 0
M  V30 32433 H 3189.26 3.56769 2.24263 0
M  V30 32434 H 3187.98 2.32602 2.29268 0
M  V30 32435 H 3186.64 3.6173 0.59557 0
M  V30 32436 H 3186.29 4.00679 3.04081 0
M  V30 32437 H 3185.99 5.48853 2.09843 0
M  V30 32438 H 3187.52 5.31045 3.01369 0
M  V30 32439 H 3188.93 5.6807 0.772634 0
M  V30 32440 H 3187.33 6.0008 0.0490936 0
M  V30 32441 H 3188.4 4.79894 -0.694977 0
M  V30 32442 N 3189.74 0.0785709 1.57404 0
M  V30 32443 C 3190.99 -0.587826 1.93362 0
M  V30 32444 C 3191.31 -1.69739 0.959886 0
M  V30 32445 O 3190.58 -1.95898 0.00915174 0
M  V30 32446 H 3189.16 -0.220129 0.713829 0
M  V30 32447 H 3191.82 0.13802 1.94411 0
M  V30 32448 H 3190.92 -1.00875 2.95348 0
M  V30 32449 N 3191.22 -1.56389 -0.19503 0
M  V30 32450 C 3192.44 -1.85092 -0.935713 0
M  V30 32451 C 3192.87 -0.662149 -1.7606 0
M  V30 32452 O 3192.23 0.389052 -1.77076 0
M  V30 32453 C 3192.27 -3.12023 -1.80759 0
M  V30 32454 O 3191.38 -2.9258 -2.90638 0
M  V30 32455 H 3190.72 -0.609478 -0.2635 0
M  V30 32456 H 3193.25 -2.03617 -0.200326 0
M  V30 32457 H 3193.26 -3.42818 -2.21223 0
M  V30 32458 H 3191.93 -3.98167 -1.2015 0
M  V30 32459 H 3190.51 -2.73083 -2.53929 0
M  V30 32460 N 3192.7 0.462746 -1.50653 0
M  V30 32461 C 3193.92 1.24193 -1.66105 0
M  V30 32462 C 3194.35 1.84863 -0.347453 0
M  V30 32463 O 3193.7 1.67671 0.689643 0
M  V30 32464 C 3193.75 2.32032 -2.76031 0
M  V30 32465 O 3192.86 3.36889 -2.37865 0
M  V30 32466 H 3192.2 0.365005 -0.554678 0
M  V30 32467 H 3194.73 0.549699 -1.97077 0
M  V30 32468 H 3194.74 2.77215 -2.99359 0
M  V30 32469 H 3193.41 1.87247 -3.71364 0
M  V30 32470 H 3191.99 2.97359 -2.25016 0
M  V30 32471 N 3194.17 1.40371 0.716495 0
M  V30 32472 C 3195.4 1.41913 1.5056 0
M  V30 32473 C 3195.82 0.0185788 1.88791 0
M  V30 32474 O 3195.17 -0.957262 1.55379 0
M  V30 32475 C 3195.23 2.30899 2.78151 0
M  V30 32476 O 3194.95 3.65502 2.41537 0
M  V30 32477 C 3196.45 2.41023 3.72052 0
M  V30 32478 H 3193.67 0.484068 0.464671 0
M  V30 32479 H 3196.21 1.84411 0.883895 0
M  V30 32480 H 3194.37 1.91765 3.36608 0
M  V30 32481 H 3194.78 4.12752 3.23629 0
M  V30 32482 H 3196.25 3.07497 4.58421 0
M  V30 32483 H 3196.73 1.43499 4.15096 0
M  V30 32484 H 3197.34 2.80705 3.19507 0
M  V30 32485 N 3195.65 -0.948621 1.25853 0
M  V30 32486 C 3196.62 -2.02779 1.06834 0
M  V30 32487 C 3197.62 -1.60789 0.0191299 0
M  V30 32488 O 3198.81 -1.72221 0.261866 0
M  V30 32489 C 3195.94 -3.35152 0.623377 0
M  V30 32490 H 3197.13 -2.21083 2.02639 0
M  V30 32491 H 3194.68 -1.12655 1.08345 0
M  V30 32492 H 3195.42 -3.22544 -0.336997 0
M  V30 32493 H 3195.2 -3.66979 1.38089 0
M  V30 32494 H 3196.69 -4.1445 0.511927 0
M  V30 32495 N 3197.13 -1.07536 -1.15212 0
M  V30 32496 C 3198.36 -0.820917 -1.90462 0
M  V30 32497 C 3198.78 0.620274 -1.77579 0
M  V30 32498 O 3198.14 1.43364 -1.10979 0
M  V30 32499 C 3198.19 -1.23633 -3.38744 0
M  V30 32500 O 3197.29 -0.382788 -4.1062 0
M  V30 32501 H 3196.63 -0.298911 -0.592915 0
M  V30 32502 H 3199.16 -1.43447 -1.45891 0
M  V30 32503 H 3199.17 -1.21333 -3.89541 0
M  V30 32504 H 3197.85 -2.28602 -3.47439 0
M  V30 32505 H 3196.42 -0.468439 -3.69946 0
M  V30 32506 N 3198.61 1.32084 -0.85974 0
M  V30 32507 C 3199.89 1.91739 -0.386698 0
M  V30 32508 C 3200.27 1.78294 1.13025 0
M  V30 32509 O 3199.61 1.18421 1.9542 0
M  V30 32510 C 3199.82 3.38322 -0.856708 0
M  V30 32511 C 3201.17 4.15447 -0.876853 0
M  V30 32512 O 3202.2 3.47061 -0.801681 0
M  V30 32513 O 3201.05 5.37572 -0.983825 0
M  V30 32514 H 3198.15 0.819137 -0.113772 0
M  V30 32515 H 3200.69 1.40821 -0.946977 0
M  V30 32516 H 3199.47 3.42075 -1.90002 0
M  V30 32517 H 3199.09 3.96654 -0.274164 0
M  V30 32518 N 3200.09 0.618171 1.4497 0
M  V30 32519 C 3201.33 0.117517 2.02159 0
M  V30 32520 C 3201.66 -1.25588 1.48519 0
M  V30 32521 O 3200.92 -1.84441 0.654225 0
M  V30 32522 C 3201.22 0.0395489 3.57378 0
M  V30 32523 C 3200.88 1.35 4.30216 0
M  V30 32524 C 3199.54 1.70894 4.49832 0
M  V30 32525 C 3201.9 2.21559 4.71764 0
M  V30 32526 C 3199.22 2.93079 5.08253 0
M  V30 32527 C 3201.58 3.43003 5.31537 0
M  V30 32528 C 3200.24 3.79136 5.49375 0
M  V30 32529 H 3199.51 0.0430027 0.739751 0
M  V30 32530 H 3202.16 0.801902 1.73902 0
M  V30 32531 H 3200.46 -0.72815 3.84974 0
M  V30 32532 H 3202.16 -0.364143 3.99343 0
M  V30 32533 H 3198.75 1.06065 4.15269 0
M  V30 32534 H 3202.93 1.95125 4.56333 0
M  V30 32535 H 3198.19 3.21168 5.20251 0
M  V30 32536 H 3202.36 4.10318 5.62683 0
M  V30 32537 H 3199.99 4.73898 5.94411 0
M  V30 32538 N 3201.56 -1.53481 0.357946 0
M  V30 32539 C 3202.49 -2.28425 -0.484191 0
M  V30 32540 C 3203.48 -1.3055 -1.09044 0
M  V30 32541 O 3204.66 -1.59411 -1.10913 0
M  V30 32542 C 3201.79 -3.0678 -1.62798 0
M  V30 32543 C 3200.74 -4.12279 -1.14935 0
M  V30 32544 C 3200.07 -4.78673 -2.38278 0
M  V30 32545 C 3201.37 -5.2175 -0.239535 0
M  V30 32546 H 3203.06 -2.99068 0.141032 0
M  V30 32547 H 3200.61 -1.43833 0.0692693 0
M  V30 32548 H 3202.56 -3.57953 -2.22368 0
M  V30 32549 H 3201.29 -2.33814 -2.28032 0
M  V30 32550 H 3199.95 -3.62041 -0.576378 0
M  V30 32551 H 3199.59 -4.02286 -3.01952 0
M  V30 32552 H 3199.29 -5.49958 -2.06929 0
M  V30 32553 H 3200.82 -5.32636 -2.98549 0
M  V30 32554 H 3202.23 -5.68472 -0.742497 0
M  V30 32555 H 3200.63 -6.00098 -0.0172692 0
M  V30 32556 H 3201.7 -4.79519 0.720417 0
M  V30 32557 N 3203.04 -0.0869173 -1.5736 0
M  V30 32558 C 3204.01 0.860402 -2.12438 0
M  V30 32559 C 3205.01 1.21632 -1.05177 0
M  V30 32560 O 3206.2 1.1471 -1.311 0
M  V30 32561 C 3203.33 2.15895 -2.63822 0
M  V30 32562 H 3204.52 0.382293 -2.97453 0
M  V30 32563 H 3202.07 0.161981 -1.55458 0
M  V30 32564 H 3202.81 2.68209 -1.82303 0
M  V30 32565 H 3202.59 1.91353 -3.42237 0
M  V30 32566 H 3204.08 2.8368 -3.06457 0
M  V30 32567 N 3204.52 1.5649 0.186734 0
M  V30 32568 C 3205.77 1.81379 0.907162 0
M  V30 32569 C 3206.1 0.662315 1.82557 0
M  V30 32570 O 3205.37 -0.336665 1.91564 0
M  V30 32571 C 3205.66 3.16574 1.71618 0
M  V30 32572 C 3205.51 4.42227 0.821931 0
M  V30 32573 C 3206.83 3.48547 2.68707 0
M  V30 32574 H 3203.95 0.659812 0.328355 0
M  V30 32575 H 3206.59 1.89201 0.174109 0
M  V30 32576 H 3204.74 3.10038 2.34113 0
M  V30 32577 H 3206.41 4.60817 0.211041 0
M  V30 32578 H 3204.66 4.33608 0.129102 0
M  V30 32579 H 3205.33 5.33339 1.42317 0
M  V30 32580 H 3207.8 3.55437 2.16341 0
M  V30 32581 H 3206.68 4.44248 3.2239 0
M  V30 32582 H 3206.94 2.72465 3.4816 0
M  V30 32583 N 3206 -0.45475 1.50897 0
M  V30 32584 C 3206.91 -1.57617 1.73764 0
M  V30 32585 C 3207.92 -1.62532 0.621234 0
M  V30 32586 O 3209.1 -1.80098 0.901481 0
M  V30 32587 C 3206.17 -2.93727 1.84188 0
M  V30 32588 C 3205.23 -2.99069 3.07987 0
M  V30 32589 C 3204.46 -4.28687 3.17904 0
M  V30 32590 O 3204.68 -5.20105 2.34194 0
M  V30 32591 O 3203.62 -4.39957 4.10757 0
M  V30 32592 H 3207.44 -1.4124 2.68858 0
M  V30 32593 H 3205.03 -0.63596 1.35188 0
M  V30 32594 H 3206.91 -3.74538 1.9313 0
M  V30 32595 H 3205.58 -3.10268 0.922797 0
M  V30 32596 H 3204.49 -2.17277 3.04535 0
M  V30 32597 H 3205.82 -2.87469 3.99528 0
M  V30 32598 N 3207.48 -1.40749 -0.709041 0
M  V30 32599 C 3208.41 -1.3594 -1.83291 0
M  V30 32600 C 3209.39 -0.228739 -1.60983 0
M  V30 32601 O 3210.57 -0.413467 -1.83909 0
M  V30 32602 C 3207.7 -1.1172 -3.19744 0
M  V30 32603 C 3206.74 -2.27325 -3.60868 0
M  V30 32604 S 3207.58 -3.8975 -3.67226 0
M  V30 32605 C 3208.73 -3.67806 -5.06428 0
M  V30 32606 H 3208.97 -2.3105 -1.87091 0
M  V30 32607 H 3206.5 -1.27113 -0.876457 0
M  V30 32608 H 3208.46 -0.984316 -3.98524 0
M  V30 32609 H 3207.12 -0.182527 -3.13569 0
M  V30 32610 H 3206.31 -2.06038 -4.59961 0
M  V30 32611 H 3205.91 -2.36951 -2.89362 0
M  V30 32612 H 3208.21 -3.26678 -5.93538 0
M  V30 32613 H 3209.15 -4.66454 -5.32753 0
M  V30 32614 H 3209.56 -3.01357 -4.7733 0
M  V30 32615 N 3208.96 0.941933 -1.26354 0
M  V30 32616 C 3210.37 1.21532 -1.03451 0
M  V30 32617 C 3210.57 2.00056 0.24082 0
M  V30 32618 O 3209.63 2.33941 0.950158 0
M  V30 32619 C 3210.94 1.97733 -2.26544 0
M  V30 32620 C 3212.49 2.10727 -2.31437 0
M  V30 32621 C 3212.96 2.9033 -3.54221 0
M  V30 32622 N 3214.45 2.97904 -3.54693 0
M  V30 32623 C 3215.19 3.59924 -4.46366 0
M  V30 32624 N 3214.69 4.2345 -5.48326 0
M  V30 32625 N 3216.48 3.57189 -4.34019 0
M  V30 32626 H 3208.63 0.416968 -2.08267 0
M  V30 32627 H 3210.89 0.247005 -0.915255 0
M  V30 32628 H 3210.6 1.47443 -3.19302 0
M  V30 32629 H 3210.47 2.98401 -2.30731 0
M  V30 32630 H 3212.86 2.6021 -1.39194 0
M  V30 32631 H 3212.94 1.09325 -2.31261 0
M  V30 32632 H 3212.58 2.41535 -4.46792 0
M  V30 32633 H 3212.51 3.91987 -3.51644 0
M  V30 32634 H 3215.01 2.5274 -2.80946 0
M  V30 32635 H 3215.32 4.68669 -6.14466 0
M  V30 32636 H 3213.66 4.22039 -5.52184 0
M  V30 32637 H 3216.85 3.06752 -3.53583 0
M  V30 32638 H 3217.03 4.05235 -5.05657 0
M  V30 32639 N 3210.43 1.08146 1.1464 0
M  V30 32640 C 3211.85 0.808561 1.37603 0
M  V30 32641 C 3212.05 -0.583418 1.92869 0
M  V30 32642 O 3211.11 -1.3407 2.13966 0
M  V30 32643 C 3212.42 1.88904 2.33957 0
M  V30 32644 C 3213.97 1.91474 2.47602 0
M  V30 32645 C 3214.44 2.98629 3.47253 0
M  V30 32646 N 3215.93 2.97784 3.54795 0
M  V30 32647 C 3216.67 3.77339 4.31744 0
M  V30 32648 N 3216.16 4.66766 5.11958 0
M  V30 32649 N 3217.96 3.65652 4.26913 0
M  V30 32650 H 3210.11 1.97908 0.771119 0
M  V30 32651 H 3212.37 0.858695 0.401679 0
M  V30 32652 H 3212.08 2.88966 2.00479 0
M  V30 32653 H 3211.95 1.75606 3.3383 0
M  V30 32654 H 3214.34 0.920598 2.80373 0
M  V30 32655 H 3214.42 2.08851 1.47699 0
M  V30 32656 H 3214.06 3.98248 3.15216 0
M  V30 32657 H 3213.99 2.78498 4.4693 0
M  V30 32658 H 3216.48 2.32965 2.97549 0
M  V30 32659 H 3216.8 5.24082 5.67941 0
M  V30 32660 H 3215.14 4.7081 5.11236 0
M  V30 32661 H 3218.33 2.95159 3.63317 0
M  V30 32662 H 3218.51 4.27893 4.86633 0
M  V30 32663 N 3211.91 -1.31626 0.866732 0
M  V30 32664 C 3213.16 -1.96436 0.47512 0
M  V30 32665 C 3213.48 -1.68866 -0.975149 0
M  V30 32666 O 3212.75 -1.00233 -1.68316 0
M  V30 32667 H 3211.33 -0.726761 0.172708 0
M  V30 32668 H 3213.99 -1.60492 1.10581 0
M  V30 32669 H 3213.09 -3.05672 0.630177 0
M  V30 32670 N 3213.39 -0.62585 -1.4464 0
M  V30 32671 C 3214.81 -0.29102 -1.56924 0
M  V30 32672 C 3215.01 1.20598 -1.61426 0
M  V30 32673 O 3214.06 1.98982 -1.55443 0
M  V30 32674 C 3215.37 -0.978292 -2.84341 0
M  V30 32675 C 3216.92 -0.955934 -2.98045 0
M  V30 32676 C 3217.4 -1.62357 -4.28257 0
M  V30 32677 N 3218.89 -1.58991 -4.35059 0
M  V30 32678 C 3219.62 -2.07548 -5.3452 0
M  V30 32679 N 3219.12 -2.64272 -6.40416 0
M  V30 32680 N 3220.91 -1.98208 -5.25994 0
M  V30 32681 H 3213.06 -1.59764 -1.39962 0
M  V30 32682 H 3215.33 -0.670318 -0.670357 0
M  V30 32683 H 3215.03 -2.03309 -2.86981 0
M  V30 32684 H 3214.91 -0.512792 -3.73698 0
M  V30 32685 H 3217.29 0.0903773 -2.94962 0
M  V30 32686 H 3217.37 -1.45987 -2.10051 0
M  V30 32687 H 3217.02 -2.6693 -4.321 0
M  V30 32688 H 3216.95 -1.0945 -5.151 0
M  V30 32689 H 3219.44 -1.17571 -3.59145 0
M  V30 32690 H 3219.75 -2.99069 -7.12585 0
M  V30 32691 H 3218.1 -2.6832 -6.41116 0
M  V30 32692 H 3221.29 -1.53618 -4.42175 0
M  V30 32693 H 3221.46 -2.36361 -6.03355 0
M  V30 32694 N 3214.87 1.53289 -0.36608 0
M  V30 32695 C 3216.11 2.01561 0.223788 0
M  V30 32696 C 3216.45 1.25288 1.48379 0
M  V30 32697 O 3215.72 0.346723 1.91385 0
M  V30 32698 C 3216 3.56395 0.515237 0
M  V30 32699 C 3215.86 4.4336 -0.758435 0
M  V30 32700 C 3217.18 4.19976 1.3156 0
M  V30 32701 H 3214.3 0.73266 0.0798623 0
M  V30 32702 H 3216.94 1.83544 -0.49107 0
M  V30 32703 H 3215.09 3.71878 1.12422 0
M  V30 32704 H 3216.76 4.39672 -1.39592 0
M  V30 32705 H 3215 4.11308 -1.37869 0
M  V30 32706 H 3215.67 5.49644 -0.509463 0
M  V30 32707 H 3218.15 4.08328 0.800442 0
M  V30 32708 H 3217.03 5.28339 1.48827 0
M  V30 32709 H 3217.29 3.76073 2.32426 0
M  V30 32710 N 3216.35 0.0952613 1.57312 0
M  V30 32711 C 3217.31 -0.849124 2.12891 0
M  V30 32712 C 3218.31 -1.21073 1.05821 0
M  V30 32713 O 3219.5 -1.14014 1.31706 0
M  V30 32714 C 3216.63 -2.14493 2.64963 0
M  V30 32715 H 3217.82 -0.366513 2.97652 0
M  V30 32716 H 3215.38 -0.153735 1.55542 0
M  V30 32717 H 3216.11 -2.67238 1.83723 0
M  V30 32718 H 3215.9 -1.89536 3.43247 0
M  V30 32719 H 3217.39 -2.8205 3.07957 0
M  V30 32720 N 3217.82 -1.56587 -0.178432 0
M  V30 32721 C 3219.07 -1.81589 -0.896203 0
M  V30 32722 C 3219.4 -0.6712 -1.82552 0
M  V30 32723 O 3218.65 0.342012 -1.92688 0
M  V30 32724 C 3218.95 -3.12707 -1.73057 0
M  V30 32725 C 3218.62 -4.40761 -0.950799 0
M  V30 32726 C 3217.28 -4.75545 -0.735563 0
M  V30 32727 C 3219.63 -5.19637 -0.403327 0
M  V30 32728 C 3216.96 -5.86687 0.0383593 0
M  V30 32729 C 3219.31 -6.31589 0.35747 0
M  V30 32730 C 3217.98 -6.64944 0.583571 0
M  V30 32731 H 3217.25 -0.66448 -0.327944 0
M  V30 32732 H 3219.89 -1.90817 -0.161552 0
M  V30 32733 H 3218.2 -2.9879 -2.5344 0
M  V30 32734 H 3219.9 -3.29261 -2.28885 0
M  V30 32735 H 3216.49 -4.13474 -1.12859 0
M  V30 32736 H 3220.67 -4.93165 -0.556972 0
M  V30 32737 H 3215.93 -6.10992 0.223345 0
M  V30 32738 H 3220.1 -6.91916 0.788982 0
M  V30 32739 H 3217.73 -7.50905 1.18515 0
M  V30 32740 N 3219.3 0.446741 -1.51136 0
M  V30 32741 C 3220.23 1.54913 -1.74712 0
M  V30 32742 C 3221.21 1.59292 -0.596656 0
M  V30 32743 O 3222.4 1.75171 -0.838386 0
M  V30 32744 C 3219.53 2.93067 -1.86358 0
M  V30 32745 C 3218.48 3.0355 -3.0173 0
M  V30 32746 C 3217.81 4.43591 -2.98548 0
M  V30 32747 C 3219.11 2.78502 -4.41853 0
M  V30 32748 H 3220.8 1.35435 -2.67016 0
M  V30 32749 H 3218.35 0.650108 -1.2849 0
M  V30 32750 H 3220.3 3.70138 -2.01435 0
M  V30 32751 H 3219.02 3.13755 -0.906942 0
M  V30 32752 H 3217.68 2.28917 -2.86343 0
M  V30 32753 H 3217.33 4.61233 -2.00681 0
M  V30 32754 H 3217.03 4.51537 -3.76015 0
M  V30 32755 H 3218.56 5.22649 -3.15705 0
M  V30 32756 H 3219.97 3.45311 -4.57639 0
M  V30 32757 H 3218.37 2.97868 -5.20955 0
M  V30 32758 H 3219.44 1.74174 -4.52539 0
M  V30 32759 N 3220.78 1.41123 0.701567 0
M  V30 32760 C 3222.03 1.41367 1.46243 0
M  V30 32761 C 3222.38 0.0201 1.9239 0
M  V30 32762 O 3221.67 -0.952941 1.66221 0
M  V30 32763 C 3221.87 2.34977 2.69296 0
M  V30 32764 C 3221.7 3.83298 2.35186 0
M  V30 32765 C 3220.47 4.52021 2.25842 0
M  V30 32766 C 3222.66 4.7443 1.98547 0
M  V30 32767 N 3220.65 5.85502 1.84554 0
M  V30 32768 C 3222.02 5.96813 1.67971 0
M  V30 32769 C 3224.07 4.62133 1.85305 0
M  V30 32770 C 3222.78 7.0827 1.25483 0
M  V30 32771 C 3224.8 5.73545 1.44222 0
M  V30 32772 C 3224.16 6.95023 1.14552 0
M  V30 32773 H 3220.26 0.572528 0.532669 0
M  V30 32774 H 3222.85 1.76947 0.812265 0
M  V30 32775 H 3221.02 2.01502 3.32041 0
M  V30 32776 H 3222.75 2.25982 3.3573 0
M  V30 32777 H 3219.5 4.05882 2.44043 0
M  V30 32778 H 3219.93 6.56229 1.66409 0
M  V30 32779 H 3224.57 3.68718 2.06899 0
M  V30 32780 H 3222.29 8.01556 1.02633 0
M  V30 32781 H 3225.87 5.66032 1.34534 0
M  V30 32782 H 3224.75 7.79769 0.832419 0
M  V30 32783 N 3222.26 -0.935219 1.26852 0
M  V30 32784 C 3223.53 -1.65982 1.03486 0
M  V30 32785 C 3223.91 -2.06615 -0.432823 0
M  V30 32786 O 3223.26 -1.79458 -1.41446 0
M  V30 32787 C 3223.47 -2.86754 1.98929 0
M  V30 32788 C 3224.82 -3.5827 2.27876 0
M  V30 32789 O 3225.84 -2.96869 1.96843 0
M  V30 32790 O 3224.7 -4.68877 2.80743 0
M  V30 32791 H 3221.8 -0.727143 0.393945 0
M  V30 32792 H 3224.34 -0.986421 1.38086 0
M  V30 32793 H 3223.12 -2.53663 2.97944 0
M  V30 32794 H 3222.74 -3.61817 1.64845 0
M  V30 32795 N 3223.74 -1.08752 -1.14065 0
M  V30 32796 C 3224.67 -0.742398 -2.21384 0
M  V30 32797 C 3225.65 0.276776 -1.67833 0
M  V30 32798 O 3226.83 0.146366 -1.93648 0
M  V30 32799 C 3223.96 -0.154705 -3.46955 0
M  V30 32800 C 3222.92 -1.10262 -4.13553 0
M  V30 32801 C 3222.24 -0.37697 -5.33369 0
M  V30 32802 C 3223.54 -2.44221 -4.61685 0
M  V30 32803 H 3225.24 -1.63968 -2.50509 0
M  V30 32804 H 3222.78 -0.789829 -1.20406 0
M  V30 32805 H 3224.74 0.0987679 -4.21284 0
M  V30 32806 H 3223.46 0.777733 -3.17205 0
M  V30 32807 H 3222.12 -1.34125 -3.41183 0
M  V30 32808 H 3221.77 0.559385 -4.9988 0
M  V30 32809 H 3221.47 -1.00894 -5.78873 0
M  V30 32810 H 3222.99 -0.131634 -6.10458 0
M  V30 32811 H 3224.4 -2.24605 -5.27471 0
M  V30 32812 H 3222.8 -3.03143 -5.17904 0
M  V30 32813 H 3223.87 -3.05489 -3.76569 0
M  V30 32814 N 3225.21 1.31165 -0.873701 0
M  V30 32815 C 3226.46 1.96181 -0.485531 0
M  V30 32816 C 3226.78 1.69381 0.96618 0
M  V30 32817 O 3226.05 1.01124 1.67782 0
M  V30 32818 H 3224.63 0.725834 -0.17656 0
M  V30 32819 H 3227.3 1.59904 -1.11431 0
M  V30 32820 H 3226.39 3.05333 -0.646379 0
M  V30 32821 N 3226.69 0.633512 1.44307 0
M  V30 32822 C 3227.92 0.144384 2.06897 0
M  V30 32823 C 3228.34 -1.17297 1.47047 0
M  V30 32824 O 3227.7 -1.72012 0.572836 0
M  V30 32825 C 3227.75 0.0456957 3.60571 0
M  V30 32826 O 3226.85 -0.997612 4.00152 0
M  V30 32827 H 3226.19 0.0858614 0.658425 0
M  V30 32828 H 3228.72 0.870866 1.85141 0
M  V30 32829 H 3228.73 -0.144106 4.07745 0
M  V30 32830 H 3227.41 1.00747 4.03513 0
M  V30 32831 H 3225.99 -0.782188 3.64604 0
M  V30 32832 N 3228.17 -1.53093 0.374204 0
M  V30 32833 C 3229.42 -2.00981 -0.21236 0
M  V30 32834 C 3229.74 -1.26296 -1.48574 0
M  V30 32835 O 3229.01 -0.378676 -1.92205 0
M  V30 32836 H 3227.59 -0.742545 -0.0814632 0
M  V30 32837 H 3230.25 -1.88313 0.502423 0
M  V30 32838 H 3229.35 -3.09078 -0.433262 0
M  V30 32839 N 3229.65 -0.103603 -1.57259 0
M  V30 32840 C 3230.87 0.569603 -1.99425 0
M  V30 32841 C 3231.3 1.60401 -0.982503 0
M  V30 32842 O 3230.66 1.81237 0.0478912 0
M  V30 32843 C 3230.7 1.18627 -3.40529 0
M  V30 32844 O 3229.81 2.30202 -3.42171 0
M  V30 32845 H 3229.15 0.143747 -0.648254 0
M  V30 32846 H 3231.68 -0.187529 -2.03739 0
M  V30 32847 H 3231.69 1.52553 -3.78407 0
M  V30 32848 H 3230.36 0.428509 -4.13687 0
M  V30 32849 H 3228.94 1.97831 -3.16097 0
M  V30 32850 N 3231.13 1.56679 0.170126 0
M  V30 32851 C 3232.35 1.86198 0.902101 0
M  V30 32852 C 3232.77 0.689129 1.75774 0
M  V30 32853 O 3232.13 -0.341732 1.79272 0
M  V30 32854 C 3232.18 3.14761 1.77787 0
M  V30 32855 O 3231.9 4.27526 0.956742 0
M  V30 32856 C 3233.4 3.57634 2.6194 0
M  V30 32857 H 3230.62 0.617729 0.262016 0
M  V30 32858 H 3233.16 2.03793 0.169863 0
M  V30 32859 H 3231.32 2.98988 2.46343 0
M  V30 32860 H 3231.73 5.00894 1.55581 0
M  V30 32861 H 3233.21 4.5049 3.19003 0
M  V30 32862 H 3233.68 2.81809 3.36868 0
M  V30 32863 H 3234.29 3.76022 1.98714 0
M  V30 32864 N 3232.6 -0.43872 1.5137 0
M  V30 32865 C 3234.02 -0.775091 1.39515 0
M  V30 32866 C 3234.22 -1.95787 0.476414 0
M  V30 32867 O 3233.28 -2.52406 -0.0689388 0
M  V30 32868 C 3234.59 -1.05676 2.81519 0
M  V30 32869 C 3236.14 -1.16128 2.9066 0
M  V30 32870 C 3236.61 -1.47589 4.33568 0
M  V30 32871 N 3238.1 -1.54516 4.36668 0
M  V30 32872 C 3238.84 -1.80428 5.44273 0
M  V30 32873 N 3238.33 -2.04142 6.62041 0
M  V30 32874 N 3240.13 -1.82199 5.31752 0
M  V30 32875 H 3232.28 0.340274 2.09657 0
M  V30 32876 H 3234.54 0.0898281 0.943735 0
M  V30 32877 H 3234.25 -0.260379 3.50735 0
M  V30 32878 H 3234.12 -1.98475 3.20761 0
M  V30 32879 H 3236.51 -1.94829 2.21643 0
M  V30 32880 H 3236.59 -0.212331 2.54917 0
M  V30 32881 H 3236.23 -0.694163 5.03134 0
M  V30 32882 H 3236.16 -2.43688 4.66823 0
M  V30 32883 H 3238.65 -1.38099 3.51763 0
M  V30 32884 H 3238.97 -2.2328 7.39842 0
M  V30 32885 H 3237.31 -2.01467 6.65159 0
M  V30 32886 H 3240.5 -1.63191 4.38733 0
M  V30 32887 H 3240.68 -2.02056 6.15693 0
M  V30 32888 N 3234.08 -1.41493 -0.694073 0
M  V30 32889 C 3235.01 -1.46232 -1.82039 0
M  V30 32890 C 3235.99 -0.320832 -1.67047 0
M  V30 32891 O 3237.18 -0.532483 -1.86757 0
M  V30 32892 C 3234.31 -1.34525 -3.20188 0
M  V30 32893 C 3233.26 -2.46501 -3.49887 0
M  V30 32894 C 3232.59 -2.19859 -4.87408 0
M  V30 32895 C 3233.89 -3.8884 -3.48713 0
M  V30 32896 H 3235.58 -2.40496 -1.78331 0
M  V30 32897 H 3233.13 -1.15755 -0.856546 0
M  V30 32898 H 3235.08 -1.36452 -3.98696 0
M  V30 32899 H 3233.81 -0.367463 -3.24526 0
M  V30 32900 H 3232.46 -2.43859 -2.7373 0
M  V30 32901 H 3232.11 -1.20419 -4.88373 0
M  V30 32902 H 3231.81 -2.94894 -5.08243 0
M  V30 32903 H 3233.34 -2.23504 -5.68224 0
M  V30 32904 H 3234.75 -3.93189 -4.17223 0
M  V30 32905 H 3233.15 -4.6357 -3.81081 0
M  V30 32906 H 3234.22 -4.16885 -2.47658 0
M  V30 32907 N 3235.56 0.928479 -1.27346 0
M  V30 32908 C 3236.47 2.06239 -1.11815 0
M  V30 32909 C 3237.49 1.73933 -0.0483775 0
M  V30 32910 O 3238.66 1.99783 -0.254705 0
M  V30 32911 C 3235.73 3.3813 -0.766096 0
M  V30 32912 C 3234.79 3.84139 -1.91666 0
M  V30 32913 C 3234.02 5.09736 -1.5813 0
M  V30 32914 O 3234.24 5.68301 -0.488841 0
M  V30 32915 O 3233.18 5.51098 -2.42023 0
M  V30 32916 H 3237 2.22254 -2.06971 0
M  V30 32917 H 3234.59 1.0475 -1.06526 0
M  V30 32918 H 3236.47 4.17347 -0.583055 0
M  V30 32919 H 3235.15 3.23324 0.155941 0
M  V30 32920 H 3234.05 3.05812 -2.15475 0
M  V30 32921 H 3235.39 4.03485 -2.81887 0
M  V30 32922 N 3237.04 1.09355 1.13486 0
M  V30 32923 C 3238.29 0.829158 1.84746 0
M  V30 32924 C 3238.61 -0.645215 1.83486 0
M  V30 32925 O 3237.87 -1.49091 1.26769 0
M  V30 32926 C 3238.17 1.3086 3.32581 0
M  V30 32927 C 3237.83 2.79247 3.54023 0
M  V30 32928 C 3236.5 3.19771 3.59583 0
M  V30 32929 C 3238.85 3.74924 3.62052 0
M  V30 32930 C 3236.18 4.54747 3.70704 0
M  V30 32931 C 3238.53 5.09688 3.74701 0
M  V30 32932 C 3237.19 5.49804 3.78513 0
M  V30 32933 H 3236.46 0.303411 0.676035 0
M  V30 32934 H 3239.11 1.36821 1.33986 0
M  V30 32935 H 3237.41 0.689343 3.85688 0
M  V30 32936 H 3239.11 1.08065 3.86164 0
M  V30 32937 H 3235.7 2.46886 3.5035 0
M  V30 32938 H 3239.88 3.4473 3.57037 0
M  V30 32939 H 3235.14 4.85267 3.71923 0
M  V30 32940 H 3239.31 5.8368 3.79856 0
M  V30 32941 H 3236.94 6.54389 3.86883 0
M  V30 32942 N 3238.52 -1.307 0.880644 0
M  V30 32943 C 3239.93 -1.78476 0.548024 0
M  V30 32944 C 3240.28 -1.72456 -0.935602 0
M  V30 32945 O 3239.4 -1.29877 -1.73092 0
M  V30 32946 C 3240 -3.24074 0.988007 0
M  V30 32947 C 3238.56 -3.69703 0.70687 0
M  V30 32948 C 3237.71 -2.5125 1.1734 0
M  V30 32949 H 3240.66 -1.17631 1.0653 0
M  V30 32950 H 3240.68 -3.79193 0.315147 0
M  V30 32951 H 3240.19 -3.28423 2.06784 0
M  V30 32952 H 3238.29 -3.70846 -0.361154 0
M  V30 32953 H 3238.4 -4.61368 1.29139 0
M  V30 32954 H 3236.77 -2.47704 0.592851 0
M  V30 32955 H 3237.55 -2.58339 2.26088 0
M  V30 32956 N 3240 -0.641156 -1.43969 0
M  V30 32957 C 3241.27 -0.0801261 -1.95436 0
M  V30 32958 C 3241.65 1.39675 -1.58284 0
M  V30 32959 O 3241 2.11621 -0.861904 0
M  V30 32960 C 3241.21 -0.313592 -3.47588 0
M  V30 32961 C 3242.56 -0.212109 -4.2407 0
M  V30 32962 O 3243.58 -0.245497 -3.55353 0
M  V30 32963 O 3242.44 -0.125551 -5.46356 0
M  V30 32964 H 3239.54 0.016559 -0.826834 0
M  V30 32965 H 3242.08 -0.713557 -1.53969 0
M  V30 32966 H 3240.85 -1.33799 -3.67714 0
M  V30 32967 H 3240.48 0.353493 -3.96025 0
M  V30 32968 N 3241.47 1.52892 -0.382318 0
M  V30 32969 C 3242.72 2.01489 0.202098 0
M  V30 32970 C 3243.05 1.26904 1.47396 0
M  V30 32971 O 3242.3 0.355805 1.92438 0
M  V30 32972 C 3242.6 3.53547 0.523375 0
M  V30 32973 C 3242.27 4.46101 -0.656121 0
M  V30 32974 C 3240.93 4.71121 -0.979716 0
M  V30 32975 C 3243.28 5.00753 -1.44553 0
M  V30 32976 C 3240.61 5.48044 -2.0944 0
M  V30 32977 C 3242.96 5.78894 -2.55077 0
M  V30 32978 C 3241.63 6.02196 -2.87952 0
M  V30 32979 H 3240.9 0.7373 0.0739529 0
M  V30 32980 H 3243.54 1.84355 -0.518228 0
M  V30 32981 H 3241.85 3.68718 1.32494 0
M  V30 32982 H 3243.55 3.88636 0.988079 0
M  V30 32983 H 3240.14 4.26786 -0.393893 0
M  V30 32984 H 3244.32 4.81355 -1.20878 0
M  V30 32985 H 3239.58 5.64313 -2.3529 0
M  V30 32986 H 3243.75 6.20246 -3.16651 0
M  V30 32987 H 3241.38 6.61585 -3.74446 0
M  V30 32988 N 3242.95 0.111941 1.57202 0
M  V30 32989 C 3244.36 -0.414559 1.82039 0
M  V30 32990 C 3244.71 -1.67072 1.02866 0
M  V30 32991 O 3243.84 -2.14795 0.263106 0
M  V30 32992 C 3244.43 -0.758895 3.30191 0
M  V30 32993 C 3242.99 -1.23006 3.55734 0
M  V30 32994 C 3242.14 -0.235177 2.76301 0
M  V30 32995 H 3245.09 0.337169 1.55077 0
M  V30 32996 H 3245.11 -1.61695 3.44434 0
M  V30 32997 H 3244.62 0.155541 3.87788 0
M  V30 32998 H 3242.72 -2.16164 3.03487 0
M  V30 32999 H 3242.84 -1.18026 4.64335 0
M  V30 33000 H 3241.2 -0.720779 2.44288 0
M  V30 33001 H 3241.98 0.672233 3.36654 0
M  V30 33002 N 3244.43 -1.56767 -0.161814 0
M  V30 33003 C 3245.68 -1.8172 -0.875246 0
M  V30 33004 C 3245.99 -0.690771 -1.82996 0
M  V30 33005 O 3247.2 -0.825496 -2.58646 0
M  V30 33006 C 3245.65 -3.22032 -1.60697 0
M  V30 33007 C 3245.26 -4.4257 -0.695408 0
M  V30 33008 C 3247.01 -3.56271 -2.30806 0
M  V30 33009 C 3244.91 -5.73903 -1.42791 0
M  V30 33010 H 3243.84 -0.677668 -0.330579 0
M  V30 33011 H 3246.49 -1.83052 -0.12808 0
M  V30 33012 H 3244.88 -3.15044 -2.39923 0
M  V30 33013 H 3246.05 -4.6076 0.0605692 0
M  V30 33014 H 3244.36 -4.16271 -0.103487 0
M  V30 33015 H 3246.96 -4.51643 -2.86221 0
M  V30 33016 H 3247.3 -2.81609 -3.06598 0
M  V30 33017 H 3247.84 -3.64854 -1.58514 0
M  V30 33018 H 3244.58 -6.5162 -0.712138 0
M  V30 33019 H 3244.1 -5.59674 -2.15697 0
M  V30 33020 H 3245.78 -6.16188 -1.97284 0
M  V30 33021 N 3245.91 0.430686 -1.51601 0
M  V30 33022 C 3247.18 1.1912 -1.55144 0
M  V30 33023 C 3247.56 2.08666 -0.319632 0
M  V30 33024 O 3246.91 2.17678 0.694888 0
M  V30 33025 C 3247.12 1.98727 -2.86895 0
M  V30 33026 C 3248.47 2.5554 -3.39094 0
M  V30 33027 O 3249.49 2.08931 -2.8849 0
M  V30 33028 O 3248.35 3.40566 -4.27407 0
M  V30 33029 H 3245.45 0.542694 -0.624029 0
M  V30 33030 H 3247.99 0.439215 -1.63918 0
M  V30 33031 H 3246.77 1.32999 -3.68004 0
M  V30 33032 H 3246.39 2.80977 -2.81314 0
M  V30 33033 N 3247.39 1.4186 0.686559 0
M  V30 33034 C 3248.66 1.32187 1.44173 0
M  V30 33035 C 3249.04 -0.0463249 2.11049 0
M  V30 33036 O 3248.39 -1.06113 2.02367 0
M  V30 33037 C 3248.6 2.48172 2.45381 0
M  V30 33038 C 3249.95 2.89751 3.1037 0
M  V30 33039 O 3250.97 2.47977 2.55706 0
M  V30 33040 O 3249.83 3.62016 4.09398 0
M  V30 33041 H 3246.93 0.520689 0.642504 0
M  V30 33042 H 3249.47 1.53843 0.716276 0
M  V30 33043 H 3248.24 3.39433 1.94681 0
M  V30 33044 H 3247.87 2.28441 3.25424 0
M  V30 33045 N 3248.86 -0.921712 1.27837 0
M  V30 33046 C 3249.81 -2.04447 1.10924 0
M  V30 33047 C 3250.81 -1.69372 0.0306767 0
M  V30 33048 O 3252.01 -1.79007 0.18885 0
M  V30 33049 H 3248.39 -0.669739 0.341984 0
M  V30 33050 H 3250.36 -2.15857 2.0603 0
M  V30 33051 C 3249.11 -3.3885 0.779503 0
M  V30 33052 H 3248.43 -3.66328 1.60137 0
M  V30 33053 H 3249.87 -4.18164 0.701072 0
M  V30 33054 C 3248.33 -3.32919 -0.516411 0
M  V30 33055 O 3248.86 -3.7063 -1.54907 0
M  V30 33056 N 3247.06 -2.86014 -0.514226 0
M  V30 33057 H 3246.61 -2.55522 0.326554 0
M  V30 33058 H 3246.57 -2.82428 -1.38136 0
M  V30 33059 N 3250.34 -1.09956 -1.12905 0
M  V30 33060 C 3251.76 -0.83035 -1.36299 0
M  V30 33061 C 3251.96 0.55266 -1.93773 0
M  V30 33062 O 3251.01 1.30649 -2.16072 0
M  V30 33063 C 3252.33 -1.92602 -2.30922 0
M  V30 33064 C 3253.87 -1.95389 -2.44524 0
M  V30 33065 C 3254.35 -3.04116 -3.42458 0
M  V30 33066 N 3255.84 -3.0339 -3.50012 0
M  V30 33067 C 3256.58 -3.8416 -4.25686 0
M  V30 33068 N 3256.07 -4.74852 -5.04468 0
M  V30 33069 N 3257.86 -3.72398 -4.21042 0
M  V30 33070 H 3250.02 -1.9911 -0.739536 0
M  V30 33071 H 3252.28 -0.864977 -0.387967 0
M  V30 33072 H 3251.98 -2.92119 -1.95856 0
M  V30 33073 H 3251.86 -1.80894 -3.30994 0
M  V30 33074 H 3254.25 -0.965086 -2.78873 0
M  V30 33075 H 3254.33 -2.11174 -1.44357 0
M  V30 33076 H 3253.97 -4.03213 -3.0884 0
M  V30 33077 H 3253.9 -2.85573 -4.42443 0
M  V30 33078 H 3256.39 -2.3767 -2.93805 0
M  V30 33079 H 3256.7 -5.33051 -5.59532 0
M  V30 33080 H 3255.05 -4.78884 -5.03681 0
M  V30 33081 H 3258.24 -3.00901 -3.58575 0
M  V30 33082 H 3258.41 -4.35581 -4.79764 0
M  V30 33083 N 3251.82 1.30231 -0.887563 0
M  V30 33084 C 3253.07 1.96708 -0.517441 0
M  V30 33085 C 3253.42 1.68775 0.923727 0
M  V30 33086 O 3252.71 0.983472 1.64434 0
M  V30 33087 C 3252.91 3.49827 -0.731827 0
M  V30 33088 C 3252.74 3.92644 -2.19228 0
M  V30 33089 C 3251.51 4.18117 -2.83737 0
M  V30 33090 C 3253.7 4.05275 -3.16634 0
M  V30 33091 N 3251.69 4.47413 -4.20351 0
M  V30 33092 C 3253.06 4.38483 -4.38329 0
M  V30 33093 C 3255.11 3.87709 -3.12387 0
M  V30 33094 C 3253.82 4.55958 -5.56323 0
M  V30 33095 C 3255.84 4.06387 -4.29655 0
M  V30 33096 C 3255.2 4.39943 -5.50118 0
M  V30 33097 H 3251.3 0.744672 -0.238722 0
M  V30 33098 H 3253.89 1.57412 -1.14584 0
M  V30 33099 H 3252.06 3.88173 -0.132895 0
M  V30 33100 H 3253.79 4.03366 -0.328347 0
M  V30 33101 H 3250.54 4.11417 -2.34592 0
M  V30 33102 H 3250.97 4.66191 -4.90913 0
M  V30 33103 H 3255.61 3.6084 -2.20351 0
M  V30 33104 H 3253.33 4.81669 -6.48861 0
M  V30 33105 H 3256.91 3.94262 -4.27842 0
M  V30 33106 H 3255.79 4.54098 -6.39347 0
M  V30 33107 N 3253.3 0.648782 1.43627 0
M  V30 33108 C 3254.25 -0.0677539 2.27899 0
M  V30 33109 C 3255.23 -0.799091 1.39654 0
M  V30 33110 O 3256.42 -0.682288 1.63321 0
M  V30 33111 C 3253.55 -1.03654 3.27278 0
M  V30 33112 C 3252.64 -0.303908 4.2301 0
M  V30 33113 N 3253.03 0.677144 5.01247 0
M  V30 33114 C 3251.33 -0.545963 4.42646 0
M  V30 33115 C 3252.03 1.11161 5.7098 0
M  V30 33116 N 3251.01 0.446764 5.41761 0
M  V30 33117 H 3254.81 0.685123 2.85803 0
M  V30 33118 H 3252.32 0.475702 1.55277 0
M  V30 33119 H 3254.32 -1.56463 3.86426 0
M  V30 33120 H 3252.98 -1.78953 2.70935 0
M  V30 33121 H 3253.99 1.05569 5.07026 0
M  V30 33122 H 3250.67 -1.28046 3.97379 0
M  V30 33123 H 3252.06 1.92311 6.4379 0
M  V30 33124 N 3254.78 -1.52688 0.390421 0
M  V30 33125 C 3256 -2.06491 -0.193977 0
M  V30 33126 C 3256.43 -1.26016 -1.39648 0
M  V30 33127 O 3255.78 -0.285499 -1.79038 0
M  V30 33128 C 3255.83 -3.56515 -0.541244 0
M  V30 33129 O 3254.94 -3.78603 -1.63503 0
M  V30 33130 H 3254.28 -0.663624 -0.0223491 0
M  V30 33131 H 3256.81 -1.96838 0.558214 0
M  V30 33132 H 3256.82 -3.99975 -0.805231 0
M  V30 33133 H 3255.49 -4.14525 0.337901 0
M  V30 33134 H 3254.07 -3.47032 -1.36467 0
M  V30 33135 N 3256.25 -0.120276 -1.5714 0
M  V30 33136 C 3257.5 0.537236 -1.94414 0
M  V30 33137 C 3257.82 1.67749 -1.00597 0
M  V30 33138 O 3259.02 2.39785 -1.27341 0
M  V30 33139 C 3257.48 1.00708 -3.45523 0
M  V30 33140 C 3257.09 -0.104785 -4.47877 0
M  V30 33141 C 3258.83 1.63589 -3.91713 0
M  V30 33142 C 3256.74 0.381828 -5.90166 0
M  V30 33143 H 3255.67 0.204462 -0.725749 0
M  V30 33144 H 3258.32 -0.200334 -1.82403 0
M  V30 33145 H 3256.7 1.79911 -3.52772 0
M  V30 33146 H 3257.87 -0.881082 -4.52298 0
M  V30 33147 H 3256.19 -0.640336 -4.11447 0
M  V30 33148 H 3258.79 2.01113 -4.95437 0
M  V30 33149 H 3259.13 2.51478 -3.3176 0
M  V30 33150 H 3259.66 0.909251 -3.87269 0
M  V30 33151 H 3256.4 -0.461036 -6.53877 0
M  V30 33152 H 3255.92 1.12458 -5.89163 0
M  V30 33153 H 3257.6 0.842635 -6.41489 0
M  V30 33154 N 3257.73 1.56851 0.153498 0
M  V30 33155 C 3258.68 1.9419 1.19474 0
M  V30 33156 C 3259.67 0.812354 1.38887 0
M  V30 33157 O 3260.86 1.07575 1.40559 0
M  V30 33158 C 3257.99 2.32051 2.52996 0
M  V30 33159 C 3257.07 3.51562 2.37203 0
M  V30 33160 N 3257.46 4.68288 1.91154 0
M  V30 33161 C 3255.76 3.56519 2.67975 0
M  V30 33162 C 3256.46 5.50397 1.88249 0
M  V30 33163 N 3255.44 4.91927 2.3132 0
M  V30 33164 H 3259.24 2.81916 0.830698 0
M  V30 33165 H 3256.76 1.58323 0.361615 0
M  V30 33166 H 3258.75 2.57004 3.2826 0
M  V30 33167 H 3257.41 1.45674 2.90188 0
M  V30 33168 H 3258.42 4.92168 1.61218 0
M  V30 33169 H 3255.1 2.80665 3.09085 0
M  V30 33170 H 3256.49 6.53968 1.54193 0
M  V30 33171 N 3259.21 -0.42264 1.51827 0
M  V30 33172 C 3260.46 -1.17255 1.65466 0
M  V30 33173 C 3260.79 -1.90508 0.376867 0
M  V30 33174 O 3260.06 -1.84212 -0.624187 0
M  V30 33175 C 3260.35 -2.17783 2.8678 0
M  V30 33176 C 3260.2 -1.48516 4.24574 0
M  V30 33177 C 3261.52 -3.18606 3.03609 0
M  V30 33178 H 3258.64 -0.424915 0.602176 0
M  V30 33179 H 3261.28 -0.459927 1.84349 0
M  V30 33180 H 3259.43 -2.78556 2.70811 0
M  V30 33181 H 3261.1 -0.909659 4.52242 0
M  V30 33182 H 3259.35 -0.787279 4.26596 0
M  V30 33183 H 3260.02 -2.21801 5.05478 0
M  V30 33184 H 3262.49 -2.67898 3.18386 0
M  V30 33185 H 3261.37 -3.86223 3.90029 0
M  V30 33186 H 3261.63 -3.85559 2.16325 0
M  V30 33187 N 3260.69 -1.42222 -0.679027 0
M  V30 33188 C 3261.65 -1.45072 -1.77445 0
M  V30 33189 C 3262.65 -0.338909 -1.57188 0
M  V30 33190 O 3263.84 -0.599548 -1.63558 0
M  V30 33191 C 3260.97 -1.27825 -3.16028 0
M  V30 33192 H 3262.17 -2.42603 -1.76306 0
M  V30 33193 H 3259.72 -1.28607 -0.888254 0
M  V30 33194 H 3260.45 -0.312002 -3.22796 0
M  V30 33195 H 3260.24 -2.08397 -3.32134 0
M  V30 33196 H 3261.73 -1.32693 -3.95957 0
M  V30 33197 N 3262.17 0.91492 -1.28324 0
M  V30 33198 C 3263.58 1.19311 -1.06005 0
M  V30 33199 C 3263.78 2.00522 0.198331 0
M  V30 33200 O 3262.84 2.35903 0.900322 0
M  V30 33201 C 3264.15 1.92883 -2.30687 0
M  V30 33202 C 3265.7 2.05771 -2.35854 0
M  V30 33203 C 3266.17 2.82751 -3.603 0
M  V30 33204 N 3267.67 2.90313 -3.60933 0
M  V30 33205 C 3268.4 3.50375 -4.539 0
M  V30 33206 N 3267.9 4.11724 -5.57185 0
M  V30 33207 N 3269.69 3.47902 -4.41498 0
M  V30 33208 H 3261.84 0.372698 -2.09105 0
M  V30 33209 H 3264.1 0.227536 -0.920289 0
M  V30 33210 H 3263.81 1.40637 -3.22357 0
M  V30 33211 H 3263.68 2.9344 -2.37009 0
M  V30 33212 H 3266.07 2.57198 -1.44682 0
M  V30 33213 H 3266.15 1.04395 -2.33528 0
M  V30 33214 H 3265.8 2.32003 -4.51815 0
M  V30 33215 H 3265.73 3.8444 -3.5988 0
M  V30 33216 H 3268.22 2.46724 -2.86244 0
M  V30 33217 H 3268.53 4.5553 -6.24269 0
M  V30 33218 H 3266.87 4.10232 -5.61012 0
M  V30 33219 H 3270.07 2.99183 -3.6001 0
M  V30 33220 H 3270.24 3.94418 -5.14139 0
M  V30 33221 N 3263.64 1.10553 1.1232 0
M  V30 33222 C 3264.89 0.848707 1.83857 0
M  V30 33223 C 3265.22 -0.625718 1.8416 0
M  V30 33224 O 3264.47 -1.47738 1.28344 0
M  V30 33225 C 3264.77 1.3438 3.31175 0
M  V30 33226 C 3264.44 2.82986 3.51041 0
M  V30 33227 C 3263.1 3.23567 3.56171 0
M  V30 33228 C 3265.45 3.78743 3.58055 0
M  V30 33229 C 3262.78 4.58654 3.6586 0
M  V30 33230 C 3265.13 5.13634 3.69274 0
M  V30 33231 C 3263.8 5.53787 3.7266 0
M  V30 33232 H 3263.07 0.310564 0.672779 0
M  V30 33233 H 3265.71 1.38234 1.32528 0
M  V30 33234 H 3264.02 0.730211 3.84935 0
M  V30 33235 H 3265.72 1.12155 3.84996 0
M  V30 33236 H 3262.31 2.50588 3.47712 0
M  V30 33237 H 3266.49 3.48497 3.5336 0
M  V30 33238 H 3261.75 4.89184 3.66755 0
M  V30 33239 H 3265.92 5.87676 3.73644 0
M  V30 33240 H 3263.55 6.58456 3.79921 0
M  V30 33241 N 3265.12 -1.29758 0.894457 0
M  V30 33242 C 3266.37 -1.95384 0.51668 0
M  V30 33243 C 3266.69 -1.70897 -0.939111 0
M  V30 33244 O 3265.96 -1.03781 -1.66152 0
M  V30 33245 H 3264.54 -0.722934 0.188085 0
M  V30 33246 H 3267.2 -1.58111 1.13961 0
M  V30 33247 H 3266.3 -3.04266 0.694873 0
M  V30 33248 N 3266.6 -0.65639 -1.4328 0
M  V30 33249 C 3267.55 0.0451628 -2.32556 0
M  V30 33250 C 3268.54 0.809794 -1.48791 0
M  V30 33251 O 3269.75 0.719836 -1.6498 0
M  V30 33252 H 3266.12 0.0333911 -0.751258 0
M  V30 33253 H 3268.09 -0.725474 -2.89447 0
M  V30 33254 C 3266.84 0.995648 -3.3314 0
M  V30 33255 H 3266.17 0.416704 -3.97622 0
M  V30 33256 H 3267.61 1.45555 -3.98233 0
M  V30 33257 C 3266.07 2.0932 -2.63982 0
M  V30 33258 O 3266.6 3.17739 -2.45774 0
M  V30 33259 N 3264.8 1.85966 -2.23305 0
M  V30 33260 H 3264.35 0.977978 -2.38314 0
M  V30 33261 H 3264.31 2.59596 -1.77362 0
M  V30 33262 N 3268.08 1.52478 -0.398513 0
M  V30 33263 C 3269.33 2.00877 0.182011 0
M  V30 33264 C 3269.64 1.28893 1.47126 0
M  V30 33265 O 3270.85 1.68051 2.13239 0
M  V30 33266 C 3269.3 3.57942 0.374915 0
M  V30 33267 C 3268.91 4.38833 -0.901621 0
M  V30 33268 C 3270.66 4.14603 0.911305 0
M  V30 33269 C 3268.56 5.87518 -0.676489 0
M  V30 33270 H 3267.49 0.750574 0.0717936 0
M  V30 33271 H 3270.14 1.75909 -0.522328 0
M  V30 33272 H 3268.53 3.79196 1.14133 0
M  V30 33273 H 3269.7 4.29343 -1.67336 0
M  V30 33274 H 3268.01 3.93438 -1.36364 0
M  V30 33275 H 3270.61 5.23355 1.0956 0
M  V30 33276 H 3270.95 3.7128 1.88299 0
M  V30 33277 H 3271.49 3.97275 0.204226 0
M  V30 33278 H 3268.23 6.35181 -1.61944 0
M  V30 33279 H 3267.75 5.99774 0.0561488 0
M  V30 33280 H 3269.43 6.46235 -0.314568 0
M  V30 33281 N 3269.56 0.128608 1.57074 0
M  V30 33282 C 3270.81 -0.526012 1.95135 0
M  V30 33283 C 3271.13 -1.66599 1.0134 0
M  V30 33284 O 3270.4 -1.9577 0.0714705 0
M  V30 33285 H 3268.98 -0.197307 0.720471 0
M  V30 33286 H 3271.64 0.199801 1.93873 0
M  V30 33287 H 3270.73 -0.91428 2.98408 0
M  V30 33288 N 3271.04 -1.5693 -0.145178 0
M  V30 33289 C 3272.26 -1.87976 -0.876353 0
M  V30 33290 C 3272.69 -0.717826 -1.73865 0
M  V30 33291 O 3272.04 0.332519 -1.78225 0
M  V30 33292 C 3272.09 -3.17616 -1.7074 0
M  V30 33293 O 3271.2 -3.01679 -2.81183 0
M  V30 33294 H 3270.54 -0.617553 -0.243976 0
M  V30 33295 H 3273.07 -2.04151 -0.135446 0
M  V30 33296 H 3273.08 -3.49683 -2.10204 0
M  V30 33297 H 3271.75 -4.01788 -1.07422 0
M  V30 33298 H 3270.33 -2.81024 -2.45112 0
M  V30 33299 N 3272.51 0.414582 -1.52049 0
M  V30 33300 C 3273.44 1.51172 -1.77958 0
M  V30 33301 C 3274.42 1.57991 -0.63031 0
M  V30 33302 O 3275.61 1.73353 -0.875354 0
M  V30 33303 C 3272.74 2.89048 -1.92532 0
M  V30 33304 C 3271.69 2.97082 -3.08101 0
M  V30 33305 C 3271.02 4.37159 -3.0789 0
M  V30 33306 C 3272.32 2.69067 -4.47661 0
M  V30 33307 H 3274.01 1.29741 -2.69829 0
M  V30 33308 H 3271.56 0.622707 -1.2984 0
M  V30 33309 H 3273.51 3.65782 -2.0924 0
M  V30 33310 H 3272.24 3.11761 -0.97329 0
M  V30 33311 H 3270.9 2.22792 -2.91135 0
M  V30 33312 H 3270.54 4.56873 -2.10419 0
M  V30 33313 H 3270.24 4.4346 -3.85509 0
M  V30 33314 H 3271.77 5.15835 -3.26721 0
M  V30 33315 H 3273.18 3.35526 -4.64861 0
M  V30 33316 H 3271.58 2.86751 -5.27156 0
M  V30 33317 H 3272.65 1.64536 -4.56132 0
M  V30 33318 N 3273.99 1.4258 0.671475 0
M  V30 33319 C 3275.22 1.46839 1.46469 0
M  V30 33320 C 3275.64 0.0820988 1.87921 0
M  V30 33321 O 3275 -0.920189 1.56212 0
M  V30 33322 C 3275.05 2.40382 2.68792 0
M  V30 33323 O 3274.15 1.87748 3.67185 0
M  V30 33324 H 3273.49 0.497384 0.439892 0
M  V30 33325 H 3276.02 1.87304 0.823309 0
M  V30 33326 H 3276.03 2.57074 3.16823 0
M  V30 33327 H 3274.71 3.41097 2.37961 0
M  V30 33328 H 3273.28 1.80627 3.26233 0
M  V30 33329 N 3275.47 -0.908102 1.28807 0
M  V30 33330 C 3276.72 -1.66025 1.16463 0
M  V30 33331 C 3277.05 -1.92097 -0.284991 0
M  V30 33332 O 3276.32 -1.5254 -1.20673 0
M  V30 33333 C 3276.61 -3.01463 1.96957 0
M  V30 33334 C 3276.46 -2.82509 3.50012 0
M  V30 33335 C 3277.78 -4.0208 1.78939 0
M  V30 33336 H 3274.9 -0.602507 0.424446 0
M  V30 33337 H 3277.54 -1.05247 1.58187 0
M  V30 33338 H 3275.69 -3.53341 1.61501 0
M  V30 33339 H 3277.36 -2.37598 3.95405 0
M  V30 33340 H 3275.6 -2.17456 3.7536 0
M  V30 33341 H 3276.28 -3.78713 4.01597 0
M  V30 33342 H 3278.75 -3.59284 2.09891 0
M  V30 33343 H 3277.63 -4.94799 2.37623 0
M  V30 33344 H 3277.89 -4.35823 0.742362 0
M  V30 33345 N 3276.95 -1.11147 -1.11732 0
M  V30 33346 C 3277.89 -0.767018 -2.17682 0
M  V30 33347 C 3278.86 0.26008 -1.64051 0
M  V30 33348 O 3280.05 0.13769 -1.90303 0
M  V30 33349 C 3277.19 -0.213043 -3.44442 0
M  V30 33350 C 3276.3 -1.29633 -4.12091 0
M  V30 33351 C 3275.44 -0.703219 -5.26525 0
M  V30 33352 C 3274.48 -1.76657 -5.86053 0
M  V30 33353 N 3273.61 -1.19318 -6.91887 0
M  V30 33354 H 3278.45 -1.67469 -2.46492 0
M  V30 33355 H 3275.99 -0.836374 -1.21009 0
M  V30 33356 H 3277.95 0.126088 -4.17009 0
M  V30 33357 H 3276.58 0.657833 -3.16026 0
M  V30 33358 H 3275.63 -1.75247 -3.37628 0
M  V30 33359 H 3276.94 -2.10097 -4.52395 0
M  V30 33360 H 3276.1 -0.313966 -6.05887 0
M  V30 33361 H 3274.84 0.13277 -4.87519 0
M  V30 33362 H 3273.84 -2.16517 -5.05372 0
M  V30 33363 H 3275.07 -2.60554 -6.27127 0
M  V30 33364 H 3273.01 -0.378779 -6.54906 0
M  V30 33365 H 3272.93 -1.93456 -7.30829 0
M  V30 33366 H 3274.2 -0.830714 -7.75061 0
M  V30 33367 N 3278.43 1.29282 -0.901326 0
M  V30 33368 C 3279.34 2.3142 -0.384941 0
M  V30 33369 C 3280.35 1.66013 0.521134 0
M  V30 33370 O 3281.53 1.97176 0.410321 0
M  V30 33371 C 3278.59 3.44636 0.377744 0
M  V30 33372 C 3277.65 4.25631 -0.560049 0
M  V30 33373 C 3276.89 5.33441 0.166332 0
M  V30 33374 O 3277.11 5.53204 1.39002 0
M  V30 33375 O 3276.04 5.99886 -0.491981 0
M  V30 33376 H 3279.87 2.77573 -1.23235 0
M  V30 33377 H 3277.45 1.33749 -0.665706 0
M  V30 33378 H 3279.34 4.13562 0.808969 0
M  V30 33379 H 3278.01 3.00588 1.20118 0
M  V30 33380 H 3276.92 3.59341 -1.04042 0
M  V30 33381 H 3278.25 4.73326 -1.34995 0
M  V30 33382 N 3279.9 0.663979 1.4293 0
M  V30 33383 C 3280.84 -0.0709917 2.2809 0
M  V30 33384 C 3281.81 -0.81935 1.40447 0
M  V30 33385 O 3283 -0.816708 1.69889 0
M  V30 33386 C 3280.13 -1.10751 3.20081 0
M  V30 33387 C 3279.17 -0.45597 4.24056 0
M  V30 33388 S 3280 0.778449 5.29812 0
M  V30 33389 C 3281.16 -0.257263 6.25371 0
M  V30 33390 H 3281.39 0.651366 2.90077 0
M  V30 33391 H 3278.93 0.453163 1.476 0
M  V30 33392 H 3280.88 -1.70048 3.73623 0
M  V30 33393 H 3279.55 -1.80224 2.57251 0
M  V30 33394 H 3278.74 -1.23771 4.88566 0
M  V30 33395 H 3278.34 0.063149 3.73947 0
M  V30 33396 H 3280.63 -1.12026 6.68174 0
M  V30 33397 H 3281.58 0.353093 7.07219 0
M  V30 33398 H 3281.98 -0.597893 5.61325 0
M  V30 33399 N 3281.38 -1.52265 0.406593 0
M  V30 33400 C 3282.61 -2.06685 -0.172065 0
M  V30 33401 C 3283.03 -1.2749 -1.38303 0
M  V30 33402 O 3282.39 -0.304473 -1.78725 0
M  V30 33403 C 3282.44 -3.57069 -0.5034 0
M  V30 33404 O 3281.54 -3.80316 -1.59478 0
M  V30 33405 H 3280.88 -0.663823 -0.0153092 0
M  V30 33406 H 3283.41 -1.96235 0.57906 0
M  V30 33407 H 3283.42 -4.00807 -0.762763 0
M  V30 33408 H 3282.1 -4.14143 0.381848 0
M  V30 33409 H 3280.67 -3.4846 -1.32778 0
M  V30 33410 N 3282.86 -0.136936 -1.57004 0
M  V30 33411 C 3284.09 0.527173 -2.00588 0
M  V30 33412 C 3284.51 1.58281 -1.01631 0
M  V30 33413 O 3283.87 1.81298 0.00943748 0
M  V30 33414 C 3283.92 1.11378 -3.42969 0
M  V30 33415 O 3283.02 2.22892 -3.46977 0
M  V30 33416 H 3282.36 0.129965 -0.651157 0
M  V30 33417 H 3284.89 -0.230703 -2.03295 0
M  V30 33418 H 3284.9 1.44492 -3.81557 0
M  V30 33419 H 3283.58 0.340663 -4.14502 0
M  V30 33420 H 3282.15 1.91082 -3.20222 0
M  V30 33421 N 3284.34 1.57005 0.136853 0
M  V30 33422 C 3285.29 1.99986 1.18778 0
M  V30 33423 C 3286.28 0.893867 1.43897 0
M  V30 33424 O 3287.49 1.07906 1.4407 0
M  V30 33425 H 3283.86 0.636758 0.400054 0
M  V30 33426 H 3285.83 2.87514 0.798645 0
M  V30 33427 C 3284.58 2.40507 2.51101 0
M  V30 33428 H 3283.9 3.25169 2.32605 0
M  V30 33429 H 3285.34 2.74395 3.23239 0
M  V30 33430 C 3283.8 1.26167 3.12384 0
M  V30 33431 O 3284.33 0.567906 3.97665 0
M  V30 33432 N 3282.54 1.0233 2.71987 0
M  V30 33433 H 3282.09 1.58924 2.02733 0
M  V30 33434 H 3282.04 0.260185 3.13322 0
M  V30 33435 N 3285.82 -0.406513 1.52267 0
M  V30 33436 C 3286.75 -1.51456 1.72028 0
M  V30 33437 C 3287.76 -1.51313 0.600693 0
M  V30 33438 O 3288.95 -1.55531 0.875922 0
M  V30 33439 C 3286.05 -2.90345 1.74795 0
M  V30 33440 C 3285.22 -3.14651 3.03832 0
M  V30 33441 C 3284.28 -4.33426 2.98376 0
M  V30 33442 O 3283.31 -4.30579 3.72277 0
M  V30 33443 N 3284.51 -5.38678 2.16347 0
M  V30 33444 H 3287.28 -1.34898 2.67624 0
M  V30 33445 H 3284.84 -0.59584 1.50537 0
M  V30 33446 H 3286.83 -3.67874 1.68673 0
M  V30 33447 H 3285.4 -3.00347 0.866613 0
M  V30 33448 H 3284.62 -2.25142 3.23581 0
M  V30 33449 H 3285.91 -3.27735 3.89188 0
M  V30 33450 H 3285.3 -5.4384 1.5574 0
M  V30 33451 H 3283.86 -6.14941 2.1608 0
M  V30 33452 N 3287.29 -1.42934 -0.663904 0
M  V30 33453 C 3288.24 -1.47262 -1.77715 0
M  V30 33454 C 3289.21 -0.323416 -1.62921 0
M  V30 33455 O 3290.4 -0.529053 -1.83318 0
M  V30 33456 C 3287.54 -1.39129 -3.15812 0
M  V30 33457 C 3286.65 -2.64171 -3.41815 0
M  V30 33458 C 3285.78 -2.48103 -4.69701 0
M  V30 33459 C 3284.82 -3.68465 -4.88774 0
M  V30 33460 N 3283.96 -3.51272 -6.07908 0
M  V30 33461 H 3288.8 -2.42391 -1.7335 0
M  V30 33462 H 3286.34 -1.20331 -0.8461 0
M  V30 33463 H 3288.3 -1.3241 -3.9563 0
M  V30 33464 H 3286.93 -0.475885 -3.19273 0
M  V30 33465 H 3285.98 -2.81213 -2.56171 0
M  V30 33466 H 3287.29 -3.53609 -3.51799 0
M  V30 33467 H 3286.44 -2.39031 -5.57628 0
M  V30 33468 H 3285.18 -1.56172 -4.62019 0
M  V30 33469 H 3284.19 -3.77957 -3.99285 0
M  V30 33470 H 3285.41 -4.6139 -4.98293 0
M  V30 33471 H 3283.36 -2.62067 -6.01379 0
M  V30 33472 H 3283.28 -4.34304 -6.18802 0
M  V30 33473 H 3284.54 -3.46032 -6.98486 0
M  V30 33474 N 3288.77 0.901258 -1.29287 0
M  V30 33475 C 3290 1.69037 -1.20172 0
M  V30 33476 C 3290.42 1.86633 0.234476 0
M  V30 33477 O 3289.78 1.38551 1.16933 0
M  V30 33478 C 3289.83 3.05325 -1.91857 0
M  V30 33479 O 3288.93 3.93488 -1.23455 0
M  V30 33480 H 3288.27 0.517134 -0.416495 0
M  V30 33481 H 3290.8 1.126 -1.70828 0
M  V30 33482 H 3290.81 3.55477 -2.00251 0
M  V30 33483 H 3289.49 2.91836 -2.96319 0
M  V30 33484 H 3288.07 3.51922 -1.23309 0
M  V30 33485 N 3290.25 1.11738 1.11141 0
M  V30 33486 C 3291.66 0.883722 1.6446 0
M  V30 33487 C 3292.01 -0.583416 1.87325 0
M  V30 33488 O 3291.14 -1.44621 1.60978 0
M  V30 33489 C 3291.73 1.5977 2.98763 0
M  V30 33490 C 3290.29 1.41038 3.48977 0
M  V30 33491 C 3289.44 1.63835 2.23726 0
M  V30 33492 H 3292.39 1.27319 0.947393 0
M  V30 33493 H 3292.41 1.0445 3.65883 0
M  V30 33494 H 3291.92 2.66547 2.82089 0
M  V30 33495 H 3290.02 0.364846 3.70809 0
M  V30 33496 H 3290.14 2.16156 4.27567 0
M  V30 33497 H 3288.5 1.06195 2.31505 0
M  V30 33498 H 3289.28 2.71893 2.09592 0
M  V30 33499 N 3291.73 -1.28802 0.90817 0
M  V30 33500 C 3292.96 -1.99342 0.554125 0
M  V30 33501 C 3293.37 -1.6791 -0.863233 0
M  V30 33502 O 3292.73 -0.928778 -1.57099 0
M  V30 33503 C 3292.78 -3.53698 0.746978 0
M  V30 33504 O 3292.5 -3.8402 2.10856 0
M  V30 33505 C 3294 -4.41501 0.399017 0
M  V30 33506 H 3291.22 -0.636698 0.211795 0
M  V30 33507 H 3293.77 -1.64134 1.21984 0
M  V30 33508 H 3291.92 -3.87187 0.128332 0
M  V30 33509 H 3292.33 -4.78673 2.14413 0
M  V30 33510 H 3293.81 -5.48894 0.584752 0
M  V30 33511 H 3294.29 -4.34145 -0.664441 0
M  V30 33512 H 3294.89 -4.13498 0.994965 0
M  V30 33513 N 3293.21 -0.67155 -1.42576 0
M  V30 33514 C 3294.15 0.00879619 -2.30798 0
M  V30 33515 C 3295.12 0.796051 -1.45781 0
M  V30 33516 O 3296.31 0.768957 -1.74619 0
M  V30 33517 C 3293.45 0.956393 -3.31583 0
M  V30 33518 C 3292.56 0.163305 -4.31691 0
M  V30 33519 C 3291.7 1.10636 -5.19551 0
M  V30 33520 C 3290.74 0.304768 -6.11341 0
M  V30 33521 N 3289.87 1.20036 -6.91763 0
M  V30 33522 H 3294.71 -0.749352 -2.88425 0
M  V30 33523 H 3292.25 -0.381276 -1.42073 0
M  V30 33524 H 3294.21 1.51959 -3.88541 0
M  V30 33525 H 3292.84 1.68121 -2.75564 0
M  V30 33526 H 3291.89 -0.516462 -3.76878 0
M  V30 33527 H 3293.2 -0.459187 -4.96682 0
M  V30 33528 H 3292.36 1.73959 -5.81226 0
M  V30 33529 H 3291.09 1.76274 -4.54729 0
M  V30 33530 H 3290.1 -0.341694 -5.48737 0
M  V30 33531 H 3291.32 -0.347471 -6.7821 0
M  V30 33532 H 3289.27 1.8432 -6.29573 0
M  V30 33533 H 3289.19 0.632871 -7.53346 0
M  V30 33534 H 3290.46 1.82116 -7.57927 0
M  V30 33535 N 3294.68 1.52047 -0.414663 0
M  V30 33536 C 3295.91 2.06291 0.15865 0
M  V30 33537 C 3296.33 1.28423 1.38395 0
M  V30 33538 O 3295.68 0.33757 1.79351 0
M  V30 33539 C 3295.74 3.57975 0.503571 0
M  V30 33540 O 3295.46 4.32899 -0.673072 0
M  V30 33541 C 3296.96 4.28655 1.13002 0
M  V30 33542 H 3294.18 0.67076 0.0179504 0
M  V30 33543 H 3296.72 1.95888 -0.587212 0
M  V30 33544 H 3294.88 3.68368 1.19933 0
M  V30 33545 H 3295.29 5.23094 -0.383827 0
M  V30 33546 H 3296.76 5.35947 1.32153 0
M  V30 33547 H 3297.24 3.85486 2.10469 0
M  V30 33548 H 3297.85 4.22647 0.474305 0
M  V30 33549 N 3296.16 0.145261 1.56929 0
M  V30 33550 C 3297.39 -0.516528 2.00865 0
M  V30 33551 C 3297.81 -1.5774 1.02469 0
M  V30 33552 O 3297.17 -1.813 0.000177307 0
M  V30 33553 C 3297.22 -1.09557 3.43554 0
M  V30 33554 O 3296.32 -2.21049 3.48154 0
M  V30 33555 H 3295.66 -0.12651 0.651837 0
M  V30 33556 H 3298.19 0.241481 2.0317 0
M  V30 33557 H 3298.2 -1.42466 3.82318 0
M  V30 33558 H 3296.88 -0.318677 4.14677 0
M  V30 33559 H 3295.46 -1.89381 3.21231 0
M  V30 33560 N 3297.64 -1.57075 -0.128525 0
M  V30 33561 C 3298.59 -1.99642 -1.15808 0
M  V30 33562 C 3299.56 -0.866985 -1.41678 0
M  V30 33563 O 3300.74 -1.13048 -1.53703 0
M  V30 33564 C 3297.88 -2.39779 -2.48194 0
M  V30 33565 C 3297 -3.66096 -2.29341 0
M  V30 33566 C 3296.13 -3.95254 -3.54891 0
M  V30 33567 C 3295.17 -5.14784 -3.31155 0
M  V30 33568 N 3294.31 -5.3986 -4.48882 0
M  V30 33569 H 3299.15 -2.8739 -0.788086 0
M  V30 33570 H 3296.68 -1.42169 -0.377657 0
M  V30 33571 H 3298.64 -2.61083 -3.2541 0
M  V30 33572 H 3297.27 -1.55085 -2.83105 0
M  V30 33573 H 3296.32 -3.52462 -1.43089 0
M  V30 33574 H 3297.64 -4.53466 -2.07773 0
M  V30 33575 H 3296.79 -4.17156 -4.40529 0
M  V30 33576 H 3295.53 -3.06341 -3.79481 0
M  V30 33577 H 3294.53 -4.92737 -2.43906 0
M  V30 33578 H 3295.76 -6.05266 -3.07944 0
M  V30 33579 H 3293.71 -4.53904 -4.73611 0
M  V30 33580 H 3293.62 -6.21535 -4.30383 0
M  V30 33581 H 3294.89 -5.66274 -5.35681 0
M  V30 33582 N 3299.12 0.398432 -1.5248 0
M  V30 33583 C 3300.34 1.17036 -1.71223 0
M  V30 33584 C 3300.77 1.83223 -0.425548 0
M  V30 33585 O 3300.13 1.70445 0.617908 0
M  V30 33586 C 3300.18 2.20116 -2.85624 0
M  V30 33587 O 3299.28 3.26497 -2.5194 0
M  V30 33588 H 3298.62 0.34115 -0.56966 0
M  V30 33589 H 3301.15 0.465617 -1.99231 0
M  V30 33590 H 3301.16 2.64269 -3.10847 0
M  V30 33591 H 3299.84 1.71327 -3.78972 0
M  V30 33592 H 3298.41 2.87548 -2.37425 0
M  V30 33593 N 3300.6 1.43284 0.656314 0
M  V30 33594 C 3302.01 1.39803 1.23742 0
M  V30 33595 C 3302.36 0.100541 1.95942 0
M  V30 33596 O 3301.48 -0.800125 2.01065 0
M  V30 33597 C 3302.08 2.53248 2.25058 0
M  V30 33598 C 3300.64 2.53041 2.78652 0
M  V30 33599 C 3299.79 2.31107 1.53247 0
M  V30 33600 H 3302.74 1.5223 0.448526 0
M  V30 33601 H 3302.76 2.24559 3.0717 0
M  V30 33602 H 3302.27 3.47667 1.7248 0
M  V30 33603 H 3300.37 1.62493 3.35301 0
M  V30 33604 H 3300.48 3.50706 3.26408 0
M  V30 33605 H 3298.85 1.79716 1.80484 0
M  V30 33606 H 3299.63 3.27607 1.02609 0
M  V30 33607 N 3302.08 -0.894389 1.29763 0
M  V30 33608 C 3303.32 -1.64212 1.17809 0
M  V30 33609 C 3303.64 -1.93128 -0.269554 0
M  V30 33610 O 3302.91 -1.5611 -1.1835 0
M  V30 33611 H 3301.49 -0.608694 0.433013 0
M  V30 33612 H 3304.16 -1.07213 1.62762 0
M  V30 33613 H 3303.25 -2.59627 1.73205 0
M  V30 33614 N 3303.55 -1.12326 -1.10547 0
M  V30 33615 C 3304.78 -0.900651 -1.86268 0
M  V30 33616 C 3305.2 0.550038 -1.8061 0
M  V30 33617 O 3304.55 1.38023 -1.19399 0
M  V30 33618 C 3304.6 -1.36561 -3.34714 0
M  V30 33619 O 3304.33 -2.75944 -3.40274 0
M  V30 33620 C 3305.83 -1.17977 -4.27313 0
M  V30 33621 H 3303.05 -0.321918 -0.588736 0
M  V30 33622 H 3305.59 -1.49293 -1.39756 0
M  V30 33623 H 3303.75 -0.816587 -3.78696 0
M  V30 33624 H 3304.16 -2.96319 -4.32776 0
M  V30 33625 H 3305.63 -1.554 -5.29674 0
M  V30 33626 H 3306.11 -0.120235 -4.39035 0
M  V30 33627 H 3306.72 -1.71624 -3.89134 0
M  V30 33628 N 3305.03 1.28319 -0.914988 0
M  V30 33629 C 3305.99 2.2552 -0.409063 0
M  V30 33630 C 3306.99 1.53921 0.4653 0
M  V30 33631 O 3308.18 1.72123 0.26818 0
M  V30 33632 C 3305.32 3.38384 0.413393 0
M  V30 33633 H 3306.51 2.71789 -1.26771 0
M  V30 33634 H 3304.06 1.40023 -0.694501 0
M  V30 33635 H 3304.8 2.97479 1.29139 0
M  V30 33636 H 3304.58 3.91519 -0.213337 0
M  V30 33637 H 3306.07 4.1066 0.75816 0
M  V30 33638 N 3306.51 0.679102 1.42218 0
M  V30 33639 C 3307.46 -0.00815939 2.32599 0
M  V30 33640 C 3308.45 -0.78602 1.5006 0
M  V30 33641 O 3309.66 -0.693498 1.66104 0
M  V30 33642 H 3306.03 -0.021435 0.751694 0
M  V30 33643 H 3308 0.77143 2.88256 0
M  V30 33644 C 3306.75 -0.942522 3.34682 0
M  V30 33645 H 3306.08 -0.353393 3.98235 0
M  V30 33646 H 3307.52 -1.39201 4.00499 0
M  V30 33647 C 3305.97 -2.05094 2.67279 0
M  V30 33648 O 3306.5 -3.13789 2.50798 0
M  V30 33649 N 3304.71 -1.8239 2.26235 0
M  V30 33650 H 3304.26 -0.93994 2.39839 0
M  V30 33651 H 3304.22 -2.56741 1.8147 0
M  V30 33652 N 3307.99 -1.51825 0.42272 0
M  V30 33653 C 3309.23 -2.02253 -0.148826 0
M  V30 33654 C 3309.57 -1.30709 -1.43627 0
M  V30 33655 O 3308.84 -0.417516 -1.89966 0
M  V30 33656 C 3309.12 -3.58062 -0.382609 0
M  V30 33657 C 3308.98 -4.40239 0.922463 0
M  V30 33658 C 3310.3 -4.24569 -1.15883 0
M  V30 33659 H 3307.42 -0.735119 -0.052615 0
M  V30 33660 H 3310.06 -1.81595 0.558853 0
M  V30 33661 H 3308.21 -3.75795 -0.985429 0
M  V30 33662 H 3309.88 -4.34189 1.55814 0
M  V30 33663 H 3308.12 -4.05908 1.53039 0
M  V30 33664 H 3308.79 -5.47374 0.713109 0
M  V30 33665 H 3311.27 -4.11018 -0.648343 0
M  V30 33666 H 3310.15 -5.33498 -1.29116 0
M  V30 33667 H 3310.41 -3.8444 -2.18308 0
M  V30 33668 N 3309.47 -0.153581 -1.5685 0
M  V30 33669 C 3310.4 0.779562 -2.20102 0
M  V30 33670 C 3311.38 1.25223 -1.15123 0
M  V30 33671 O 3312.56 1.3086 -1.4349 0
M  V30 33672 C 3309.69 2.01623 -2.82782 0
M  V30 33673 C 3308.65 1.68009 -3.93646 0
M  V30 33674 C 3307.97 2.98993 -4.43291 0
M  V30 33675 C 3309.27 0.921684 -5.14103 0
M  V30 33676 H 3310.97 0.25238 -2.98334 0
M  V30 33677 H 3308.51 0.11995 -1.435 0
M  V30 33678 H 3310.46 2.67389 -3.25701 0
M  V30 33679 H 3309.19 2.56724 -2.01891 0
M  V30 33680 H 3307.85 1.04618 -3.51356 0
M  V30 33681 H 3307.5 3.52099 -3.59215 0
M  V30 33682 H 3307.2 2.77263 -5.18072 0
M  V30 33683 H 3308.72 3.6582 -4.88885 0
M  V30 33684 H 3310.13 1.48157 -5.53825 0
M  V30 33685 H 3308.53 0.80408 -5.94689 0
M  V30 33686 H 3309.6 -0.085361 -4.84825 0
M  V30 33687 N 3310.94 1.57141 0.120193 0
M  V30 33688 C 3312.22 1.75757 0.858427 0
M  V30 33689 C 3312.6 0.728728 1.98123 0
M  V30 33690 O 3311.95 -0.247533 2.27155 0
M  V30 33691 C 3312.16 3.2072 1.37621 0
M  V30 33692 C 3313.51 3.83187 1.82902 0
M  V30 33693 O 3314.53 3.24315 1.47303 0
M  V30 33694 O 3313.39 4.86662 2.48641 0
M  V30 33695 H 3310.48 0.719594 0.40757 0
M  V30 33696 H 3313.03 1.69381 0.104027 0
M  V30 33697 H 3311.8 3.87118 0.570583 0
M  V30 33698 H 3311.42 3.31629 2.19335 0
M  V30 33699 N 3312.42 -0.39034 1.5269 0
M  V30 33700 C 3313.67 -1.13719 1.67916 0
M  V30 33701 C 3314 -1.89666 0.417192 0
M  V30 33702 O 3313.28 -1.85495 -0.584972 0
M  V30 33703 C 3313.56 -2.11651 2.91335 0
M  V30 33704 C 3313.41 -1.39476 4.27629 0
M  V30 33705 C 3314.73 -3.12094 3.10299 0
M  V30 33706 H 3311.85 -0.412046 0.611054 0
M  V30 33707 H 3314.49 -0.420721 1.85283 0
M  V30 33708 H 3312.64 -2.72749 2.76659 0
M  V30 33709 H 3314.31 -0.813528 4.5407 0
M  V30 33710 H 3312.56 -0.696615 4.2817 0
M  V30 33711 H 3313.23 -2.11029 5.10069 0
M  V30 33712 H 3315.7 -2.61085 3.23997 0
M  V30 33713 H 3314.58 -3.77863 3.98134 0
M  V30 33714 H 3314.84 -3.80884 2.24454 0
M  V30 33715 N 3313.9 -1.4363 -0.648706 0
M  V30 33716 C 3314.85 -1.49412 -1.78266 0
M  V30 33717 C 3315.84 -0.367317 -1.6537 0
M  V30 33718 O 3317.05 -0.541506 -1.71662 0
M  V30 33719 H 3313.42 -0.468495 -0.588232 0
M  V30 33720 H 3315.39 -2.44886 -1.7051 0
M  V30 33721 C 3314.14 -1.43861 -3.16543 0
M  V30 33722 H 3313.47 -2.29874 -3.27106 0
M  V30 33723 H 3314.91 -1.51968 -3.9583 0
M  V30 33724 C 3313.37 -0.156838 -3.36535 0
M  V30 33725 O 3313.9 0.780054 -3.94053 0
M  V30 33726 N 3312.1 -0.065583 -2.90526 0
M  V30 33727 H 3311.65 -0.828811 -2.43903 0
M  V30 33728 H 3311.61 0.791325 -3.04278 0
M  V30 33729 N 3315.38 0.887495 -1.30236 0
M  V30 33730 C 3316.33 2.01434 -1.16306 0
M  V30 33731 C 3317.32 1.69231 -0.075572 0
M  V30 33732 O 3318.53 1.78443 -0.236244 0
M  V30 33733 H 3314.9 0.660437 -0.359621 0
M  V30 33734 H 3316.87 2.10318 -2.11681 0
M  V30 33735 C 3315.62 3.36664 -0.869069 0
M  V30 33736 H 3314.94 3.61953 -1.69794 0
M  V30 33737 H 3316.38 4.16158 -0.811694 0
M  V30 33738 C 3314.84 3.34171 0.427962 0
M  V30 33739 O 3315.37 3.74607 1.45026 0
M  V30 33740 N 3313.58 2.87277 0.438214 0
M  V30 33741 H 3313.13 2.54566 -0.394187 0
M  V30 33742 H 3313.08 2.85992 1.30599 0
M  V30 33743 N 3316.86 1.12911 1.0995 0
M  V30 33744 C 3318.08 0.910854 1.86328 0
M  V30 33745 C 3318.51 -0.534842 1.80336 0
M  V30 33746 O 3317.86 -1.37906 1.17693 0
M  V30 33747 C 3317.91 1.39654 3.32459 0
M  V30 33748 O 3317.02 0.578264 4.08326 0
M  V30 33749 H 3316.36 0.32686 0.577978 0
M  V30 33750 H 3318.89 1.50244 1.3888 0
M  V30 33751 H 3318.9 1.39781 3.83308 0
M  V30 33752 H 3317.57 2.44919 3.36136 0
M  V30 33753 H 3316.15 0.644411 3.6729 0
M  V30 33754 N 3318.33 -1.27832 0.92178 0
M  V30 33755 C 3319.56 -1.98743 0.575237 0
M  V30 33756 C 3319.98 -1.68816 -0.845375 0
M  V30 33757 O 3319.33 -0.945388 -1.56105 0
M  V30 33758 C 3319.39 -3.52886 0.784451 0
M  V30 33759 O 3319.11 -3.81762 2.14917 0
M  V30 33760 C 3320.61 -4.41053 0.445821 0
M  V30 33761 H 3317.83 -0.634415 0.218536 0
M  V30 33762 H 3320.37 -1.62831 1.23718 0
M  V30 33763 H 3318.53 -3.87029 0.169391 0
M  V30 33764 H 3318.94 -4.76372 2.19477 0
M  V30 33765 H 3320.41 -5.48243 0.642937 0
M  V30 33766 H 3320.89 -4.34825 -0.618357 0
M  V30 33767 H 3321.5 -4.12419 1.03877 0
M  V30 33768 N 3319.81 -0.686634 -1.41856 0
M  V30 33769 C 3320.74 -0.0298763 -2.33481 0
M  V30 33770 C 3321.72 0.776729 -1.51331 0
M  V30 33771 O 3322.91 0.731503 -1.79896 0
M  V30 33772 C 3320.04 0.913648 -3.35067 0
M  V30 33773 C 3318.99 0.214786 -4.27461 0
M  V30 33774 C 3318.32 1.27206 -5.19348 0
M  V30 33775 C 3319.62 -0.913457 -5.1425 0
M  V30 33776 H 3321.31 -0.795117 -2.88649 0
M  V30 33777 H 3318.86 -0.383809 -1.38791 0
M  V30 33778 H 3320.81 1.38227 -3.98085 0
M  V30 33779 H 3319.54 1.71045 -2.78229 0
M  V30 33780 H 3318.19 -0.233715 -3.65854 0
M  V30 33781 H 3317.84 2.06116 -4.5883 0
M  V30 33782 H 3317.54 0.809508 -5.81997 0
M  V30 33783 H 3319.07 1.74137 -5.85242 0
M  V30 33784 H 3320.48 -0.525524 -5.70886 0
M  V30 33785 H 3318.88 -1.30254 -5.85793 0
M  V30 33786 H 3319.95 -1.75707 -4.51946 0
M  V30 33787 N 3321.29 1.51599 -0.430766 0
M  V30 33788 C 3322.22 2.2413 0.429067 0
M  V30 33789 C 3323.2 1.25802 1.03017 0
M  V30 33790 O 3324.39 1.54918 1.0739 0
M  V30 33791 C 3321.51 2.98663 1.59744 0
M  V30 33792 C 3320.56 4.11595 1.11765 0
M  V30 33793 S 3321.39 5.3546 0.0650527 0
M  V30 33794 C 3322.55 6.13529 1.23825 0
M  V30 33795 H 3322.78 2.96713 -0.186735 0
M  V30 33796 H 3320.31 1.52893 -0.215228 0
M  V30 33797 H 3322.27 3.42205 2.26729 0
M  V30 33798 H 3320.93 2.25682 2.18464 0
M  V30 33799 H 3320.13 4.62999 1.99117 0
M  V30 33800 H 3319.73 3.70281 0.526144 0
M  V30 33801 H 3322.02 6.42217 2.15785 0
M  V30 33802 H 3322.96 7.03963 0.764306 0
M  V30 33803 H 3323.37 5.4492 1.47384 0
M  V30 33804 N 3322.77 0.161897 1.56766 0
M  V30 33805 C 3324.02 -0.485462 1.96595 0
M  V30 33806 C 3324.34 -1.63886 1.04746 0
M  V30 33807 O 3323.6 -1.95538 0.0796364 0
M  V30 33808 C 3323.9 -1.01888 3.42569 0
M  V30 33809 C 3323.56 0.0176212 4.50897 0
M  V30 33810 C 3322.23 0.302514 4.80248 0
M  V30 33811 C 3324.58 0.721662 5.1618 0
M  V30 33812 C 3321.91 1.297 5.72184 0
M  V30 33813 C 3324.26 1.70507 6.09188 0
M  V30 33814 C 3322.92 1.9975 6.36911 0
M  V30 33815 H 3322.19 -0.177643 0.719391 0
M  V30 33816 H 3324.84 0.251872 1.89836 0
M  V30 33817 H 3323.14 -1.83385 3.46233 0
M  V30 33818 H 3324.84 -1.5286 3.70722 0
M  V30 33819 H 3321.43 -0.214605 4.28062 0
M  V30 33820 H 3325.61 0.514768 4.93623 0
M  V30 33821 H 3320.87 1.52985 5.91951 0
M  V30 33822 H 3325.04 2.25603 6.58845 0
M  V30 33823 H 3322.67 2.7696 7.07953 0
M  V30 33824 N 3324.25 -1.57203 -0.111858 0
M  V30 33825 C 3325.49 -1.85501 -0.819591 0
M  V30 33826 C 3325.83 -0.748661 -1.79189 0
M  V30 33827 O 3325.1 0.244884 -1.92952 0
M  V30 33828 C 3325.38 -3.24402 -1.56318 0
M  V30 33829 C 3325.24 -4.45644 -0.610003 0
M  V30 33830 C 3326.56 -3.6097 -2.51771 0
M  V30 33831 H 3323.67 -0.674727 -0.2965 0
M  V30 33832 H 3326.32 -1.89816 -0.0836407 0
M  V30 33833 H 3324.47 -3.20854 -2.19054 0
M  V30 33834 H 3326.14 -4.61299 0.00906146 0
M  V30 33835 H 3324.38 -4.3373 0.0779251 0
M  V30 33836 H 3325.05 -5.39521 -1.16708 0
M  V30 33837 H 3327.53 -3.65354 -1.99137 0
M  V30 33838 H 3326.4 -4.59124 -3.00827 0
M  V30 33839 H 3326.67 -2.88766 -3.34764 0
M  V30 33840 N 3325.72 0.382237 -1.52894 0
M  V30 33841 C 3326.97 1.12437 -1.67935 0
M  V30 33842 C 3327.29 1.90308 -0.425199 0
M  V30 33843 O 3326.56 1.8771 0.560524 0
M  V30 33844 H 3325.14 0.418068 -0.619054 0
M  V30 33845 H 3327.81 0.432895 -1.90032 0
M  V30 33846 H 3326.9 1.8235 -2.53288 0
M  V30 33847 N 3327.2 1.43972 0.64108 0
M  V30 33848 C 3328.45 1.45942 1.39805 0
M  V30 33849 C 3328.77 0.0894216 1.94795 0
M  V30 33850 O 3328.04 -0.876931 1.75176 0
M  V30 33851 H 3326.62 0.537358 0.518898 0
M  V30 33852 H 3329.28 1.79672 0.755246 0
M  V30 33853 H 3328.38 2.17907 2.23435 0
M  V30 33854 N 3328.68 -0.880575 1.30704 0
M  V30 33855 C 3329.61 -2.00283 1.20037 0
M  V30 33856 C 3330.59 -1.69862 0.0899913 0
M  V30 33857 O 3331.78 -1.92275 0.27278 0
M  V30 33858 C 3328.91 -3.35544 0.89596 0
M  V30 33859 C 3327.86 -3.80239 1.96475 0
M  V30 33860 C 3327.19 -5.1284 1.51325 0
M  V30 33861 C 3328.49 -3.9849 3.37644 0
M  V30 33862 H 3330.18 -2.09466 2.13926 0
M  V30 33863 H 3327.73 -1.00642 1.02991 0
M  V30 33864 H 3329.68 -4.13582 0.807971 0
M  V30 33865 H 3328.4 -3.26505 -0.0786062 0
M  V30 33866 H 3327.06 -3.04433 2.04245 0
M  V30 33867 H 3326.71 -5.00233 0.526828 0
M  V30 33868 H 3326.41 -5.43715 2.22817 0
M  V30 33869 H 3327.94 -5.93398 1.43913 0
M  V30 33870 H 3329.35 -4.66953 3.32608 0
M  V30 33871 H 3327.75 -4.40748 4.07261 0
M  V30 33872 H 3328.82 -3.02204 3.7921 0
M  V30 33873 N 3330.16 -1.13492 -1.09349 0
M  V30 33874 C 3331.41 -0.895382 -1.81183 0
M  V30 33875 C 3331.73 0.580015 -1.86174 0
M  V30 33876 O 3331 1.4216 -1.34787 0
M  V30 33877 H 3329.58 -0.328269 -0.671006 0
M  V30 33878 H 3332.24 -1.43162 -1.32253 0
M  V30 33879 H 3331.34 -1.28681 -2.84337 0
M  V30 33880 N 3331.64 1.27341 -0.928546 0
M  V30 33881 C 3332.89 1.93945 -0.568301 0
M  V30 33882 C 3333.21 1.73327 0.89347 0
M  V30 33883 O 3332.48 1.0815 1.63342 0
M  V30 33884 H 3331.06 0.717693 -0.207186 0
M  V30 33885 H 3333.72 1.55034 -1.18112 0
M  V30 33886 H 3332.81 3.02317 -0.775299 0
M  V30 33887 N 3333.12 0.694147 1.4149 0
M  V30 33888 C 3334.05 -0.0112339 2.29197 0
M  V30 33889 C 3335.06 -0.745852 1.4471 0
M  V30 33890 O 3336.25 -0.596791 1.68228 0
M  V30 33891 C 3333.35 -1.03998 3.22549 0
M  V30 33892 C 3332.52 -0.375271 4.35787 0
M  V30 33893 C 3331.58 -1.30643 5.09724 0
M  V30 33894 O 3330.61 -0.79936 5.63559 0
M  V30 33895 N 3331.81 -2.63884 5.17055 0
M  V30 33896 H 3334.57 0.741756 2.90376 0
M  V30 33897 H 3332.14 0.540066 1.52627 0
M  V30 33898 H 3334.13 -1.66461 3.6888 0
M  V30 33899 H 3332.7 -1.69452 2.62688 0
M  V30 33900 H 3331.92 0.429214 3.91856 0
M  V30 33901 H 3333.21 0.0869935 5.08726 0
M  V30 33902 H 3332.6 -3.07601 4.74761 0
M  V30 33903 H 3331.16 -3.21545 5.66967 0
M  V30 33904 N 3334.59 -1.51368 0.438799 0
M  V30 33905 C 3335.84 -2.01289 -0.128688 0
M  V30 33906 C 3336.16 -1.32748 -1.43657 0
M  V30 33907 O 3337.36 -1.73646 -2.08709 0
M  V30 33908 C 3335.82 -3.5881 -0.279881 0
M  V30 33909 C 3335.43 -4.36289 1.01765 0
M  V30 33910 C 3337.17 -4.16873 -0.80106 0
M  V30 33911 C 3335.08 -5.85518 0.832021 0
M  V30 33912 H 3334.01 -0.752214 -0.0518682 0
M  V30 33913 H 3336.66 -1.74462 0.568784 0
M  V30 33914 H 3335.04 -3.82089 -1.04039 0
M  V30 33915 H 3336.21 -4.24755 1.78661 0
M  V30 33916 H 3334.53 -3.89685 1.46747 0
M  V30 33917 H 3337.13 -5.26076 -0.956456 0
M  V30 33918 H 3337.47 -3.76142 -1.78389 0
M  V30 33919 H 3338 -3.97677 -0.0988234 0
M  V30 33920 H 3334.74 -6.30664 1.78728 0
M  V30 33921 H 3334.26 -5.99712 0.10289 0
M  V30 33922 H 3335.94 -6.45174 0.485795 0
M  V30 33923 N 3336.07 -0.170208 -1.56678 0
M  V30 33924 C 3337.02 0.760518 -2.1791 0
M  V30 33925 C 3337.99 1.22771 -1.11877 0
M  V30 33926 O 3339.17 1.29608 -1.40023 0
M  V30 33927 C 3336.31 1.98485 -2.82308 0
M  V30 33928 C 3335.43 1.56133 -4.02798 0
M  V30 33929 C 3334.56 2.73924 -4.55126 0
M  V30 33930 C 3333.6 2.28057 -5.68029 0
M  V30 33931 N 3332.74 3.38937 -6.14871 0
M  V30 33932 H 3337.58 0.231577 -2.97099 0
M  V30 33933 H 3335.11 0.102576 -1.46742 0
M  V30 33934 H 3337.07 2.70293 -3.17801 0
M  V30 33935 H 3335.7 2.48751 -2.05725 0
M  V30 33936 H 3334.75 0.740031 -3.73132 0
M  V30 33937 H 3336.07 1.18464 -4.84528 0
M  V30 33938 H 3335.22 3.5389 -4.92795 0
M  V30 33939 H 3333.96 3.14852 -3.72451 0
M  V30 33940 H 3332.96 1.46537 -5.29912 0
M  V30 33941 H 3334.19 1.88188 -6.52505 0
M  V30 33942 H 3332.14 3.79443 -5.35126 0
M  V30 33943 H 3332.05 3.05357 -6.91587 0
M  V30 33944 H 3333.32 4.19191 -6.5719 0
M  V30 33945 N 3337.55 1.5726 0.10352 0
M  V30 33946 C 3338.5 2.0146 1.12617 0
M  V30 33947 C 3339.47 0.889415 1.4028 0
M  V30 33948 O 3340.65 1.15479 1.51885 0
M  V30 33949 C 3337.79 2.43697 2.44348 0
M  V30 33950 C 3336.9 3.69699 2.23488 0
M  V30 33951 C 3336.04 4.0085 3.48558 0
M  V30 33952 C 3335.08 5.19988 3.22923 0
M  V30 33953 N 3334.22 5.46933 4.40236 0
M  V30 33954 H 3339.06 2.88608 0.742265 0
M  V30 33955 H 3336.59 1.42752 0.354991 0
M  V30 33956 H 3338.55 2.66227 3.21215 0
M  V30 33957 H 3337.18 1.5957 2.80602 0
M  V30 33958 H 3336.23 3.54694 1.37464 0
M  V30 33959 H 3337.54 4.56715 2.00532 0
M  V30 33960 H 3336.7 4.24112 4.33836 0
M  V30 33961 H 3335.44 3.1234 3.7456 0
M  V30 33962 H 3334.44 4.96555 2.36036 0
M  V30 33963 H 3335.67 6.10089 2.98276 0
M  V30 33964 H 3333.61 4.61381 4.6633 0
M  V30 33965 H 3333.53 6.28304 4.20441 0
M  V30 33966 H 3334.8 5.74725 5.26604 0
M  V30 33967 N 3339.03 -0.374123 1.53095 0
M  V30 33968 C 3340.25 -1.14297 1.73063 0
M  V30 33969 C 3340.68 -1.82523 0.454643 0
M  V30 33970 O 3340.04 -1.71407 -0.590713 0
M  V30 33971 C 3340.08 -2.15544 2.8909 0
M  V30 33972 O 3339.19 -3.22447 2.57102 0
M  V30 33973 H 3338.53 -0.332044 0.575015 0
M  V30 33974 H 3341.06 -0.433862 1.99947 0
M  V30 33975 H 3341.07 -2.5929 3.15012 0
M  V30 33976 H 3339.74 -1.65276 3.8165 0
M  V30 33977 H 3338.32 -2.83734 2.4197 0
M  V30 33978 N 3340.51 -1.4431 -0.633436 0
M  V30 33979 C 3341.92 -1.41754 -1.21502 0
M  V30 33980 C 3342.27 -0.131701 -1.95757 0
M  V30 33981 O 3341.39 0.768037 -2.02312 0
M  V30 33982 C 3341.99 -2.56796 -2.21 0
M  V30 33983 C 3340.55 -2.57442 -2.74591 0
M  V30 33984 C 3339.69 -2.33516 -1.49551 0
M  V30 33985 H 3342.64 -1.52924 -0.424251 0
M  V30 33986 H 3342.67 -2.29417 -3.03559 0
M  V30 33987 H 3342.18 -3.50367 -1.66927 0
M  V30 33988 H 3340.28 -1.67807 -3.32673 0
M  V30 33989 H 3340.39 -3.55854 -3.20787 0
M  V30 33990 H 3338.76 -1.82564 -1.77602 0
M  V30 33991 H 3339.54 -3.29198 -0.973841 0
M  V30 33992 N 3341.98 0.873632 -1.3117 0
M  V30 33993 C 3342.95 1.96205 -1.18475 0
M  V30 33994 C 3343.95 1.60404 -0.112842 0
M  V30 33995 O 3345.14 1.70401 -0.36183 0
M  V30 33996 C 3342.27 3.30947 -0.81772 0
M  V30 33997 H 3343.46 2.08892 -2.15184 0
M  V30 33998 H 3341.02 1.06146 -1.14728 0
M  V30 33999 H 3341.75 3.2396 0.148371 0
M  V30 34000 H 3341.54 3.58304 -1.5925 0
M  V30 34001 H 3343.03 4.10761 -0.752692 0
M  V30 34002 N 3343.46 1.1407 1.08746 0
M  V30 34003 C 3344.71 0.908113 1.81332 0
M  V30 34004 C 3345.04 -0.564079 1.85827 0
M  V30 34005 O 3344.32 -1.41771 1.33159 0
M  V30 34006 C 3344.6 1.50537 3.27125 0
M  V30 34007 C 3344.45 3.04717 3.30859 0
M  V30 34008 C 3345.77 1.17935 4.24004 0
M  V30 34009 H 3342.89 0.331337 0.65832 0
M  V30 34010 H 3345.53 1.41011 1.27342 0
M  V30 34011 H 3343.68 1.07845 3.73231 0
M  V30 34012 H 3345.35 3.56214 2.93103 0
M  V30 34013 H 3343.6 3.39345 2.70235 0
M  V30 34014 H 3344.27 3.4161 4.33597 0
M  V30 34015 H 3346.74 1.54838 3.86218 0
M  V30 34016 H 3345.62 1.62363 5.24337 0
M  V30 34017 H 3345.88 0.0941126 4.42 0
M  V30 34018 N 3344.94 -1.26847 0.935286 0
M  V30 34019 C 3345.89 -2.26588 0.438936 0
M  V30 34020 C 3346.86 -1.58451 -0.498239 0
M  V30 34021 O 3348.04 -1.86216 -0.415739 0
M  V30 34022 C 3345.18 -3.43835 -0.295232 0
M  V30 34023 C 3344.3 -4.26663 0.676932 0
M  V30 34024 C 3343.43 -5.31143 -0.0778416 0
M  V30 34025 C 3342.47 -6.05646 0.886531 0
M  V30 34026 N 3341.61 -7.01909 0.163894 0
M  V30 34027 H 3346.45 -2.68418 1.29444 0
M  V30 34028 H 3343.98 -1.31982 0.649547 0
M  V30 34029 H 3345.94 -4.10634 -0.737282 0
M  V30 34030 H 3344.57 -3.02935 -1.11492 0
M  V30 34031 H 3343.62 -3.59708 1.2375 0
M  V30 34032 H 3344.94 -4.78349 1.41364 0
M  V30 34033 H 3344.09 -6.03927 -0.579451 0
M  V30 34034 H 3342.83 -4.8028 -0.847466 0
M  V30 34035 H 3341.83 -5.31695 1.39932 0
M  V30 34036 H 3343.06 -6.58598 1.65606 0
M  V30 34037 H 3341 -6.53365 -0.587346 0
M  V30 34038 H 3340.92 -7.51318 0.840034 0
M  V30 34039 H 3342.19 -7.78856 -0.316814 0
M  V30 34040 N 3346.42 -0.701641 -1.4112 0
M  V30 34041 C 3347.66 -0.23553 -2.01428 0
M  V30 34042 C 3348 1.1638 -1.55465 0
M  V30 34043 O 3347.27 1.78673 -0.768508 0
M  V30 34044 C 3347.56 -0.299982 -3.58848 0
M  V30 34045 C 3347.41 -1.73669 -4.14921 0
M  V30 34046 C 3348.73 0.336779 -4.3881 0
M  V30 34047 H 3345.85 -0.0870584 -0.73184 0
M  V30 34048 H 3348.49 -0.891509 -1.67786 0
M  V30 34049 H 3346.64 0.258542 -3.87639 0
M  V30 34050 H 3348.31 -2.34952 -3.96983 0
M  V30 34051 H 3346.55 -2.2689 -3.69734 0
M  V30 34052 H 3347.22 -1.73327 -5.24082 0
M  V30 34053 H 3349.7 -0.138959 -4.15868 0
M  V30 34054 H 3348.58 0.261167 -5.48278 0
M  V30 34055 H 3348.84 1.41836 -4.1873 0
M  V30 34056 N 3347.9 1.51133 -0.446821 0
M  V30 34057 C 3349.12 2.06581 0.114857 0
M  V30 34058 C 3349.54 1.31329 1.35639 0
M  V30 34059 O 3348.9 0.375538 1.78594 0
M  V30 34060 C 3348.95 3.58963 0.427526 0
M  V30 34061 O 3348.67 4.31374 -0.764744 0
M  V30 34062 C 3350.17 4.30956 1.03884 0
M  V30 34063 H 3347.39 0.67099 0.00371852 0
M  V30 34064 H 3349.93 1.94598 -0.62863 0
M  V30 34065 H 3348.09 3.70829 1.12092 0
M  V30 34066 H 3348.5 5.22162 -0.494697 0
M  V30 34067 H 3349.98 5.3863 1.20755 0
M  V30 34068 H 3350.45 3.89864 2.02245 0
M  V30 34069 H 3351.06 4.23558 0.384548 0
M  V30 34070 N 3349.37 0.178515 1.56586 0
M  V30 34071 C 3350.32 -0.761394 2.14911 0
M  V30 34072 C 3351.31 -1.18786 1.0853 0
M  V30 34073 O 3352.5 -1.14902 1.34635 0
M  V30 34074 C 3349.63 -1.98766 2.79905 0
M  V30 34075 C 3348.72 -1.58286 3.93454 0
M  V30 34076 N 3349.11 -0.888037 4.97943 0
M  V30 34077 C 3347.4 -1.87336 4.04748 0
M  V30 34078 C 3348.11 -0.687618 5.77622 0
M  V30 34079 N 3347.08 -1.23127 5.29472 0
M  V30 34080 H 3350.88 -0.221641 2.93063 0
M  V30 34081 H 3348.4 -0.0218997 1.62385 0
M  V30 34082 H 3350.39 -2.67132 3.20072 0
M  V30 34083 H 3349.05 -2.53229 2.03236 0
M  V30 34084 H 3350.07 -0.545297 5.15021 0
M  V30 34085 H 3346.74 -2.43426 3.3919 0
M  V30 34086 H 3348.13 -0.137632 6.71759 0
M  V30 34087 N 3350.85 -1.57312 -0.0951784 0
M  V30 34088 C 3352.1 -1.86084 -0.798687 0
M  V30 34089 C 3352.43 -0.767023 -1.78737 0
M  V30 34090 O 3351.68 0.239391 -1.9423 0
M  V30 34091 C 3351.98 -3.21441 -1.56238 0
M  V30 34092 C 3351.65 -4.45182 -0.715825 0
M  V30 34093 C 3350.31 -4.78775 -0.482453 0
M  V30 34094 C 3352.66 -5.21044 -0.127312 0
M  V30 34095 C 3349.99 -5.85659 0.349296 0
M  V30 34096 C 3352.34 -6.28806 0.691759 0
M  V30 34097 C 3351.01 -6.60916 0.935223 0
M  V30 34098 H 3350.28 -0.68093 -0.29226 0
M  V30 34099 H 3352.92 -1.91405 -0.0601769 0
M  V30 34100 H 3351.23 -3.11804 -2.37246 0
M  V30 34101 H 3352.92 -3.40931 -2.1111 0
M  V30 34102 H 3349.51 -4.18875 -0.907828 0
M  V30 34103 H 3353.7 -4.95424 -0.294773 0
M  V30 34104 H 3348.95 -6.08949 0.546904 0
M  V30 34105 H 3353.13 -6.86761 1.15464 0
M  V30 34106 H 3350.76 -7.43567 1.58152 0
M  V30 34107 N 3352.33 0.365999 -1.53291 0
M  V30 34108 C 3353.28 1.44833 -1.797 0
M  V30 34109 C 3354.25 1.53219 -0.641348 0
M  V30 34110 O 3355.43 1.69113 -0.883483 0
M  V30 34111 C 3352.57 2.81784 -1.99228 0
M  V30 34112 C 3351.69 2.82369 -3.26943 0
M  V30 34113 C 3350.82 4.10893 -3.36661 0
M  V30 34114 C 3349.86 4.05618 -4.58411 0
M  V30 34115 N 3349 5.2579 -4.65284 0
M  V30 34116 H 3353.84 1.21614 -2.72055 0
M  V30 34117 H 3351.37 0.589554 -1.34769 0
M  V30 34118 H 3353.33 3.61342 -2.08537 0
M  V30 34119 H 3351.96 3.03404 -1.10209 0
M  V30 34120 H 3351.01 1.95046 -3.2659 0
M  V30 34121 H 3352.33 2.74344 -4.16578 0
M  V30 34122 H 3351.48 4.98866 -3.45279 0
M  V30 34123 H 3350.22 4.2167 -2.45042 0
M  V30 34124 H 3349.22 3.16031 -4.49894 0
M  V30 34125 H 3350.45 3.96443 -5.51371 0
M  V30 34126 H 3348.39 5.37154 -3.76566 0
M  V30 34127 H 3348.31 5.19932 -5.48823 0
M  V30 34128 H 3349.58 6.15596 -4.78185 0
M  V30 34129 N 3353.81 1.44644 0.625774 0
M  V30 34130 C 3355.06 1.47417 1.38249 0
M  V30 34131 C 3355.38 0.110077 1.94689 0
M  V30 34132 O 3354.65 -0.858302 1.76097 0
M  V30 34133 H 3353.23 0.542832 0.513169 0
M  V30 34134 H 3355.89 1.80463 0.736147 0
M  V30 34135 H 3354.99 2.20264 2.21111 0
M  V30 34136 N 3355.29 -0.866663 1.31631 0
M  V30 34137 C 3356.53 -1.63393 1.22809 0
M  V30 34138 C 3356.89 -1.90851 -0.209751 0
M  V30 34139 O 3358.09 -2.65474 -0.421516 0
M  V30 34140 C 3356.36 -2.92627 2.05193 0
M  V30 34141 S 3357.92 -3.83487 2.13268 0
M  V30 34142 H 3354.74 -0.560577 0.437349 0
M  V30 34143 H 3357.34 -1.02728 1.66335 0
M  V30 34144 H 3356.05 -2.70383 3.08741 0
M  V30 34145 H 3355.58 -3.58316 1.62399 0
M  V30 34146 H 3357.59 -4.79582 1.27341 0
M  V30 34147 N 3356.77 -1.14645 -1.0814 0
M  V30 34148 C 3357.7 -0.858705 -2.17137 0
M  V30 34149 C 3358.68 0.187422 -1.69064 0
M  V30 34150 O 3359.86 0.0435117 -1.94151 0
M  V30 34151 C 3356.99 -0.338401 -3.45647 0
M  V30 34152 C 3355.95 -1.32029 -4.07127 0
M  V30 34153 C 3355.27 -0.659168 -5.30621 0
M  V30 34154 C 3356.57 -2.68351 -4.48091 0
M  V30 34155 H 3358.27 -1.77017 -2.41465 0
M  V30 34156 H 3355.81 -0.852543 -1.1605 0
M  V30 34157 H 3357.76 -0.124685 -4.21216 0
M  V30 34158 H 3356.49 0.608496 -3.20881 0
M  V30 34159 H 3355.15 -1.52022 -3.33594 0
M  V30 34160 H 3354.8 0.293623 -5.02142 0
M  V30 34161 H 3354.5 -1.31437 -5.72711 0
M  V30 34162 H 3356.02 -0.45504 -6.08902 0
M  V30 34163 H 3357.43 -2.52249 -5.14824 0
M  V30 34164 H 3355.83 -3.30169 -5.01107 0
M  V30 34165 H 3356.9 -3.25021 -3.59846 0
M  V30 34166 N 3358.24 1.26349 -0.942 0
M  V30 34167 C 3359.49 1.93332 -0.58884 0
M  V30 34168 C 3359.81 1.74264 0.875036 0
M  V30 34169 O 3359.08 1.09876 1.62185 0
M  V30 34170 H 3357.66 0.715455 -0.214786 0
M  V30 34171 H 3360.32 1.53772 -1.1975 0
M  V30 34172 H 3359.42 3.01478 -0.80732 0
M  V30 34173 N 3359.72 0.709115 1.40746 0
M  V30 34174 C 3360.63 0.0532617 2.3454 0
M  V30 34175 C 3361.65 -0.75103 1.56957 0
M  V30 34176 O 3362.82 -0.685476 1.89376 0
M  V30 34177 C 3359.89 -0.862098 3.35811 0
M  V30 34178 C 3358.95 -0.0484877 4.29273 0
M  V30 34179 C 3358.18 -0.920252 5.25706 0
M  V30 34180 O 3358.41 -2.1596 5.27937 0
M  V30 34181 O 3357.34 -0.362695 6.00806 0
M  V30 34182 H 3361.17 0.826749 2.9223 0
M  V30 34183 H 3358.75 0.469544 1.4183 0
M  V30 34184 H 3360.63 -1.38661 3.97934 0
M  V30 34185 H 3359.31 -1.61484 2.80543 0
M  V30 34186 H 3358.21 0.520939 3.70455 0
M  V30 34187 H 3359.55 0.665893 4.87675 0
M  V30 34188 N 3361.2 -1.50894 0.454829 0
M  V30 34189 C 3362.16 -2.2672 -0.336253 0
M  V30 34190 C 3363.16 -1.30849 -0.934617 0
M  V30 34191 O 3364.35 -1.54415 -0.806332 0
M  V30 34192 C 3361.48 -3.07223 -1.47739 0
M  V30 34193 H 3362.68 -2.98095 0.328514 0
M  V30 34194 H 3360.23 -1.54904 0.208446 0
M  V30 34195 H 3360.97 -2.40306 -2.17769 0
M  V30 34196 H 3360.75 -3.7766 -1.05431 0
M  V30 34197 H 3362.24 -3.64613 -2.03585 0
M  V30 34198 N 3362.68 -0.186817 -1.56489 0
M  V30 34199 C 3363.92 0.454124 -1.97342 0
M  V30 34200 C 3364.25 1.62198 -1.0734 0
M  V30 34201 O 3363.51 1.95386 -0.110735 0
M  V30 34202 C 3363.81 0.964254 -3.44147 0
M  V30 34203 C 3363.47 -0.0893527 -4.50811 0
M  V30 34204 C 3362.13 -0.378879 -4.79706 0
M  V30 34205 C 3364.49 -0.803691 -5.14966 0
M  V30 34206 C 3361.81 -1.38786 -5.70048 0
M  V30 34207 C 3364.17 -1.80177 -6.06399 0
M  V30 34208 C 3362.83 -2.09858 -6.33653 0
M  V30 34209 H 3362.1 0.166176 -0.722126 0
M  V30 34210 H 3364.75 -0.282041 -1.89412 0
M  V30 34211 H 3363.05 1.77854 -3.49106 0
M  V30 34212 H 3364.75 1.46943 -3.73107 0
M  V30 34213 H 3361.34 0.146476 -4.2835 0
M  V30 34214 H 3365.52 -0.593234 -4.92742 0
M  V30 34215 H 3360.78 -1.62383 -5.89442 0
M  V30 34216 H 3364.95 -2.36056 -6.55172 0
M  V30 34217 H 3362.58 -2.88188 -7.03457 0
M  V30 34218 N 3364.16 1.57361 0.0868344 0
M  V30 34219 C 3365.09 2.0568 1.10535 0
M  V30 34220 C 3366.07 0.947318 1.4128 0
M  V30 34221 O 3367.25 1.21911 1.51167 0
M  V30 34222 C 3364.38 2.48816 2.42297 0
M  V30 34223 C 3363.34 3.63503 2.25941 0
M  V30 34224 C 3362.66 3.92643 3.62954 0
M  V30 34225 C 3363.96 4.94097 1.6931 0
M  V30 34226 H 3365.66 2.91022 0.70332 0
M  V30 34227 H 3363.2 1.40004 0.33687 0
M  V30 34228 H 3365.15 2.81229 3.13828 0
M  V30 34229 H 3363.88 1.60484 2.84451 0
M  V30 34230 H 3362.54 3.31349 1.56854 0
M  V30 34231 H 3362.19 3.01466 4.02651 0
M  V30 34232 H 3361.89 4.6986 3.52854 0
M  V30 34233 H 3363.41 4.27539 4.35939 0
M  V30 34234 H 3364.82 5.24838 2.3069 0
M  V30 34235 H 3363.22 5.75533 1.69946 0
M  V30 34236 H 3364.29 4.8048 0.653233 0
M  V30 34237 N 3365.63 -0.357865 1.53483 0
M  V30 34238 C 3366.58 -1.45908 1.81145 0
M  V30 34239 C 3367.58 -1.55108 0.681029 0
M  V30 34240 O 3368.78 -1.57902 0.864114 0
M  V30 34241 H 3365.16 -0.486215 0.573672 0
M  V30 34242 H 3367.13 -1.19784 2.73302 0
M  V30 34243 C 3365.88 -2.82636 2.02514 0
M  V30 34244 H 3365.2 -2.76319 2.88943 0
M  V30 34245 H 3366.64 -3.58847 2.25843 0
M  V30 34246 C 3365.1 -3.27105 0.80647 0
M  V30 34247 O 3365.63 -4.017 -0.00109748 0
M  V30 34248 N 3363.83 -2.83739 0.627727 0
M  V30 34249 H 3363.38 -2.232 1.28605 0
M  V30 34250 H 3363.34 -3.13848 -0.186246 0
M  V30 34251 N 3367.11 -1.44974 -0.618094 0
M  V30 34252 C 3368.36 -1.48148 -1.37465 0
M  V30 34253 C 3368.68 -0.1204 -1.94628 0
M  V30 34254 O 3367.95 0.848951 -1.76549 0
M  V30 34255 H 3366.53 -0.545545 -0.510283 0
M  V30 34256 H 3369.19 -1.80851 -0.726566 0
M  V30 34257 H 3368.29 -2.21434 -2.1994 0
M  V30 34258 N 3368.59 0.85967 -1.32089 0
M  V30 34259 C 3369.54 1.96782 -1.20605 0
M  V30 34260 C 3370.51 1.65859 -0.0893841 0
M  V30 34261 O 3371.69 1.88964 -0.264055 0
M  V30 34262 C 3368.83 3.32335 -0.92993 0
M  V30 34263 C 3367.94 3.75788 -2.13091 0
M  V30 34264 C 3367.08 5.00107 -1.7907 0
M  V30 34265 C 3366.12 5.36038 -2.95517 0
M  V30 34266 N 3365.26 6.51535 -2.61622 0
M  V30 34267 H 3370.1 2.05936 -2.15393 0
M  V30 34268 H 3367.63 1.00801 -1.07133 0
M  V30 34269 H 3369.59 4.10397 -0.750357 0
M  V30 34270 H 3368.22 3.22794 -0.0188496 0
M  V30 34271 H 3367.27 2.93421 -2.42092 0
M  V30 34272 H 3368.58 3.98339 -3.00212 0
M  V30 34273 H 3367.74 5.85864 -1.57635 0
M  V30 34274 H 3366.48 4.79482 -0.891543 0
M  V30 34275 H 3365.48 4.48796 -3.17589 0
M  V30 34276 H 3366.71 5.58623 -3.86157 0
M  V30 34277 H 3364.65 6.32436 -1.74242 0
M  V30 34278 H 3364.57 6.74081 -3.42274 0
M  V30 34279 H 3365.84 7.40457 -2.43605 0
M  V30 34280 N 3370.07 1.15217 1.0753 0
M  V30 34281 C 3371.29 0.950172 1.84354 0
M  V30 34282 C 3371.72 -0.49647 1.8143 0
M  V30 34283 O 3371.08 -1.35379 1.20591 0
M  V30 34284 C 3371.12 1.46675 3.29422 0
M  V30 34285 O 3370.23 0.664745 4.07007 0
M  V30 34286 H 3369.57 0.339046 0.570915 0
M  V30 34287 H 3372.1 1.53156 1.35662 0
M  V30 34288 H 3372.11 1.4788 3.80257 0
M  V30 34289 H 3370.78 2.51994 3.30866 0
M  V30 34290 H 3369.36 0.722174 3.6584 0
M  V30 34291 N 3371.55 -1.25848 0.948687 0
M  V30 34292 C 3372.8 -1.92694 0.595972 0
M  V30 34293 C 3373.11 -1.75177 -0.870199 0
M  V30 34294 O 3374.31 -2.36545 -1.33262 0
M  V30 34295 C 3372.77 -3.45286 1.01517 0
M  V30 34296 C 3372.38 -3.71524 2.50348 0
M  V30 34297 C 3374.12 -4.18094 0.734708 0
M  V30 34298 C 3372.03 -5.17592 2.86099 0
M  V30 34299 H 3370.96 -0.721439 0.219183 0
M  V30 34300 H 3373.61 -1.42805 1.15234 0
M  V30 34301 H 3371.99 -3.94102 0.38727 0
M  V30 34302 H 3373.17 -3.33384 3.18106 0
M  V30 34303 H 3371.48 -3.11964 2.75803 0
M  V30 34304 H 3374.08 -5.25679 0.978054 0
M  V30 34305 H 3374.42 -4.15 -0.328734 0
M  V30 34306 H 3374.95 -3.75167 1.32268 0
M  V30 34307 H 3371.69 -5.25793 3.91436 0
M  V30 34308 H 3371.21 -5.56801 2.23008 0
M  V30 34309 H 3372.89 -5.85663 2.74969 0
M  V30 34310 N 3373.02 -0.716569 -1.40368 0
M  V30 34311 C 3374.27 -0.255994 -2.00472 0
M  V30 34312 C 3374.59 1.15511 -1.57106 0
M  V30 34313 O 3373.86 1.78326 -0.810956 0
M  V30 34314 H 3372.44 -0.0916557 -0.741356 0
M  V30 34315 H 3375.11 -0.922419 -1.7169 0
M  V30 34316 H 3374.2 -0.289861 -3.10751 0
M  V30 34317 N 3374.5 1.50651 -0.462825 0
M  V30 34318 C 3375.43 2.31218 0.325683 0
M  V30 34319 C 3376.41 1.37752 0.997918 0
M  V30 34320 O 3377.6 1.66673 0.996678 0
M  V30 34321 C 3374.73 3.17266 1.41277 0
M  V30 34322 C 3373.68 4.19217 0.862613 0
M  V30 34323 C 3373.01 4.9395 2.04737 0
M  V30 34324 C 3374.31 5.22161 -0.120457 0
M  V30 34325 H 3376 2.97386 -0.346718 0
M  V30 34326 H 3373.55 1.43014 -0.168188 0
M  V30 34327 H 3375.5 3.72421 1.97181 0
M  V30 34328 H 3374.23 2.48968 2.11383 0
M  V30 34329 H 3372.88 3.65151 0.325607 0
M  V30 34330 H 3372.53 4.22131 2.73522 0
M  V30 34331 H 3372.23 5.62907 1.68552 0
M  V30 34332 H 3373.76 5.51937 2.61147 0
M  V30 34333 H 3375.17 5.72236 0.349126 0
M  V30 34334 H 3373.57 5.98791 -0.396166 0
M  V30 34335 H 3374.64 4.73417 -1.04904 0
M  V30 34336 N 3375.98 0.195113 1.56388 0
M  V30 34337 C 3377.23 -0.437682 1.98635 0
M  V30 34338 C 3377.58 -1.59237 1.07988 0
M  V30 34339 O 3376.87 -1.91196 0.124294 0
M  V30 34340 C 3377.07 -0.94599 3.44653 0
M  V30 34341 C 3376.9 0.157907 4.49423 0
M  V30 34342 C 3375.67 0.615545 5.01537 0
M  V30 34343 C 3377.87 0.966862 5.0513 0
M  V30 34344 N 3375.85 1.69726 5.89971 0
M  V30 34345 C 3377.22 1.89798 5.90234 0
M  V30 34346 C 3379.27 1.00928 4.87563 0
M  V30 34347 C 3377.98 2.868 6.5965 0
M  V30 34348 C 3380 1.96734 5.57718 0
M  V30 34349 C 3379.36 2.8859 6.42569 0
M  V30 34350 H 3375.46 -0.12758 0.771523 0
M  V30 34351 H 3378.05 0.300811 1.92362 0
M  V30 34352 H 3376.22 -1.65392 3.51426 0
M  V30 34353 H 3377.95 -1.54939 3.73866 0
M  V30 34354 H 3374.71 0.20889 4.73139 0
M  V30 34355 H 3375.13 2.23932 6.38892 0
M  V30 34356 H 3379.77 0.313097 4.21639 0
M  V30 34357 H 3377.49 3.57393 7.24773 0
M  V30 34358 H 3381.08 2.00657 5.46103 0
M  V30 34359 H 3379.96 3.61516 6.95899 0
M  V30 34360 N 3377.46 -1.57404 -0.0784879 0
M  V30 34361 C 3378.41 -2.04257 -1.11274 0
M  V30 34362 C 3379.4 -0.946657 -1.4048 0
M  V30 34363 O 3380.61 -1.13179 -1.39966 0
M  V30 34364 H 3376.98 -0.651167 -0.376146 0
M  V30 34365 H 3378.95 -2.9028 -0.691386 0
M  V30 34366 C 3377.7 -2.4966 -2.42002 0
M  V30 34367 H 3377.02 -3.33578 -2.20377 0
M  V30 34368 H 3378.46 -2.86203 -3.12832 0
M  V30 34369 C 3376.92 -1.37674 -3.07486 0
M  V30 34370 O 3377.45 -0.715106 -3.95284 0
M  V30 34371 N 3375.66 -1.12354 -2.68002 0
M  V30 34372 H 3375.21 -1.66339 -1.96695 0
M  V30 34373 H 3375.16 -0.376293 -3.1214 0
M  V30 34374 N 3378.94 0.34972 -1.53671 0
M  V30 34375 C 3380.17 1.10925 -1.74296 0
M  V30 34376 C 3380.57 1.83033 -0.479134 0
M  V30 34377 O 3379.92 1.75001 0.55859 0
M  V30 34378 C 3379.98 2.17211 -2.8646 0
M  V30 34379 C 3379.64 1.64732 -4.26277 0
M  V30 34380 C 3380.64 1.10293 -5.08066 0
M  V30 34381 C 3378.33 1.69766 -4.72742 0
M  V30 34382 C 3380.32 0.615826 -6.34418 0
M  V30 34383 C 3378.01 1.20668 -5.99068 0
M  V30 34384 C 3379 0.66668 -6.79738 0
M  V30 34385 O 3378.69 0.183002 -8.03692 0
M  V30 34386 H 3378.42 0.336927 -0.586052 0
M  V30 34387 H 3380.98 0.409609 -2.01274 0
M  V30 34388 H 3379.21 2.90716 -2.54993 0
M  V30 34389 H 3380.9 2.7868 -2.95114 0
M  V30 34390 H 3381.66 1.05731 -4.73335 0
M  V30 34391 H 3377.54 2.10737 -4.10013 0
M  V30 34392 H 3381.09 0.193673 -6.97331 0
M  V30 34393 H 3376.98 1.24928 -6.33295 0
M  V30 34394 H 3377.75 0.300864 -8.17947 0
M  V30 34395 N 3380.41 1.45299 0.610397 0
M  V30 34396 C 3381.66 1.48444 1.36556 0
M  V30 34397 C 3381.98 0.129171 1.95173 0
M  V30 34398 O 3383.18 0.0382433 2.71473 0
M  V30 34399 C 3381.64 2.61436 2.47345 0
M  V30 34400 C 3381.25 4.03262 1.95151 0
M  V30 34401 C 3382.99 2.73823 3.24378 0
M  V30 34402 C 3380.9 5.07641 3.03405 0
M  V30 34403 H 3379.83 0.552356 0.513243 0
M  V30 34404 H 3382.48 1.71431 0.654505 0
M  V30 34405 H 3380.86 2.31726 3.21121 0
M  V30 34406 H 3382.03 4.42636 1.28102 0
M  V30 34407 H 3380.35 3.953 1.30871 0
M  V30 34408 H 3382.95 3.48976 4.05117 0
M  V30 34409 H 3383.29 1.80358 3.75202 0
M  V30 34410 H 3383.82 3.03044 2.577 0
M  V30 34411 H 3380.56 6.02804 2.57502 0
M  V30 34412 H 3380.08 4.72839 3.6903 0
M  V30 34413 H 3381.76 5.32266 3.67835 0
M  V30 34414 N 3381.89 -0.852653 1.32543 0
M  V30 34415 C 3382.8 -1.99369 1.23649 0
M  V30 34416 C 3383.82 -1.73355 0.149703 0
M  V30 34417 O 3384.99 -1.97958 0.370751 0
M  V30 34418 C 3382.06 -3.33088 0.961932 0
M  V30 34419 C 3381.12 -3.72311 2.13736 0
M  V30 34420 C 3380.35 -4.99649 1.8758 0
M  V30 34421 O 3380.58 -5.64485 0.819346 0
M  V30 34422 O 3379.51 -5.3605 2.73741 0
M  V30 34423 H 3383.34 -2.09809 2.19577 0
M  V30 34424 H 3380.92 -0.983608 1.12452 0
M  V30 34425 H 3382.8 -4.13238 0.825389 0
M  V30 34426 H 3381.48 -3.23683 0.0328314 0
M  V30 34427 H 3380.39 -2.92729 2.32939 0
M  V30 34428 H 3381.72 -3.86364 3.04932 0
M  V30 34429 N 3383.37 -1.15786 -1.06918 0
M  V30 34430 C 3384.79 -0.901432 -1.31706 0
M  V30 34431 C 3384.99 0.449168 -1.9643 0
M  V30 34432 O 3384.04 1.19011 -2.22694 0
M  V30 34433 C 3385.36 -2.04572 -2.20388 0
M  V30 34434 C 3386.9 -2.08076 -2.33823 0
M  V30 34435 C 3387.38 -3.21841 -3.25856 0
M  V30 34436 N 3388.87 -3.21517 -3.33438 0
M  V30 34437 C 3389.6 -4.06185 -4.04724 0
M  V30 34438 N 3389.1 -5.00925 -4.78587 0
M  V30 34439 N 3390.89 -3.94193 -4.0071 0
M  V30 34440 H 3383.04 -2.0275 -0.632953 0
M  V30 34441 H 3385.31 -0.884326 -0.341571 0
M  V30 34442 H 3385.01 -3.0209 -1.80096 0
M  V30 34443 H 3384.89 -1.98185 -3.2094 0
M  V30 34444 H 3387.27 -1.11155 -2.73365 0
M  V30 34445 H 3387.36 -2.18529 -1.32961 0
M  V30 34446 H 3387 -4.19017 -2.87032 0
M  V30 34447 H 3386.93 -3.08624 -4.26683 0
M  V30 34448 H 3389.42 -2.5291 -2.80794 0
M  V30 34449 H 3389.73 -5.61962 -5.30489 0
M  V30 34450 H 3388.08 -5.0491 -4.77589 0
M  V30 34451 H 3391.27 -3.19486 -3.42121 0
M  V30 34452 H 3391.44 -4.604 -4.56 0
M  V30 34453 N 3384.85 1.25343 -0.955348 0
M  V30 34454 C 3385.76 2.29579 -0.482748 0
M  V30 34455 C 3386.77 1.68074 0.450253 0
M  V30 34456 O 3387.95 1.98739 0.326323 0
M  V30 34457 C 3385.02 3.45928 0.231232 0
M  V30 34458 C 3384.08 4.22873 -0.74007 0
M  V30 34459 C 3383.31 5.33666 -0.0600686 0
M  V30 34460 O 3383.53 5.58602 1.15414 0
M  V30 34461 O 3382.47 5.97259 -0.74597 0
M  V30 34462 H 3386.29 2.72097 -1.34897 0
M  V30 34463 H 3383.88 1.30805 -0.721834 0
M  V30 34464 H 3385.76 4.16621 0.632835 0
M  V30 34465 H 3384.43 3.05412 1.07261 0
M  V30 34466 H 3383.34 3.54605 -1.19189 0
M  V30 34467 H 3384.67 4.67174 -1.54949 0
M  V30 34468 N 3386.33 0.724003 1.39986 0
M  V30 34469 C 3387.58 0.266622 2.00334 0
M  V30 34470 C 3387.9 -1.14676 1.57716 0
M  V30 34471 O 3387.17 -1.77894 0.820402 0
M  V30 34472 H 3385.75 0.095586 0.740859 0
M  V30 34473 H 3388.41 0.931511 1.71198 0
M  V30 34474 H 3387.5 0.306337 3.10593 0
M  V30 34475 N 3387.81 -1.50403 0.470808 0
M  V30 34476 C 3388.75 -2.28521 -0.32351 0
M  V30 34477 C 3389.72 -1.33561 -0.987449 0
M  V30 34478 O 3390.91 -1.62499 -0.999941 0
M  V30 34479 C 3388.05 -3.15439 -1.39972 0
M  V30 34480 C 3387.16 -4.2543 -0.750582 0
M  V30 34481 C 3386.3 -4.99605 -1.80466 0
M  V30 34482 C 3385.33 -6.01471 -1.13575 0
M  V30 34483 N 3384.47 -6.68926 -2.13267 0
M  V30 34484 H 3389.31 -2.9595 0.348954 0
M  V30 34485 H 3386.85 -1.45946 0.183934 0
M  V30 34486 H 3388.81 -3.64184 -2.03534 0
M  V30 34487 H 3387.44 -2.50058 -2.04135 0
M  V30 34488 H 3386.49 -3.804 -0.00240405 0
M  V30 34489 H 3387.8 -4.98303 -0.22255 0
M  V30 34490 H 3386.95 -5.52067 -2.51609 0
M  V30 34491 H 3385.69 -4.26437 -2.36649 0
M  V30 34492 H 3384.7 -5.4827 -0.409946 0
M  V30 34493 H 3385.92 -6.76612 -0.580816 0
M  V30 34494 H 3383.87 -5.98549 -2.68468 0
M  V30 34495 H 3383.79 -7.37674 -1.65448 0
M  V30 34496 H 3385.05 -7.26005 -2.83791 0
M  V30 34497 N 3389.28 -0.203404 -1.56282 0
M  V30 34498 C 3390.52 0.435235 -1.99712 0
M  V30 34499 C 3390.89 1.58223 -1.08763 0
M  V30 34500 O 3392.09 2.28564 -1.41464 0
M  V30 34501 C 3390.36 0.875824 -3.46503 0
M  V30 34502 S 3391.92 1.51113 -4.11959 0
M  V30 34503 H 3388.74 0.138867 -0.697307 0
M  V30 34504 H 3391.34 -0.308426 -1.93052 0
M  V30 34505 H 3390.04 0.0310902 -4.10388 0
M  V30 34506 H 3389.57 1.65275 -3.56998 0
M  V30 34507 H 3391.59 2.80002 -4.0965 0
M  V30 34508 N 3390.76 1.57444 0.0701393 0
M  V30 34509 C 3392.18 1.53838 0.424964 0
M  V30 34510 C 3392.38 0.923825 1.79075 0
M  V30 34511 O 3391.43 0.527045 2.46938 0
M  V30 34512 C 3392.75 2.98483 0.36451 0
M  V30 34513 C 3394.29 3.09827 0.444577 0
M  V30 34514 C 3394.77 4.56125 0.414013 0
M  V30 34515 N 3396.26 4.60768 0.474038 0
M  V30 34516 C 3397 5.71449 0.472629 0
M  V30 34517 N 3396.49 6.91489 0.425937 0
M  V30 34518 N 3398.28 5.59696 0.51931 0
M  V30 34519 H 3390.44 1.95759 -0.824151 0
M  V30 34520 H 3392.7 0.896083 -0.309417 0
M  V30 34521 H 3392.4 3.47011 -0.572404 0
M  V30 34522 H 3392.28 3.58462 1.17408 0
M  V30 34523 H 3394.67 2.61271 1.37191 0
M  V30 34524 H 3394.75 2.52754 -0.393592 0
M  V30 34525 H 3394.39 5.05338 -0.509483 0
M  V30 34526 H 3394.32 5.11063 1.26974 0
M  V30 34527 H 3396.81 3.74384 0.514305 0
M  V30 34528 H 3397.12 7.71609 0.428833 0
M  V30 34529 H 3395.47 6.9389 0.3926 0
M  V30 34530 H 3398.66 4.64816 0.553491 0
M  V30 34531 H 3398.83 6.45952 0.514742 0
M  V30 34532 N 3392.24 -0.341566 1.53854 0
M  V30 34533 C 3393.49 -1.07945 1.70857 0
M  V30 34534 C 3393.81 -1.89114 0.475507 0
M  V30 34535 O 3393.08 -1.8913 -0.510559 0
M  V30 34536 H 3391.66 -0.401508 0.629921 0
M  V30 34537 H 3394.32 -0.382359 1.91113 0
M  V30 34538 H 3393.42 -1.75571 2.58033 0
M  V30 34539 N 3393.72 -1.45621 -0.602683 0
M  V30 34540 C 3394.96 -1.51437 -1.37281 0
M  V30 34541 C 3395.32 -0.154182 -1.9138 0
M  V30 34542 O 3396.52 -0.0870482 -2.68659 0
M  V30 34543 C 3394.79 -2.56729 -2.48646 0
M  V30 34544 S 3396.35 -2.81806 -3.3635 0
M  V30 34545 H 3393.17 -0.53528 -0.46797 0
M  V30 34546 H 3395.77 -1.82732 -0.694925 0
M  V30 34547 H 3394.48 -3.54219 -2.07261 0
M  V30 34548 H 3394.01 -2.27101 -3.2123 0
M  V30 34549 H 3396.02 -2.15557 -4.46933 0
M  V30 34550 N 3395.2 0.845612 -1.32993 0
M  V30 34551 C 3396.44 1.60042 -1.24068 0
M  V30 34552 C 3396.77 1.93518 0.195248 0
M  V30 34553 O 3396.03 1.58298 1.15067 0
M  V30 34554 C 3396.32 2.92441 -2.05459 0
M  V30 34555 C 3395.99 2.78356 -3.54723 0
M  V30 34556 C 3394.65 2.74223 -3.95418 0
M  V30 34557 C 3397 2.63642 -4.49603 0
M  V30 34558 C 3394.33 2.53264 -5.2922 0
M  V30 34559 C 3396.68 2.44218 -5.83558 0
M  V30 34560 C 3395.35 2.38482 -6.23444 0
M  V30 34561 H 3394.62 0.585636 -0.453995 0
M  V30 34562 H 3397.27 0.980215 -1.64512 0
M  V30 34563 H 3395.57 3.5863 -1.57771 0
M  V30 34564 H 3397.27 3.49883 -1.95915 0
M  V30 34565 H 3393.86 2.82403 -3.22407 0
M  V30 34566 H 3398.04 2.65874 -4.19076 0
M  V30 34567 H 3393.3 2.47266 -5.59169 0
M  V30 34568 H 3397.47 2.31814 -6.56685 0
M  V30 34569 H 3395.1 2.22002 -7.27062 0
M  V30 34570 N 3396.67 1.16351 1.06302 0
M  V30 34571 C 3397.92 0.943105 1.78745 0
M  V30 34572 C 3398.24 -0.53045 1.87647 0
M  V30 34573 O 3397.51 -1.38536 1.38508 0
M  V30 34574 H 3396.09 0.345944 0.662066 0
M  V30 34575 H 3398.75 1.46618 1.28411 0
M  V30 34576 H 3397.85 1.36175 2.80825 0
M  V30 34577 N 3398.15 -1.24835 0.961982 0
M  V30 34578 C 3399.38 -1.97351 0.637743 0
M  V30 34579 C 3399.8 -1.70942 -0.784889 0
M  V30 34580 O 3399.16 -0.969721 -1.53186 0
M  V30 34581 C 3399.21 -3.48889 0.911546 0
M  V30 34582 O 3398.31 -4.124 -0.00594419 0
M  V30 34583 H 3397.65 -0.618449 0.241696 0
M  V30 34584 H 3400.18 -1.58762 1.29058 0
M  V30 34585 H 3400.19 -3.99243 0.840772 0
M  V30 34586 H 3398.87 -3.67439 1.94837 0
M  V30 34587 H 3397.44 -3.72714 0.117663 0
M  V30 34588 N 3399.63 -0.731417 -1.396 0
M  V30 34589 C 3400.85 -0.286568 -2.05411 0
M  V30 34590 C 3401.28 1.06889 -1.54778 0
M  V30 34591 O 3400.64 1.67658 -0.689971 0
M  V30 34592 C 3400.69 -0.293977 -3.594 0
M  V30 34593 O 3399.79 0.719586 -4.06074 0
M  V30 34594 H 3399.13 -0.131015 -0.650946 0
M  V30 34595 H 3401.66 -0.996337 -1.78702 0
M  V30 34596 H 3401.67 -0.137123 -4.0777 0
M  V30 34597 H 3400.35 -1.28305 -3.95614 0
M  V30 34598 H 3398.92 0.529162 -3.69126 0
M  V30 34599 N 3401.11 1.50152 -0.478778 0
M  V30 34600 C 3402.04 2.26546 0.347789 0
M  V30 34601 C 3403.05 1.32184 0.950331 0
M  V30 34602 O 3404.24 1.57637 0.837434 0
M  V30 34603 C 3401.34 3.03773 1.5025 0
M  V30 34604 C 3400.52 4.25547 1.01134 0
M  V30 34605 C 3399.57 4.85004 2.04102 0
M  V30 34606 O 3398.6 5.45704 1.61852 0
M  V30 34607 N 3399.8 4.72683 3.36974 0
M  V30 34608 H 3402.57 2.98122 -0.307166 0
M  V30 34609 H 3400.13 1.58904 -0.310008 0
M  V30 34610 H 3402.12 3.40427 2.18842 0
M  V30 34611 H 3400.69 2.34947 2.06201 0
M  V30 34612 H 3399.91 3.9391 0.151055 0
M  V30 34613 H 3401.2 5.04485 0.661237 0
M  V30 34614 H 3400.6 4.24427 3.74003 0
M  V30 34615 H 3399.15 5.13584 4.01341 0
M  V30 34616 N 3402.59 0.211689 1.56172 0
M  V30 34617 C 3403.53 -0.719024 2.21208 0
M  V30 34618 C 3404.53 -1.20723 1.18837 0
M  V30 34619 O 3405.73 -1.1682 1.36942 0
M  V30 34620 H 3402.11 -0.250266 0.709134 0
M  V30 34621 H 3404.08 -0.146969 2.98038 0
M  V30 34622 C 3402.83 -1.92079 2.89829 0
M  V30 34623 H 3402.15 -1.55421 3.68353 0
M  V30 34624 H 3403.59 -2.55 3.38749 0
M  V30 34625 C 3402.05 -2.77001 1.91761 0
M  V30 34626 O 3402.58 -3.75449 1.42833 0
M  V30 34627 N 3400.79 -2.42833 1.59626 0
M  V30 34628 H 3400.33 -1.62831 1.99609 0
M  V30 34629 H 3400.29 -2.99934 0.942694 0
M  V30 34630 N 3404.06 -1.57479 -0.0617887 0
M  V30 34631 C 3404.97 -2.0774 -1.09002 0
M  V30 34632 C 3405.99 -1.00899 -1.41758 0
M  V30 34633 O 3407.17 -1.32433 -1.51735 0
M  V30 34634 C 3404.23 -2.51965 -2.38149 0
M  V30 34635 C 3403.29 -3.73147 -2.12273 0
M  V30 34636 C 3402.53 -4.15254 -3.35261 0
M  V30 34637 O 3402.75 -3.57145 -4.44751 0
M  V30 34638 O 3401.68 -5.07966 -3.22885 0
M  V30 34639 H 3405.51 -2.95688 -0.693007 0
M  V30 34640 H 3403.09 -1.46817 -0.276602 0
M  V30 34641 H 3404.98 -2.80887 -3.14134 0
M  V30 34642 H 3403.65 -1.67142 -2.7721 0
M  V30 34643 H 3402.56 -3.49293 -1.3396 0
M  V30 34644 H 3403.89 -4.58853 -1.78086 0
M  V30 34645 N 3405.54 0.333401 -1.54033 0
M  V30 34646 C 3406.82 1.09013 -1.62406 0
M  V30 34647 C 3407.2 2.06211 -0.451689 0
M  V30 34648 O 3406.55 2.21656 0.555047 0
M  V30 34649 C 3406.76 1.8008 -2.98952 0
M  V30 34650 C 3408.11 2.33457 -3.54659 0
M  V30 34651 O 3409.13 1.90161 -3.01193 0
M  V30 34652 O 3407.99 3.12696 -4.48201 0
M  V30 34653 H 3405.08 0.50191 -0.657279 0
M  V30 34654 H 3407.63 0.334081 -1.66379 0
M  V30 34655 H 3406.4 1.09326 -3.75717 0
M  V30 34656 H 3406.02 2.62518 -2.98614 0
M  V30 34657 N 3407.02 1.45939 0.594952 0
M  V30 34658 C 3408.43 1.44926 1.17701 0
M  V30 34659 C 3408.78 0.183557 1.95339 0
M  V30 34660 O 3407.91 -0.714127 2.04277 0
M  V30 34661 C 3408.5 2.62565 2.14114 0
M  V30 34662 C 3407.06 2.64632 2.67669 0
M  V30 34663 C 3406.21 2.37399 1.43307 0
M  V30 34664 H 3409.16 1.53995 0.383556 0
M  V30 34665 H 3409.18 2.37385 2.9737 0
M  V30 34666 H 3408.69 3.54669 1.57579 0
M  V30 34667 H 3406.79 1.76568 3.28107 0
M  V30 34668 H 3406.91 3.64234 3.1124 0
M  V30 34669 H 3405.27 1.87209 1.72699 0
M  V30 34670 H 3406.05 3.31664 0.886218 0
M  V30 34671 N 3408.5 -0.838547 1.3344 0
M  V30 34672 C 3409.72 -1.63111 1.281 0
M  V30 34673 C 3410.15 -1.87539 -0.145164 0
M  V30 34674 O 3409.51 -1.43973 -1.10189 0
M  V30 34675 C 3409.55 -2.95823 2.06206 0
M  V30 34676 O 3408.66 -3.87149 1.42088 0
M  V30 34677 H 3408 -0.496674 0.440694 0
M  V30 34678 H 3410.53 -1.04322 1.76006 0
M  V30 34679 H 3410.54 -3.45518 2.16983 0
M  V30 34680 H 3409.21 -2.77366 3.09905 0
M  V30 34681 H 3407.79 -3.45638 1.39959 0
M  V30 34682 N 3409.98 -1.16914 -1.05683 0
M  V30 34683 C 3411.22 -0.954456 -1.78596 0
M  V30 34684 C 3411.55 0.517282 -1.87495 0
M  V30 34685 O 3410.81 1.40004 -1.36739 0
M  V30 34686 C 3411.11 -1.5346 -3.22777 0
M  V30 34687 C 3410.77 -3.02971 -3.33945 0
M  V30 34688 C 3409.43 -3.43783 -3.367 0
M  V30 34689 C 3411.79 -3.98974 -3.35364 0
M  V30 34690 C 3409.11 -4.79204 -3.38497 0
M  V30 34691 C 3411.47 -5.3429 -3.38699 0
M  V30 34692 C 3410.13 -5.74572 -3.39739 0
M  V30 34693 H 3409.4 -0.34926 -0.653528 0
M  V30 34694 H 3412.05 -1.45726 -1.24243 0
M  V30 34695 H 3410.35 -0.953397 -3.80023 0
M  V30 34696 H 3412.05 -1.34411 -3.77803 0
M  V30 34697 H 3408.64 -2.70435 -3.3251 0
M  V30 34698 H 3412.82 -3.68506 -3.32441 0
M  V30 34699 H 3408.08 -5.09735 -3.3761 0
M  V30 34700 H 3412.25 -6.08461 -3.38745 0
M  V30 34701 H 3409.88 -6.79486 -3.40885 0
M  V30 34702 N 3411.45 1.24323 -0.968589 0
M  V30 34703 C 3412.4 2.23092 -0.47052 0
M  V30 34704 C 3413.39 1.54538 0.447961 0
M  V30 34705 O 3414.58 1.74791 0.278739 0
M  V30 34706 C 3411.71 3.4248 0.237162 0
M  V30 34707 C 3410.8 4.1828 -0.7002 0
M  V30 34708 N 3411.19 4.7123 -1.83783 0
M  V30 34709 C 3409.48 4.43061 -0.511158 0
M  V30 34710 C 3410.19 5.28779 -2.42421 0
M  V30 34711 N 3409.16 5.16028 -1.70927 0
M  V30 34712 H 3412.96 2.6165 -1.33853 0
M  V30 34713 H 3410.48 1.39719 -0.827789 0
M  V30 34714 H 3412.47 4.12395 0.611208 0
M  V30 34715 H 3411.13 3.05442 1.1016 0
M  V30 34716 H 3412.15 4.67938 -2.21934 0
M  V30 34717 H 3408.82 4.16353 0.309243 0
M  V30 34718 H 3410.21 5.80445 -3.38428 0
M  V30 34719 N 3412.93 0.73881 1.3921 0
M  V30 34720 C 3414.18 0.288425 2.00435 0
M  V30 34721 C 3414.51 -1.12549 1.58628 0
M  V30 34722 O 3413.76 -1.78233 0.808186 0
M  V30 34723 C 3414.06 0.342286 3.55757 0
M  V30 34724 C 3413.73 1.70976 4.17227 0
M  V30 34725 C 3412.39 2.08403 4.3373 0
M  V30 34726 C 3414.74 2.60744 4.51289 0
M  V30 34727 C 3412.07 3.351 4.81586 0
M  V30 34728 C 3414.42 3.86817 5.00555 0
M  V30 34729 C 3413.09 4.24331 5.15266 0
M  V30 34730 H 3412.36 0.105542 0.733445 0
M  V30 34731 H 3415 0.946399 1.6648 0
M  V30 34732 H 3413.31 -0.399262 3.8976 0
M  V30 34733 H 3415 -0.0243878 4.00993 0
M  V30 34734 H 3411.59 1.40877 4.04786 0
M  V30 34735 H 3415.78 2.33098 4.38154 0
M  V30 34736 H 3411.03 3.64104 4.9116 0
M  V30 34737 H 3415.21 4.56529 5.25884 0
M  V30 34738 H 3412.84 5.2257 5.52109 0
M  V30 34739 N 3414.41 -1.49895 0.486734 0
M  V30 34740 C 3415.69 -1.95199 -0.125148 0
M  V30 34741 C 3416.07 -1.42774 -1.55496 0
M  V30 34742 O 3415.42 -0.635361 -2.19489 0
M  V30 34743 C 3415.63 -3.48961 -0.0524368 0
M  V30 34744 C 3416.97 -4.23957 -0.23352 0
M  V30 34745 O 3418 -3.55969 -0.128295 0
M  V30 34746 O 3416.86 -5.44663 -0.447767 0
M  V30 34747 H 3413.95 -0.820545 -0.103127 0
M  V30 34748 H 3416.5 -1.606 0.548254 0
M  V30 34749 H 3415.27 -3.79712 0.94523 0
M  V30 34750 H 3414.89 -3.90139 -0.766614 0
M  V30 34751 N 3415.89 -0.219968 -1.56057 0
M  V30 34752 C 3417.14 0.411348 -1.97869 0
M  V30 34753 C 3417.46 1.60407 -1.10881 0
M  V30 34754 O 3416.73 1.9502 -0.185488 0
M  V30 34755 H 3415.31 0.154966 -0.730749 0
M  V30 34756 H 3417.97 -0.312495 -1.92378 0
M  V30 34757 H 3417.07 0.738744 -3.03231 0
M  V30 34758 N 3417.37 1.57509 0.0534363 0
M  V30 34759 C 3418.59 1.92765 0.765267 0
M  V30 34760 C 3419.02 0.817973 1.69384 0
M  V30 34761 O 3418.38 -0.228044 1.7986 0
M  V30 34762 C 3418.42 3.27031 1.51932 0
M  V30 34763 O 3417.53 3.17559 2.63116 0
M  V30 34764 H 3416.87 0.630727 0.207556 0
M  V30 34765 H 3419.4 2.04594 0.0161894 0
M  V30 34766 H 3419.41 3.61344 1.89459 0
M  V30 34767 H 3418.08 4.07367 0.838135 0
M  V30 34768 H 3416.66 2.94836 2.28311 0
M  V30 34769 N 3418.85 -0.325228 1.54208 0
M  V30 34770 C 3420.09 -1.06127 1.71993 0
M  V30 34771 C 3420.41 -1.88599 0.495538 0
M  V30 34772 O 3419.68 -1.89661 -0.490471 0
M  V30 34773 H 3418.26 -0.394805 0.634144 0
M  V30 34774 H 3420.93 -0.362068 1.91507 0
M  V30 34775 H 3420.02 -1.72824 2.59881 0
M  V30 34776 N 3420.32 -1.46252 -0.587204 0
M  V30 34777 C 3421.55 -1.54667 -1.36973 0
M  V30 34778 C 3421.96 -0.185112 -1.88292 0
M  V30 34779 O 3421.3 0.827041 -1.6403 0
M  V30 34780 C 3421.37 -2.48707 -2.59587 0
M  V30 34781 C 3421.03 -3.9504 -2.29766 0
M  V30 34782 C 3422.03 -4.84378 -1.88876 0
M  V30 34783 C 3419.71 -4.40134 -2.42049 0
M  V30 34784 C 3421.71 -6.16821 -1.60658 0
M  V30 34785 C 3419.39 -5.72612 -2.13444 0
M  V30 34786 C 3420.39 -6.60776 -1.72812 0
M  V30 34787 O 3420.08 -7.90797 -1.44555 0
M  V30 34788 H 3419.81 -0.525724 -0.424959 0
M  V30 34789 H 3422.37 -1.9232 -0.721264 0
M  V30 34790 H 3420.6 -2.06063 -3.27223 0
M  V30 34791 H 3422.28 -2.47578 -3.21652 0
M  V30 34792 H 3423.05 -4.50797 -1.78905 0
M  V30 34793 H 3418.93 -3.71739 -2.72638 0
M  V30 34794 H 3422.47 -6.85593 -1.2887 0
M  V30 34795 H 3418.37 -6.05743 -2.23038 0
M  V30 34796 H 3419.14 -8.03019 -1.58437 0
M  V30 34797 N 3421.8 0.831459 -1.33883 0
M  V30 34798 C 3423.03 1.62429 -1.28964 0
M  V30 34799 C 3423.45 1.87613 0.135216 0
M  V30 34800 O 3422.81 1.44555 1.09424 0
M  V30 34801 C 3422.86 2.94725 -2.07772 0
M  V30 34802 O 3421.96 3.8639 -1.4414 0
M  V30 34803 H 3421.3 0.494329 -0.443322 0
M  V30 34804 H 3423.83 1.03387 -1.76557 0
M  V30 34805 H 3423.84 3.44362 -2.18812 0
M  V30 34806 H 3422.52 2.75718 -3.11372 0
M  V30 34807 H 3421.09 3.44891 -1.4179 0
M  V30 34808 N 3423.28 1.17472 1.05062 0
M  V30 34809 C 3424.53 0.965342 1.78351 0
M  V30 34810 C 3424.86 -0.504674 1.87528 0
M  V30 34811 O 3424.13 -1.37463 1.37602 0
M  V30 34812 C 3424.42 1.60868 3.2217 0
M  V30 34813 C 3424.27 3.15088 3.20997 0
M  V30 34814 C 3425.59 1.31365 4.20037 0
M  V30 34815 H 3422.71 0.352113 0.647445 0
M  V30 34816 H 3425.35 1.44991 1.22791 0
M  V30 34817 H 3423.5 1.19665 3.69611 0
M  V30 34818 H 3425.17 3.65358 2.81622 0
M  V30 34819 H 3423.41 3.47771 2.59303 0
M  V30 34820 H 3424.09 3.55232 4.2251 0
M  V30 34821 H 3426.56 1.67047 3.81096 0
M  V30 34822 H 3425.44 1.78962 5.18906 0
M  V30 34823 H 3425.7 0.234684 4.41477 0
M  V30 34824 N 3424.76 -1.23807 0.975168 0
M  V30 34825 C 3426 -1.92366 0.642108 0
M  V30 34826 C 3426.34 -1.75964 -0.821609 0
M  V30 34827 O 3425.61 -1.11735 -1.59203 0
M  V30 34828 C 3425.89 -3.45149 1.02683 0
M  V30 34829 C 3425.75 -3.70685 2.54779 0
M  V30 34830 C 3427.07 -4.36434 0.566877 0
M  V30 34831 H 3424.19 -0.698615 0.234747 0
M  V30 34832 H 3426.83 -1.46032 1.21551 0
M  V30 34833 H 3424.98 -3.84744 0.538913 0
M  V30 34834 H 3426.65 -3.40604 3.11105 0
M  V30 34835 H 3424.89 -3.15578 2.97646 0
M  V30 34836 H 3425.56 -4.77613 2.76748 0
M  V30 34837 H 3428.04 -4.04256 0.985706 0
M  V30 34838 H 3426.92 -5.42049 0.864553 0
M  V30 34839 H 3427.18 -4.38876 -0.532912 0
M  V30 34840 N 3426.24 -0.746182 -1.38816 0
M  V30 34841 C 3427.15 -0.115427 -2.34316 0
M  V30 34842 C 3428.16 0.709151 -1.58893 0
M  V30 34843 O 3429.34 0.635025 -1.91127 0
M  V30 34844 C 3426.4 0.772761 -3.37978 0
M  V30 34845 C 3425.46 -0.0653434 -4.2925 0
M  V30 34846 C 3424.7 0.780547 -5.27961 0
M  V30 34847 O 3424.92 2.01886 -5.33477 0
M  V30 34848 O 3423.85 0.203274 -6.01557 0
M  V30 34849 H 3427.68 -0.903938 -2.89936 0
M  V30 34850 H 3425.26 -0.506983 -1.40535 0
M  V30 34851 H 3427.15 1.28061 -4.0147 0
M  V30 34852 H 3425.82 1.53989 -2.84726 0
M  V30 34853 H 3424.73 -0.618975 -3.68944 0
M  V30 34854 H 3426.06 -0.794957 -4.85738 0
M  V30 34855 N 3427.71 1.49635 -0.494676 0
M  V30 34856 C 3428.66 2.29007 0.287113 0
M  V30 34857 C 3429.63 1.35115 0.966075 0
M  V30 34858 O 3430.82 1.64069 0.973962 0
M  V30 34859 C 3427.96 3.17626 1.34935 0
M  V30 34860 C 3427.07 4.2657 0.682804 0
M  V30 34861 C 3426.2 5.02413 1.72495 0
M  V30 34862 C 3425.24 6.03201 1.03992 0
M  V30 34863 N 3424.38 6.72234 2.02598 0
M  V30 34864 H 3429.22 2.95357 -0.395993 0
M  V30 34865 H 3426.76 1.45634 -0.207129 0
M  V30 34866 H 3428.71 3.67376 1.97714 0
M  V30 34867 H 3427.34 2.53274 2.00131 0
M  V30 34868 H 3426.4 3.80356 -0.0581146 0
M  V30 34869 H 3427.71 4.98594 0.143247 0
M  V30 34870 H 3426.86 5.56 2.42794 0
M  V30 34871 H 3425.6 4.30148 2.29835 0
M  V30 34872 H 3424.61 5.48852 0.322669 0
M  V30 34873 H 3425.83 6.7745 0.4731 0
M  V30 34874 H 3423.78 6.02744 2.58912 0
M  V30 34875 H 3423.69 7.40213 1.53691 0
M  V30 34876 H 3424.96 7.30428 2.72205 0
M  V30 34877 N 3429.19 0.228241 1.55939 0
M  V30 34878 C 3430.42 -0.409328 2.03321 0
M  V30 34879 C 3430.84 -1.52086 1.10686 0
M  V30 34880 O 3430.2 -1.81044 0.0962802 0
M  V30 34881 C 3430.25 -0.91192 3.48879 0
M  V30 34882 O 3429.35 -2.02283 3.59382 0
M  V30 34883 H 3428.69 -0.0917793 0.657626 0
M  V30 34884 H 3431.22 0.348837 2.01604 0
M  V30 34885 H 3431.23 -1.22 3.89333 0
M  V30 34886 H 3429.91 -0.0984171 4.15784 0
M  V30 34887 H 3428.48 -1.72087 3.30818 0
M  V30 34888 N 3430.67 -1.57536 -0.0450825 0
M  V30 34889 C 3431.6 -2.08539 -1.05043 0
M  V30 34890 C 3432.58 -0.984442 -1.38718 0
M  V30 34891 O 3433.77 -1.25876 -1.47881 0
M  V30 34892 C 3430.9 -2.55152 -2.35615 0
M  V30 34893 C 3429.85 -3.69366 -2.16224 0
M  V30 34894 C 3429.18 -4.02128 -3.52416 0
M  V30 34895 C 3430.48 -4.98412 -1.5615 0
M  V30 34896 H 3432.17 -2.92784 -0.625914 0
M  V30 34897 H 3429.72 -1.40848 -0.299632 0
M  V30 34898 H 3431.67 -2.89451 -3.06261 0
M  V30 34899 H 3430.39 -1.67969 -2.80096 0
M  V30 34900 H 3429.05 -3.35391 -1.48014 0
M  V30 34901 H 3428.7 -3.12035 -3.94516 0
M  V30 34902 H 3428.4 -4.7905 -3.40272 0
M  V30 34903 H 3429.92 -4.38947 -4.2445 0
M  V30 34904 H 3431.34 -5.3077 -2.16694 0
M  V30 34905 H 3429.74 -5.79836 -1.54627 0
M  V30 34906 H 3430.81 -4.82043 -0.525613 0
M  V30 34907 N 3432.15 0.317045 -1.54378 0
M  V30 34908 C 3433.56 0.891076 -1.64063 0
M  V30 34909 C 3433.91 1.88654 -0.538896 0
M  V30 34910 O 3433.04 2.13913 0.327143 0
M  V30 34911 C 3433.63 1.62297 -2.97398 0
M  V30 34912 C 3432.19 2.14563 -3.09257 0
M  V30 34913 C 3431.34 0.973101 -2.59665 0
M  V30 34914 H 3434.29 0.0944551 -1.58419 0
M  V30 34915 H 3434.31 2.48759 -2.87923 0
M  V30 34916 H 3433.82 0.898202 -3.77563 0
M  V30 34917 H 3431.92 2.90135 -2.33779 0
M  V30 34918 H 3432.03 2.39116 -4.15163 0
M  V30 34919 H 3430.4 1.35412 -2.15721 0
M  V30 34920 H 3431.18 0.262551 -3.42295 0
M  V30 34921 N 3433.63 1.46561 0.57944 0
M  V30 34922 C 3434.59 1.56951 1.6703 0
M  V30 34923 C 3435.59 0.446388 1.5448 0
M  V30 34924 O 3436.78 0.710795 1.59039 0
M  V30 34925 C 3433.91 1.49292 3.06472 0
M  V30 34926 H 3435.1 2.54172 1.59175 0
M  V30 34927 H 3432.66 1.3442 0.79755 0
M  V30 34928 H 3433.39 0.533628 3.1988 0
M  V30 34929 H 3433.18 2.30782 3.16989 0
M  V30 34930 H 3434.67 1.59654 3.85876 0
M  V30 34931 N 3435.1 -0.824347 1.34322 0
M  V30 34932 C 3436.33 -1.61223 1.29671 0
M  V30 34933 C 3436.75 -1.88355 -0.129499 0
M  V30 34934 O 3436.1 -1.47396 -1.07614 0
M  V30 34935 C 3436.16 -2.95398 2.0838 0
M  V30 34936 O 3435.88 -2.6945 3.45439 0
M  V30 34937 C 3437.38 -3.89804 2.1111 0
M  V30 34938 H 3434.6 -0.501193 0.446146 0
M  V30 34939 H 3437.14 -1.02576 1.76914 0
M  V30 34940 H 3435.3 -3.50607 1.64783 0
M  V30 34941 H 3435.71 -3.54995 3.86108 0
M  V30 34942 H 3437.18 -4.81119 2.70608 0
M  V30 34943 H 3437.66 -4.25069 1.10512 0
M  V30 34944 H 3438.27 -3.40532 2.5479 0
M  V30 34945 N 3436.58 -1.18028 -1.04437 0
M  V30 34946 C 3437.83 -0.974787 -1.77836 0
M  V30 34947 C 3438.16 0.494722 -1.87793 0
M  V30 34948 O 3437.44 1.36731 -1.38329 0
M  V30 34949 C 3437.72 -1.62574 -3.21312 0
M  V30 34950 C 3437.57 -3.16786 -3.19322 0
M  V30 34951 C 3438.89 -1.33591 -4.19335 0
M  V30 34952 H 3436.01 -0.355541 -0.645569 0
M  V30 34953 H 3438.65 -1.4564 -1.22021 0
M  V30 34954 H 3436.8 -1.21623 -3.68972 0
M  V30 34955 H 3438.47 -3.66847 -2.79681 0
M  V30 34956 H 3436.72 -3.49141 -2.57455 0
M  V30 34957 H 3437.39 -3.57467 -4.2062 0
M  V30 34958 H 3439.86 -1.69066 -3.80205 0
M  V30 34959 H 3438.74 -1.81711 -5.1795 0
M  V30 34960 H 3439 -0.258093 -4.41346 0
M  V30 34961 N 3438.06 1.23288 -0.98172 0
M  V30 34962 C 3439.29 1.95772 -0.669404 0
M  V30 34963 C 3439.7 1.72657 0.763868 0
M  V30 34964 O 3439.06 1.01879 1.51416 0
M  V30 34965 C 3439.11 3.48742 -0.951924 0
M  V30 34966 O 3438.83 3.71073 -2.32887 0
M  V30 34967 C 3440.33 4.38423 -0.655745 0
M  V30 34968 H 3437.55 0.623266 -0.248556 0
M  V30 34969 H 3440.1 1.56743 -1.31346 0
M  V30 34970 H 3438.25 3.85781 -0.353855 0
M  V30 34971 H 3438.67 4.65358 -2.41956 0
M  V30 34972 H 3440.14 5.44551 -0.903778 0
M  V30 34973 H 3440.62 4.3728 0.410192 0
M  V30 34974 H 3441.22 4.06994 -1.23435 0
M  V30 34975 N 3439.54 0.753533 1.38418 0
M  V30 34976 C 3440.47 0.0859866 2.29039 0
M  V30 34977 C 3441.48 -0.683804 1.47743 0
M  V30 34978 O 3442.67 -0.524903 1.70608 0
M  V30 34979 C 3439.77 -0.902239 3.26669 0
M  V30 34980 C 3438.95 -0.190101 4.36987 0
M  V30 34981 C 3438 -1.08907 5.14807 0
M  V30 34982 O 3437.03 -0.559616 5.66442 0
M  V30 34983 N 3438.23 -2.41717 5.27782 0
M  V30 34984 H 3441 0.864247 2.86968 0
M  V30 34985 H 3438.56 0.604314 1.50199 0
M  V30 34986 H 3440.55 -1.50666 3.75609 0
M  V30 34987 H 3439.12 -1.58158 2.69638 0
M  V30 34988 H 3438.34 0.595028 3.89683 0
M  V30 34989 H 3439.63 0.302683 5.07899 0
M  V30 34990 H 3439.03 -2.87187 4.87381 0
M  V30 34991 H 3437.58 -2.97209 5.80095 0
M  V30 34992 N 3441.02 -1.49371 0.502605 0
M  V30 34993 C 3442.27 -2.01654 -0.0431986 0
M  V30 34994 C 3442.58 -1.38722 -1.37897 0
M  V30 34995 O 3443.78 -1.82342 -2.01156 0
M  V30 34996 C 3442.24 -3.59674 -0.127446 0
M  V30 34997 C 3441.85 -4.3158 1.20178 0
M  V30 34998 C 3443.59 -4.19896 -0.623529 0
M  V30 34999 C 3441.5 -5.81462 1.07961 0
M  V30 35000 H 3440.43 -0.753737 -0.0199175 0
M  V30 35001 H 3443.08 -1.71893 0.642267 0
M  V30 35002 H 3441.46 -3.86158 -0.877397 0
M  V30 35003 H 3442.64 -4.16795 1.96515 0
M  V30 35004 H 3440.95 -3.8311 1.63143 0
M  V30 35005 H 3443.55 -5.29659 -0.732468 0
M  V30 35006 H 3443.89 -3.8337 -1.62275 0
M  V30 35007 H 3444.42 -3.97739 0.069934 0
M  V30 35008 H 3441.16 -6.22516 2.05315 0
M  V30 35009 H 3440.68 -5.98736 0.357156 0
M  V30 35010 H 3442.36 -6.42533 0.758998 0
M  V30 35011 N 3442.49 -0.236508 -1.55815 0
M  V30 35012 C 3443.74 0.391545 -1.97863 0
M  V30 35013 C 3444.06 1.59825 -1.12763 0
M  V30 35014 O 3445.26 2.29678 -1.44776 0
M  V30 35015 C 3443.72 0.748003 -3.52041 0
M  V30 35016 C 3443.33 -0.436721 -4.45866 0
M  V30 35017 C 3445.07 1.34082 -4.02768 0
M  V30 35018 C 3442.98 -0.0569948 -5.91373 0
M  V30 35019 H 3441.91 0.150065 -0.738916 0
M  V30 35020 H 3444.56 -0.335084 -1.80415 0
M  V30 35021 H 3442.94 1.53247 -3.65146 0
M  V30 35022 H 3444.11 -1.21416 -4.44516 0
M  V30 35023 H 3442.43 -0.943773 -4.05564 0
M  V30 35024 H 3445.03 1.63809 -5.0899 0
M  V30 35025 H 3445.37 2.26176 -3.495 0
M  V30 35026 H 3445.9 0.619479 -3.92947 0
M  V30 35027 H 3442.64 -0.944796 -6.48655 0
M  V30 35028 H 3442.16 0.684453 -5.95882 0
M  V30 35029 H 3443.84 0.364473 -6.45973 0
M  V30 35030 N 3443.97 1.57557 0.0367273 0
M  V30 35031 C 3444.91 2.01423 1.07257 0
M  V30 35032 C 3445.88 0.897185 1.35607 0
M  V30 35033 O 3447.07 1.1624 1.48393 0
M  V30 35034 C 3444.19 2.38078 2.40908 0
M  V30 35035 C 3443.24 3.60147 2.28465 0
M  V30 35036 S 3444.07 5.09597 1.64535 0
M  V30 35037 C 3445.23 5.49487 2.99691 0
M  V30 35038 H 3445.46 2.88968 0.698908 0
M  V30 35039 H 3443 1.5242 0.246454 0
M  V30 35040 H 3444.95 2.59868 3.17772 0
M  V30 35041 H 3443.61 1.50998 2.75424 0
M  V30 35042 H 3442.81 3.83425 3.2711 0
M  V30 35043 H 3442.41 3.38169 1.59743 0
M  V30 35044 H 3444.7 5.49702 3.96022 0
M  V30 35045 H 3445.64 6.4989 2.81155 0
M  V30 35046 H 3446.05 4.7698 3.01911 0
M  V30 35047 N 3445.45 -0.308854 1.54544 0
M  V30 35048 C 3446.38 -1.38554 1.8795 0
M  V30 35049 C 3447.36 -1.53273 0.737649 0
M  V30 35050 O 3448.55 -1.66911 0.992694 0
M  V30 35051 C 3445.68 -2.75098 2.11987 0
M  V30 35052 C 3444.63 -2.75152 3.27834 0
M  V30 35053 C 3443.96 -4.14911 3.37273 0
M  V30 35054 C 3445.26 -2.3759 4.65133 0
M  V30 35055 H 3446.95 -1.10845 2.78125 0
M  V30 35056 H 3444.5 -0.531784 1.33821 0
M  V30 35057 H 3446.45 -3.50499 2.33941 0
M  V30 35058 H 3445.17 -3.04315 1.18574 0
M  V30 35059 H 3443.83 -2.02207 3.05791 0
M  V30 35060 H 3443.48 -4.41292 2.41392 0
M  V30 35061 H 3443.18 -4.1585 4.15142 0
M  V30 35062 H 3444.71 -4.92103 3.61479 0
M  V30 35063 H 3446.12 -3.02705 4.8687 0
M  V30 35064 H 3444.52 -2.49755 5.45658 0
M  V30 35065 H 3445.59 -1.32723 4.66383 0
M  V30 35066 N 3446.93 -1.46867 -0.571659 0
M  V30 35067 C 3448.18 -1.52748 -1.32945 0
M  V30 35068 C 3448.5 -0.183728 -1.9363 0
M  V30 35069 O 3447.76 0.821855 -1.77606 0
M  V30 35070 C 3448.06 -2.58269 -2.47047 0
M  V30 35071 C 3447.72 -4.01969 -2.04284 0
M  V30 35072 C 3446.39 -4.41089 -1.92337 0
M  V30 35073 C 3448.74 -4.92193 -1.7145 0
M  V30 35074 C 3446.07 -5.68287 -1.4583 0
M  V30 35075 C 3448.42 -6.1984 -1.26418 0
M  V30 35076 C 3447.08 -6.57856 -1.13057 0
M  V30 35077 H 3446.35 -0.558944 -0.48648 0
M  V30 35078 H 3449 -1.80397 -0.642587 0
M  V30 35079 H 3447.3 -2.24322 -3.21227 0
M  V30 35080 H 3449 -2.60046 -3.0525 0
M  V30 35081 H 3445.59 -3.71051 -2.14521 0
M  V30 35082 H 3449.78 -4.62679 -1.79559 0
M  V30 35083 H 3445.03 -5.96504 -1.34138 0
M  V30 35084 H 3449.21 -6.89173 -1.00069 0
M  V30 35085 H 3446.83 -7.56311 -0.767962 0
M  V30 35086 N 3448.41 0.817212 -1.34757 0
M  V30 35087 C 3449.36 1.94986 -1.2682 0
M  V30 35088 C 3450.35 1.68593 -0.165172 0
M  V30 35089 O 3451.56 1.7694 -0.330501 0
M  V30 35090 H 3447.93 0.640445 -0.394124 0
M  V30 35091 H 3449.9 1.98802 -2.22532 0
M  V30 35092 C 3448.65 3.31584 -1.0463 0
M  V30 35093 H 3447.97 3.52444 -1.88741 0
M  V30 35094 H 3449.41 4.1127 -1.03115 0
M  V30 35095 C 3447.87 3.35969 0.250224 0
M  V30 35096 O 3448.4 3.81768 1.24965 0
M  V30 35097 N 3446.61 2.89196 0.285318 0
M  V30 35098 H 3446.16 2.52119 -0.528573 0
M  V30 35099 H 3446.11 2.92512 1.15256 0
M  V30 35100 N 3449.89 1.1858 1.0381 0
M  V30 35101 C 3451.11 1.00772 1.807 0
M  V30 35102 C 3451.53 -0.443801 1.8351 0
M  V30 35103 O 3450.89 -1.30826 1.27243 0
M  V30 35104 C 3450.94 1.55844 3.26182 0
M  V30 35105 O 3450.66 2.95313 3.23607 0
M  V30 35106 C 3452.16 1.4269 4.19708 0
M  V30 35107 H 3449.38 0.355695 0.568966 0
M  V30 35108 H 3451.92 1.57187 1.30814 0
M  V30 35109 H 3450.08 1.03599 3.73291 0
M  V30 35110 H 3450.49 3.21047 4.14764 0
M  V30 35111 H 3451.97 1.86017 5.19713 0
M  V30 35112 H 3452.44 0.376001 4.37588 0
M  V30 35113 H 3453.05 1.9402 3.78466 0
M  V30 35114 N 3451.36 -1.22766 0.988245 0
M  V30 35115 C 3452.61 -1.91391 0.661494 0
M  V30 35116 C 3452.94 -1.77018 -0.80591 0
M  V30 35117 O 3452.19 -1.13002 -1.59778 0
M  V30 35118 C 3452.49 -3.42905 1.0075 0
M  V30 35119 C 3452.16 -3.77464 2.46641 0
M  V30 35120 C 3450.82 -3.86608 2.8651 0
M  V30 35121 C 3453.17 -3.93974 3.41224 0
M  V30 35122 C 3450.5 -4.09695 4.19961 0
M  V30 35123 C 3452.85 -4.18563 4.74328 0
M  V30 35124 C 3451.52 -4.2593 5.13945 0
M  V30 35125 H 3450.79 -0.700349 0.242058 0
M  V30 35126 H 3453.43 -1.45629 1.24357 0
M  V30 35127 H 3451.74 -3.90292 0.343448 0
M  V30 35128 H 3453.44 -3.94248 0.732784 0
M  V30 35129 H 3450.03 -3.70927 2.14735 0
M  V30 35130 H 3454.21 -3.86292 3.11596 0
M  V30 35131 H 3449.47 -4.13623 4.50251 0
M  V30 35132 H 3453.64 -4.30281 5.47568 0
M  V30 35133 H 3451.27 -4.43572 6.17372 0
M  V30 35134 N 3452.84 -0.760864 -1.38017 0
M  V30 35135 C 3454.07 -0.330074 -2.04757 0
M  V30 35136 C 3454.49 1.03582 -1.57011 0
M  V30 35137 O 3453.85 1.66156 -0.725379 0
M  V30 35138 C 3453.9 -0.370145 -3.58695 0
M  V30 35139 O 3453 0.633289 -4.07509 0
M  V30 35140 H 3452.34 -0.144793 -0.648021 0
M  V30 35141 H 3454.87 -1.03402 -1.76548 0
M  V30 35142 H 3454.88 -0.223586 -4.07387 0
M  V30 35143 H 3453.56 -1.36668 -3.92804 0
M  V30 35144 H 3452.13 0.450745 -3.70166 0
M  V30 35145 N 3454.32 1.49102 -0.510519 0
M  V30 35146 C 3455.73 1.86586 -0.0651159 0
M  V30 35147 C 3456.08 1.42197 1.35183 0
M  V30 35148 O 3455.21 0.80404 2.00908 0
M  V30 35149 C 3455.8 3.38617 -0.111392 0
M  V30 35150 C 3454.36 3.75367 0.278716 0
M  V30 35151 C 3453.51 2.73118 -0.479755 0
M  V30 35152 H 3456.46 1.41284 -0.722809 0
M  V30 35153 H 3456.48 3.74345 0.68164 0
M  V30 35154 H 3455.99 3.70894 -1.14278 0
M  V30 35155 H 3454.09 3.487 1.31298 0
M  V30 35156 H 3454.21 4.79077 -0.0473552 0
M  V30 35157 H 3452.57 2.54599 0.0716011 0
M  V30 35158 H 3453.35 3.08239 -1.5114 0
M  V30 35159 N 3455.8 0.244768 1.55688 0
M  V30 35160 C 3456.75 -0.671941 2.22683 0
M  V30 35161 C 3457.74 -1.18176 1.21371 0
M  V30 35162 O 3458.95 -1.13889 1.39389 0
M  V30 35163 H 3455.32 -0.235168 0.714283 0
M  V30 35164 H 3457.29 -0.083718 2.98283 0
M  V30 35165 C 3456.04 -1.85888 2.93838 0
M  V30 35166 H 3455.36 -1.47573 3.71567 0
M  V30 35167 H 3456.8 -2.47758 3.44082 0
M  V30 35168 C 3455.26 -2.72871 1.97594 0
M  V30 35169 O 3455.79 -3.72335 1.50764 0
M  V30 35170 N 3454 -2.39393 1.64741 0
M  V30 35171 H 3453.55 -1.58561 2.03018 0
M  V30 35172 H 3453.5 -2.97867 1.0061 0
M  V30 35173 N 3457.28 -1.57574 -0.0283712 0
M  V30 35174 C 3458.52 -1.8893 -0.717623 0
M  V30 35175 C 3458.84 -0.842548 -1.75858 0
M  V30 35176 O 3458.11 0.123739 -1.95509 0
M  V30 35177 H 3456.69 -0.697255 -0.268038 0
M  V30 35178 H 3459.36 -1.94899 0.00584117 0
M  V30 35179 H 3458.45 -2.87826 -1.20675 0
M  V30 35180 N 3458.75 0.300654 -1.54706 0
M  V30 35181 C 3459.68 1.37555 -1.88682 0
M  V30 35182 C 3460.66 1.5288 -0.745767 0
M  V30 35183 O 3461.85 1.66382 -1.00153 0
M  V30 35184 C 3458.98 2.7397 -2.13443 0
M  V30 35185 C 3457.93 2.73409 -3.29289 0
M  V30 35186 C 3457.26 4.13116 -3.39469 0
M  V30 35187 C 3458.56 2.3512 -4.66386 0
M  V30 35188 H 3460.25 1.09368 -2.78709 0
M  V30 35189 H 3457.8 0.52468 -1.34101 0
M  V30 35190 H 3459.75 3.49253 -2.35797 0
M  V30 35191 H 3458.48 3.03682 -1.20187 0
M  V30 35192 H 3457.14 2.00582 -3.06859 0
M  V30 35193 H 3456.78 4.40006 -2.43729 0
M  V30 35194 H 3456.48 4.13642 -4.17341 0
M  V30 35195 H 3458.01 4.90179 -3.64084 0
M  V30 35196 H 3459.42 3.00119 -4.88468 0
M  V30 35197 H 3457.82 2.46858 -5.46975 0
M  V30 35198 H 3458.89 1.30248 -4.6708 0
M  V30 35199 N 3460.23 1.47168 0.563863 0
M  V30 35200 C 3461.16 1.62028 1.68134 0
M  V30 35201 C 3462.14 0.469927 1.6348 0
M  V30 35202 O 3463.33 0.698464 1.81205 0
M  V30 35203 C 3460.46 1.62806 3.06776 0
M  V30 35204 C 3459.41 2.77002 3.26273 0
M  V30 35205 C 3458.74 2.62849 4.65633 0
M  V30 35206 C 3460.04 4.18657 3.12288 0
M  V30 35207 H 3461.73 2.55575 1.55954 0
M  V30 35208 H 3459.28 1.22997 0.748848 0
M  V30 35209 H 3461.23 1.71794 3.84792 0
M  V30 35210 H 3459.96 0.658153 3.199 0
M  V30 35211 H 3458.61 2.67514 2.50663 0
M  V30 35212 H 3458.26 1.639 4.75548 0
M  V30 35213 H 3457.96 3.39456 4.79629 0
M  V30 35214 H 3459.49 2.73756 5.45793 0
M  V30 35215 H 3460.9 4.29156 3.80128 0
M  V30 35216 H 3459.3 4.95998 3.37796 0
M  V30 35217 H 3460.37 4.3749 2.09119 0
M  V30 35218 N 3461.71 -0.810054 1.35188 0
M  V30 35219 C 3462.64 -1.93639 1.30484 0
M  V30 35220 C 3463.62 -1.69146 0.179905 0
M  V30 35221 O 3464.81 -1.90558 0.374317 0
M  V30 35222 C 3461.94 -3.30323 1.07257 0
M  V30 35223 C 3460.89 -3.6929 2.16354 0
M  V30 35224 C 3460.22 -5.04098 1.78297 0
M  V30 35225 C 3461.52 -3.80032 3.58292 0
M  V30 35226 H 3463.21 -1.97832 2.24728 0
M  V30 35227 H 3460.76 -0.950416 1.08181 0
M  V30 35228 H 3462.71 -4.08717 1.02607 0
M  V30 35229 H 3461.43 -3.26463 0.0945777 0
M  V30 35230 H 3460.09 -2.93179 2.20095 0
M  V30 35231 H 3459.74 -4.96738 0.79125 0
M  V30 35232 H 3459.44 -5.3114 2.51325 0
M  V30 35233 H 3460.96 -5.84935 1.75165 0
M  V30 35234 H 3462.38 -4.48665 3.56892 0
M  V30 35235 H 3460.78 -4.1854 4.30051 0
M  V30 35236 H 3461.85 -2.81678 3.94696 0
M  V30 35237 N 3463.19 -1.19129 -1.0318 0
M  V30 35238 C 3464.42 -1.01581 -1.79902 0
M  V30 35239 C 3464.83 0.438664 -1.84044 0
M  V30 35240 O 3464.17 1.31648 -1.28119 0
M  V30 35241 C 3464.23 -1.50524 -3.2647 0
M  V30 35242 C 3463.9 -2.98587 -3.45969 0
M  V30 35243 C 3464.89 -3.96373 -3.36429 0
M  V30 35244 C 3462.58 -3.37215 -3.72278 0
M  V30 35245 C 3464.57 -5.30782 -3.52916 0
M  V30 35246 C 3462.26 -4.71784 -3.88411 0
M  V30 35247 C 3463.26 -5.68376 -3.78732 0
M  V30 35248 O 3462.94 -7.00507 -3.94393 0
M  V30 35249 H 3462.68 -0.35852 -0.573097 0
M  V30 35250 H 3465.23 -1.58312 -1.30868 0
M  V30 35251 H 3463.46 -0.881659 -3.76515 0
M  V30 35252 H 3465.15 -1.2923 -3.84778 0
M  V30 35253 H 3465.92 -3.67876 -3.16058 0
M  V30 35254 H 3461.79 -2.62585 -3.78906 0
M  V30 35255 H 3465.34 -6.06159 -3.45277 0
M  V30 35256 H 3461.24 -4.99978 -4.08279 0
M  V30 35257 H 3462 -7.07537 -4.11501 0
M  V30 35258 N 3464.67 1.2224 -0.994741 0
M  V30 35259 C 3465.6 2.26523 -0.566539 0
M  V30 35260 C 3466.58 1.65146 0.407512 0
M  V30 35261 O 3467.76 1.91904 0.297743 0
M  V30 35262 C 3464.89 3.471 0.117799 0
M  V30 35263 C 3463.85 4.20925 -0.774982 0
M  V30 35264 C 3463.17 5.34683 0.0423747 0
M  V30 35265 C 3464.47 4.79412 -2.07271 0
M  V30 35266 H 3466.17 2.62594 -1.43822 0
M  V30 35267 H 3463.71 1.26228 -0.692993 0
M  V30 35268 H 3465.67 4.19213 0.428769 0
M  V30 35269 H 3464.39 3.10131 1.02404 0
M  V30 35270 H 3463.05 3.50649 -1.06962 0
M  V30 35271 H 3462.7 4.93955 0.94959 0
M  V30 35272 H 3462.4 5.85002 -0.55197 0
M  V30 35273 H 3463.92 6.09611 0.347397 0
M  V30 35274 H 3465.33 5.43457 -1.82557 0
M  V30 35275 H 3463.73 5.40077 -2.61604 0
M  V30 35276 H 3464.8 3.99361 -2.75024 0
M  V30 35277 N 3466.14 0.768172 1.37611 0
M  V30 35278 C 3467.39 0.330222 1.99384 0
M  V30 35279 C 3467.71 -1.09601 1.61284 0
M  V30 35280 O 3466.98 -1.75194 0.876582 0
M  V30 35281 H 3465.56 0.119108 0.737443 0
M  V30 35282 H 3468.23 0.985505 1.68148 0
M  V30 35283 H 3467.32 0.404994 3.09461 0
M  V30 35284 N 3467.62 -1.48829 0.518419 0
M  V30 35285 C 3468.85 -2.07392 -0.0182766 0
M  V30 35286 C 3469.27 -1.37398 -1.28465 0
M  V30 35287 O 3468.63 -0.436208 -1.75974 0
M  V30 35288 C 3468.68 -3.59819 -0.237148 0
M  V30 35289 O 3467.78 -3.91098 -1.30828 0
M  V30 35290 H 3467.12 -0.66313 0.0339737 0
M  V30 35291 H 3469.65 -1.91399 0.723027 0
M  V30 35292 H 3469.66 -4.0536 -0.463353 0
M  V30 35293 H 3468.34 -4.1017 0.687997 0
M  V30 35294 H 3466.92 -3.57349 -1.06565 0
M  V30 35295 N 3469.1 -0.253021 -1.55556 0
M  V30 35296 C 3470.33 0.373444 -2.03197 0
M  V30 35297 C 3470.74 1.51639 -1.13147 0
M  V30 35298 O 3470.08 1.83169 -0.139551 0
M  V30 35299 C 3470.14 0.937247 -3.47068 0
M  V30 35300 C 3469.81 -0.0742316 -4.5694 0
M  V30 35301 C 3470.8 -0.885952 -5.12296 0
M  V30 35302 C 3468.49 -0.202091 -5.01893 0
M  V30 35303 C 3470.48 -1.81193 -6.11104 0
M  V30 35304 C 3468.17 -1.13157 -6.00532 0
M  V30 35305 C 3469.17 -1.93501 -6.55016 0
M  V30 35306 O 3468.86 -2.84881 -7.5173 0
M  V30 35307 H 3468.59 0.0921592 -0.669688 0
M  V30 35308 H 3471.14 -0.3763 -2.01924 0
M  V30 35309 H 3469.37 1.73666 -3.4551 0
M  V30 35310 H 3471.06 1.47444 -3.78173 0
M  V30 35311 H 3471.83 -0.797791 -4.78393 0
M  V30 35312 H 3467.71 0.41322 -4.59144 0
M  V30 35313 H 3471.25 -2.43946 -6.53556 0
M  V30 35314 H 3467.15 -1.22063 -6.33854 0
M  V30 35315 H 3467.92 -2.79311 -7.69368 0
M  V30 35316 N 3470.58 1.57587 0.0200142 0
M  V30 35317 C 3471.83 1.89308 0.707593 0
M  V30 35318 C 3472.15 0.851862 1.75409 0
M  V30 35319 O 3471.42 -0.113369 1.95572 0
M  V30 35320 H 3470 0.698667 0.264337 0
M  V30 35321 H 3472.66 1.94893 -0.0161771 0
M  V30 35322 H 3471.76 2.88462 1.19147 0
M  V30 35323 N 3472.06 -0.292445 1.54863 0
M  V30 35324 C 3473.28 -1.04531 1.78552 0
M  V30 35325 C 3473.7 -1.80636 0.549193 0
M  V30 35326 O 3473.06 -1.76041 -0.481237 0
M  V30 35327 C 3473.11 -2.01918 2.99852 0
M  V30 35328 O 3472.83 -1.28899 4.18708 0
M  V30 35329 C 3474.33 -2.89174 3.35996 0
M  V30 35330 H 3471.55 -0.309642 0.595284 0
M  V30 35331 H 3474.09 -0.329123 2.01834 0
M  V30 35332 H 3472.25 -2.69027 2.78753 0
M  V30 35333 H 3472.66 -1.94374 4.87154 0
M  V30 35334 H 3474.14 -3.53342 4.24092 0
M  V30 35335 H 3474.61 -3.57926 2.5453 0
M  V30 35336 H 3475.22 -2.27584 3.59285 0
M  V30 35337 N 3473.53 -1.47465 -0.55605 0
M  V30 35338 C 3474.48 -1.60039 -1.66302 0
M  V30 35339 C 3475.45 -0.443376 -1.60073 0
M  V30 35340 O 3476.64 -0.663577 -1.78889 0
M  V30 35341 C 3473.78 -1.62172 -3.04621 0
M  V30 35342 C 3472.89 -2.88798 -3.21278 0
M  V30 35343 C 3472.02 -2.8226 -4.50003 0
M  V30 35344 C 3471.06 -4.03706 -4.60096 0
M  V30 35345 N 3470.2 -3.95397 -5.80177 0
M  V30 35346 H 3475.04 -2.54582 -1.54893 0
M  V30 35347 H 3472.58 -1.26276 -0.754511 0
M  V30 35348 H 3474.54 -1.61392 -3.84719 0
M  V30 35349 H 3473.17 -0.711403 -3.14863 0
M  V30 35350 H 3472.22 -2.9944 -2.34606 0
M  V30 35351 H 3473.53 -3.7873 -3.246 0
M  V30 35352 H 3472.68 -2.79736 -5.38361 0
M  V30 35353 H 3471.42 -1.90013 -4.49162 0
M  V30 35354 H 3470.43 -4.06533 -3.70149 0
M  V30 35355 H 3471.65 -4.97081 -4.62696 0
M  V30 35356 H 3469.6 -3.05954 -5.80283 0
M  V30 35357 H 3469.52 -4.79008 -5.84882 0
M  V30 35358 H 3470.78 -3.96891 -6.70893 0
M  V30 35359 N 3475.01 0.802873 -1.35616 0
M  V30 35360 C 3476.29 1.5473 -1.19657 0
M  V30 35361 C 3476.67 2.09921 0.22279 0
M  V30 35362 O 3476.02 1.92776 1.22677 0
M  V30 35363 C 3476.23 2.65289 -2.26765 0
M  V30 35364 C 3477.58 3.3353 -2.6276 0
M  V30 35365 O 3478.6 2.75563 -2.25707 0
M  V30 35366 O 3477.46 4.38259 -3.26484 0
M  V30 35367 H 3474.55 0.683827 -0.465091 0
M  V30 35368 H 3477.1 0.842514 -1.47308 0
M  V30 35369 H 3475.87 2.22406 -3.21949 0
M  V30 35370 H 3475.49 3.434 -2.00405 0
M  V30 35371 N 3476.49 1.19674 1.02547 0
M  V30 35372 C 3477.74 1.00147 1.76002 0
M  V30 35373 C 3478.07 -0.46739 1.88801 0
M  V30 35374 O 3477.32 -1.36329 1.40403 0
M  V30 35375 C 3477.62 1.61964 3.18594 0
M  V30 35376 C 3477.29 3.11719 3.25795 0
M  V30 35377 C 3475.95 3.52589 3.27467 0
M  V30 35378 C 3478.3 4.07726 3.24668 0
M  V30 35379 C 3475.63 4.8801 3.25673 0
M  V30 35380 C 3477.98 5.43082 3.24414 0
M  V30 35381 C 3476.64 5.83378 3.24386 0
M  V30 35382 H 3475.91 0.366465 0.644038 0
M  V30 35383 H 3478.56 1.48968 1.20336 0
M  V30 35384 H 3476.87 1.05382 3.77362 0
M  V30 35385 H 3478.56 1.4438 3.74106 0
M  V30 35386 H 3475.15 2.79155 3.25223 0
M  V30 35387 H 3479.34 3.77191 3.22554 0
M  V30 35388 H 3474.59 5.18507 3.23977 0
M  V30 35389 H 3478.77 6.17228 3.22493 0
M  V30 35390 H 3476.39 6.88285 3.2275 0
M  V30 35391 N 3477.97 -1.21711 1.00121 0
M  V30 35392 C 3478.9 -2.26219 0.578544 0
M  V30 35393 C 3479.88 -1.6536 -0.398748 0
M  V30 35394 O 3481.07 -1.92059 -0.287562 0
M  V30 35395 C 3478.2 -3.47158 -0.0993898 0
M  V30 35396 C 3477.15 -4.20508 0.797294 0
M  V30 35397 C 3476.48 -5.34698 -0.0140185 0
M  V30 35398 C 3477.78 -4.78306 2.09811 0
M  V30 35399 H 3479.47 -2.61827 1.45213 0
M  V30 35400 H 3477.02 -1.25859 0.699678 0
M  V30 35401 H 3478.97 -4.19434 -0.406531 0
M  V30 35402 H 3477.69 -3.10669 -1.00758 0
M  V30 35403 H 3476.35 -3.50077 1.0882 0
M  V30 35404 H 3476 -4.94452 -0.923381 0
M  V30 35405 H 3475.7 -5.84701 0.582986 0
M  V30 35406 H 3477.22 -6.09787 -0.315062 0
M  V30 35407 H 3478.64 -5.42481 1.85437 0
M  V30 35408 H 3477.03 -5.38682 2.64464 0
M  V30 35409 H 3478.1 -3.97897 2.77139 0
M  V30 35410 N 3479.45 -0.775459 -1.37202 0
M  V30 35411 C 3480.67 -0.351772 -2.04395 0
M  V30 35412 C 3481.1 1.01911 -1.58101 0
M  V30 35413 O 3480.46 1.65378 -0.742961 0
M  V30 35414 C 3480.5 -0.408168 -3.58282 0
M  V30 35415 O 3479.61 0.590032 -4.08157 0
M  V30 35416 H 3478.95 -0.151658 -0.646449 0
M  V30 35417 H 3481.48 -1.05268 -1.75441 0
M  V30 35418 H 3481.49 -0.266783 -4.07127 0
M  V30 35419 H 3480.16 -1.40826 -3.91332 0
M  V30 35420 H 3478.74 0.411459 -3.70623 0
M  V30 35421 N 3480.93 1.48552 -0.526305 0
M  V30 35422 C 3482.17 2.01697 0.0111118 0
M  V30 35423 C 3482.49 1.40898 1.35673 0
M  V30 35424 O 3483.69 1.85519 1.9823 0
M  V30 35425 C 3482.15 3.59832 0.0702088 0
M  V30 35426 C 3481.76 4.29613 -1.27029 0
M  V30 35427 C 3483.5 4.20834 0.556648 0
M  V30 35428 C 3481.41 5.79671 -1.17198 0
M  V30 35429 H 3480.34 0.753958 0.00792372 0
M  V30 35430 H 3482.99 1.70849 -0.669533 0
M  V30 35431 H 3481.37 3.87505 0.815851 0
M  V30 35432 H 3482.55 4.13616 -2.03121 0
M  V30 35433 H 3480.86 3.80466 -1.69217 0
M  V30 35434 H 3483.46 5.30758 0.648112 0
M  V30 35435 H 3483.8 3.85903 1.56156 0
M  V30 35436 H 3484.33 3.97577 -0.133202 0
M  V30 35437 H 3481.07 6.19171 -2.15193 0
M  V30 35438 H 3480.59 5.98092 -0.452364 0
M  V30 35439 H 3482.27 6.41244 -0.861123 0
M  V30 35440 N 3482.4 0.261267 1.55419 0
M  V30 35441 C 3483.31 -0.642585 2.25628 0
M  V30 35442 C 3484.33 -1.18153 1.27734 0
M  V30 35443 O 3485.51 -1.21476 1.60641 0
M  V30 35444 C 3482.57 -1.81645 2.95307 0
M  V30 35445 C 3481.63 -1.31555 4.08646 0
M  V30 35446 C 3480.86 -2.43347 4.74993 0
M  V30 35447 O 3481.09 -3.624 4.4048 0
M  V30 35448 O 3480.02 -2.12289 5.6322 0
M  V30 35449 H 3483.85 -0.0742557 3.03609 0
M  V30 35450 H 3481.43 0.0292017 1.49371 0
M  V30 35451 H 3483.31 -2.50119 3.39144 0
M  V30 35452 H 3481.99 -2.37213 2.20254 0
M  V30 35453 H 3480.9 -0.597682 3.69295 0
M  V30 35454 H 3482.23 -0.805793 4.85559 0
M  V30 35455 N 3483.88 -1.57596 -0.0116567 0
M  V30 35456 C 3484.81 -2.1072 -1.00595 0
M  V30 35457 C 3485.79 -1.01364 -1.36599 0
M  V30 35458 O 3486.98 -1.28984 -1.45178 0
M  V30 35459 C 3484.11 -2.60093 -2.3015 0
M  V30 35460 C 3483.06 -3.73869 -2.08341 0
M  V30 35461 C 3482.39 -4.09513 -3.43807 0
M  V30 35462 C 3483.69 -5.01612 -1.45543 0
M  V30 35463 H 3485.38 -2.94046 -0.563669 0
M  V30 35464 H 3482.93 -1.41452 -0.269689 0
M  V30 35465 H 3484.88 -2.95882 -3.00053 0
M  V30 35466 H 3483.6 -1.73873 -2.7647 0
M  V30 35467 H 3482.26 -3.38456 -1.40866 0
M  V30 35468 H 3481.91 -3.20333 -3.87809 0
M  V30 35469 H 3481.61 -4.8616 -3.30034 0
M  V30 35470 H 3483.14 -4.47851 -4.15044 0
M  V30 35471 H 3484.55 -5.35247 -2.05387 0
M  V30 35472 H 3482.95 -5.82986 -1.42294 0
M  V30 35473 H 3484.02 -4.83049 -0.423246 0
M  V30 35474 N 3485.36 0.284228 -1.55016 0
M  V30 35475 C 3486.61 1.0173 -1.75092 0
M  V30 35476 C 3486.93 1.86684 -0.545836 0
M  V30 35477 O 3486.19 1.89925 0.471918 0
M  V30 35478 C 3486.49 1.93868 -3.0025 0
M  V30 35479 C 3486.15 1.24756 -4.33297 0
M  V30 35480 C 3484.82 1.05641 -4.69461 0
M  V30 35481 C 3487.17 0.754849 -5.15705 0
M  V30 35482 C 3484.5 0.359657 -5.85597 0
M  V30 35483 C 3486.85 0.0717361 -6.32559 0
M  V30 35484 C 3485.51 -0.131221 -6.67371 0
M  V30 35485 H 3484.78 0.372258 -0.640707 0
M  V30 35486 H 3487.43 0.290604 -1.89282 0
M  V30 35487 H 3485.73 2.73122 -2.80912 0
M  V30 35488 H 3487.43 2.5069 -3.12978 0
M  V30 35489 H 3484.02 1.40643 -4.04867 0
M  V30 35490 H 3488.21 0.890184 -4.88251 0
M  V30 35491 H 3483.46 0.191582 -6.111 0
M  V30 35492 H 3487.64 -0.317865 -6.95674 0
M  V30 35493 H 3485.26 -0.67311 -7.57214 0
M  V30 35494 N 3486.84 1.47758 0.548222 0
M  V30 35495 C 3488.25 1.33475 0.875025 0
M  V30 35496 C 3488.45 0.331987 1.98746 0
M  V30 35497 O 3487.51 -0.253304 2.51226 0
M  V30 35498 C 3488.82 2.73039 1.25977 0
M  V30 35499 C 3490.37 2.81391 1.37069 0
M  V30 35500 C 3490.85 4.21617 1.78895 0
M  V30 35501 N 3492.34 4.24202 1.8603 0
M  V30 35502 C 3493.07 5.29624 2.1974 0
M  V30 35503 N 3492.57 6.45343 2.52002 0
M  V30 35504 N 3494.36 5.17007 2.20591 0
M  V30 35505 H 3486.51 2.11583 -0.18607 0
M  V30 35506 H 3488.77 0.947776 -0.0205853 0
M  V30 35507 H 3488.48 3.47892 0.516126 0
M  V30 35508 H 3488.35 3.0539 2.21397 0
M  V30 35509 H 3490.74 2.06805 2.10513 0
M  V30 35510 H 3490.82 2.52682 0.398149 0
M  V30 35511 H 3490.47 4.96712 1.06018 0
M  V30 35512 H 3490.4 4.47756 2.77168 0
M  V30 35513 H 3492.89 3.40724 1.63449 0
M  V30 35514 H 3493.2 7.21536 2.76777 0
M  V30 35515 H 3491.55 6.48648 2.49562 0
M  V30 35516 H 3494.74 4.25627 1.94832 0
M  V30 35517 H 3494.91 5.99271 2.46532 0
M  V30 35518 N 3488.32 -0.79567 1.3604 0
M  V30 35519 C 3489.56 -1.5502 1.29665 0
M  V30 35520 C 3489.88 -1.94595 -0.125554 0
M  V30 35521 O 3489.15 -1.64458 -1.06444 0
M  V30 35522 H 3487.73 -0.574897 0.476972 0
M  V30 35523 H 3490.4 -0.948441 1.70266 0
M  V30 35524 H 3489.49 -2.46064 1.91987 0
M  V30 35525 N 3489.79 -1.20217 -1.0191 0
M  V30 35526 C 3491.21 -0.956481 -1.27764 0
M  V30 35527 C 3491.41 0.365452 -1.98158 0
M  V30 35528 O 3490.47 1.09459 -2.27541 0
M  V30 35529 C 3491.78 -2.13736 -2.11513 0
M  V30 35530 C 3493.33 -2.17806 -2.24788 0
M  V30 35531 C 3493.8 -3.35372 -3.11913 0
M  V30 35532 N 3495.29 -3.3537 -3.19501 0
M  V30 35533 C 3496.03 -4.22985 -3.87132 0
M  V30 35534 N 3495.52 -5.20773 -4.56911 0
M  V30 35535 N 3497.32 -4.10833 -3.83631 0
M  V30 35536 H 3489.47 -2.05252 -0.54639 0
M  V30 35537 H 3491.73 -0.898018 -0.303757 0
M  V30 35538 H 3491.44 -3.09456 -1.67122 0
M  V30 35539 H 3491.31 -2.11619 -3.12245 0
M  V30 35540 H 3493.7 -1.2265 -2.68405 0
M  V30 35541 H 3493.78 -2.23972 -1.23572 0
M  V30 35542 H 3493.42 -4.30814 -2.69002 0
M  V30 35543 H 3493.35 -3.26443 -4.1321 0
M  V30 35544 H 3495.84 -2.64591 -2.69814 0
M  V30 35545 H 3496.16 -5.83956 -5.06177 0
M  V30 35546 H 3494.5 -5.24712 -4.55744 0
M  V30 35547 H 3497.69 -3.33709 -3.28262 0
M  V30 35548 H 3497.87 -4.79326 -4.36063 0
M  V30 35549 N 3491.27 1.21178 -1.00765 0
M  V30 35550 C 3492.52 1.90596 -0.692884 0
M  V30 35551 C 3492.85 1.7808 0.774667 0
M  V30 35552 O 3492.13 1.15917 1.56184 0
M  V30 35553 C 3492.41 3.42306 -1.11798 0
M  V30 35554 C 3492.26 3.638 -2.64518 0
M  V30 35555 C 3493.58 4.34777 -0.68239 0
M  V30 35556 H 3490.7 0.692145 -0.253187 0
M  V30 35557 H 3493.34 1.42758 -1.2538 0
M  V30 35558 H 3491.49 3.8318 -0.640732 0
M  V30 35559 H 3493.16 3.32236 -3.20026 0
M  V30 35560 H 3491.41 3.07575 -3.05908 0
M  V30 35561 H 3492.08 4.70108 -2.89314 0
M  V30 35562 H 3494.55 4.01501 -1.09254 0
M  V30 35563 H 3493.43 5.39566 -1.00796 0
M  V30 35564 H 3493.69 4.40135 0.416364 0
M  V30 35565 N 3492.75 0.782725 1.36789 0
M  V30 35566 C 3493.7 0.174636 2.30138 0
M  V30 35567 C 3494.67 -0.677688 1.51646 0
M  V30 35568 O 3495.85 -0.627764 1.80177 0
M  V30 35569 C 3492.99 -0.689876 3.38134 0
M  V30 35570 C 3492.11 0.180255 4.31624 0
M  V30 35571 C 3491.24 -0.689997 5.267 0
M  V30 35572 C 3490.28 0.181998 6.11829 0
M  V30 35573 N 3489.42 -0.646854 6.99114 0
M  V30 35574 H 3494.26 0.976179 2.81558 0
M  V30 35575 H 3491.79 0.492969 1.38594 0
M  V30 35576 H 3493.75 -1.20603 3.99388 0
M  V30 35577 H 3492.38 -1.45691 2.88052 0
M  V30 35578 H 3491.43 0.814316 3.71582 0
M  V30 35579 H 3492.75 0.852424 4.91462 0
M  V30 35580 H 3491.9 -1.27221 5.93211 0
M  V30 35581 H 3490.64 -1.39581 4.67299 0
M  V30 35582 H 3489.64 0.776668 5.44287 0
M  V30 35583 H 3490.87 0.885314 6.73305 0
M  V30 35584 H 3488.81 -1.33708 6.42229 0
M  V30 35585 H 3488.73 -0.0322219 7.55993 0
M  V30 35586 H 3490 -1.21311 7.70002 0
M  V30 35587 N 3494.23 -1.48271 0.534176 0
M  V30 35588 C 3495.47 -2.028 0.00161056 0
M  V30 35589 C 3495.81 -1.41003 -1.33536 0
M  V30 35590 O 3495.08 -0.557278 -1.86346 0
M  V30 35591 C 3495.37 -3.59913 -0.115953 0
M  V30 35592 C 3495.22 -4.32184 1.24648 0
M  V30 35593 C 3496.54 -4.31996 -0.840699 0
M  V30 35594 H 3493.66 -0.736997 0.0020593 0
M  V30 35595 H 3496.3 -1.7695 0.692016 0
M  V30 35596 H 3494.45 -3.82069 -0.703959 0
M  V30 35597 H 3496.12 -4.21434 1.87592 0
M  V30 35598 H 3494.36 -3.93438 1.82727 0
M  V30 35599 H 3495.03 -5.40577 1.11717 0
M  V30 35600 H 3497.51 -4.14695 -0.341673 0
M  V30 35601 H 3496.39 -5.41606 -0.891865 0
M  V30 35602 H 3496.65 -3.99574 -1.8919 0
M  V30 35603 N 3495.71 -0.269505 -1.55279 0
M  V30 35604 C 3496.64 0.661611 -2.18399 0
M  V30 35605 C 3497.62 1.15635 -1.14312 0
M  V30 35606 O 3498.8 1.23035 -1.4281 0
M  V30 35607 C 3495.93 1.90167 -2.80275 0
M  V30 35608 C 3494.97 1.54288 -3.97615 0
M  V30 35609 S 3495.81 0.625902 -5.3183 0
M  V30 35610 C 3496.96 1.87446 -5.97172 0
M  V30 35611 H 3497.2 0.125273 -2.97036 0
M  V30 35612 H 3494.73 -0.0537983 -1.54306 0
M  V30 35613 H 3496.69 2.61346 -3.16557 0
M  V30 35614 H 3495.35 2.40914 -2.01542 0
M  V30 35615 H 3494.54 2.46547 -4.3958 0
M  V30 35616 H 3494.14 0.911331 -3.62727 0
M  V30 35617 H 3496.44 2.81906 -6.16064 0
M  V30 35618 H 3497.38 1.49791 -6.92075 0
M  V30 35619 H 3497.79 2.03684 -5.26472 0
M  V30 35620 N 3497.18 1.576 0.00329885 0
M  V30 35621 C 3498.41 1.94702 0.69991 0
M  V30 35622 C 3498.83 0.871342 1.67491 0
M  V30 35623 O 3498.18 -0.150022 1.81882 0
M  V30 35624 C 3498.24 3.31813 1.43465 0
M  V30 35625 O 3497.96 4.35252 0.498759 0
M  V30 35626 C 3499.46 3.83355 2.22607 0
M  V30 35627 H 3496.68 0.641996 0.195146 0
M  V30 35628 H 3499.22 2.04446 -0.0468403 0
M  V30 35629 H 3497.38 3.23387 2.13306 0
M  V30 35630 H 3497.79 5.1455 1.01678 0
M  V30 35631 H 3499.26 4.8173 2.69519 0
M  V30 35632 H 3499.74 3.15889 3.05141 0
M  V30 35633 H 3500.35 3.94946 1.57789 0
M  V30 35634 N 3498.66 -0.276003 1.55164 0
M  V30 35635 C 3499.94 -1.0291 1.6634 0
M  V30 35636 C 3500.32 -2.04393 0.527912 0
M  V30 35637 O 3499.67 -2.23564 -0.472398 0
M  V30 35638 C 3499.88 -1.6886 3.0543 0
M  V30 35639 C 3501.23 -2.20134 3.63079 0
M  V30 35640 O 3502.25 -1.78852 3.08043 0
M  V30 35641 O 3501.11 -2.95845 4.59497 0
M  V30 35642 H 3498.2 -0.47717 0.675454 0
M  V30 35643 H 3500.75 -0.2721 1.67504 0
M  V30 35644 H 3499.52 -0.953058 3.79516 0
M  V30 35645 H 3499.14 -2.51254 3.08151 0
M  V30 35646 N 3500.14 -1.48046 -0.540378 0
M  V30 35647 C 3501.07 -1.64683 -1.65535 0
M  V30 35648 C 3502.05 -0.495876 -1.62712 0
M  V30 35649 O 3503.24 -0.727204 -1.8007 0
M  V30 35650 C 3500.37 -1.67666 -3.04147 0
M  V30 35651 C 3499.32 -2.82157 -3.21825 0
M  V30 35652 C 3498.65 -2.70224 -4.61393 0
M  V30 35653 C 3499.95 -4.23572 -3.05588 0
M  V30 35654 H 3501.64 -2.58024 -1.51868 0
M  V30 35655 H 3499.19 -1.24173 -0.729186 0
M  V30 35656 H 3501.14 -1.77894 -3.8201 0
M  V30 35657 H 3499.86 -0.708963 -3.18812 0
M  V30 35658 H 3498.52 -2.71468 -2.46375 0
M  V30 35659 H 3498.17 -1.71445 -4.7288 0
M  V30 35660 H 3497.87 -3.47043 -4.74168 0
M  V30 35661 H 3499.39 -2.82404 -5.41369 0
M  V30 35662 H 3500.81 -4.3515 -3.73253 0
M  V30 35663 H 3499.21 -5.01309 -3.29863 0
M  V30 35664 H 3500.28 -4.40761 -2.02132 0
M  V30 35665 N 3501.62 0.788444 -1.3646 0
M  V30 35666 C 3502.87 1.54331 -1.30486 0
M  V30 35667 C 3503.19 1.94659 0.115232 0
M  V30 35668 O 3502.46 1.65021 1.0557 0
M  V30 35669 H 3501.04 0.57236 -0.480014 0
M  V30 35670 H 3503.7 0.939398 -1.70767 0
M  V30 35671 H 3502.8 2.45043 -1.93289 0
M  V30 35672 N 3503.1 1.20755 1.01271 0
M  V30 35673 C 3504.32 1.04656 1.79058 0
M  V30 35674 C 3504.75 -0.3996 1.83806 0
M  V30 35675 O 3504.1 -1.28796 1.27598 0
M  V30 35676 C 3504.15 1.6393 3.21184 0
M  V30 35677 O 3503.26 0.879557 4.02911 0
M  V30 35678 H 3502.6 0.368832 0.55214 0
M  V30 35679 H 3505.13 1.60132 1.27353 0
M  V30 35680 H 3505.14 1.67828 3.71884 0
M  V30 35681 H 3503.81 2.69178 3.17043 0
M  V30 35682 H 3502.39 0.915083 3.61498 0
M  V30 35683 N 3504.58 -1.20642 1.01406 0
M  V30 35684 C 3505.82 -1.8957 0.700556 0
M  V30 35685 C 3506.14 -1.7907 -0.771947 0
M  V30 35686 O 3505.41 -1.19145 -1.55503 0
M  V30 35687 H 3503.99 -0.701715 0.256134 0
M  V30 35688 H 3506.66 -1.46529 1.28512 0
M  V30 35689 H 3505.75 -2.96258 0.981717 0
M  V30 35690 N 3506.05 -0.789968 -1.36372 0
M  V30 35691 C 3507.46 -0.425709 -1.81782 0
M  V30 35692 C 3507.82 1.05042 -1.65713 0
M  V30 35693 O 3506.94 1.81503 -1.17838 0
M  V30 35694 C 3507.54 -0.765924 -3.30029 0
M  V30 35695 C 3506.09 -0.454487 -3.73646 0
M  V30 35696 C 3505.24 -1.00028 -2.5863 0
M  V30 35697 H 3508.19 -0.983066 -1.24585 0
M  V30 35698 H 3508.21 -0.0572292 -3.80457 0
M  V30 35699 H 3507.73 -1.84032 -3.41692 0
M  V30 35700 H 3505.83 0.611853 -3.67542 0
M  V30 35701 H 3505.94 -0.975483 -4.69064 0
M  V30 35702 H 3504.3 -0.423478 -2.51155 0
M  V30 35703 H 3505.09 -2.08045 -2.73079 0
M  V30 35704 N 3507.53 1.47986 -0.542031 0
M  V30 35705 C 3508.78 2.01697 -0.0102815 0
M  V30 35706 C 3509.09 1.42329 1.34171 0
M  V30 35707 O 3510.3 1.87611 1.96251 0
M  V30 35708 C 3508.76 3.59886 0.0320399 0
M  V30 35709 C 3508.36 4.28242 -1.31579 0
M  V30 35710 C 3510.11 4.21401 0.511982 0
M  V30 35711 C 3508.01 5.78395 -1.2334 0
M  V30 35712 H 3506.94 0.754 -7.34631e-05 0
M  V30 35713 H 3509.6 1.7013 -0.687616 0
M  V30 35714 H 3507.98 3.88348 0.774705 0
M  V30 35715 H 3509.15 4.11439 -2.07497 0
M  V30 35716 H 3507.47 3.7865 -1.73243 0
M  V30 35717 H 3510.06 5.31415 0.591781 0
M  V30 35718 H 3510.41 3.87537 1.52054 0
M  V30 35719 H 3510.94 3.97413 -0.175363 0
M  V30 35720 H 3507.68 6.16853 -2.21748 0
M  V30 35721 H 3507.2 5.97578 -0.515775 0
M  V30 35722 H 3508.88 6.40294 -0.929087 0
M  V30 35723 N 3509.01 0.277736 1.55133 0
M  V30 35724 C 3510.24 -0.341565 2.04061 0
M  V30 35725 C 3510.65 -1.49272 1.156 0
M  V30 35726 O 3510.01 -1.81643 0.176657 0
M  V30 35727 C 3510.06 -0.820077 3.52075 0
M  V30 35728 O 3509.78 0.285237 4.3717 0
M  V30 35729 C 3511.28 -1.50693 4.16901 0
M  V30 35730 H 3508.5 -0.0775591 0.666503 0
M  V30 35731 H 3511.05 0.410594 2.00336 0
M  V30 35732 H 3509.2 -1.52232 3.56236 0
M  V30 35733 H 3509.62 -0.0831101 5.24434 0
M  V30 35734 H 3511.09 -1.79314 5.22064 0
M  V30 35735 H 3511.57 -2.43933 3.65231 0
M  V30 35736 H 3512.17 -0.848468 4.16751 0
M  V30 35737 N 3510.49 -1.57599 0.00505908 0
M  V30 35738 C 3511.42 -2.11775 -0.983548 0
M  V30 35739 C 3512.4 -1.02808 -1.35516 0
M  V30 35740 O 3513.58 -1.30517 -1.43802 0
M  V30 35741 C 3510.71 -2.62519 -2.27378 0
M  V30 35742 C 3509.67 -3.76058 -2.04364 0
M  V30 35743 C 3508.99 -4.13136 -3.39444 0
M  V30 35744 C 3510.29 -5.03127 -1.40215 0
M  V30 35745 H 3511.99 -2.94627 -0.53245 0
M  V30 35746 H 3509.53 -1.4173 -0.254671 0
M  V30 35747 H 3511.49 -2.99048 -2.96898 0
M  V30 35748 H 3510.21 -1.76795 -2.74611 0
M  V30 35749 H 3508.87 -3.39931 -1.37269 0
M  V30 35750 H 3508.52 -3.24429 -3.84389 0
M  V30 35751 H 3508.22 -4.89633 -3.24859 0
M  V30 35752 H 3509.74 -4.52228 -4.10271 0
M  V30 35753 H 3511.16 -5.37395 -1.99698 0
M  V30 35754 H 3509.55 -5.84462 -1.36102 0
M  V30 35755 H 3510.62 -4.83471 -0.371988 0
M  V30 35756 N 3511.97 0.267771 -1.55309 0
M  V30 35757 C 3512.9 1.33522 -1.91557 0
M  V30 35758 C 3513.88 1.51264 -0.778028 0
M  V30 35759 O 3515.06 1.6422 -1.0366 0
M  V30 35760 C 3512.19 2.69381 -2.19206 0
M  V30 35761 C 3511.15 2.66363 -3.35014 0
M  V30 35762 C 3510.47 4.05823 -3.48155 0
M  V30 35763 C 3511.77 2.25174 -4.71268 0
M  V30 35764 H 3513.47 1.03432 -2.80966 0
M  V30 35765 H 3511.01 0.496117 -1.35184 0
M  V30 35766 H 3512.96 3.44173 -2.43152 0
M  V30 35767 H 3511.69 3.01064 -1.26601 0
M  V30 35768 H 3510.35 1.94028 -3.11044 0
M  V30 35769 H 3510 4.34737 -2.53007 0
M  V30 35770 H 3509.7 4.04697 -4.26021 0
M  V30 35771 H 3511.22 4.82346 -3.74399 0
M  V30 35772 H 3512.63 2.8969 -4.94724 0
M  V30 35773 H 3511.03 2.352 -5.52088 0
M  V30 35774 H 3512.1 1.20311 -4.69738 0
M  V30 35775 N 3513.44 1.48331 0.532519 0
M  V30 35776 C 3514.67 1.59876 1.31329 0
M  V30 35777 C 3515.09 0.25807 1.87028 0
M  V30 35778 O 3514.44 -0.752287 1.66274 0
M  V30 35779 C 3514.49 2.64339 2.46591 0
M  V30 35780 O 3514.22 3.93205 1.93188 0
M  V30 35781 C 3515.72 2.863 3.38449 0
M  V30 35782 H 3512.94 0.539136 0.399467 0
M  V30 35783 H 3515.48 1.94139 0.642662 0
M  V30 35784 H 3513.64 2.32941 3.09544 0
M  V30 35785 H 3514.05 4.50493 2.68619 0
M  V30 35786 H 3515.52 3.63199 4.15681 0
M  V30 35787 H 3516 1.95029 3.93523 0
M  V30 35788 H 3516.61 3.18991 2.81291 0
M  V30 35789 N 3514.92 -0.781196 1.36876 0
M  V30 35790 C 3516.2 -1.52807 1.22104 0
M  V30 35791 C 3516.58 -2.10249 -0.189365 0
M  V30 35792 O 3515.93 -1.94703 -1.19595 0
M  V30 35793 C 3516.14 -2.61648 2.30957 0
M  V30 35794 C 3517.48 -3.29308 2.68033 0
M  V30 35795 O 3518.51 -2.71937 2.30062 0
M  V30 35796 O 3517.37 -4.33009 3.33415 0
M  V30 35797 H 3514.46 -0.676341 0.475911 0
M  V30 35798 H 3517.01 -0.818972 1.4863 0
M  V30 35799 H 3515.78 -2.17255 3.25447 0
M  V30 35800 H 3515.4 -3.40168 2.05843 0
M  V30 35801 N 3516.4 -1.21291 -1.0063 0
M  V30 35802 C 3517.82 -0.969979 -1.26742 0
M  V30 35803 C 3518.02 0.344414 -1.98535 0
M  V30 35804 O 3517.07 1.0704 -2.28689 0
M  V30 35805 C 3518.38 -2.15967 -2.09234 0
M  V30 35806 C 3519.93 -2.20178 -2.22465 0
M  V30 35807 C 3520.41 -3.38662 -3.08338 0
M  V30 35808 N 3521.9 -3.3874 -3.15926 0
M  V30 35809 C 3522.63 -4.27067 -3.82624 0
M  V30 35810 N 3522.13 -5.2559 -4.51362 0
M  V30 35811 N 3523.92 -4.14879 -3.79252 0
M  V30 35812 H 3516.07 -2.0582 -0.52459 0
M  V30 35813 H 3518.34 -0.901189 -0.294215 0
M  V30 35814 H 3518.04 -3.11212 -1.6383 0
M  V30 35815 H 3517.92 -2.14919 -3.09983 0
M  V30 35816 H 3520.3 -1.2549 -2.67089 0
M  V30 35817 H 3520.38 -2.2527 -1.2119 0
M  V30 35818 H 3520.03 -4.33642 -2.64418 0
M  V30 35819 H 3519.96 -3.30808 -4.09724 0
M  V30 35820 H 3522.45 -2.67438 -2.66993 0
M  V30 35821 H 3522.76 -5.89292 -4.99955 0
M  V30 35822 H 3521.11 -5.29516 -4.50153 0
M  V30 35823 H 3524.3 -3.37171 -3.24705 0
M  V30 35824 H 3524.47 -4.83924 -4.30954 0
M  V30 35825 N 3517.88 1.20103 -1.02045 0
M  V30 35826 C 3519.29 1.41617 -0.735992 0
M  V30 35827 C 3519.49 1.89578 0.682816 0
M  V30 35828 O 3518.55 2.06713 1.45003 0
M  V30 35829 C 3519.86 2.43453 -1.76496 0
M  V30 35830 C 3521.41 2.57214 -1.78354 0
M  V30 35831 C 3521.89 3.62297 -2.80188 0
M  V30 35832 N 3523.38 3.69784 -2.78952 0
M  V30 35833 C 3524.11 4.50762 -3.54403 0
M  V30 35834 N 3523.61 5.35513 -4.39542 0
M  V30 35835 N 3525.4 4.45331 -3.42982 0
M  V30 35836 H 3517.55 0.872882 -1.93635 0
M  V30 35837 H 3519.81 0.445742 -0.836671 0
M  V30 35838 H 3519.52 2.15218 -2.78162 0
M  V30 35839 H 3519.39 3.42501 -1.58028 0
M  V30 35840 H 3521.78 2.84777 -0.773715 0
M  V30 35841 H 3521.86 1.58348 -2.00897 0
M  V30 35842 H 3521.51 3.35477 -3.81337 0
M  V30 35843 H 3521.44 4.60793 -2.54906 0
M  V30 35844 H 3523.93 3.09249 -2.17195 0
M  V30 35845 H 3524.24 5.94398 -4.93873 0
M  V30 35846 H 3522.59 5.35002 -4.43619 0
M  V30 35847 H 3525.78 3.78158 -2.75888 0
M  V30 35848 H 3525.95 5.08203 -4.02037 0
M  V30 35849 N 3519.36 0.797189 1.35951 0
M  V30 35850 C 3520.59 0.384793 2.02985 0
M  V30 35851 C 3520.99 -1.00606 1.60235 0
M  V30 35852 O 3520.34 -1.65798 0.790984 0
M  V30 35853 C 3520.4 0.378013 3.57507 0
M  V30 35854 C 3520.06 1.71776 4.23488 0
M  V30 35855 C 3521.06 2.67453 4.45831 0
M  V30 35856 C 3518.75 1.99919 4.60801 0
M  V30 35857 C 3520.74 3.89462 5.04577 0
M  V30 35858 C 3518.43 3.22194 5.19263 0
M  V30 35859 C 3519.42 4.16784 5.41092 0
M  V30 35860 O 3519.11 5.36901 5.98324 0
M  V30 35861 H 3518.84 0.155655 0.657835 0
M  V30 35862 H 3521.4 1.07945 1.74749 0
M  V30 35863 H 3519.63 -0.373186 3.84895 0
M  V30 35864 H 3521.32 -0.0107792 4.05899 0
M  V30 35865 H 3522.08 2.46999 4.17392 0
M  V30 35866 H 3517.96 1.27109 4.4313 0
M  V30 35867 H 3521.51 4.63305 5.21531 0
M  V30 35868 H 3517.4 3.42522 5.47128 0
M  V30 35869 H 3518.17 5.3807 6.16784 0
M  V30 35870 N 3520.83 -1.47696 0.549872 0
M  V30 35871 C 3521.78 -2.31603 -0.215078 0
M  V30 35872 C 3522.78 -1.42472 -0.916416 0
M  V30 35873 O 3523.98 -1.59275 -0.838537 0
M  V30 35874 H 3520.36 -0.746806 -0.088231 0
M  V30 35875 H 3522.33 -2.93976 0.511899 0
M  V30 35876 C 3521.08 -3.24968 -1.23656 0
M  V30 35877 H 3520.4 -3.93511 -0.706315 0
M  V30 35878 H 3521.84 -3.86525 -1.74283 0
M  V30 35879 C 3520.3 -2.47971 -2.28062 0
M  V30 35880 O 3520.83 -2.21884 -3.34858 0
M  V30 35881 N 3519.04 -2.0911 -2.01795 0
M  V30 35882 H 3518.58 -2.30525 -1.14961 0
M  V30 35883 H 3518.54 -1.57907 -2.71869 0
M  V30 35884 N 3522.31 -0.285959 -1.54984 0
M  V30 35885 C 3523.26 0.612664 -2.24386 0
M  V30 35886 C 3524.25 1.14916 -1.24462 0
M  V30 35887 O 3525.46 1.10154 -1.42359 0
M  V30 35888 H 3521.84 0.216148 -0.720267 0
M  V30 35889 H 3523.81 0.00460423 -2.984 0
M  V30 35890 C 3522.56 1.78032 -2.98664 0
M  V30 35891 H 3521.88 1.3767 -3.75349 0
M  V30 35892 H 3523.32 2.38548 -3.50529 0
M  V30 35893 C 3521.78 2.67536 -2.04759 0
M  V30 35894 O 3522.31 3.68206 -1.60583 0
M  V30 35895 N 3520.51 2.34941 -1.7103 0
M  V30 35896 H 3520.06 1.53122 -2.0715 0
M  V30 35897 H 3520.02 2.95095 -1.08472 0
M  V30 35898 N 3523.79 1.57594 -0.0134169 0
M  V30 35899 C 3525.04 1.90766 0.667279 0
M  V30 35900 C 3525.36 0.888877 1.73563 0
M  V30 35901 O 3524.63 -0.0718602 1.95768 0
M  V30 35902 H 3523.21 0.704116 0.249458 0
M  V30 35903 H 3525.87 1.94815 -0.0575132 0
M  V30 35904 H 3524.97 2.90924 1.13002 0
M  V30 35905 N 3525.27 -0.259531 1.55448 0
M  V30 35906 C 3526.5 -1.0072 1.80729 0
M  V30 35907 C 3526.91 -1.7943 0.587385 0
M  V30 35908 O 3526.27 -1.77022 -0.443788 0
M  V30 35909 C 3526.32 -1.95512 3.04068 0
M  V30 35910 O 3526.04 -1.19989 4.21348 0
M  V30 35911 C 3527.54 -2.81982 3.42054 0
M  V30 35912 H 3524.76 -0.296945 0.601718 0
M  V30 35913 H 3527.31 -0.286237 2.02487 0
M  V30 35914 H 3525.46 -2.63053 2.84397 0
M  V30 35915 H 3525.87 -1.83997 4.91167 0
M  V30 35916 H 3527.35 -3.44266 4.31491 0
M  V30 35917 H 3527.83 -3.52447 2.62065 0
M  V30 35918 H 3528.43 -2.19912 3.64031 0
M  V30 35919 N 3526.75 -1.48611 -0.524645 0
M  V30 35920 C 3527.99 -1.5811 -1.27956 0
M  V30 35921 C 3528.35 -0.254037 -1.90716 0
M  V30 35922 O 3527.64 0.743615 -1.76581 0
M  V30 35923 C 3527.83 -2.65998 -2.38705 0
M  V30 35924 C 3527.66 -4.09066 -1.86802 0
M  V30 35925 C 3526.43 -4.76142 -1.69165 0
M  V30 35926 C 3528.63 -4.95063 -1.39347 0
M  V30 35927 N 3526.61 -6.03607 -1.11943 0
M  V30 35928 C 3527.98 -6.12816 -0.941067 0
M  V30 35929 C 3530.04 -4.81246 -1.27699 0
M  V30 35930 C 3528.74 -7.18276 -0.383737 0
M  V30 35931 C 3530.77 -5.86832 -0.733653 0
M  V30 35932 C 3530.13 -7.03797 -0.291355 0
M  V30 35933 H 3526.23 -0.633085 -0.45905 0
M  V30 35934 H 3528.81 -1.85516 -0.590933 0
M  V30 35935 H 3526.98 -2.40405 -3.05057 0
M  V30 35936 H 3528.72 -2.65152 -3.05739 0
M  V30 35937 H 3525.47 -4.3256 -1.92845 0
M  V30 35938 H 3525.9 -6.71601 -0.853277 0
M  V30 35939 H 3530.54 -3.91152 -1.60499 0
M  V30 35940 H 3528.26 -8.08088 -0.043427 0
M  V30 35941 H 3531.84 -5.78195 -0.646635 0
M  V30 35942 H 3530.72 -7.84104 0.122534 0
M  V30 35943 N 3528.22 0.773926 -1.37289 0
M  V30 35944 C 3529.45 1.56073 -1.35369 0
M  V30 35945 C 3529.86 1.89094 0.0634105 0
M  V30 35946 O 3529.21 1.51767 1.03501 0
M  V30 35947 C 3529.27 2.8996 -2.12517 0
M  V30 35948 C 3528.93 2.79587 -3.61497 0
M  V30 35949 C 3529.93 2.50766 -4.55426 0
M  V30 35950 C 3527.61 2.97677 -4.04591 0
M  V30 35951 C 3529.61 2.4016 -5.90425 0
M  V30 35952 C 3527.29 2.86692 -5.39677 0
M  V30 35953 C 3528.29 2.57973 -6.32407 0
M  V30 35954 O 3527.98 2.4701 -7.65011 0
M  V30 35955 H 3527.71 0.490232 -0.465455 0
M  V30 35956 H 3530.27 0.967241 -1.812 0
M  V30 35957 H 3528.5 3.5142 -1.61372 0
M  V30 35958 H 3530.19 3.51341 -2.03259 0
M  V30 35959 H 3530.95 2.36477 -4.23443 0
M  V30 35960 H 3526.83 3.19033 -3.32775 0
M  V30 35961 H 3530.37 2.17665 -6.62773 0
M  V30 35962 H 3526.27 3.00548 -5.71263 0
M  V30 35963 H 3527.04 2.62376 -7.75307 0
M  V30 35964 N 3529.7 1.21823 0.99985 0
M  V30 35965 C 3530.65 0.982097 2.08862 0
M  V30 35966 C 3531.62 -0.0937386 1.65835 0
M  V30 35967 O 3532.8 0.0544374 1.90722 0
M  V30 35968 C 3529.94 0.558442 3.40552 0
M  V30 35969 C 3529.06 1.70428 3.96961 0
M  V30 35970 C 3528.19 1.22929 5.1678 0
M  V30 35971 C 3527.23 2.34713 5.65311 0
M  V30 35972 N 3526.37 1.88311 6.76375 0
M  V30 35973 H 3531.21 1.91414 2.28396 0
M  V30 35974 H 3528.75 0.953857 1.11982 0
M  V30 35975 H 3530.7 0.294028 4.16163 0
M  V30 35976 H 3529.33 -0.3366 3.2104 0
M  V30 35977 H 3528.39 2.0832 3.18287 0
M  V30 35978 H 3529.7 2.54538 4.28966 0
M  V30 35979 H 3528.85 0.921845 5.99656 0
M  V30 35980 H 3527.59 0.358307 4.86382 0
M  V30 35981 H 3526.6 2.66255 4.81029 0
M  V30 35982 H 3527.82 3.22316 5.97737 0
M  V30 35983 H 3525.77 1.03564 6.47774 0
M  V30 35984 H 3525.68 2.6599 7.07662 0
M  V30 35985 H 3526.95 1.60615 7.62773 0
M  V30 35986 N 3531.18 -1.1956 1.0268 0
M  V30 35987 C 3532.43 -1.88514 0.717312 0
M  V30 35988 C 3532.74 -1.80356 -0.757031 0
M  V30 35989 O 3533.95 -2.44541 -1.17949 0
M  V30 35990 C 3532.4 -3.38131 1.23271 0
M  V30 35991 C 3532.01 -3.54851 2.73468 0
M  V30 35992 C 3533.76 -4.12575 0.999113 0
M  V30 35993 C 3531.66 -4.98349 3.18437 0
M  V30 35994 H 3530.59 -0.70604 0.26462 0
M  V30 35995 H 3533.24 -1.35188 1.24083 0
M  V30 35996 H 3531.63 -3.90841 0.63712 0
M  V30 35997 H 3532.8 -3.12479 3.38664 0
M  V30 35998 H 3531.12 -2.93793 2.95084 0
M  V30 35999 H 3533.71 -5.18395 1.31039 0
M  V30 36000 H 3534.06 -4.16251 -0.0641438 0
M  V30 36001 H 3534.59 -3.65995 1.5586 0
M  V30 36002 H 3531.33 -4.99834 4.24082 0
M  V30 36003 H 3530.85 -5.41491 2.57967 0
M  V30 36004 H 3532.53 -5.6699 3.11659 0
M  V30 36005 N 3532.66 -0.804387 -1.35526 0
M  V30 36006 C 3533.62 -0.21889 -2.28152 0
M  V30 36007 C 3534.62 0.592484 -1.49487 0
M  V30 36008 O 3535.81 0.411289 -1.69275 0
M  V30 36009 C 3532.94 0.695136 -3.33737 0
M  V30 36010 H 3534.14 -1.03581 -2.81445 0
M  V30 36011 H 3531.69 -0.574879 -1.45344 0
M  V30 36012 H 3532.42 1.53582 -2.85627 0
M  V30 36013 H 3532.21 0.115074 -3.91931 0
M  V30 36014 H 3533.7 1.09918 -4.02874 0
M  V30 36015 N 3534.14 1.47403 -0.557697 0
M  V30 36016 C 3535.38 2.02472 -0.033824 0
M  V30 36017 C 3535.71 1.43199 1.31622 0
M  V30 36018 O 3534.97 0.577399 1.86988 0
M  V30 36019 C 3535.27 3.57236 0.108261 0
M  V30 36020 C 3534.93 4.3543 -1.17095 0
M  V30 36021 C 3533.59 4.56513 -1.52148 0
M  V30 36022 C 3535.95 4.80522 -2.01862 0
M  V30 36023 C 3533.27 5.19938 -2.71812 0
M  V30 36024 C 3535.63 5.45266 -3.2073 0
M  V30 36025 C 3534.29 5.64582 -3.56095 0
M  V30 36026 H 3533.56 0.740897 -0.0123771 0
M  V30 36027 H 3536.21 1.77069 -0.729308 0
M  V30 36028 H 3534.51 3.81634 0.886714 0
M  V30 36029 H 3536.21 3.97496 0.528961 0
M  V30 36030 H 3532.8 4.19299 -0.888026 0
M  V30 36031 H 3536.98 4.64011 -1.76089 0
M  V30 36032 H 3532.24 5.33087 -2.9938 0
M  V30 36033 H 3536.41 5.79169 -3.867 0
M  V30 36034 H 3534.04 6.13498 -4.48914 0
M  V30 36035 N 3535.62 0.294175 1.5483 0
M  V30 36036 C 3536.55 -0.618502 2.20697 0
M  V30 36037 C 3537.56 -1.10283 1.19756 0
M  V30 36038 O 3538.75 -1.02146 1.46385 0
M  V30 36039 C 3535.85 -1.85793 2.83433 0
M  V30 36040 C 3535.02 -1.51724 4.10242 0
M  V30 36041 C 3534.08 -2.61111 4.56845 0
M  V30 36042 O 3533.11 -2.26491 5.22198 0
M  V30 36043 N 3534.31 -3.91527 4.28587 0
M  V30 36044 H 3537.07 -0.0546614 2.9965 0
M  V30 36045 H 3534.64 0.11608 1.61483 0
M  V30 36046 H 3536.63 -2.58305 3.11546 0
M  V30 36047 H 3535.2 -2.33034 2.0836 0
M  V30 36048 H 3534.42 -0.625073 3.89213 0
M  V30 36049 H 3535.71 -1.2649 4.92826 0
M  V30 36050 H 3535.1 -4.22466 3.76217 0
M  V30 36051 H 3533.66 -4.60358 4.61426 0
M  V30 36052 N 3537.09 -1.57585 0.0217743 0
M  V30 36053 C 3538.51 -1.56054 -0.334549 0
M  V30 36054 C 3538.71 -1.02666 -1.73384 0
M  V30 36055 O 3537.77 -0.670121 -2.43445 0
M  V30 36056 C 3539.08 -3.001 -0.189866 0
M  V30 36057 C 3540.63 -3.11892 -0.263183 0
M  V30 36058 C 3541.1 -4.57763 -0.147374 0
M  V30 36059 N 3542.59 -4.62748 -0.204591 0
M  V30 36060 C 3543.33 -5.73232 -0.138654 0
M  V30 36061 N 3542.82 -6.92796 -0.0220544 0
M  V30 36062 N 3544.62 -5.61772 -0.192107 0
M  V30 36063 H 3536.77 -1.90621 0.936882 0
M  V30 36064 H 3539.03 -0.876519 0.361135 0
M  V30 36065 H 3538.74 -3.43083 0.773747 0
M  V30 36066 H 3538.61 -3.64698 -0.963084 0
M  V30 36067 H 3541 -2.68825 -1.21725 0
M  V30 36068 H 3541.08 -2.50029 0.540285 0
M  V30 36069 H 3540.72 -5.01508 0.803243 0
M  V30 36070 H 3540.65 -5.17596 -0.969612 0
M  V30 36071 H 3543.14 -3.76746 -0.295154 0
M  V30 36072 H 3543.46 -7.72797 0.0217668 0
M  V30 36073 H 3541.8 -6.94999 0.0126255 0
M  V30 36074 H 3544.99 -4.67253 -0.281548 0
M  V30 36075 H 3545.17 -6.47855 -0.137258 0
M  V30 36076 N 3538.57 0.251283 -1.55584 0
M  V30 36077 C 3539.52 1.33082 -1.90766 0
M  V30 36078 C 3540.51 1.50048 -0.786262 0
M  V30 36079 O 3541.72 1.51574 -0.970836 0
M  V30 36080 H 3538.09 0.445541 -0.605803 0
M  V30 36081 H 3540.07 1.00673 -2.80905 0
M  V30 36082 C 3538.81 2.68014 -2.21503 0
M  V30 36083 H 3538.14 2.55758 -3.07291 0
M  V30 36084 H 3539.58 3.42436 -2.50027 0
M  V30 36085 C 3538.04 3.20772 -1.02989 0
M  V30 36086 O 3538.57 4.00753 -0.275628 0
M  V30 36087 N 3536.77 2.78741 -0.821698 0
M  V30 36088 H 3536.32 2.13811 -1.43676 0
M  V30 36089 H 3536.28 3.14385 -0.0303997 0
M  V30 36090 N 3540.05 1.48887 0.516757 0
M  V30 36091 C 3541.47 1.35301 0.846516 0
M  V30 36092 C 3541.67 0.374069 1.97997 0
M  V30 36093 O 3540.72 -0.199958 2.51707 0
M  V30 36094 C 3542.03 2.7565 1.20157 0
M  V30 36095 C 3543.58 2.84235 1.31069 0
M  V30 36096 C 3544.06 4.25316 1.69912 0
M  V30 36097 N 3545.55 4.28052 1.7699 0
M  V30 36098 C 3546.28 5.34166 2.08457 0
M  V30 36099 N 3545.78 6.50543 2.38256 0
M  V30 36100 N 3547.57 5.2157 2.09575 0
M  V30 36101 H 3539.72 2.11141 -0.230909 0
M  V30 36102 H 3541.99 0.947127 -0.0406845 0
M  V30 36103 H 3541.69 3.48909 0.442217 0
M  V30 36104 H 3541.57 3.10018 2.14869 0
M  V30 36105 H 3543.95 2.11224 2.06079 0
M  V30 36106 H 3544.03 2.5347 0.344461 0
M  V30 36107 H 3543.68 4.98849 0.954579 0
M  V30 36108 H 3543.61 4.53535 2.67608 0
M  V30 36109 H 3546.1 3.44115 1.56185 0
M  V30 36110 H 3546.41 7.27245 2.6141 0
M  V30 36111 H 3544.76 6.53795 2.35747 0
M  V30 36112 H 3547.95 4.29663 1.8576 0
M  V30 36113 H 3548.12 6.04366 2.33765 0
M  V30 36114 N 3541.53 -0.766635 1.37697 0
M  V30 36115 C 3542.47 -1.88006 1.33874 0
M  V30 36116 C 3543.44 -1.6485 0.203429 0
M  V30 36117 O 3544.63 -1.86696 0.393601 0
M  V30 36118 C 3541.77 -3.25139 1.15666 0
M  V30 36119 C 3540.88 -3.60216 2.38472 0
M  V30 36120 C 3540.02 -4.86584 2.13096 0
M  V30 36121 C 3539.06 -5.14407 3.31741 0
M  V30 36122 N 3538.19 -6.31965 3.05884 0
M  V30 36123 H 3543.03 -1.90609 2.29068 0
M  V30 36124 H 3540.57 -0.931817 1.13823 0
M  V30 36125 H 3542.53 -4.04253 1.03129 0
M  V30 36126 H 3541.16 -3.21898 0.241171 0
M  V30 36127 H 3540.21 -2.76047 2.6173 0
M  V30 36128 H 3541.52 -3.76712 3.2694 0
M  V30 36129 H 3540.68 -5.73613 1.97619 0
M  V30 36130 H 3539.42 -4.72201 1.21973 0
M  V30 36131 H 3538.42 -4.25851 3.47751 0
M  V30 36132 H 3539.65 -5.30695 4.23722 0
M  V30 36133 H 3537.59 -6.18931 2.17395 0
M  V30 36134 H 3537.51 -6.48901 3.87897 0
M  V30 36135 H 3538.78 -7.21917 2.94035 0
M  V30 36136 N 3543.01 -1.22351 -0.993375 0
M  V30 36137 C 3543.94 -0.950962 -2.08541 0
M  V30 36138 C 3544.95 0.0702455 -1.62648 0
M  V30 36139 O 3546.14 -0.163701 -1.77748 0
M  V30 36140 C 3543.24 -0.408525 -3.36429 0
M  V30 36141 C 3542.41 -1.48684 -4.11354 0
M  V30 36142 C 3541.47 -0.951569 -5.17525 0
M  V30 36143 O 3540.5 -1.63766 -5.45132 0
M  V30 36144 N 3541.7 0.227276 -5.80055 0
M  V30 36145 H 3544.46 -1.8911 -2.32503 0
M  V30 36146 H 3542.03 -1.13034 -1.15909 0
M  V30 36147 H 3544.02 -0.035768 -4.04684 0
M  V30 36148 H 3542.59 0.436712 -3.09534 0
M  V30 36149 H 3541.81 -2.03294 -3.37736 0
M  V30 36150 H 3543.1 -2.21236 -4.58183 0
M  V30 36151 H 3542.49 0.801503 -5.59993 0
M  V30 36152 H 3541.05 0.541424 -6.49547 0
M  V30 36153 N 3544.48 1.19014 -1.03313 0
M  V30 36154 C 3545.73 1.88431 -0.730626 0
M  V30 36155 C 3546.05 1.80275 0.743361 0
M  V30 36156 O 3545.32 1.21604 1.53588 0
M  V30 36157 H 3543.9 0.697552 -0.267265 0
M  V30 36158 H 3546.56 1.44466 -1.30827 0
M  V30 36159 H 3545.66 2.94659 -1.02872 0
M  V30 36160 N 3545.96 0.811563 1.35098 0
M  V30 36161 C 3547.21 0.39485 1.98919 0
M  V30 36162 C 3547.54 -1.03658 1.64222 0
M  V30 36163 O 3546.82 -1.72001 0.908061 0
M  V30 36164 C 3547.1 0.584193 3.5533 0
M  V30 36165 C 3546.95 2.06091 3.99808 0
M  V30 36166 C 3548.27 0.0129869 4.40098 0
M  V30 36167 H 3545.39 0.144939 0.722608 0
M  V30 36168 H 3548.03 1.02202 1.60171 0
M  V30 36169 H 3546.18 0.0503129 3.88467 0
M  V30 36170 H 3547.85 2.65756 3.77057 0
M  V30 36171 H 3546.1 2.55554 3.50535 0
M  V30 36172 H 3546.77 2.14425 5.08651 0
M  V30 36173 H 3549.24 0.46899 4.13449 0
M  V30 36174 H 3548.12 0.175349 5.4862 0
M  V30 36175 H 3548.38 -1.08113 4.28677 0
M  V30 36176 N 3547.44 -1.47105 0.565506 0
M  V30 36177 C 3548.37 -2.32912 -0.165629 0
M  V30 36178 C 3549.35 -1.44299 -0.900653 0
M  V30 36179 O 3550.54 -1.73143 -0.879493 0
M  V30 36180 C 3547.67 -3.26245 -1.19086 0
M  V30 36181 C 3546.62 -4.24164 -0.571774 0
M  V30 36182 C 3545.95 -5.06881 -1.70224 0
M  V30 36183 C 3547.25 -5.20091 0.479876 0
M  V30 36184 H 3548.94 -2.94291 0.550757 0
M  V30 36185 H 3546.49 -1.41516 0.266309 0
M  V30 36186 H 3548.44 -3.8512 -1.71058 0
M  V30 36187 H 3547.16 -2.62938 -1.9373 0
M  V30 36188 H 3545.82 -3.66527 -0.0732886 0
M  V30 36189 H 3545.47 -4.39971 -2.43792 0
M  V30 36190 H 3545.17 -5.73181 -1.29374 0
M  V30 36191 H 3546.69 -5.68616 -2.22505 0
M  V30 36192 H 3548.11 -5.73282 0.045905 0
M  V30 36193 H 3546.5 -5.94639 0.807719 0
M  V30 36194 H 3547.57 -4.65065 1.37267 0
M  V30 36195 N 3548.92 -0.302382 -1.54672 0
M  V30 36196 C 3549.88 0.560244 -2.22247 0
M  V30 36197 C 3550.88 1.06021 -1.20897 0
M  V30 36198 O 3552.07 0.956022 -1.45622 0
M  V30 36199 C 3549.2 1.77584 -2.90993 0
M  V30 36200 H 3550.4 -0.0301801 -2.99885 0
M  V30 36201 H 3547.95 -0.0532311 -1.56209 0
M  V30 36202 H 3548.68 2.40606 -2.17438 0
M  V30 36203 H 3548.47 1.42497 -3.6529 0
M  V30 36204 H 3549.96 2.38865 -3.42539 0
M  V30 36205 N 3550.4 1.57571 -0.0301311 0
M  V30 36206 C 3551.64 1.92127 0.649249 0
M  V30 36207 C 3551.98 0.90695 1.71721 0
M  V30 36208 O 3551.25 -0.0701677 1.94373 0
M  V30 36209 C 3551.53 3.37158 1.26476 0
M  V30 36210 C 3551.39 4.49327 0.206296 0
M  V30 36211 C 3552.71 3.82172 2.18249 0
M  V30 36212 H 3549.82 0.698682 0.234548 0
M  V30 36213 H 3552.47 1.89798 -0.0875967 0
M  V30 36214 H 3550.62 3.39273 1.89277 0
M  V30 36215 H 3552.29 4.59344 -0.424348 0
M  V30 36216 H 3550.53 4.31267 -0.468111 0
M  V30 36217 H 3551.2 5.47838 0.676593 0
M  V30 36218 H 3553.68 3.81799 1.65434 0
M  V30 36219 H 3552.55 4.84343 2.58268 0
M  V30 36220 H 3552.82 3.17733 3.07406 0
M  V30 36221 N 3551.87 -0.243029 1.55715 0
M  V30 36222 C 3553.12 -0.968459 1.76929 0
M  V30 36223 C 3553.44 -1.86338 0.59478 0
M  V30 36224 O 3554.64 -2.62585 0.690027 0
M  V30 36225 C 3553.1 -1.77208 3.1325 0
M  V30 36226 C 3552.71 -0.924363 4.3836 0
M  V30 36227 C 3554.45 -2.49001 3.438 0
M  V30 36228 C 3552.36 -1.7241 5.65711 0
M  V30 36229 H 3551.29 -0.365334 0.659581 0
M  V30 36230 H 3553.94 -0.222994 1.8214 0
M  V30 36231 H 3552.32 -2.55964 3.02156 0
M  V30 36232 H 3553.49 -0.178855 4.60453 0
M  V30 36233 H 3551.81 -0.31958 4.15172 0
M  V30 36234 H 3554.41 -3.09296 4.36165 0
M  V30 36235 H 3554.75 -3.20812 2.65303 0
M  V30 36236 H 3555.28 -1.77252 3.56127 0
M  V30 36237 H 3552.02 -1.04966 6.47041 0
M  V30 36238 H 3551.54 -2.44478 5.47714 0
M  V30 36239 H 3553.22 -2.29025 6.05109 0
M  V30 36240 N 3553.35 -1.49159 -0.508854 0
M  V30 36241 C 3554.63 -1.48747 -1.27019 0
M  V30 36242 C 3555.01 -0.210809 -2.10045 0
M  V30 36243 O 3554.36 0.807023 -2.13774 0
M  V30 36244 C 3554.57 -2.76184 -2.13362 0
M  V30 36245 C 3555.92 -3.25362 -2.72809 0
M  V30 36246 O 3556.94 -2.77247 -2.23635 0
M  V30 36247 O 3555.8 -4.09139 -3.62308 0
M  V30 36248 H 3552.89 -0.594996 -0.574377 0
M  V30 36249 H 3555.44 -1.61415 -0.523769 0
M  V30 36250 H 3554.21 -3.60599 -1.51935 0
M  V30 36251 H 3553.83 -2.66339 -2.95211 0
M  V30 36252 N 3554.83 0.759322 -1.38102 0
M  V30 36253 C 3555.79 1.85458 -1.34677 0
M  V30 36254 C 3556.79 1.5887 -0.248379 0
M  V30 36255 O 3557.98 1.66721 -0.504944 0
M  V30 36256 C 3555.12 3.22826 -1.09526 0
M  V30 36257 H 3556.31 1.89904 -2.32113 0
M  V30 36258 H 3553.86 0.960413 -1.23312 0
M  V30 36259 H 3554.6 3.24052 -0.126721 0
M  V30 36260 H 3554.38 3.43519 -1.89043 0
M  V30 36261 H 3555.87 4.02904 -1.09811 0
M  V30 36262 N 3556.31 1.22876 0.986873 0
M  V30 36263 C 3557.54 1.08188 1.76008 0
M  V30 36264 C 3557.95 -0.370055 1.85546 0
M  V30 36265 O 3557.29 -1.26802 1.32917 0
M  V30 36266 C 3557.35 1.62537 3.20658 0
M  V30 36267 C 3557.02 3.11222 3.34649 0
M  V30 36268 C 3558.01 4.08587 3.21486 0
M  V30 36269 C 3555.7 3.508 3.59506 0
M  V30 36270 C 3557.69 5.43514 3.32973 0
M  V30 36271 C 3555.38 4.85874 3.70634 0
M  V30 36272 C 3556.38 5.8204 3.57377 0
M  V30 36273 O 3556.06 7.14662 3.68122 0
M  V30 36274 H 3555.8 0.379543 0.559395 0
M  V30 36275 H 3558.35 1.6306 1.24902 0
M  V30 36276 H 3556.58 1.02079 3.72984 0
M  V30 36277 H 3558.27 1.43422 3.79717 0
M  V30 36278 H 3559.04 3.79353 3.02186 0
M  V30 36279 H 3554.91 2.76467 3.68899 0
M  V30 36280 H 3558.46 6.18557 3.22542 0
M  V30 36281 H 3554.36 5.14787 3.89442 0
M  V30 36282 H 3555.12 7.22322 3.84958 0
M  V30 36283 N 3557.79 -1.18464 1.03942 0
M  V30 36284 C 3558.73 -2.24099 0.623102 0
M  V30 36285 C 3559.73 -1.65756 -0.349489 0
M  V30 36286 O 3560.93 -1.78688 -0.216915 0
M  V30 36287 H 3557.31 -0.729324 0.183276 0
M  V30 36288 H 3559.28 -2.56522 1.52444 0
M  V30 36289 C 3558.03 -3.477 0.000687922 0
M  V30 36290 H 3557.35 -3.9289 0.740125 0
M  V30 36291 H 3558.79 -4.23242 -0.25341 0
M  V30 36292 C 3557.25 -3.12892 -1.24901 0
M  V30 36293 O 3557.78 -3.26514 -2.33991 0
M  V30 36294 N 3555.99 -2.67228 -1.14182 0
M  V30 36295 H 3555.53 -2.56344 -0.2541 0
M  V30 36296 H 3555.49 -2.4431 -1.97889 0
M  V30 36297 N 3559.26 -0.818716 -1.34665 0
M  V30 36298 C 3560.49 -0.417643 -2.02641 0
M  V30 36299 C 3560.91 0.975132 -1.61668 0
M  V30 36300 O 3560.26 1.63036 -0.820085 0
M  V30 36301 C 3560.32 -0.505358 -3.5795 0
M  V30 36302 O 3560.04 -1.84324 -3.97437 0
M  V30 36303 C 3561.54 -0.0986446 -4.4319 0
M  V30 36304 H 3558.76 -0.168123 -0.649597 0
M  V30 36305 H 3561.3 -1.10571 -1.7203 0
M  V30 36306 H 3559.46 0.134578 -3.87166 0
M  V30 36307 H 3559.87 -1.81452 -4.92113 0
M  V30 36308 H 3561.34 -0.211112 -5.51596 0
M  V30 36309 H 3561.82 0.957375 -4.28639 0
M  V30 36310 H 3562.43 -0.712213 -4.19294 0
M  V30 36311 N 3560.74 1.46803 -0.573299 0
M  V30 36312 C 3561.97 2.07317 -0.0587081 0
M  V30 36313 C 3562.39 1.42071 1.23278 0
M  V30 36314 O 3561.75 0.501219 1.74234 0
M  V30 36315 C 3561.8 3.60452 0.10344 0
M  V30 36316 O 3560.9 3.95684 1.16222 0
M  V30 36317 H 3560.24 0.661412 -0.058562 0
M  V30 36318 H 3562.77 1.88583 -0.793565 0
M  V30 36319 H 3562.78 4.06801 0.312587 0
M  V30 36320 H 3561.46 4.07334 -0.839755 0
M  V30 36321 H 3560.04 3.61058 0.932283 0
M  V30 36322 N 3562.22 0.31058 1.54509 0
M  V30 36323 C 3563.17 -0.576888 2.25333 0
M  V30 36324 C 3564.16 -1.12921 1.26274 0
M  V30 36325 O 3565.37 -1.07875 1.44094 0
M  V30 36326 H 3561.74 -0.204662 0.723614 0
M  V30 36327 H 3563.71 0.0428691 2.98369 0
M  V30 36328 C 3562.46 -1.73258 3.01458 0
M  V30 36329 H 3561.79 -1.31681 3.77492 0
M  V30 36330 H 3563.23 -2.32941 3.5428 0
M  V30 36331 C 3561.69 -2.64245 2.08989 0
M  V30 36332 O 3562.22 -3.65605 1.66421 0
M  V30 36333 N 3560.42 -2.3219 1.74746 0
M  V30 36334 H 3559.97 -1.49807 2.0956 0
M  V30 36335 H 3559.93 -2.93332 1.13153 0
M  V30 36336 N 3563.7 -1.57553 0.0384871 0
M  V30 36337 C 3564.65 -2.10781 -0.940219 0
M  V30 36338 C 3565.62 -1.0121 -1.31703 0
M  V30 36339 O 3566.8 -1.28685 -1.40872 0
M  V30 36340 C 3563.94 -2.64707 -2.21415 0
M  V30 36341 C 3563.05 -3.88319 -1.89295 0
M  V30 36342 C 3562.19 -4.30604 -3.11052 0
M  V30 36343 C 3561.23 -5.4695 -2.74795 0
M  V30 36344 N 3560.37 -5.84348 -3.89206 0
M  V30 36345 H 3565.21 -2.94119 -0.479407 0
M  V30 36346 H 3562.74 -1.45369 -0.225025 0
M  V30 36347 H 3564.7 -2.94066 -2.95941 0
M  V30 36348 H 3563.33 -1.84185 -2.65096 0
M  V30 36349 H 3562.38 -3.6563 -1.04971 0
M  V30 36350 H 3563.69 -4.72914 -1.58598 0
M  V30 36351 H 3562.85 -4.61449 -3.9389 0
M  V30 36352 H 3561.59 -3.44794 -3.44918 0
M  V30 36353 H 3560.59 -5.15789 -1.90371 0
M  V30 36354 H 3561.82 -6.34466 -2.42136 0
M  V30 36355 H 3559.76 -5.01493 -4.22896 0
M  V30 36356 H 3559.68 -6.63606 -3.62165 0
M  V30 36357 H 3560.95 -6.19803 -4.72721 0
M  V30 36358 N 3565.18 0.234767 -1.55842 0
M  V30 36359 C 3566.09 1.31208 -1.94478 0
M  V30 36360 C 3567.1 1.52004 -0.846809 0
M  V30 36361 O 3568.28 1.65391 -1.14925 0
M  V30 36362 C 3565.34 2.64438 -2.24218 0
M  V30 36363 C 3564.41 2.52059 -3.47512 0
M  V30 36364 C 3563.64 3.78935 -3.75824 0
M  V30 36365 O 3563.86 4.81363 -3.06016 0
M  V30 36366 O 3562.8 3.7684 -4.69335 0
M  V30 36367 H 3566.62 1.01429 -2.86262 0
M  V30 36368 H 3564.21 0.436538 -1.4288 0
M  V30 36369 H 3566.09 3.43146 -2.446 0
M  V30 36370 H 3564.76 2.93924 -1.3561 0
M  V30 36371 H 3563.67 1.71596 -3.32424 0
M  V30 36372 H 3565 2.27515 -4.36461 0
M  V30 36373 N 3566.66 1.49427 0.500936 0
M  V30 36374 C 3567.88 1.62626 1.27908 0
M  V30 36375 C 3568.3 0.297684 1.86438 0
M  V30 36376 O 3567.66 -0.716849 1.67832 0
M  V30 36377 C 3567.71 2.6951 2.40929 0
M  V30 36378 O 3567.43 3.97214 1.84804 0
M  V30 36379 C 3568.93 2.93414 3.323 0
M  V30 36380 H 3566.15 0.547488 0.387941 0
M  V30 36381 H 3568.69 1.95459 0.601338 0
M  V30 36382 H 3566.85 2.39455 3.04533 0
M  V30 36383 H 3567.26 4.5609 2.59003 0
M  V30 36384 H 3568.74 3.71935 4.07883 0
M  V30 36385 H 3569.21 2.03332 3.89298 0
M  V30 36386 H 3569.82 3.24886 2.74462 0
M  V30 36387 N 3568.13 -0.751987 1.38502 0
M  V30 36388 C 3569.08 -1.86576 1.35861 0
M  V30 36389 C 3570.05 -1.64625 0.220902 0
M  V30 36390 O 3571.24 -1.86268 0.413381 0
M  V30 36391 C 3568.38 -3.23894 1.19108 0
M  V30 36392 C 3567.49 -3.57666 2.42279 0
M  V30 36393 C 3566.62 -4.84296 2.18245 0
M  V30 36394 C 3565.66 -5.10859 3.37178 0
M  V30 36395 N 3564.8 -6.28685 3.12569 0
M  V30 36396 H 3569.64 -1.88169 2.31077 0
M  V30 36397 H 3567.18 -0.919692 1.14804 0
M  V30 36398 H 3569.13 -4.03136 1.07411 0
M  V30 36399 H 3567.76 -3.21624 0.275299 0
M  V30 36400 H 3566.82 -2.73255 2.64643 0
M  V30 36401 H 3568.13 -3.73223 3.30917 0
M  V30 36402 H 3567.28 -5.71484 2.03692 0
M  V30 36403 H 3566.02 -4.70881 1.26974 0
M  V30 36404 H 3565.03 -4.22139 3.52248 0
M  V30 36405 H 3566.25 -5.26171 4.29327 0
M  V30 36406 H 3564.2 -6.1659 2.23948 0
M  V30 36407 H 3564.11 -6.4475 3.94757 0
M  V30 36408 H 3565.38 -7.18757 3.01676 0
M  V30 36409 N 3569.61 -1.23398 -0.980343 0
M  V30 36410 C 3570.54 -0.973027 -2.07521 0
M  V30 36411 C 3571.56 0.0529905 -1.62714 0
M  V30 36412 O 3572.75 -0.182544 -1.77564 0
M  V30 36413 C 3569.85 -0.444185 -3.35977 0
M  V30 36414 C 3569.02 -1.53038 -4.09754 0
M  V30 36415 C 3568.08 -1.00641 -5.16486 0
M  V30 36416 O 3567.1 -1.69539 -5.43365 0
M  V30 36417 N 3568.31 0.16574 -5.80263 0
M  V30 36418 H 3571.07 -1.91565 -2.30484 0
M  V30 36419 H 3568.63 -1.14257 -1.14704 0
M  V30 36420 H 3570.62 -0.0786881 -4.04623 0
M  V30 36421 H 3569.19 0.403858 -3.0998 0
M  V30 36422 H 3568.41 -2.06864 -3.3556 0
M  V30 36423 H 3569.7 -2.26084 -4.55811 0
M  V30 36424 H 3569.1 0.742063 -5.60812 0
M  V30 36425 H 3567.66 0.4725 -6.50085 0
M  V30 36426 N 3571.09 1.17911 -1.04569 0
M  V30 36427 C 3572.34 1.87646 -0.750571 0
M  V30 36428 C 3572.66 1.81053 0.724198 0
M  V30 36429 O 3571.93 1.23226 1.5229 0
M  V30 36430 H 3570.51 0.694678 -0.274649 0
M  V30 36431 H 3573.17 1.4307 -1.32352 0
M  V30 36432 H 3572.27 2.93551 -1.05992 0
M  V30 36433 N 3572.57 0.825847 1.34229 0
M  V30 36434 C 3573.48 0.251844 2.33244 0
M  V30 36435 C 3574.49 -0.615306 1.62757 0
M  V30 36436 O 3575.67 -0.522513 1.94504 0
M  V30 36437 C 3572.73 -0.574396 3.41909 0
M  V30 36438 C 3571.8 0.315497 4.28139 0
M  V30 36439 C 3571.03 -0.471403 5.31614 0
M  V30 36440 O 3571.25 -1.7044 5.4434 0
M  V30 36441 O 3570.19 0.147796 6.01719 0
M  V30 36442 H 3574.01 1.07144 2.84172 0
M  V30 36443 H 3571.6 0.588056 1.3734 0
M  V30 36444 H 3573.48 -1.04437 4.08254 0
M  V30 36445 H 3572.15 -1.37127 2.9322 0
M  V30 36446 H 3571.06 0.833027 3.64707 0
M  V30 36447 H 3572.39 1.0768 4.80277 0
M  V30 36448 N 3574.05 -1.46497 0.581077 0
M  V30 36449 C 3575.27 -2.06776 0.0716016 0
M  V30 36450 C 3575.69 -1.43008 -1.23265 0
M  V30 36451 O 3575.05 -0.534807 -1.74488 0
M  V30 36452 C 3575.1 -3.61354 -0.102602 0
M  V30 36453 O 3574.82 -4.22737 1.15002 0
M  V30 36454 C 3576.32 -4.38559 -0.646615 0
M  V30 36455 H 3573.54 -0.668599 0.0567081 0
M  V30 36456 H 3576.08 -1.88148 0.801281 0
M  V30 36457 H 3574.24 -3.79415 -0.782497 0
M  V30 36458 H 3574.65 -5.15587 0.962808 0
M  V30 36459 H 3576.13 -5.47314 -0.717694 0
M  V30 36460 H 3576.6 -4.06489 -1.66323 0
M  V30 36461 H 3577.21 -4.253 -0.00164263 0
M  V30 36462 N 3575.52 -0.31877 -1.54343 0
M  V30 36463 C 3576.93 0.170276 -1.85922 0
M  V30 36464 C 3577.29 1.52007 -1.24049 0
M  V30 36465 O 3576.41 2.09431 -0.544742 0
M  V30 36466 C 3577.01 0.315743 -3.37326 0
M  V30 36467 C 3575.56 0.749008 -3.68872 0
M  V30 36468 C 3574.71 -0.132139 -2.76985 0
M  V30 36469 H 3577.66 -0.539212 -1.49259 0
M  V30 36470 H 3577.68 1.14744 -3.62786 0
M  V30 36471 H 3577.2 -0.666808 -3.82329 0
M  V30 36472 H 3575.3 1.74147 -3.29399 0
M  V30 36473 H 3575.41 0.55608 -4.75862 0
M  V30 36474 H 3573.77 0.39152 -2.51673 0
M  V30 36475 H 3574.56 -1.11137 -3.24813 0
M  V30 36476 N 3577 1.5753 -0.0468419 0
M  V30 36477 C 3578.25 1.92139 0.626665 0
M  V30 36478 C 3578.57 0.925493 1.71638 0
M  V30 36479 O 3577.84 -0.0303187 1.95877 0
M  V30 36480 H 3576.42 0.709249 0.234466 0
M  V30 36481 H 3579.08 1.94649 -0.0988234 0
M  V30 36482 H 3578.18 2.93256 1.06805 0
M  V30 36483 N 3578.48 -0.226499 1.55964 0
M  V30 36484 C 3579.44 -1.26414 1.91186 0
M  V30 36485 C 3580.44 -1.40055 0.790007 0
M  V30 36486 O 3581.63 -1.38405 1.05781 0
M  V30 36487 C 3578.77 -2.63875 2.15831 0
M  V30 36488 H 3579.96 -0.963906 2.83987 0
M  V30 36489 H 3577.51 -0.4667 1.4917 0
M  V30 36490 H 3578.25 -2.99005 1.25565 0
M  V30 36491 H 3578.03 -2.55351 2.97554 0
M  V30 36492 H 3579.52 -3.38761 2.44194 0
M  V30 36493 N 3579.96 -1.4969 -0.493005 0
M  V30 36494 C 3581.18 -1.63569 -1.27514 0
M  V30 36495 C 3581.61 -0.310138 -1.85526 0
M  V30 36496 O 3580.97 0.723285 -1.66248 0
M  V30 36497 C 3581.01 -2.71301 -2.37547 0
M  V30 36498 O 3580.12 -2.31029 -3.41613 0
M  V30 36499 H 3579.46 -0.547211 -0.376106 0
M  V30 36500 H 3581.99 -1.9593 -0.589294 0
M  V30 36501 H 3582 -2.93713 -2.8319 0
M  V30 36502 H 3580.67 -3.67516 -1.94691 0
M  V30 36503 H 3579.25 -2.18979 -3.01832 0
M  V30 36504 N 3581.44 0.744631 -1.38899 0
M  V30 36505 C 3582.66 1.53899 -1.39032 0
M  V30 36506 C 3583.09 1.88094 0.0156277 0
M  V30 36507 O 3582.44 1.51221 1.00009 0
M  V30 36508 C 3582.49 2.80915 -2.26095 0
M  V30 36509 O 3581.6 3.76441 -1.68421 0
M  V30 36510 H 3580.94 0.465135 -0.473862 0
M  V30 36511 H 3583.47 0.919493 -1.82774 0
M  V30 36512 H 3583.48 3.29749 -2.40269 0
M  V30 36513 H 3582.15 2.55358 -3.28276 0
M  V30 36514 H 3580.73 3.35176 -1.63437 0
M  V30 36515 N 3582.91 1.23916 0.973785 0
M  V30 36516 C 3584.19 0.98333 1.69086 0
M  V30 36517 C 3584.57 -0.496153 2.05187 0
M  V30 36518 O 3583.92 -1.46898 1.75023 0
M  V30 36519 C 3584.13 1.90017 2.92736 0
M  V30 36520 C 3585.48 2.16752 3.65108 0
M  V30 36521 O 3586.5 1.87621 3.02782 0
M  V30 36522 O 3585.36 2.66192 4.77289 0
M  V30 36523 H 3582.45 0.371399 0.738913 0
M  V30 36524 H 3585 1.34988 1.02842 0
M  V30 36525 H 3583.77 2.90003 2.62705 0
M  V30 36526 H 3583.4 1.53641 3.66715 0
M  V30 36527 N 3584.39 -1.17355 1.05193 0
M  V30 36528 C 3585.32 -2.23562 0.673971 0
M  V30 36529 C 3586.3 -1.66903 -0.328254 0
M  V30 36530 O 3587.49 -1.93106 -0.205844 0
M  V30 36531 C 3584.62 -3.47267 0.0479411 0
M  V30 36532 C 3583.57 -4.16748 0.974929 0
M  V30 36533 C 3582.9 -5.34276 0.212778 0
M  V30 36534 C 3584.2 -4.68977 2.29908 0
M  V30 36535 H 3585.89 -2.55433 1.56187 0
M  V30 36536 H 3583.44 -1.22778 0.752429 0
M  V30 36537 H 3585.39 -4.20781 -0.228269 0
M  V30 36538 H 3584.12 -3.14663 -0.874908 0
M  V30 36539 H 3582.77 -3.45146 1.2357 0
M  V30 36540 H 3582.42 -4.97923 -0.712836 0
M  V30 36541 H 3582.12 -5.81702 0.830453 0
M  V30 36542 H 3583.65 -6.10574 -0.0561476 0
M  V30 36543 H 3585.06 -5.34128 2.08278 0
M  V30 36544 H 3583.46 -5.26981 2.87073 0
M  V30 36545 H 3584.53 -3.85785 2.93765 0
M  V30 36546 N 3585.87 -0.832954 -1.3379 0
M  V30 36547 C 3586.82 -0.250398 -2.31248 0
M  V30 36548 C 3587.81 0.614375 -1.57866 0
M  V30 36549 O 3589.02 0.504596 -1.72783 0
M  V30 36550 H 3585.39 -0.06224 -0.74942 0
M  V30 36551 H 3587.36 -1.08701 -2.77897 0
M  V30 36552 C 3586.11 0.564723 -3.43083 0
M  V30 36553 H 3585.44 -0.0913892 -3.99696 0
M  V30 36554 H 3586.88 0.938279 -4.13488 0
M  V30 36555 C 3585.34 1.74119 -2.88417 0
M  V30 36556 O 3585.87 2.83971 -2.84118 0
M  V30 36557 N 3584.07 1.56117 -2.45104 0
M  V30 36558 H 3583.62 0.667564 -2.488 0
M  V30 36559 H 3583.58 2.34982 -2.08879 0
M  V30 36560 N 3587.35 1.46186 -0.588837 0
M  V30 36561 C 3588.76 1.57614 -0.250989 0
M  V30 36562 C 3588.96 1.58304 1.24667 0
M  V30 36563 O 3588.02 1.50328 2.02873 0
M  V30 36564 C 3589.33 2.86739 -0.905611 0
M  V30 36565 C 3590.88 3.00381 -0.879774 0
M  V30 36566 C 3591.36 4.3225 -1.51405 0
M  V30 36567 N 3592.85 4.38964 -1.47867 0
M  V30 36568 C 3593.58 5.39629 -1.93877 0
M  V30 36569 N 3593.08 6.46934 -2.47888 0
M  V30 36570 N 3594.87 5.30868 -1.84757 0
M  V30 36571 H 3587.02 1.43982 -1.5615 0
M  V30 36572 H 3589.29 0.687199 -0.653041 0
M  V30 36573 H 3588.99 2.92062 -1.9594 0
M  V30 36574 H 3588.87 3.74882 -0.417522 0
M  V30 36575 H 3591.25 2.94636 0.165414 0
M  V30 36576 H 3591.33 2.13698 -1.40594 0
M  V30 36577 H 3590.98 4.38754 -2.55847 0
M  V30 36578 H 3590.91 5.17719 -0.963056 0
M  V30 36579 H 3593.4 3.62021 -1.08393 0
M  V30 36580 H 3593.71 7.19966 -2.80837 0
M  V30 36581 H 3592.06 6.47737 -2.51917 0
M  V30 36582 H 3595.25 4.45942 -1.42315 0
M  V30 36583 H 3595.42 6.09175 -2.20929 0
M  V30 36584 N 3588.83 0.32695 1.54171 0
M  V30 36585 C 3589.76 -0.530114 2.27403 0
M  V30 36586 C 3590.74 -1.11652 1.28327 0
M  V30 36587 O 3591.92 -1.14102 1.57144 0
M  V30 36588 C 3589.05 -1.68945 3.03438 0
M  V30 36589 C 3588.01 -1.23218 4.0988 0
M  V30 36590 C 3587.33 -2.47874 4.73775 0
M  V30 36591 C 3588.63 -0.344607 5.21162 0
M  V30 36592 H 3590.33 0.0807485 2.99291 0
M  V30 36593 H 3587.87 0.0402764 1.43944 0
M  V30 36594 H 3589.83 -2.29535 3.534 0
M  V30 36595 H 3588.55 -2.32696 2.29173 0
M  V30 36596 H 3587.21 -0.649204 3.60806 0
M  V30 36597 H 3586.86 -3.09995 3.96121 0
M  V30 36598 H 3586.56 -2.17967 5.45678 0
M  V30 36599 H 3588.08 -3.09219 5.26513 0
M  V30 36600 H 3589.49 -0.85688 5.6686 0
M  V30 36601 H 3587.89 -0.138171 5.99941 0
M  V30 36602 H 3588.96 0.623659 4.80873 0
M  V30 36603 N 3590.3 -1.57503 0.0551955 0
M  V30 36604 C 3591.58 -1.84208 -0.657775 0
M  V30 36605 C 3591.96 -0.944405 -1.88797 0
M  V30 36606 O 3591.31 -0.00645745 -2.28499 0
M  V30 36607 C 3591.52 -3.34028 -1.01124 0
M  V30 36608 C 3592.87 -4.0114 -1.39182 0
M  V30 36609 O 3593.89 -3.38677 -1.10347 0
M  V30 36610 O 3592.75 -5.11281 -1.93014 0
M  V30 36611 H 3589.84 -0.760433 -0.325071 0
M  V30 36612 H 3592.39 -1.69488 0.084865 0
M  V30 36613 H 3591.16 -3.91061 -0.136811 0
M  V30 36614 H 3590.79 -3.53951 -1.8112 0
M  V30 36615 N 3591.78 0.218225 -1.56082 0
M  V30 36616 C 3592.73 1.27046 -1.92686 0
M  V30 36617 C 3593.7 1.46408 -0.784467 0
M  V30 36618 O 3594.88 1.59922 -1.04065 0
M  V30 36619 C 3592.02 2.61512 -2.25179 0
M  V30 36620 C 3591.14 2.49921 -3.52368 0
M  V30 36621 C 3590.27 3.76933 -3.74292 0
M  V30 36622 C 3589.31 3.60078 -4.94985 0
M  V30 36623 N 3588.45 4.79048 -5.13281 0
M  V30 36624 H 3593.29 0.951297 -2.82408 0
M  V30 36625 H 3590.83 0.458416 -1.39775 0
M  V30 36626 H 3592.78 3.39821 -2.42028 0
M  V30 36627 H 3591.41 2.91518 -1.38626 0
M  V30 36628 H 3590.47 1.6303 -3.43694 0
M  V30 36629 H 3591.78 2.33389 -4.4083 0
M  V30 36630 H 3590.93 4.63685 -3.91256 0
M  V30 36631 H 3589.67 3.96394 -2.84118 0
M  V30 36632 H 3588.68 2.71711 -4.77968 0
M  V30 36633 H 3589.9 3.42085 -5.86647 0
M  V30 36634 H 3587.85 4.98816 -4.2605 0
M  V30 36635 H 3587.76 4.65255 -5.95881 0
M  V30 36636 H 3589.03 5.67216 -5.34683 0
M  V30 36637 N 3593.26 1.4995 0.485059 0
M  V30 36638 C 3594.54 1.50749 1.24636 0
M  V30 36639 C 3594.92 0.244199 2.09683 0
M  V30 36640 O 3594.27 -0.772911 2.15031 0
M  V30 36641 C 3594.48 2.79544 2.08941 0
M  V30 36642 C 3595.82 3.29661 2.67598 0
M  V30 36643 O 3596.85 2.8077 2.19195 0
M  V30 36644 O 3595.71 4.14851 3.55753 0
M  V30 36645 H 3592.8 0.604058 0.564838 0
M  V30 36646 H 3595.35 1.62228 0.498023 0
M  V30 36647 H 3594.12 3.6297 1.46179 0
M  V30 36648 H 3593.74 2.71002 2.90936 0
M  V30 36649 N 3594.74 -0.737255 1.39292 0
M  V30 36650 C 3596.15 -1.31541 1.32491 0
M  V30 36651 C 3596.5 -1.96196 -0.0117817 0
M  V30 36652 O 3595.63 -1.96155 -0.913904 0
M  V30 36653 C 3596.22 -2.39185 2.3995 0
M  V30 36654 C 3594.78 -2.9268 2.36676 0
M  V30 36655 C 3593.93 -1.66225 2.21956 0
M  V30 36656 H 3596.88 -0.534928 1.49413 0
M  V30 36657 H 3596.9 -3.1952 2.06608 0
M  V30 36658 H 3596.41 -1.92098 3.37224 0
M  V30 36659 H 3594.51 -3.44052 1.43034 0
M  V30 36660 H 3594.63 -3.45948 3.31447 0
M  V30 36661 H 3592.99 -1.90475 1.6909 0
M  V30 36662 H 3593.77 -1.21193 3.21196 0
M  V30 36663 N 3596.22 -1.24431 -0.967199 0
M  V30 36664 C 3597.47 -1.07832 -1.70456 0
M  V30 36665 C 3597.78 0.382746 -1.91819 0
M  V30 36666 O 3598.99 0.668936 -2.6313 0
M  V30 36667 C 3597.44 -1.88131 -3.06814 0
M  V30 36668 C 3597.05 -3.3865 -2.93292 0
M  V30 36669 C 3598.79 -1.80063 -3.84419 0
M  V30 36670 C 3596.7 -4.11291 -4.24963 0
M  V30 36671 H 3595.63 -0.399908 -0.63921 0
M  V30 36672 H 3598.28 -1.48516 -1.07773 0
M  V30 36673 H 3596.66 -1.40261 -3.70328 0
M  V30 36674 H 3597.84 -3.94104 -2.38787 0
M  V30 36675 H 3596.15 -3.47675 -2.29152 0
M  V30 36676 H 3598.75 -2.31637 -4.81921 0
M  V30 36677 H 3599.09 -0.765979 -4.09192 0
M  V30 36678 H 3599.63 -2.25616 -3.27632 0
M  V30 36679 H 3596.36 -5.15117 -4.05382 0
M  V30 36680 H 3595.88 -3.60623 -4.79282 0
M  V30 36681 H 3597.56 -4.18317 -4.93579 0
M  V30 36682 N 3597.7 1.16795 -1.05814 0
M  V30 36683 C 3598.93 1.90841 -0.791404 0
M  V30 36684 C 3599.33 1.7741 0.65745 0
M  V30 36685 O 3598.68 1.11305 1.4614 0
M  V30 36686 C 3598.74 3.42242 -1.10048 0
M  V30 36687 C 3598.4 3.79458 -2.54677 0
M  V30 36688 C 3599.4 3.81782 -3.52901 0
M  V30 36689 C 3597.08 4.10234 -2.8985 0
M  V30 36690 C 3599.08 4.1436 -4.84339 0
M  V30 36691 C 3596.77 4.42481 -4.2149 0
M  V30 36692 C 3597.76 4.44523 -5.18545 0
M  V30 36693 O 3597.45 4.76006 -6.47822 0
M  V30 36694 H 3597.18 0.612156 -0.286777 0
M  V30 36695 H 3599.74 1.49008 -1.41372 0
M  V30 36696 H 3597.97 3.84401 -0.421083 0
M  V30 36697 H 3599.66 3.97557 -0.818757 0
M  V30 36698 H 3600.42 3.58122 -3.27068 0
M  V30 36699 H 3596.3 4.07812 -2.14966 0
M  V30 36700 H 3599.85 4.15869 -5.60088 0
M  V30 36701 H 3595.74 4.65604 -4.47083 0
M  V30 36702 H 3596.51 4.93838 -6.52738 0
M  V30 36703 N 3599.17 0.840037 1.33346 0
M  V30 36704 C 3600.42 0.436955 1.98037 0
M  V30 36705 C 3600.75 -1.00151 1.66383 0
M  V30 36706 O 3600.03 -1.70037 0.944341 0
M  V30 36707 C 3600.31 0.659432 3.54011 0
M  V30 36708 C 3600.16 2.14525 3.95347 0
M  V30 36709 C 3601.48 0.106335 4.39972 0
M  V30 36710 H 3598.6 0.160234 0.719371 0
M  V30 36711 H 3601.24 1.05577 1.57967 0
M  V30 36712 H 3599.39 0.132701 3.88273 0
M  V30 36713 H 3601.07 2.73694 3.71335 0
M  V30 36714 H 3599.31 2.62932 3.45035 0
M  V30 36715 H 3599.98 2.25166 5.03988 0
M  V30 36716 H 3602.46 0.556583 4.12361 0
M  V30 36717 H 3601.33 0.29168 5.48124 0
M  V30 36718 H 3601.59 -0.989956 4.30874 0
M  V30 36719 N 3600.65 -1.45872 0.596582 0
M  V30 36720 C 3601.9 -2.01911 0.087321 0
M  V30 36721 C 3602.22 -1.46887 -1.28254 0
M  V30 36722 O 3601.49 -0.65887 -1.84488 0
M  V30 36723 H 3600.07 -0.746426 0.0292901 0
M  V30 36724 H 3602.73 -1.78807 0.775496 0
M  V30 36725 H 3601.83 -3.12087 0.0287762 0
M  V30 36726 N 3602.13 -0.335122 -1.53996 0
M  V30 36727 C 3603.38 0.26344 -2.00376 0
M  V30 36728 C 3603.7 1.5174 -1.22474 0
M  V30 36729 O 3602.97 1.93107 -0.329638 0
M  V30 36730 H 3601.55 0.100334 -0.740231 0
M  V30 36731 H 3604.21 -0.454335 -1.8953 0
M  V30 36732 H 3603.31 0.51178 -3.07875 0
M  V30 36733 N 3603.61 1.57472 -0.0635475 0
M  V30 36734 C 3604.54 2.15279 0.904272 0
M  V30 36735 C 3605.52 1.07766 1.31607 0
M  V30 36736 O 3606.7 1.35764 1.38859 0
M  V30 36737 C 3603.83 2.70777 2.17479 0
M  V30 36738 C 3602.79 3.83384 1.90266 0
M  V30 36739 C 3602.11 4.2545 3.23877 0
M  V30 36740 C 3603.41 5.07985 1.21445 0
M  V30 36741 H 3605.11 2.96401 0.422734 0
M  V30 36742 H 3602.65 1.42578 0.201893 0
M  V30 36743 H 3604.61 3.09861 2.85594 0
M  V30 36744 H 3603.33 1.86865 2.6786 0
M  V30 36745 H 3601.99 3.44791 1.24558 0
M  V30 36746 H 3601.64 3.38471 3.72084 0
M  V30 36747 H 3601.34 5.01352 3.06463 0
M  V30 36748 H 3602.86 4.67144 3.93204 0
M  V30 36749 H 3604.28 5.44437 1.79615 0
M  V30 36750 H 3602.67 5.89111 1.14316 0
M  V30 36751 H 3603.74 4.84519 0.192295 0
M  V30 36752 N 3605.09 -0.209945 1.56195 0
M  V30 36753 C 3606.5 -0.775939 1.69812 0
M  V30 36754 C 3606.85 -1.84494 0.667576 0
M  V30 36755 O 3605.97 -2.15658 -0.179006 0
M  V30 36756 C 3606.57 -1.41424 3.07871 0
M  V30 36757 C 3605.13 -1.92749 3.23303 0
M  V30 36758 C 3604.27 -0.791911 2.65752 0
M  V30 36759 H 3607.22 0.0149006 1.58693 0
M  V30 36760 H 3607.25 -2.28333 3.04375 0
M  V30 36761 H 3606.76 -0.635973 3.82854 0
M  V30 36762 H 3604.86 -2.73341 2.5321 0
M  V30 36763 H 3604.97 -2.09948 4.30649 0
M  V30 36764 H 3603.34 -1.2023 2.24537 0
M  V30 36765 H 3604.12 -0.0261273 3.4329 0
M  V30 36766 N 3606.56 -1.50205 -0.4771 0
M  V30 36767 C 3607.98 -1.37497 -0.810346 0
M  V30 36768 C 3608.18 -0.426433 -1.96936 0
M  V30 36769 O 3607.24 0.133152 -2.52149 0
M  V30 36770 C 3608.55 -2.78739 -1.12806 0
M  V30 36771 C 3610.1 -2.87611 -1.23487 0
M  V30 36772 C 3610.57 -4.29672 -1.58575 0
M  V30 36773 N 3612.06 -4.32594 -1.65579 0
M  V30 36774 C 3612.8 -5.39505 -1.94221 0
M  V30 36775 N 3612.29 -6.56631 -2.20925 0
M  V30 36776 N 3614.09 -5.26943 -1.95673 0
M  V30 36777 H 3606.24 -2.10455 0.286808 0
M  V30 36778 H 3608.5 -0.945715 0.0657815 0
M  V30 36779 H 3608.21 -3.49959 -0.349555 0
M  V30 36780 H 3608.08 -3.15606 -2.06574 0
M  V30 36781 H 3610.47 -2.16613 -2.00406 0
M  V30 36782 H 3610.55 -2.54294 -0.277137 0
M  V30 36783 H 3610.19 -5.01204 -0.821983 0
M  V30 36784 H 3610.12 -4.6047 -2.55489 0
M  V30 36785 H 3612.61 -3.48134 -1.47006 0
M  V30 36786 H 3612.93 -7.3392 -2.42036 0
M  V30 36787 H 3611.27 -6.59816 -2.1833 0
M  V30 36788 H 3614.46 -4.34438 -1.74303 0
M  V30 36789 H 3614.64 -6.10351 -2.17659 0
M  V30 36790 N 3608.04 0.729857 -1.39681 0
M  V30 36791 C 3609.27 1.52415 -1.40657 0
M  V30 36792 C 3609.69 1.881 -0.00432304 0
M  V30 36793 O 3609.05 1.52273 0.983996 0
M  V30 36794 C 3609.1 2.78502 -2.29062 0
M  V30 36795 O 3608.2 3.74634 -1.72404 0
M  V30 36796 H 3607.54 0.460083 -0.478769 0
M  V30 36797 H 3610.07 0.900055 -1.83739 0
M  V30 36798 H 3610.08 3.27182 -2.43753 0
M  V30 36799 H 3608.76 2.51862 -3.30966 0
M  V30 36800 H 3607.34 3.33423 -1.66983 0
M  V30 36801 N 3609.52 1.24942 0.960587 0
M  V30 36802 C 3610.94 1.01635 1.23055 0
M  V30 36803 C 3611.14 -0.270491 1.99676 0
M  V30 36804 O 3610.19 -0.984782 2.32504 0
M  V30 36805 C 3611.51 2.23584 2.01074 0
M  V30 36806 C 3613.05 2.28283 2.1414 0
M  V30 36807 C 3613.53 3.49872 2.95556 0
M  V30 36808 N 3615.02 3.50232 3.03137 0
M  V30 36809 C 3615.75 4.40974 3.6651 0
M  V30 36810 N 3615.25 5.4198 4.31544 0
M  V30 36811 N 3617.04 4.28669 3.63592 0
M  V30 36812 H 3609.19 2.07625 0.44784 0
M  V30 36813 H 3611.46 0.911488 0.260565 0
M  V30 36814 H 3611.16 3.17078 1.52167 0
M  V30 36815 H 3611.04 2.26276 3.01793 0
M  V30 36816 H 3613.42 1.35316 2.62247 0
M  V30 36817 H 3613.51 2.29613 1.12746 0
M  V30 36818 H 3613.15 4.43157 2.48141 0
M  V30 36819 H 3613.08 3.45786 3.97164 0
M  V30 36820 H 3615.57 2.77163 2.56883 0
M  V30 36821 H 3615.88 6.07441 4.7774 0
M  V30 36822 H 3614.23 5.45858 4.3019 0
M  V30 36823 H 3617.42 3.4899 3.11967 0
M  V30 36824 H 3617.59 4.99585 4.12697 0
M  V30 36825 N 3611 -1.16233 1.06432 0
M  V30 36826 C 3612.24 -1.87073 0.783031 0
M  V30 36827 C 3612.58 -1.81573 -0.68882 0
M  V30 36828 O 3611.85 -1.23237 -1.50476 0
M  V30 36829 C 3612.14 -3.36582 1.28003 0
M  V30 36830 C 3611.99 -3.50765 2.81574 0
M  V30 36831 C 3613.31 -4.31027 0.889051 0
M  V30 36832 H 3610.43 -0.679277 0.285922 0
M  V30 36833 H 3613.07 -1.36613 1.32049 0
M  V30 36834 H 3611.22 -3.79687 0.822822 0
M  V30 36835 H 3612.89 -3.16589 3.35513 0
M  V30 36836 H 3611.13 -2.9263 3.20235 0
M  V30 36837 H 3611.8 -4.55769 3.11414 0
M  V30 36838 H 3614.28 -3.95831 1.28286 0
M  V30 36839 H 3613.16 -5.34142 1.26425 0
M  V30 36840 H 3613.42 -4.4162 -0.205896 0
M  V30 36841 N 3612.48 -0.847097 -1.32899 0
M  V30 36842 C 3613.72 -0.447451 -1.97802 0
M  V30 36843 C 3614.06 0.992671 -1.66912 0
M  V30 36844 O 3613.33 1.69533 -0.953345 0
M  V30 36845 C 3613.61 -0.678197 -3.53656 0
M  V30 36846 C 3613.47 -2.16619 -3.94203 0
M  V30 36847 C 3614.79 -0.129667 -4.39909 0
M  V30 36848 H 3611.9 -0.164047 -0.718511 0
M  V30 36849 H 3614.55 -1.06413 -1.57405 0
M  V30 36850 H 3612.7 -0.15329 -3.88197 0
M  V30 36851 H 3614.37 -2.75659 -3.69878 0
M  V30 36852 H 3612.61 -2.64758 -3.43636 0
M  V30 36853 H 3613.28 -2.27836 -5.02787 0
M  V30 36854 H 3615.76 -0.578444 -4.1206 0
M  V30 36855 H 3614.63 -0.320744 -5.47962 0
M  V30 36856 H 3614.9 0.967092 -4.31393 0
M  V30 36857 N 3613.95 1.45554 -0.604309 0
M  V30 36858 C 3615.37 1.57339 -0.267692 0
M  V30 36859 C 3615.57 1.59618 1.22981 0
M  V30 36860 O 3614.63 1.52472 2.01268 0
M  V30 36861 C 3615.94 2.85762 -0.935973 0
M  V30 36862 C 3617.49 2.99431 -0.911584 0
M  V30 36863 C 3617.96 4.3062 -1.55981 0
M  V30 36864 N 3619.45 4.37371 -1.52515 0
M  V30 36865 C 3620.19 5.37542 -1.9959 0
M  V30 36866 N 3619.68 6.44268 -2.54735 0
M  V30 36867 N 3621.48 5.28879 -1.90377 0
M  V30 36868 H 3613.63 1.42318 -1.57668 0
M  V30 36869 H 3615.89 0.680234 -0.660292 0
M  V30 36870 H 3615.6 2.89968 -1.99027 0
M  V30 36871 H 3615.47 3.74418 -0.45726 0
M  V30 36872 H 3617.86 2.94795 0.134155 0
M  V30 36873 H 3617.94 2.12195 -1.42853 0
M  V30 36874 H 3617.58 4.36015 -2.60486 0
M  V30 36875 H 3617.51 5.16668 -1.01791 0
M  V30 36876 H 3620 3.60851 -1.12227 0
M  V30 36877 H 3620.32 7.16946 -2.88458 0
M  V30 36878 H 3618.66 6.45028 -2.58773 0
M  V30 36879 H 3621.85 4.44407 -1.47037 0
M  V30 36880 H 3622.03 6.06798 -2.27378 0
M  V30 36881 N 3615.43 0.343284 1.53816 0
M  V30 36882 C 3616.85 -0.00865043 1.59598 0
M  V30 36883 C 3617.05 -1.4875 1.35925 0
M  V30 36884 O 3616.1 -2.24618 1.15338 0
M  V30 36885 C 3617.42 0.427287 2.97649 0
M  V30 36886 C 3618.97 0.379608 3.1069 0
M  V30 36887 C 3619.44 0.79101 4.51118 0
M  V30 36888 N 3620.93 0.745186 4.57167 0
M  V30 36889 C 3621.67 1.03547 5.63973 0
M  V30 36890 N 3621.16 1.39389 6.78633 0
M  V30 36891 N 3622.96 0.959725 5.53846 0
M  V30 36892 H 3615.11 1.30658 1.67458 0
M  V30 36893 H 3617.37 0.532602 0.784244 0
M  V30 36894 H 3617.08 1.45839 3.20037 0
M  V30 36895 H 3616.95 -0.197638 3.76682 0
M  V30 36896 H 3619.34 -0.642325 2.88025 0
M  V30 36897 H 3619.42 1.03973 2.33716 0
M  V30 36898 H 3619.06 1.81095 4.74518 0
M  V30 36899 H 3618.99 0.108366 5.26488 0
M  V30 36900 H 3621.48 0.480818 3.74829 0
M  V30 36901 H 3621.8 1.60024 7.5605 0
M  V30 36902 H 3620.14 1.43234 6.8008 0
M  V30 36903 H 3623.33 0.679055 4.63148 0
M  V30 36904 H 3623.5 1.1893 6.36993 0
M  V30 36905 N 3616.91 -1.57436 0.0718977 0
M  V30 36906 C 3618.16 -1.93111 -0.596018 0
M  V30 36907 C 3618.48 -0.952682 -1.70144 0
M  V30 36908 O 3617.75 -0.000847376 -1.959 0
M  V30 36909 H 3616.33 -0.71289 -0.223153 0
M  V30 36910 H 3618.99 -1.94467 0.129778 0
M  V30 36911 H 3618.09 -2.94918 -1.02126 0
M  V30 36912 N 3618.39 0.201658 -1.56305 0
M  V30 36913 C 3619.63 0.924429 -1.80505 0
M  V30 36914 C 3619.97 1.83181 -0.644865 0
M  V30 36915 O 3619.24 1.91234 0.354929 0
M  V30 36916 C 3619.53 1.74631 -3.14922 0
M  V30 36917 C 3619.38 0.864092 -4.41422 0
M  V30 36918 C 3620.7 2.7202 -3.45967 0
M  V30 36919 H 3617.82 0.334636 -0.656649 0
M  V30 36920 H 3620.46 0.192155 -1.89026 0
M  V30 36921 H 3618.61 2.37061 -3.07789 0
M  V30 36922 H 3620.28 0.255003 -4.60595 0
M  V30 36923 H 3618.52 0.170472 -4.33465 0
M  V30 36924 H 3619.19 1.47399 -5.31956 0
M  V30 36925 H 3621.67 2.19723 -3.53357 0
M  V30 36926 H 3620.55 3.26614 -4.41151 0
M  V30 36927 H 3620.81 3.50744 -2.6913 0
M  V30 36928 N 3619.87 1.50456 0.469128 0
M  V30 36929 C 3621.09 1.65303 1.24429 0
M  V30 36930 C 3621.51 0.337163 1.85765 0
M  V30 36931 O 3620.87 -0.681088 1.69315 0
M  V30 36932 C 3620.92 2.7456 2.35158 0
M  V30 36933 O 3620.64 4.01045 1.76337 0
M  V30 36934 C 3622.14 3.00397 3.26001 0
M  V30 36935 H 3619.36 0.555593 0.376241 0
M  V30 36936 H 3621.9 1.9669 0.559743 0
M  V30 36937 H 3620.06 2.4586 2.99385 0
M  V30 36938 H 3620.47 4.61481 2.4927 0
M  V30 36939 H 3621.95 3.80503 3.99902 0
M  V30 36940 H 3622.42 2.11544 3.84897 0
M  V30 36941 H 3623.03 3.30635 2.67509 0
M  V30 36942 N 3621.34 -0.722439 1.40066 0
M  V30 36943 C 3622.57 -1.5116 1.41273 0
M  V30 36944 C 3622.99 -1.88797 0.0105756 0
M  V30 36945 O 3622.34 -1.54972 -0.96384 0
M  V30 36946 C 3622.4 -2.79127 2.29718 0
M  V30 36947 O 3622.12 -2.43084 3.64475 0
M  V30 36948 C 3623.62 -3.73071 2.39443 0
M  V30 36949 H 3620.84 -0.466719 0.482094 0
M  V30 36950 H 3623.38 -0.891704 1.84035 0
M  V30 36951 H 3621.54 -3.37418 1.90336 0
M  V30 36952 H 3621.95 -3.25376 4.11377 0
M  V30 36953 H 3623.42 -4.5972 3.05551 0
M  V30 36954 H 3623.9 -4.157 1.41738 0
M  V30 36955 H 3624.51 -3.20694 2.79348 0
M  V30 36956 N 3622.82 -1.2545 -0.953947 0
M  V30 36957 C 3623.77 -1.05894 -2.05073 0
M  V30 36958 C 3624.74 0.0321253 -1.66069 0
M  V30 36959 O 3625.93 -0.125185 -1.90389 0
M  V30 36960 C 3623.07 -0.684451 -3.38244 0
M  V30 36961 C 3622.18 -1.85044 -3.90362 0
M  V30 36962 C 3621.31 -1.42025 -5.11862 0
M  V30 36963 C 3620.35 -2.55533 -5.5621 0
M  V30 36964 N 3619.49 -2.13284 -6.6892 0
M  V30 36965 H 3624.33 -1.99759 -2.21134 0
M  V30 36966 H 3621.87 -0.994761 -1.08365 0
M  V30 36967 H 3623.82 -0.448281 -4.14785 0
M  V30 36968 H 3622.45 0.217216 -3.22068 0
M  V30 36969 H 3621.51 -2.1999 -3.10336 0
M  V30 36970 H 3622.82 -2.70284 -4.19223 0
M  V30 36971 H 3621.97 -1.14377 -5.95821 0
M  V30 36972 H 3620.71 -0.538578 -4.84717 0
M  V30 36973 H 3619.72 -2.83924 -4.70815 0
M  V30 36974 H 3620.94 -3.44279 -5.85362 0
M  V30 36975 H 3618.89 -1.27534 -6.43484 0
M  V30 36976 H 3618.8 -2.92071 -6.97302 0
M  V30 36977 H 3620.07 -1.88814 -7.56287 0
M  V30 36978 N 3624.3 1.15667 -1.07047 0
M  V30 36979 C 3625.53 1.90808 -0.812836 0
M  V30 36980 C 3625.95 1.77314 0.627796 0
M  V30 36981 O 3625.31 1.1037 1.43834 0
M  V30 36982 C 3625.36 3.39265 -1.22196 0
M  V30 36983 O 3624.46 4.10778 -0.365378 0
M  V30 36984 H 3623.8 0.594177 -0.296395 0
M  V30 36985 H 3626.33 1.46497 -1.42827 0
M  V30 36986 H 3626.34 3.90052 -1.19681 0
M  V30 36987 H 3625.02 3.48405 -2.27127 0
M  V30 36988 H 3623.59 3.70141 -0.452752 0
M  V30 36989 N 3625.78 0.854133 1.32447 0
M  V30 36990 C 3627.03 0.457258 1.9727 0
M  V30 36991 C 3627.35 -0.987001 1.67596 0
M  V30 36992 O 3626.61 -1.70742 0.956331 0
M  V30 36993 C 3626.91 0.642561 3.51576 0
M  V30 36994 C 3626.57 2.05721 4.01235 0
M  V30 36995 C 3625.24 2.44412 4.14507 0
M  V30 36996 C 3627.59 2.98053 4.27567 0
M  V30 36997 C 3624.92 3.74709 4.51454 0
M  V30 36998 C 3627.27 4.27847 4.65972 0
M  V30 36999 C 3625.93 4.66474 4.7745 0
M  V30 37000 H 3625.2 0.167322 0.721862 0
M  V30 37001 H 3627.85 1.08409 1.5786 0
M  V30 37002 H 3626.15 -0.0675018 3.91742 0
M  V30 37003 H 3627.85 0.315543 3.99757 0
M  V30 37004 H 3624.44 1.74676 3.9139 0
M  V30 37005 H 3628.63 2.69393 4.16823 0
M  V30 37006 H 3623.88 4.0442 4.58535 0
M  V30 37007 H 3628.06 4.99455 4.85301 0
M  V30 37008 H 3625.68 5.67481 5.05835 0
M  V30 37009 N 3627.26 -1.45231 0.61202 0
M  V30 37010 C 3628.5 -2.02506 0.109108 0
M  V30 37011 C 3628.84 -1.47883 -1.25874 0
M  V30 37012 O 3628.11 -0.655272 -1.8313 0
M  V30 37013 C 3628.39 -3.60022 0.074992 0
M  V30 37014 C 3628.25 -4.24969 1.47382 0
M  V30 37015 C 3629.57 -4.35845 -0.610526 0
M  V30 37016 H 3626.69 -0.735852 0.041123 0
M  V30 37017 H 3629.33 -1.73033 0.78484 0
M  V30 37018 H 3627.48 -3.85263 -0.500443 0
M  V30 37019 H 3629.15 -4.10898 2.09667 0
M  V30 37020 H 3627.39 -3.83199 2.03325 0
M  V30 37021 H 3628.06 -5.33895 1.40215 0
M  V30 37022 H 3630.54 -4.15923 -0.121372 0
M  V30 37023 H 3629.42 -5.45572 -0.603518 0
M  V30 37024 H 3629.68 -4.09041 -1.67743 0
M  V30 37025 N 3628.74 -0.351436 -1.53632 0
M  V30 37026 C 3629.98 0.242173 -2.00644 0
M  V30 37027 C 3630.3 1.50433 -1.24077 0
M  V30 37028 O 3629.57 1.92746 -0.350101 0
M  V30 37029 H 3628.15 0.0924774 -0.741254 0
M  V30 37030 H 3630.82 -0.474412 -1.89038 0
M  V30 37031 H 3629.91 0.479097 -3.08401 0
M  V30 37032 N 3630.21 1.57396 -0.0802459 0
M  V30 37033 C 3631.45 1.95685 0.590478 0
M  V30 37034 C 3631.82 0.960228 1.66264 0
M  V30 37035 O 3633.02 1.23108 2.38951 0
M  V30 37036 C 3631.29 3.38569 1.1448 0
M  V30 37037 S 3632.85 3.98843 1.82947 0
M  V30 37038 H 3629.67 0.684273 0.193111 0
M  V30 37039 H 3632.27 1.94876 -0.156115 0
M  V30 37040 H 3630.97 4.08881 0.352756 0
M  V30 37041 H 3630.5 3.42941 1.92756 0
M  V30 37042 H 3632.52 3.86436 3.11258 0
M  V30 37043 N 3631.69 -0.193366 1.56409 0
M  V30 37044 C 3632.94 -0.91168 1.7992 0
M  V30 37045 C 3633.25 -1.84351 0.653761 0
M  V30 37046 O 3634.46 -2.60257 0.773217 0
M  V30 37047 C 3632.92 -1.67153 3.18729 0
M  V30 37048 C 3632.52 -0.784434 4.41079 0
M  V30 37049 C 3634.27 -2.37937 3.51548 0
M  V30 37050 C 3632.17 -1.54325 5.7091 0
M  V30 37051 H 3631.1 -0.344165 0.67087 0
M  V30 37052 H 3633.76 -0.164935 1.82757 0
M  V30 37053 H 3632.14 -2.46222 3.10146 0
M  V30 37054 H 3633.31 -0.032275 4.60789 0
M  V30 37055 H 3631.63 -0.187334 4.15978 0
M  V30 37056 H 3634.22 -2.95263 4.45785 0
M  V30 37057 H 3634.57 -3.12209 2.75375 0
M  V30 37058 H 3635.1 -1.65833 3.61586 0
M  V30 37059 H 3631.84 -0.843279 6.50053 0
M  V30 37060 H 3631.36 -2.26929 5.55214 0
M  V30 37061 H 3633.04 -2.09658 6.12089 0
M  V30 37062 N 3633.17 -1.50702 -0.461142 0
M  V30 37063 C 3634.12 -1.70291 -1.55787 0
M  V30 37064 C 3635.09 -0.544279 -1.56929 0
M  V30 37065 O 3636.27 -0.776 -1.74307 0
M  V30 37066 C 3633.41 -1.81217 -2.93691 0
M  V30 37067 C 3632.52 -3.08646 -3.02261 0
M  V30 37068 C 3631.66 -3.10307 -4.31141 0
M  V30 37069 C 3630.7 -4.32149 -4.3349 0
M  V30 37070 N 3629.84 -4.31494 -5.53857 0
M  V30 37071 H 3634.68 -2.63918 -1.38389 0
M  V30 37072 H 3632.21 -1.30818 -0.672677 0
M  V30 37073 H 3634.17 -1.85532 -3.73676 0
M  V30 37074 H 3632.8 -0.910204 -3.09702 0
M  V30 37075 H 3631.85 -3.13754 -2.15087 0
M  V30 37076 H 3633.16 -3.98607 -2.99857 0
M  V30 37077 H 3632.32 -3.13407 -5.19481 0
M  V30 37078 H 3631.06 -2.18194 -4.36168 0
M  V30 37079 H 3630.06 -4.29251 -3.43546 0
M  V30 37080 H 3631.29 -5.255 -4.30147 0
M  V30 37081 H 3629.23 -3.42239 -5.59651 0
M  V30 37082 H 3629.15 -5.15235 -5.53235 0
M  V30 37083 H 3630.42 -4.38754 -6.44295 0
M  V30 37084 N 3634.65 0.715001 -1.40447 0
M  V30 37085 C 3635.6 1.85042 -1.40934 0
M  V30 37086 C 3636.59 1.66903 -0.289775 0
M  V30 37087 O 3637.8 1.74001 -0.46084 0
M  V30 37088 H 3634.17 0.609446 -0.440545 0
M  V30 37089 H 3636.14 1.81747 -2.36665 0
M  V30 37090 C 3634.89 3.22909 -1.28938 0
M  V30 37091 H 3634.21 3.37473 -2.14365 0
M  V30 37092 H 3635.65 4.02489 -1.33338 0
M  V30 37093 C 3634.11 3.369 0.000320717 0
M  V30 37094 O 3634.64 3.89986 0.963025 0
M  V30 37095 N 3632.85 2.90516 0.0700139 0
M  V30 37096 H 3632.4 2.47503 -0.714132 0
M  V30 37097 H 3632.35 3.00256 0.932404 0
M  V30 37098 N 3636.13 1.25954 0.947281 0
M  V30 37099 C 3637.06 1.09471 2.06248 0
M  V30 37100 C 3638.04 0.00163488 1.701 0
M  V30 37101 O 3639.22 0.172535 1.93432 0
M  V30 37102 C 3636.35 0.720452 3.39745 0
M  V30 37103 C 3635.31 1.76458 3.89931 0
M  V30 37104 C 3634.63 1.24481 5.20008 0
M  V30 37105 C 3635.93 3.16488 4.15491 0
M  V30 37106 H 3637.63 2.02756 2.20296 0
M  V30 37107 H 3635.17 0.976238 1.05856 0
M  V30 37108 H 3637.12 0.592045 4.1722 0
M  V30 37109 H 3635.85 -0.248104 3.25656 0
M  V30 37110 H 3634.51 1.88155 3.14632 0
M  V30 37111 H 3634.16 0.26627 5.02295 0
M  V30 37112 H 3633.86 1.94273 5.54556 0
M  V30 37113 H 3635.38 1.12895 6.00073 0
M  V30 37114 H 3636.79 3.07903 4.836 0
M  V30 37115 H 3635.19 3.83816 4.61308 0
M  V30 37116 H 3636.26 3.63 3.21495 0
M  V30 37117 N 3637.6 -1.15097 1.07659 0
M  V30 37118 C 3638.51 -2.23559 0.711237 0
M  V30 37119 C 3639.53 -1.7175 -0.278901 0
M  V30 37120 O 3640.71 -2.01013 -0.124753 0
M  V30 37121 C 3637.77 -3.46499 0.117916 0
M  V30 37122 C 3636.83 -4.13283 1.16169 0
M  V30 37123 C 3636.07 -5.30355 0.596588 0
M  V30 37124 O 3636.29 -5.67378 -0.586375 0
M  V30 37125 O 3635.22 -5.86726 1.34298 0
M  V30 37126 H 3639.05 -2.57147 1.61583 0
M  V30 37127 H 3636.63 -1.2288 0.849752 0
M  V30 37128 H 3638.52 -4.20874 -0.210539 0
M  V30 37129 H 3637.19 -3.14653 -0.759952 0
M  V30 37130 H 3636.1 -3.40817 1.54255 0
M  V30 37131 H 3637.43 -4.49218 2.01157 0
M  V30 37132 N 3639.08 -0.861145 -1.31993 0
M  V30 37133 C 3640.33 -0.463902 -1.96293 0
M  V30 37134 C 3640.64 0.98701 -1.68871 0
M  V30 37135 O 3641.85 1.48999 -2.26962 0
M  V30 37136 C 3640.31 -0.778642 -3.51376 0
M  V30 37137 C 3639.91 -2.24572 -3.87649 0
M  V30 37138 C 3641.66 -0.449439 -4.22114 0
M  V30 37139 C 3639.57 -2.50334 -5.35805 0
M  V30 37140 H 3638.5 -0.169746 -0.734644 0
M  V30 37141 H 3641.15 -1.05283 -1.50292 0
M  V30 37142 H 3639.53 -0.119074 -3.95821 0
M  V30 37143 H 3640.7 -2.94762 -3.54192 0
M  V30 37144 H 3639.02 -2.54008 -3.29953 0
M  V30 37145 H 3641.61 -0.619254 -5.31102 0
M  V30 37146 H 3641.96 0.609456 -4.11815 0
M  V30 37147 H 3642.49 -1.06517 -3.83274 0
M  V30 37148 H 3639.23 -3.54872 -5.51131 0
M  V30 37149 H 3638.75 -1.84729 -5.70645 0
M  V30 37150 H 3640.43 -2.34613 -6.02964 0
M  V30 37151 N 3640.56 1.44905 -0.619713 0
M  V30 37152 C 3641.79 2.07025 -0.124635 0
M  V30 37153 C 3642.21 1.45921 1.18695 0
M  V30 37154 O 3641.57 0.556396 1.72551 0
M  V30 37155 C 3641.62 3.60598 -0.0112872 0
M  V30 37156 O 3640.72 3.99182 1.03575 0
M  V30 37157 H 3640.06 0.659215 -0.0795747 0
M  V30 37158 H 3642.59 1.85963 -0.85316 0
M  V30 37159 H 3642.6 4.07589 0.183008 0
M  V30 37160 H 3641.28 4.04456 -0.96892 0
M  V30 37161 H 3639.85 3.63841 0.816944 0
M  V30 37162 N 3642.04 0.359579 1.53443 0
M  V30 37163 C 3643.45 0.00827752 1.59598 0
M  V30 37164 C 3643.65 -1.473 1.37495 0
M  V30 37165 O 3642.71 -2.23382 1.17714 0
M  V30 37166 C 3644.02 0.458832 2.97179 0
M  V30 37167 C 3645.57 0.41254 3.10269 0
M  V30 37168 C 3646.05 0.838812 4.50253 0
M  V30 37169 N 3647.54 0.793632 4.5635 0
M  V30 37170 C 3648.27 1.09523 5.62843 0
M  V30 37171 N 3647.77 1.46579 6.77116 0
M  V30 37172 N 3649.56 1.01841 5.52797 0
M  V30 37173 H 3641.71 1.32427 1.66063 0
M  V30 37174 H 3643.98 0.54089 0.778551 0
M  V30 37175 H 3643.68 1.49226 3.18472 0
M  V30 37176 H 3643.56 -0.157675 3.7687 0
M  V30 37177 H 3645.94 -0.61174 2.8869 0
M  V30 37178 H 3646.02 1.06446 2.326 0
M  V30 37179 H 3645.67 1.86118 4.7257 0
M  V30 37180 H 3645.6 0.164201 5.26344 0
M  V30 37181 H 3648.09 0.520546 3.74298 0
M  V30 37182 H 3648.4 1.68034 7.54311 0
M  V30 37183 H 3646.75 1.50439 6.78523 0
M  V30 37184 H 3649.94 0.72814 4.62402 0
M  V30 37185 H 3650.11 1.25679 6.35695 0
M  V30 37186 N 3643.52 -1.57351 0.0885919 0
M  V30 37187 C 3644.74 -1.98872 -0.588606 0
M  V30 37188 C 3645.17 -0.967153 -1.61331 0
M  V30 37189 O 3644.52 0.0651831 -1.81183 0
M  V30 37190 C 3644.57 -3.39381 -1.21871 0
M  V30 37191 O 3643.68 -3.39959 -2.33456 0
M  V30 37192 H 3643.02 -0.646852 -0.149927 0
M  V30 37193 H 3645.55 -2.03908 0.168079 0
M  V30 37194 H 3645.56 -3.76934 -1.56157 0
M  V30 37195 H 3644.23 -4.13259 -0.467964 0
M  V30 37196 H 3642.81 -3.14195 -2.00838 0
M  V30 37197 N 3644.99 0.185069 -1.5651 0
M  V30 37198 C 3646.22 0.919828 -1.85329 0
M  V30 37199 C 3646.64 1.76423 -0.672325 0
M  V30 37200 O 3645.99 1.78938 0.358823 0
M  V30 37201 C 3646.05 1.80782 -3.1305 0
M  V30 37202 O 3645.77 0.997494 -4.26593 0
M  V30 37203 C 3647.27 2.65341 -3.55118 0
M  V30 37204 H 3644.49 0.267898 -0.6152 0
M  V30 37205 H 3647.03 0.189302 -2.03622 0
M  V30 37206 H 3645.19 2.49185 -2.96624 0
M  V30 37207 H 3645.6 1.60353 -4.99387 0
M  V30 37208 H 3647.07 3.23287 -4.47425 0
M  V30 37209 H 3647.55 3.39542 -2.78582 0
M  V30 37210 H 3648.16 2.02293 -3.74109 0
M  V30 37211 N 3646.47 1.50945 0.453144 0
M  V30 37212 C 3647.72 1.62829 1.20386 0
M  V30 37213 C 3648.05 0.337016 1.91558 0
M  V30 37214 O 3647.3 -0.67812 1.83576 0
M  V30 37215 C 3647.6 2.77084 2.25742 0
M  V30 37216 C 3647.27 4.16931 1.71696 0
M  V30 37217 C 3645.93 4.54979 1.56678 0
M  V30 37218 C 3648.28 5.04261 1.31795 0
M  V30 37219 C 3645.61 5.78079 1.0021 0
M  V30 37220 C 3647.96 6.27925 0.767627 0
M  V30 37221 C 3646.63 6.6476 0.604224 0
M  V30 37222 H 3645.9 0.595834 0.440525 0
M  V30 37223 H 3648.54 1.84933 0.497202 0
M  V30 37224 H 3646.85 2.49139 3.02386 0
M  V30 37225 H 3648.54 2.8348 2.8362 0
M  V30 37226 H 3645.13 3.86924 1.84357 0
M  V30 37227 H 3649.32 4.75485 1.42225 0
M  V30 37228 H 3644.57 6.05277 0.863122 0
M  V30 37229 H 3648.75 6.94945 0.449871 0
M  V30 37230 H 3646.38 7.60022 0.164529 0
M  V30 37231 N 3647.95 -0.707543 1.40825 0
M  V30 37232 C 3649.23 -1.4612 1.30032 0
M  V30 37233 C 3649.61 -2.10957 -0.0776502 0
M  V30 37234 O 3648.96 -2.00769 -1.09106 0
M  V30 37235 C 3649.17 -2.49038 2.44502 0
M  V30 37236 C 3650.51 -3.14637 2.85112 0
M  V30 37237 O 3651.54 -2.5936 2.44154 0
M  V30 37238 O 3650.4 -4.14727 3.55899 0
M  V30 37239 H 3647.49 -0.650163 0.511094 0
M  V30 37240 H 3650.04 -0.739035 1.52762 0
M  V30 37241 H 3648.81 -1.99699 3.36506 0
M  V30 37242 H 3648.43 -3.28779 2.23585 0
M  V30 37243 N 3649.43 -1.26454 -0.940588 0
M  V30 37244 C 3650.36 -1.10563 -2.05665 0
M  V30 37245 C 3651.34 -0.0106557 -1.70097 0
M  V30 37246 O 3652.52 -0.18279 -1.93338 0
M  V30 37247 C 3649.65 -0.738459 -3.39358 0
M  V30 37248 C 3648.61 -1.78524 -3.8899 0
M  V30 37249 C 3647.93 -1.27237 -5.19341 0
M  V30 37250 C 3649.23 -3.18687 -4.13806 0
M  V30 37251 H 3650.93 -2.03921 -2.19218 0
M  V30 37252 H 3648.47 -0.981838 -1.05337 0
M  V30 37253 H 3650.43 -0.614163 -4.169 0
M  V30 37254 H 3649.15 0.23083 -3.25783 0
M  V30 37255 H 3647.81 -1.89821 -3.13629 0
M  V30 37256 H 3647.46 -0.292904 -5.02146 0
M  V30 37257 H 3647.16 -1.97211 -5.53517 0
M  V30 37258 H 3648.68 -1.16075 -5.99465 0
M  V30 37259 H 3650.1 -3.10463 -4.8196 0
M  V30 37260 H 3648.49 -3.86257 -4.59266 0
M  V30 37261 H 3649.56 -3.647 -3.19565 0
M  V30 37262 N 3650.91 1.14525 -1.08268 0
M  V30 37263 C 3651.84 2.21696 -0.733007 0
M  V30 37264 C 3652.82 1.67714 0.283888 0
M  V30 37265 O 3654 1.93584 0.154573 0
M  V30 37266 C 3651.13 3.47018 -0.139996 0
M  V30 37267 C 3650.09 4.14017 -1.08508 0
M  V30 37268 C 3649.41 5.33525 -0.354357 0
M  V30 37269 C 3650.71 4.62716 -2.42262 0
M  V30 37270 H 3652.41 2.51202 -1.62905 0
M  V30 37271 H 3649.95 1.2074 -0.784717 0
M  V30 37272 H 3651.91 4.21239 0.116626 0
M  V30 37273 H 3650.63 3.16872 0.791173 0
M  V30 37274 H 3649.29 3.41749 -1.32678 0
M  V30 37275 H 3648.94 4.99638 0.58057 0
M  V30 37276 H 3648.64 5.79296 -0.984389 0
M  V30 37277 H 3650.16 6.10508 -0.105755 0
M  V30 37278 H 3651.57 5.28418 -2.22366 0
M  V30 37279 H 3649.97 5.19184 -3.00944 0
M  V30 37280 H 3651.04 3.77861 -3.0389 0
M  V30 37281 N 3652.39 0.868133 1.31534 0
M  V30 37282 C 3653.8 0.559805 1.4946 0
M  V30 37283 C 3654 -0.906494 1.79958 0
M  V30 37284 O 3653.06 -1.68878 1.87714 0
M  V30 37285 C 3654.37 1.45843 2.62964 0
M  V30 37286 C 3655.92 1.46028 2.76848 0
M  V30 37287 C 3656.39 2.34443 3.93447 0
M  V30 37288 N 3657.88 2.32313 4.0073 0
M  V30 37289 C 3658.62 2.97446 4.90218 0
M  V30 37290 N 3658.12 3.71741 5.8462 0
M  V30 37291 N 3659.91 2.86764 4.83449 0
M  V30 37292 H 3652.06 1.81693 1.10007 0
M  V30 37293 H 3654.32 0.776799 0.543404 0
M  V30 37294 H 3654.03 2.50172 2.47198 0
M  V30 37295 H 3653.9 1.15563 3.59061 0
M  V30 37296 H 3656.29 0.424578 2.9203 0
M  V30 37297 H 3656.37 1.80331 1.81424 0
M  V30 37298 H 3656.01 3.38088 3.79023 0
M  V30 37299 H 3655.94 1.97465 4.88175 0
M  V30 37300 H 3658.44 1.78309 3.33188 0
M  V30 37301 H 3658.75 4.18573 6.49628 0
M  V30 37302 H 3657.09 3.7585 5.84604 0
M  V30 37303 H 3660.28 2.28261 4.08674 0
M  V30 37304 H 3660.46 3.37804 5.52985 0
M  V30 37305 N 3653.86 -1.44574 0.627389 0
M  V30 37306 C 3654.81 -2.32418 -0.092008 0
M  V30 37307 C 3655.81 -1.47129 -0.839607 0
M  V30 37308 O 3657.01 -1.63496 -0.75293 0
M  V30 37309 H 3653.39 -0.750433 -0.0485204 0
M  V30 37310 H 3655.36 -2.9085 0.66701 0
M  V30 37311 C 3654.11 -3.31066 -1.06256 0
M  V30 37312 H 3653.43 -3.96702 -0.49673 0
M  V30 37313 H 3654.87 -3.9522 -1.53549 0
M  V30 37314 C 3653.33 -2.59711 -2.14597 0
M  V30 37315 O 3653.86 -2.39323 -3.22626 0
M  V30 37316 N 3652.06 -2.19513 -1.90427 0
M  V30 37317 H 3651.61 -2.36295 -1.02579 0
M  V30 37318 H 3651.57 -1.72096 -2.63116 0
M  V30 37319 N 3655.34 -0.367711 -1.5325 0
M  V30 37320 C 3656.57 0.224609 -2.0618 0
M  V30 37321 C 3656.99 1.41503 -1.23929 0
M  V30 37322 O 3656.35 1.79442 -0.25889 0
M  V30 37323 C 3656.4 0.594109 -3.55672 0
M  V30 37324 O 3655.5 1.69105 -3.76135 0
M  V30 37325 H 3654.84 0.0321982 -0.663219 0
M  V30 37326 H 3657.37 -0.528932 -1.97645 0
M  V30 37327 H 3657.38 0.864518 -3.98736 0
M  V30 37328 H 3656.06 -0.276327 -4.14981 0
M  V30 37329 H 3654.63 1.41603 -3.44968 0
M  V30 37330 N 3656.82 1.57302 -0.0969353 0
M  V30 37331 C 3658.05 1.98471 0.573837 0
M  V30 37332 C 3658.46 0.974923 1.62148 0
M  V30 37333 O 3657.8 -0.043455 1.83649 0
M  V30 37334 C 3657.86 3.36015 1.27804 0
M  V30 37335 C 3657.53 4.5541 0.380942 0
M  V30 37336 C 3658.52 5.1857 -0.371651 0
M  V30 37337 C 3656.21 5.01413 0.298461 0
M  V30 37338 C 3658.2 6.26104 -1.19468 0
M  V30 37339 C 3655.89 6.08813 -0.528223 0
M  V30 37340 C 3656.89 6.71023 -1.27344 0
M  V30 37341 O 3656.58 7.76352 -2.08644 0
M  V30 37342 H 3656.31 0.65719 0.158358 0
M  V30 37343 H 3658.86 2.04666 -0.173451 0
M  V30 37344 H 3657.09 3.26508 2.07194 0
M  V30 37345 H 3658.78 3.6162 1.84353 0
M  V30 37346 H 3659.55 4.83959 -0.317671 0
M  V30 37347 H 3655.43 4.52751 0.868167 0
M  V30 37348 H 3658.97 6.74592 -1.77685 0
M  V30 37349 H 3654.87 6.42856 -0.583676 0
M  V30 37350 H 3655.63 7.93348 -2.01347 0
M  V30 37351 N 3658.3 -0.176766 1.56606 0
M  V30 37352 C 3659.55 -0.892503 1.81325 0
M  V30 37353 C 3659.87 -1.83017 0.673043 0
M  V30 37354 O 3659.14 -1.93472 -0.307464 0
M  V30 37355 H 3657.72 -0.332564 0.668887 0
M  V30 37356 H 3660.38 -0.177886 1.94087 0
M  V30 37357 H 3659.47 -1.47267 2.75171 0
M  V30 37358 N 3659.78 -1.51183 -0.445132 0
M  V30 37359 C 3661.02 -1.63708 -1.19698 0
M  V30 37360 C 3661.35 -0.348545 -1.91047 0
M  V30 37361 O 3660.63 0.651465 -1.83265 0
M  V30 37362 C 3660.91 -2.83515 -2.22016 0
M  V30 37363 C 3660.77 -4.22323 -1.54802 0
M  V30 37364 C 3662.08 -2.98846 -3.23078 0
M  V30 37365 H 3659.2 -0.595802 -0.433807 0
M  V30 37366 H 3661.85 -1.83646 -0.487244 0
M  V30 37367 H 3660 -2.66646 -2.82546 0
M  V30 37368 H 3661.67 -4.50842 -0.976695 0
M  V30 37369 H 3659.91 -4.25381 -0.850521 0
M  V30 37370 H 3660.58 -5.0213 -2.2928 0
M  V30 37371 H 3663.06 -3.14374 -2.72595 0
M  V30 37372 H 3661.93 -3.84253 -3.91971 0
M  V30 37373 H 3662.19 -2.10577 -3.88728 0
M  V30 37374 N 3661.25 0.700065 -1.41198 0
M  V30 37375 C 3662.67 1.0101 -1.23568 0
M  V30 37376 C 3662.87 2.01131 -0.121856 0
M  V30 37377 O 3661.93 2.47188 0.515215 0
M  V30 37378 C 3663.24 1.539 -2.58332 0
M  V30 37379 C 3664.79 1.65806 -2.65476 0
M  V30 37380 C 3665.26 2.22099 -4.00545 0
M  V30 37381 N 3666.75 2.29465 -4.02368 0
M  V30 37382 C 3667.49 2.74039 -5.03677 0
M  V30 37383 N 3666.98 3.18251 -6.15376 0
M  V30 37384 N 3668.78 2.73563 -4.9104 0
M  V30 37385 H 3660.93 0.0367115 -2.12368 0
M  V30 37386 H 3663.19 0.0788629 -0.944714 0
M  V30 37387 H 3662.9 0.877904 -3.40567 0
M  V30 37388 H 3662.77 2.52185 -2.80504 0
M  V30 37389 H 3665.16 2.31029 -1.83602 0
M  V30 37390 H 3665.24 0.660788 -2.47118 0
M  V30 37391 H 3664.88 1.57493 -4.82865 0
M  V30 37392 H 3664.81 3.2257 -4.16241 0
M  V30 37393 H 3667.3 1.98259 -3.21717 0
M  V30 37394 H 3667.62 3.50876 -6.88554 0
M  V30 37395 H 3665.96 3.16171 -6.18919 0
M  V30 37396 H 3669.15 2.38369 -4.02862 0
M  V30 37397 H 3669.33 3.07983 -5.70132 0
M  V30 37398 N 3662.73 1.26951 0.933869 0
M  V30 37399 C 3663.68 1.09143 2.03363 0
M  V30 37400 C 3664.65 -0.0057011 1.66099 0
M  V30 37401 O 3665.83 0.155459 1.90166 0
M  V30 37402 C 3662.97 0.738176 3.37113 0
M  V30 37403 C 3662.09 1.91231 3.87369 0
M  V30 37404 C 3661.22 1.5015 5.09538 0
M  V30 37405 C 3660.26 2.64349 5.52074 0
M  V30 37406 N 3659.4 2.23899 6.65442 0
M  V30 37407 H 3664.24 2.03252 2.17928 0
M  V30 37408 H 3661.77 1.01188 1.06768 0
M  V30 37409 H 3663.73 0.514213 4.14019 0
M  V30 37410 H 3662.36 -0.16595 3.22373 0
M  V30 37411 H 3661.41 2.24899 3.06797 0
M  V30 37412 H 3662.73 2.76919 4.1487 0
M  V30 37413 H 3661.88 1.23841 5.93926 0
M  V30 37414 H 3660.62 0.615624 4.83799 0
M  V30 37415 H 3659.62 2.91379 4.66239 0
M  V30 37416 H 3660.85 3.53548 5.79811 0
M  V30 37417 H 3658.8 1.37755 6.41373 0
M  V30 37418 H 3658.71 3.03128 6.92567 0
M  V30 37419 H 3659.98 2.00822 7.53187 0
M  V30 37420 N 3664.21 -1.13949 1.08873 0
M  V30 37421 C 3665.46 -1.84731 0.819697 0
M  V30 37422 C 3665.78 -1.83617 -0.656502 0
M  V30 37423 O 3665.05 -1.28793 -1.47611 0
M  V30 37424 H 3663.63 -0.684006 0.300242 0
M  V30 37425 H 3666.29 -1.38059 1.3757 0
M  V30 37426 H 3665.39 -2.89415 1.16814 0
M  V30 37427 N 3665.69 -0.875096 -1.31072 0
M  V30 37428 C 3666.93 -0.495151 -1.98312 0
M  V30 37429 C 3667.29 0.93616 -1.67631 0
M  V30 37430 O 3668.49 1.42172 -2.28124 0
M  V30 37431 C 3666.76 -0.750908 -3.49423 0
M  V30 37432 S 3668.32 -0.471589 -4.36259 0
M  V30 37433 H 3665.14 -0.184625 -0.686611 0
M  V30 37434 H 3667.74 -1.13223 -1.59376 0
M  V30 37435 H 3666.45 -1.79131 -3.69243 0
M  V30 37436 H 3665.98 -0.101015 -3.9327 0
M  V30 37437 H 3667.99 0.693984 -4.91323 0
M  V30 37438 N 3667.17 1.44239 -0.635047 0
M  V30 37439 C 3668.1 2.33437 0.054315 0
M  V30 37440 C 3669.08 1.48432 0.83078 0
M  V30 37441 O 3670.26 1.77142 0.795882 0
M  V30 37442 C 3667.39 3.31555 1.03385 0
M  V30 37443 C 3666.35 4.26409 0.368749 0
M  V30 37444 C 3665.67 5.14425 1.45846 0
M  V30 37445 C 3666.97 5.17209 -0.727472 0
M  V30 37446 H 3668.67 2.91328 -0.69054 0
M  V30 37447 H 3666.21 1.40084 -0.333524 0
M  V30 37448 H 3668.17 3.92843 1.52488 0
M  V30 37449 H 3666.89 2.71881 1.80964 0
M  V30 37450 H 3665.55 3.66459 -0.10167 0
M  V30 37451 H 3665.2 4.51102 2.22523 0
M  V30 37452 H 3664.9 5.78701 1.0188 0
M  V30 37453 H 3666.42 5.78584 1.95122 0
M  V30 37454 H 3667.83 5.7241 -0.319373 0
M  V30 37455 H 3666.23 5.90108 -1.09051 0
M  V30 37456 H 3667.3 4.57987 -1.593 0
M  V30 37457 N 3668.64 0.375833 1.53053 0
M  V30 37458 C 3669.57 -0.457499 2.28974 0
M  V30 37459 C 3670.56 -1.07513 1.31814 0
M  V30 37460 O 3671.74 -1.09045 1.60695 0
M  V30 37461 C 3668.87 -1.59206 3.08659 0
M  V30 37462 C 3667.82 -1.10116 4.13592 0
M  V30 37463 C 3667.15 -2.32676 4.81421 0
M  V30 37464 C 3668.45 -0.178628 5.21994 0
M  V30 37465 H 3670.14 0.175925 2.98883 0
M  V30 37466 H 3667.69 0.0860506 1.43743 0
M  V30 37467 H 3669.64 -2.18176 3.60524 0
M  V30 37468 H 3668.37 -2.25287 2.3646 0
M  V30 37469 H 3667.03 -0.534087 3.62689 0
M  V30 37470 H 3666.67 -2.97236 4.05783 0
M  V30 37471 H 3666.37 -2.00497 5.52336 0
M  V30 37472 H 3667.9 -2.92312 5.36084 0
M  V30 37473 H 3669.31 -0.676104 5.69299 0
M  V30 37474 H 3667.71 0.052766 6.00077 0
M  V30 37475 H 3668.78 0.77633 4.78645 0
M  V30 37476 N 3670.12 -1.57248 0.105276 0
M  V30 37477 C 3671.03 -2.18112 -0.863968 0
M  V30 37478 C 3672.05 -1.15339 -1.3028 0
M  V30 37479 O 3673.22 -1.47753 -1.36862 0
M  V30 37480 C 3670.29 -2.75761 -2.10136 0
M  V30 37481 C 3669.35 -3.93523 -1.71576 0
M  V30 37482 C 3668.58 -4.48413 -2.89416 0
M  V30 37483 O 3668.81 -4.02222 -4.04442 0
M  V30 37484 O 3667.74 -5.39294 -2.67294 0
M  V30 37485 H 3671.57 -3.01362 -0.376078 0
M  V30 37486 H 3669.15 -1.4892 -0.119617 0
M  V30 37487 H 3671.03 -3.12565 -2.82633 0
M  V30 37488 H 3669.71 -1.9555 -2.57957 0
M  V30 37489 H 3668.62 -3.61512 -0.962283 0
M  V30 37490 H 3669.95 -4.75128 -1.28508 0
M  V30 37491 N 3671.6 0.168458 -1.56697 0
M  V30 37492 C 3673.01 0.730644 -1.71809 0
M  V30 37493 C 3673.36 1.82659 -0.716256 0
M  V30 37494 O 3672.49 2.16057 0.121765 0
M  V30 37495 C 3673.08 1.33211 -3.11513 0
M  V30 37496 C 3671.64 1.84109 -3.283 0
M  V30 37497 C 3670.79 0.721173 -2.67758 0
M  V30 37498 H 3673.74 -0.05697 -1.58598 0
M  V30 37499 H 3673.76 2.20183 -3.10322 0
M  V30 37500 H 3673.27 0.534242 -3.84405 0
M  V30 37501 H 3671.37 2.66531 -2.60368 0
M  V30 37502 H 3671.49 1.98457 -4.36064 0
M  V30 37503 H 3669.85 1.14235 -2.27646 0
M  V30 37504 H 3670.63 -0.0648992 -3.43239 0
M  V30 37505 N 3673.08 1.51417 0.437109 0
M  V30 37506 C 3674.33 1.6333 1.18347 0
M  V30 37507 C 3674.64 0.355489 1.92343 0
M  V30 37508 O 3675.85 0.353998 2.69182 0
M  V30 37509 C 3674.3 2.88451 2.1523 0
M  V30 37510 C 3673.91 4.23237 1.46882 0
M  V30 37511 C 3675.65 3.09721 2.90298 0
M  V30 37512 C 3673.56 5.39508 2.4225 0
M  V30 37513 H 3672.49 0.608346 0.445456 0
M  V30 37514 H 3675.14 1.77884 0.450497 0
M  V30 37515 H 3673.52 2.67532 2.91964 0
M  V30 37516 H 3674.7 4.54539 0.757048 0
M  V30 37517 H 3673.01 4.07847 0.839654 0
M  V30 37518 H 3675.61 3.93762 3.6174 0
M  V30 37519 H 3675.95 2.22809 3.51656 0
M  V30 37520 H 3676.49 3.30982 2.20671 0
M  V30 37521 H 3673.23 6.28681 1.8558 0
M  V30 37522 H 3672.75 5.12582 3.11479 0
M  V30 37523 H 3674.42 5.71466 3.03374 0
M  V30 37524 N 3674.56 -0.692567 1.41567 0
M  V30 37525 C 3675.97 -1.00353 1.24102 0
M  V30 37526 C 3676.17 -2.01064 0.132521 0
M  V30 37527 O 3675.23 -2.47458 -0.502099 0
M  V30 37528 C 3676.54 -1.52528 2.59144 0
M  V30 37529 C 3678.09 -1.64396 2.66351 0
M  V30 37530 C 3678.56 -2.19971 4.01717 0
M  V30 37531 N 3680.06 -2.27328 4.03579 0
M  V30 37532 C 3680.79 -2.71364 5.05123 0
M  V30 37533 N 3680.29 -3.14983 6.17056 0
M  V30 37534 N 3682.08 -2.70955 4.92483 0
M  V30 37535 H 3674.23 -0.0254486 2.12385 0
M  V30 37536 H 3676.49 -0.0738518 0.945119 0
M  V30 37537 H 3676.2 -0.85983 3.41028 0
M  V30 37538 H 3676.07 -2.50694 2.81838 0
M  V30 37539 H 3678.46 -2.30052 1.84825 0
M  V30 37540 H 3678.54 -0.647673 2.47465 0
M  V30 37541 H 3678.19 -1.5493 4.83693 0
M  V30 37542 H 3678.12 -3.20358 4.17945 0
M  V30 37543 H 3680.61 -1.9655 3.22764 0
M  V30 37544 H 3680.92 -3.47219 6.90405 0
M  V30 37545 H 3679.26 -3.12884 6.20587 0
M  V30 37546 H 3682.46 -2.36229 4.04121 0
M  V30 37547 H 3682.63 -3.04955 5.71757 0
M  V30 37548 N 3676.03 -1.27445 -0.927123 0
M  V30 37549 C 3677.26 -1.16742 -1.71424 0
M  V30 37550 C 3677.68 0.27203 -1.86123 0
M  V30 37551 O 3677.04 1.197 -1.36167 0
M  V30 37552 C 3677.09 -1.85667 -3.09128 0
M  V30 37553 O 3676.19 -1.15502 -3.95895 0
M  V30 37554 H 3675.54 -0.405992 -0.52542 0
M  V30 37555 H 3678.07 -1.68525 -1.16019 0
M  V30 37556 H 3678.08 -1.93048 -3.59439 0
M  V30 37557 H 3676.75 -2.90379 -2.97747 0
M  V30 37558 H 3675.33 -1.16194 -3.54335 0
M  V30 37559 N 3677.51 1.1337 -1.09476 0
M  V30 37560 C 3678.76 1.84932 -0.832355 0
M  V30 37561 C 3679.09 1.83336 0.640437 0
M  V30 37562 O 3678.37 1.27183 1.47156 0
M  V30 37563 C 3678.65 3.3307 -1.36882 0
M  V30 37564 C 3678.5 3.43176 -2.90775 0
M  V30 37565 C 3679.82 4.28518 -1.00302 0
M  V30 37566 H 3676.94 0.671458 -0.303832 0
M  V30 37567 H 3679.58 1.33064 -1.35624 0
M  V30 37568 H 3677.73 3.77372 -0.9232 0
M  V30 37569 H 3679.4 3.07582 -3.43789 0
M  V30 37570 H 3677.65 2.84036 -3.27881 0
M  V30 37571 H 3678.32 4.47352 -3.23389 0
M  V30 37572 H 3680.79 3.9229 -1.38735 0
M  V30 37573 H 3679.67 5.30603 -1.40542 0
M  V30 37574 H 3679.93 4.42011 0.0887356 0
M  V30 37575 N 3678.99 0.882035 1.30606 0
M  V30 37576 C 3680.22 0.513083 2.00953 0
M  V30 37577 C 3680.64 -0.89025 1.65699 0
M  V30 37578 O 3680 -1.58951 0.872029 0
M  V30 37579 C 3680.05 0.691587 3.53906 0
M  V30 37580 O 3679.15 -0.263823 4.11555 0
M  V30 37581 H 3678.49 0.202549 0.632353 0
M  V30 37582 H 3681.02 1.18877 1.66521 0
M  V30 37583 H 3681.03 0.589463 4.03719 0
M  V30 37584 H 3679.71 1.71478 3.78904 0
M  V30 37585 H 3678.28 -0.115642 3.72721 0
M  V30 37586 N 3680.47 -1.439 0.642688 0
M  V30 37587 C 3681.72 -2.0193 0.151813 0
M  V30 37588 C 3682.04 -1.50629 -1.23049 0
M  V30 37589 O 3681.3 -0.685436 -1.83304 0
M  V30 37590 C 3681.6 -3.5726 0.100202 0
M  V30 37591 C 3681.26 -4.27863 1.42283 0
M  V30 37592 C 3679.93 -4.46866 1.78505 0
M  V30 37593 C 3682.28 -4.67935 2.29534 0
M  V30 37594 C 3679.61 -5.03206 3.01664 0
M  V30 37595 C 3681.96 -5.25639 3.51975 0
M  V30 37596 C 3680.62 -5.4286 3.88406 0
M  V30 37597 H 3679.89 -0.738915 0.0555524 0
M  V30 37598 H 3682.54 -1.72516 0.831303 0
M  V30 37599 H 3680.84 -3.86155 -0.662702 0
M  V30 37600 H 3682.54 -3.99904 -0.29631 0
M  V30 37601 H 3679.13 -4.13409 1.13098 0
M  V30 37602 H 3683.31 -4.52955 2.02843 0
M  V30 37603 H 3678.57 -5.14725 3.29952 0
M  V30 37604 H 3682.74 -5.55638 4.19809 0
M  V30 37605 H 3680.37 -5.86282 4.83919 0
M  V30 37606 N 3681.95 -0.383945 -1.52852 0
M  V30 37607 C 3682.88 0.44535 -2.29214 0
M  V30 37608 C 3683.86 1.06813 -1.32382 0
M  V30 37609 O 3685.04 1.08191 -1.61271 0
M  V30 37610 C 3682.17 1.57567 -3.09499 0
M  V30 37611 C 3681.13 1.07921 -4.1417 0
M  V30 37612 C 3680.45 2.30119 -4.82648 0
M  V30 37613 C 3681.75 0.150943 -5.22082 0
M  V30 37614 H 3683.45 -0.191773 -2.98785 0
M  V30 37615 H 3680.99 -0.0936724 -1.43695 0
M  V30 37616 H 3682.95 2.16261 -3.61676 0
M  V30 37617 H 3681.67 2.2403 -2.37651 0
M  V30 37618 H 3680.33 0.514846 -3.62967 0
M  V30 37619 H 3679.98 2.9508 -4.07353 0
M  V30 37620 H 3679.68 1.97565 -5.53391 0
M  V30 37621 H 3681.2 2.89465 -5.37627 0
M  V30 37622 H 3682.62 0.645903 -5.6965 0
M  V30 37623 H 3681.01 -0.0845887 -6.0004 0
M  V30 37624 H 3682.08 -0.801703 -4.78227 0
M  V30 37625 N 3683.43 1.5719 -0.113614 0
M  V30 37626 C 3684.37 2.15027 0.838582 0
M  V30 37627 C 3685.34 1.07379 1.26724 0
M  V30 37628 O 3686.53 1.3526 1.34571 0
M  V30 37629 C 3683.67 2.74969 2.08533 0
M  V30 37630 C 3682.78 3.96908 1.70553 0
M  V30 37631 C 3681.92 4.44955 2.90153 0
M  V30 37632 C 3680.95 5.59438 2.48387 0
M  V30 37633 N 3680.09 6.02252 3.60883 0
M  V30 37634 H 3684.93 2.96071 0.338533 0
M  V30 37635 H 3682.47 1.46277 0.155411 0
M  V30 37636 H 3684.43 3.07851 2.81574 0
M  V30 37637 H 3683.06 1.96624 2.56006 0
M  V30 37638 H 3682.11 3.70222 0.874068 0
M  V30 37639 H 3683.42 4.79943 1.35854 0
M  V30 37640 H 3682.57 4.79717 3.71425 0
M  V30 37641 H 3681.31 3.60858 3.28074 0
M  V30 37642 H 3680.32 5.24285 1.65546 0
M  V30 37643 H 3681.54 6.45296 2.11589 0
M  V30 37644 H 3679.49 5.21098 3.98488 0
M  V30 37645 H 3679.41 6.80129 3.30091 0
M  V30 37646 H 3680.67 6.41651 4.42611 0
M  V30 37647 N 3684.9 -0.160146 1.56784 0
M  V30 37648 C 3686.15 -0.873221 1.82262 0
M  V30 37649 C 3686.47 -1.82293 0.692416 0
M  V30 37650 O 3685.74 -1.93787 -0.286927 0
M  V30 37651 H 3684.32 -0.325451 0.672377 0
M  V30 37652 H 3686.98 -0.157291 1.94264 0
M  V30 37653 H 3686.08 -1.4434 2.76717 0
M  V30 37654 N 3686.38 -1.51647 -0.429072 0
M  V30 37655 C 3687.63 -1.64399 -1.17548 0
M  V30 37656 C 3687.95 -0.366478 -1.91525 0
M  V30 37657 O 3687.22 0.617981 -1.85897 0
M  V30 37658 H 3685.8 -0.605905 -0.436907 0
M  V30 37659 H 3688.46 -1.88611 -0.491126 0
M  V30 37660 H 3687.56 -2.47561 -1.90053 0
M  V30 37661 N 3687.86 0.685049 -1.41932 0
M  V30 37662 C 3689.09 1.47148 -1.45021 0
M  V30 37663 C 3689.5 1.89114 -0.0569744 0
M  V30 37664 O 3688.84 1.58042 0.936392 0
M  V30 37665 C 3688.9 2.75858 -2.30527 0
M  V30 37666 C 3688.57 2.56031 -3.78546 0
M  V30 37667 C 3689.56 2.21295 -4.70452 0
M  V30 37668 C 3687.25 2.71344 -4.22703 0
M  V30 37669 C 3689.24 2.02125 -6.04503 0
M  V30 37670 C 3686.93 2.5179 -5.56817 0
M  V30 37671 C 3687.93 2.17232 -6.47533 0
M  V30 37672 O 3687.62 1.97859 -7.79171 0
M  V30 37673 H 3687.35 0.459638 -0.49569 0
M  V30 37674 H 3689.9 0.850047 -1.86985 0
M  V30 37675 H 3688.13 3.40446 -1.83394 0
M  V30 37676 H 3689.82 3.37703 -2.25192 0
M  V30 37677 H 3690.59 2.09069 -4.37624 0
M  V30 37678 H 3686.47 2.97224 -3.52391 0
M  V30 37679 H 3690.01 1.75074 -6.75274 0
M  V30 37680 H 3685.91 2.63609 -5.8922 0
M  V30 37681 H 3686.67 2.12538 -7.90424 0
M  V30 37682 N 3689.34 1.27935 0.920351 0
M  V30 37683 C 3690.59 1.14084 1.66336 0
M  V30 37684 C 3690.9 -0.31129 1.93107 0
M  V30 37685 O 3692.11 -0.570816 2.65432 0
M  V30 37686 C 3690.56 1.99388 2.9962 0
M  V30 37687 C 3690.17 3.49302 2.80521 0
M  V30 37688 C 3691.91 1.94206 3.77471 0
M  V30 37689 C 3689.82 4.2678 4.09405 0
M  V30 37690 H 3688.75 0.423357 0.623927 0
M  V30 37691 H 3691.4 1.52414 1.02187 0
M  V30 37692 H 3689.78 1.53908 3.64867 0
M  V30 37693 H 3690.96 4.02694 2.23995 0
M  V30 37694 H 3689.27 3.55941 2.16091 0
M  V30 37695 H 3691.87 2.49364 4.72992 0
M  V30 37696 H 3692.21 0.917321 4.06068 0
M  V30 37697 H 3692.75 2.3762 3.19032 0
M  V30 37698 H 3689.48 5.29808 3.85984 0
M  V30 37699 H 3689 3.78163 4.65567 0
M  V30 37700 H 3690.68 4.36348 4.77713 0
M  V30 37701 N 3690.82 -1.12788 1.10076 0
M  V30 37702 C 3691.73 -2.22 0.758497 0
M  V30 37703 C 3692.74 -1.72303 -0.242408 0
M  V30 37704 O 3693.92 -2.01233 -0.082087 0
M  V30 37705 C 3690.98 -3.46171 0.191387 0
M  V30 37706 C 3690.04 -4.10726 1.24909 0
M  V30 37707 C 3689.28 -5.2897 0.70895 0
M  V30 37708 O 3689.5 -5.68494 -0.465893 0
M  V30 37709 O 3688.43 -5.83746 1.46713 0
M  V30 37710 H 3692.26 -2.53662 1.67001 0
M  V30 37711 H 3689.84 -1.2105 0.875626 0
M  V30 37712 H 3691.73 -4.21226 -0.121218 0
M  V30 37713 H 3690.4 -3.16194 -0.693039 0
M  V30 37714 H 3689.31 -3.37468 1.6145 0
M  V30 37715 H 3690.64 -4.4485 2.1064 0
M  V30 37716 N 3692.29 -0.888949 -1.30136 0
M  V30 37717 C 3693.22 -0.374974 -2.3047 0
M  V30 37718 C 3694.2 0.544294 -1.61157 0
M  V30 37719 O 3695.39 0.457304 -1.88739 0
M  V30 37720 C 3692.52 0.407874 -3.44897 0
M  V30 37721 C 3691.47 -0.419991 -4.25934 0
M  V30 37722 C 3690.8 0.489703 -5.32453 0
M  V30 37723 C 3692.1 -1.66422 -4.95077 0
M  V30 37724 H 3693.79 -1.21341 -2.73709 0
M  V30 37725 H 3691.34 -0.584922 -1.31585 0
M  V30 37726 H 3693.29 0.778104 -4.14154 0
M  V30 37727 H 3692.02 1.28 -3.00472 0
M  V30 37728 H 3690.68 -0.772411 -3.5837 0
M  V30 37729 H 3690.32 1.35965 -4.84275 0
M  V30 37730 H 3690.02 -0.0604445 -5.87569 0
M  V30 37731 H 3691.55 0.856362 -6.04565 0
M  V30 37732 H 3692.96 -1.36435 -5.56829 0
M  V30 37733 H 3691.36 -2.15487 -5.60076 0
M  V30 37734 H 3692.43 -2.40637 -4.20977 0
M  V30 37735 N 3693.77 1.43557 -0.65031 0
M  V30 37736 C 3695.18 1.85116 -0.242662 0
M  V30 37737 C 3695.53 1.54435 1.21014 0
M  V30 37738 O 3694.66 0.991873 1.9233 0
M  V30 37739 C 3695.25 3.36013 -0.433634 0
M  V30 37740 C 3693.81 3.76314 -0.0803296 0
M  V30 37741 C 3692.96 2.67302 -0.737891 0
M  V30 37742 H 3695.91 1.33751 -0.854181 0
M  V30 37743 H 3695.93 3.79137 0.321735 0
M  V30 37744 H 3695.44 3.58313 -1.49109 0
M  V30 37745 H 3693.54 3.59627 0.97464 0
M  V30 37746 H 3693.66 4.76444 -0.503766 0
M  V30 37747 H 3692.02 2.54123 -0.171393 0
M  V30 37748 H 3692.8 2.9243 -1.79831 0
M  V30 37749 N 3695.25 0.392045 1.52646 0
M  V30 37750 C 3696.66 -0.0813763 1.86523 0
M  V30 37751 C 3697.01 -1.45916 1.31161 0
M  V30 37752 O 3696.14 -2.06594 0.644044 0
M  V30 37753 C 3696.73 -0.154441 3.38448 0
M  V30 37754 C 3695.29 -0.572162 3.72026 0
M  V30 37755 C 3694.44 0.264142 2.76039 0
M  V30 37756 H 3697.39 0.609811 1.46516 0
M  V30 37757 H 3697.41 -0.973044 3.67848 0
M  V30 37758 H 3696.92 0.848462 3.78712 0
M  V30 37759 H 3695.02 -1.58233 3.37332 0
M  V30 37760 H 3695.14 -0.328407 4.77973 0
M  V30 37761 H 3693.5 -0.270998 2.53254 0
M  V30 37762 H 3694.28 1.26508 3.19141 0
M  V30 37763 N 3696.73 -1.57127 0.121948 0
M  V30 37764 C 3697.68 -2.15468 -0.827167 0
M  V30 37765 C 3698.65 -1.08049 -1.26153 0
M  V30 37766 O 3699.83 -1.35971 -1.33852 0
M  V30 37767 C 3696.97 -2.76071 -2.07072 0
M  V30 37768 C 3696.08 -3.97807 -1.68445 0
M  V30 37769 C 3695.22 -4.46487 -2.87789 0
M  V30 37770 C 3694.26 -5.60747 -2.45416 0
M  V30 37771 N 3693.39 -6.04158 -3.57684 0
M  V30 37772 H 3698.23 -2.96246 -0.322827 0
M  V30 37773 H 3695.77 -1.46357 -0.147651 0
M  V30 37774 H 3697.73 -3.0934 -2.79937 0
M  V30 37775 H 3696.36 -1.97978 -2.5496 0
M  V30 37776 H 3695.41 -3.7068 -0.854422 0
M  V30 37777 H 3696.72 -4.80656 -1.33307 0
M  V30 37778 H 3695.88 -4.8168 -3.68876 0
M  V30 37779 H 3694.62 -3.62593 -3.26156 0
M  V30 37780 H 3693.62 -5.25156 -1.62763 0
M  V30 37781 H 3694.85 -6.46409 -2.08164 0
M  V30 37782 H 3692.79 -5.23204 -3.95719 0
M  V30 37783 H 3692.71 -6.8187 -3.26479 0
M  V30 37784 H 3693.98 -6.43989 -4.39202 0
M  V30 37785 N 3698.21 0.151829 -1.56867 0
M  V30 37786 C 3699.43 0.884314 -1.87602 0
M  V30 37787 C 3699.86 1.74167 -0.710449 0
M  V30 37788 O 3699.21 1.78082 0.340071 0
M  V30 37789 C 3699.26 1.72085 -3.1689 0
M  V30 37790 O 3698.37 2.82459 -3.00484 0
M  V30 37791 H 3697.71 0.246592 -0.616513 0
M  V30 37792 H 3700.24 0.144099 -2.04092 0
M  V30 37793 H 3700.25 2.11685 -3.48789 0
M  V30 37794 H 3698.92 1.09124 -4.01329 0
M  V30 37795 H 3697.5 2.46301 -2.79982 0
M  V30 37796 N 3699.68 1.51872 0.421024 0
M  V30 37797 C 3700.61 1.77316 1.51925 0
M  V30 37798 C 3701.6 0.623607 1.58257 0
M  V30 37799 O 3702.78 0.867998 1.73722 0
M  V30 37800 C 3699.91 1.91305 2.89861 0
M  V30 37801 C 3698.86 3.06839 2.98385 0
M  V30 37802 C 3698.19 3.06034 4.3846 0
M  V30 37803 C 3699.49 4.46516 2.70962 0
M  V30 37804 H 3701.18 2.69276 1.30884 0
M  V30 37805 H 3698.73 1.29575 0.628206 0
M  V30 37806 H 3700.68 2.07688 3.66666 0
M  V30 37807 H 3699.41 0.960066 3.1217 0
M  V30 37808 H 3698.07 2.90188 2.24024 0
M  V30 37809 H 3697.71 2.0848 4.57761 0
M  V30 37810 H 3697.41 3.83625 4.4509 0
M  V30 37811 H 3698.94 3.24531 5.17216 0
M  V30 37812 H 3700.35 4.63434 3.37493 0
M  V30 37813 H 3698.75 5.25936 2.88983 0
M  V30 37814 H 3699.82 4.5543 1.66468 0
M  V30 37815 N 3701.16 -0.677513 1.42294 0
M  V30 37816 C 3702.39 -1.4709 1.46217 0
M  V30 37817 C 3702.81 -1.87954 0.074132 0
M  V30 37818 O 3702.17 -1.55821 -0.926803 0
M  V30 37819 C 3702.22 -2.69808 2.3924 0
M  V30 37820 O 3701.32 -3.67977 1.8619 0
M  V30 37821 H 3700.66 -0.441997 0.495515 0
M  V30 37822 H 3703.19 -0.831241 1.86953 0
M  V30 37823 H 3703.2 -3.1791 2.55729 0
M  V30 37824 H 3701.88 -2.39405 3.40086 0
M  V30 37825 H 3700.46 -3.26996 1.79243 0
M  V30 37826 N 3702.64 -1.28421 -0.913554 0
M  V30 37827 C 3704.05 -1.14097 -1.4778 0
M  V30 37828 C 3704.4 0.26897 -1.94348 0
M  V30 37829 O 3703.53 1.16325 -1.82476 0
M  V30 37830 C 3704.12 -2.06511 -2.68586 0
M  V30 37831 C 3702.68 -1.96251 -3.21189 0
M  V30 37832 C 3701.83 -1.98241 -1.93896 0
M  V30 37833 H 3704.78 -1.41108 -0.726246 0
M  V30 37834 H 3704.8 -1.62922 -3.43855 0
M  V30 37835 H 3704.31 -3.0912 -2.34662 0
M  V30 37836 H 3702.41 -0.9668 -3.59838 0
M  V30 37837 H 3702.53 -2.83217 -3.86426 0
M  V30 37838 H 3700.89 -1.42651 -2.11004 0
M  V30 37839 H 3701.67 -3.02529 -1.62268 0
M  V30 37840 N 3704.12 1.12202 -1.10672 0
M  V30 37841 C 3705.03 2.21595 -0.770259 0
M  V30 37842 C 3706.04 1.72429 0.233267 0
M  V30 37843 O 3707.22 2.01273 0.071414 0
M  V30 37844 C 3704.29 3.46065 -0.209743 0
M  V30 37845 C 3703.35 4.10058 -1.27086 0
M  V30 37846 C 3702.58 5.28587 -0.736992 0
M  V30 37847 O 3702.8 5.68733 0.435738 0
M  V30 37848 O 3701.74 5.82959 -1.49807 0
M  V30 37849 H 3705.56 2.52773 -1.68344 0
M  V30 37850 H 3703.15 1.20584 -0.882033 0
M  V30 37851 H 3705.03 4.21284 0.0988775 0
M  V30 37852 H 3703.7 3.16557 0.676261 0
M  V30 37853 H 3702.61 3.36607 -1.63237 0
M  V30 37854 H 3703.94 4.43727 -2.12996 0
M  V30 37855 N 3705.6 0.895838 1.29663 0
M  V30 37856 C 3706.82 0.534368 2.00398 0
M  V30 37857 C 3707.25 -0.872625 1.66634 0
M  V30 37858 O 3706.6 -1.58017 0.888839 0
M  V30 37859 C 3706.65 0.729085 3.53153 0
M  V30 37860 O 3705.76 -0.220158 4.11812 0
M  V30 37861 H 3705.1 0.209244 0.630169 0
M  V30 37862 H 3707.63 1.20637 1.65251 0
M  V30 37863 H 3707.64 0.63225 4.03071 0
M  V30 37864 H 3706.31 1.75487 3.77064 0
M  V30 37865 H 3704.89 -0.0761031 3.72822 0
M  V30 37866 N 3707.07 -1.43211 0.657914 0
M  V30 37867 C 3707.98 -2.34579 -0.0313265 0
M  V30 37868 C 3709 -1.54148 -0.807126 0
M  V30 37869 O 3710.18 -1.86781 -0.753302 0
M  V30 37870 C 3707.24 -3.32484 -0.982601 0
M  V30 37871 C 3706.3 -4.28819 -0.203213 0
M  V30 37872 C 3705.54 -5.22047 -1.10918 0
M  V30 37873 O 3705.76 -5.19808 -2.34852 0
M  V30 37874 O 3704.69 -5.99108 -0.579055 0
M  V30 37875 H 3708.52 -2.95021 0.72086 0
M  V30 37876 H 3706.1 -1.4343 0.418108 0
M  V30 37877 H 3707.99 -3.92676 -1.52916 0
M  V30 37878 H 3706.66 -2.74539 -1.71493 0
M  V30 37879 H 3705.57 -3.72092 0.387048 0
M  V30 37880 H 3706.9 -4.89758 0.489649 0
M  V30 37881 N 3708.55 -0.400135 -1.52436 0
M  V30 37882 C 3709.8 0.171258 -2.02678 0
M  V30 37883 C 3710.15 1.43564 -1.2809 0
M  V30 37884 O 3709.45 1.87875 -0.375953 0
M  V30 37885 C 3709.64 0.482078 -3.54134 0
M  V30 37886 C 3709.47 -0.750629 -4.43391 0
M  V30 37887 C 3708.24 -1.27314 -4.88998 0
M  V30 37888 C 3710.44 -1.62613 -4.87916 0
M  V30 37889 N 3708.42 -2.46227 -5.62357 0
M  V30 37890 C 3709.79 -2.66158 -5.59964 0
M  V30 37891 C 3711.85 -1.64495 -4.69942 0
M  V30 37892 C 3710.55 -3.71484 -6.15948 0
M  V30 37893 C 3712.57 -2.68734 -5.26817 0
M  V30 37894 C 3711.94 -3.71001 -5.9878 0
M  V30 37895 H 3708.04 0.0244704 -0.781617 0
M  V30 37896 H 3710.62 -0.552462 -1.86697 0
M  V30 37897 H 3708.79 1.17485 -3.70205 0
M  V30 37898 H 3710.52 1.04157 -3.91067 0
M  V30 37899 H 3707.28 -0.832516 -4.66225 0
M  V30 37900 H 3707.7 -3.06425 -6.03683 0
M  V30 37901 H 3712.34 -0.867729 -4.138 0
M  V30 37902 H 3710.06 -4.50067 -6.71167 0
M  V30 37903 H 3713.65 -2.71087 -5.14784 0
M  V30 37904 H 3712.53 -4.50337 -6.42002 0
M  V30 37905 N 3710.03 1.57061 -0.13028 0
M  V30 37906 C 3710.96 2.18921 0.812151 0
M  V30 37907 C 3711.94 1.13251 1.26918 0
M  V30 37908 O 3713.13 1.41531 1.32976 0
M  V30 37909 C 3710.26 2.79758 2.05798 0
M  V30 37910 C 3709.21 3.91108 1.73834 0
M  V30 37911 C 3708.54 4.38804 3.05541 0
M  V30 37912 C 3709.84 5.12678 0.997901 0
M  V30 37913 H 3711.53 2.97927 0.29664 0
M  V30 37914 H 3709.08 1.43306 0.141239 0
M  V30 37915 H 3711.03 3.21695 2.72195 0
M  V30 37916 H 3709.75 1.98058 2.59693 0
M  V30 37917 H 3708.41 3.49764 1.09822 0
M  V30 37918 H 3708.06 3.53948 3.57393 0
M  V30 37919 H 3707.76 5.13899 2.84923 0
M  V30 37920 H 3709.28 4.834 3.73037 0
M  V30 37921 H 3710.7 5.51565 1.56362 0
M  V30 37922 H 3709.1 5.93429 0.892274 0
M  V30 37923 H 3710.17 4.84898 -0.0133789 0
M  V30 37924 N 3711.51 -0.143508 1.56945 0
M  V30 37925 C 3712.76 -0.856798 1.83812 0
M  V30 37926 C 3713.09 -1.80661 0.712407 0
M  V30 37927 O 3712.36 -1.9242 -0.283709 0
M  V30 37928 C 3712.65 -1.62823 3.21187 0
M  V30 37929 C 3712.5 -0.699666 4.44325 0
M  V30 37930 C 3713.82 -2.58993 3.55824 0
M  V30 37931 H 3710.94 -0.310034 0.668616 0
M  V30 37932 H 3713.58 -0.121867 1.89609 0
M  V30 37933 H 3711.73 -2.25474 3.16376 0
M  V30 37934 H 3713.4 -0.0838808 4.61224 0
M  V30 37935 H 3711.64 -0.00947665 4.33799 0
M  V30 37936 H 3712.32 -1.27555 5.3706 0
M  V30 37937 H 3714.79 -2.06457 3.61268 0
M  V30 37938 H 3713.67 -3.10016 4.5297 0
M  V30 37939 H 3713.93 -3.40514 2.81962 0
M  V30 37940 N 3712.99 -1.52093 -0.412964 0
M  V30 37941 C 3714.22 -1.69807 -1.18209 0
M  V30 37942 C 3714.63 -0.405876 -1.84386 0
M  V30 37943 O 3713.99 0.617779 -1.71726 0
M  V30 37944 C 3714.04 -2.83098 -2.24806 0
M  V30 37945 O 3713.76 -4.07313 -1.61331 0
M  V30 37946 C 3715.26 -3.12289 -3.14627 0
M  V30 37947 H 3712.48 -0.569174 -0.355361 0
M  V30 37948 H 3715.02 -1.98632 -0.486357 0
M  V30 37949 H 3713.18 -2.56802 -2.90054 0
M  V30 37950 H 3713.59 -4.70415 -2.31971 0
M  V30 37951 H 3715.07 -3.95083 -3.85504 0
M  V30 37952 H 3715.54 -2.25683 -3.76781 0
M  V30 37953 H 3716.15 -3.40335 -2.55053 0
M  V30 37954 N 3714.47 0.669957 -1.42651 0
M  V30 37955 C 3715.71 1.42999 -1.43379 0
M  V30 37956 C 3716.04 1.94431 -0.0519728 0
M  V30 37957 O 3715.3 1.71623 0.940426 0
M  V30 37958 C 3715.59 2.63995 -2.40918 0
M  V30 37959 C 3715.26 2.31078 -3.87187 0
M  V30 37960 C 3713.92 2.21812 -4.27028 0
M  V30 37961 C 3716.27 2.04439 -4.79431 0
M  V30 37962 C 3713.6 1.84039 -5.57087 0
M  V30 37963 C 3715.95 1.68168 -6.09838 0
M  V30 37964 C 3714.62 1.57416 -6.48673 0
M  V30 37965 H 3713.89 0.523271 -0.524661 0
M  V30 37966 H 3716.54 0.763463 -1.75623 0
M  V30 37967 H 3714.84 3.35702 -2.02018 0
M  V30 37968 H 3716.54 3.22185 -2.38743 0
M  V30 37969 H 3713.13 2.39194 -3.55646 0
M  V30 37970 H 3717.31 2.10528 -4.49435 0
M  V30 37971 H 3712.57 1.74287 -5.86032 0
M  V30 37972 H 3716.74 1.46582 -6.80798 0
M  V30 37973 H 3714.37 1.27917 -7.49361 0
M  V30 37974 N 3715.94 1.28904 0.90673 0
M  V30 37975 C 3716.91 1.13443 1.99156 0
M  V30 37976 C 3717.91 0.0719834 1.60639 0
M  V30 37977 O 3719.1 0.318347 1.71266 0
M  V30 37978 C 3716.23 0.733231 3.32921 0
M  V30 37979 H 3717.42 2.09798 2.14301 0
M  V30 37980 H 3714.97 1.1199 1.09032 0
M  V30 37981 H 3715.71 -0.230769 3.23478 0
M  V30 37982 H 3715.49 1.5008 3.62241 0
M  V30 37983 H 3716.98 0.647912 4.12543 0
M  V30 37984 N 3717.42 -1.11614 1.11266 0
M  V30 37985 C 3718.65 -1.87119 0.882835 0
M  V30 37986 C 3719.06 -1.80077 -0.567247 0
M  V30 37987 O 3718.42 -1.18076 -1.39156 0
M  V30 37988 C 3718.47 -3.36002 1.33361 0
M  V30 37989 O 3718.19 -3.42892 2.72684 0
M  V30 37990 C 3719.69 -4.28419 1.13894 0
M  V30 37991 H 3716.91 -0.591781 0.316285 0
M  V30 37992 H 3719.46 -1.41175 1.47953 0
M  V30 37993 H 3717.61 -3.79458 0.780414 0
M  V30 37994 H 3718.03 -4.35584 2.92176 0
M  V30 37995 H 3719.5 -5.31133 1.50339 0
M  V30 37996 H 3719.98 -4.3913 0.0783362 0
M  V30 37997 H 3720.58 -3.90754 1.67903 0
M  V30 37998 N 3718.9 -0.902701 -1.29186 0
M  V30 37999 C 3720.13 -0.54567 -1.99575 0
M  V30 38000 C 3720.54 0.870343 -1.67542 0
M  V30 38001 O 3719.9 1.57491 -0.92211 0
M  V30 38002 C 3719.95 -0.731978 -3.54012 0
M  V30 38003 O 3719.67 -2.09226 -3.84911 0
M  V30 38004 C 3721.17 -0.380297 -4.41666 0
M  V30 38005 H 3718.39 -0.209094 -0.63759 0
M  V30 38006 H 3720.94 -1.21287 -1.6465 0
M  V30 38007 H 3719.09 -0.111917 -3.87238 0
M  V30 38008 H 3719.51 -2.12382 -4.79577 0
M  V30 38009 H 3720.98 -0.561479 -5.49137 0
M  V30 38010 H 3721.46 0.682839 -4.33859 0
M  V30 38011 H 3722.06 -0.977427 -4.13916 0
M  V30 38012 N 3720.38 1.4286 -0.6655 0
M  V30 38013 C 3721.33 2.3258 0.0303541 0
M  V30 38014 C 3722.32 1.49303 0.800303 0
M  V30 38015 O 3723.53 1.65435 0.709317 0
M  V30 38016 H 3719.9 0.751456 0.0286069 0
M  V30 38017 H 3721.87 2.88979 -0.743889 0
M  V30 38018 C 3720.62 3.33767 0.974415 0
M  V30 38019 H 3719.94 3.9788 0.391377 0
M  V30 38020 H 3721.38 3.99152 1.43016 0
M  V30 38021 C 3719.84 2.6531 2.07635 0
M  V30 38022 O 3720.37 2.47792 3.16167 0
M  V30 38023 N 3718.58 2.24484 1.8454 0
M  V30 38024 H 3718.13 2.38931 0.962784 0
M  V30 38025 H 3718.08 1.79012 2.58461 0
M  V30 38026 N 3721.86 0.408213 1.52221 0
M  V30 38027 C 3723.08 -0.169865 2.06703 0
M  V30 38028 C 3723.51 -1.38168 1.27637 0
M  V30 38029 O 3722.86 -1.78693 0.306374 0
M  V30 38030 C 3722.91 -0.4996 3.57122 0
M  V30 38031 O 3722.02 -1.59073 3.80486 0
M  V30 38032 H 3721.36 -0.0146028 0.663839 0
M  V30 38033 H 3723.89 0.581148 1.96173 0
M  V30 38034 H 3723.9 -0.758497 4.00888 0
M  V30 38035 H 3722.57 0.386255 4.14103 0
M  V30 38036 H 3721.15 -1.32407 3.48601 0
M  V30 38037 N 3723.33 -1.56989 0.138607 0
M  V30 38038 C 3724.56 -2.00644 -0.525039 0
M  V30 38039 C 3724.98 -1.01799 -1.58173 0
M  V30 38040 O 3724.34 0.00750816 -1.81298 0
M  V30 38041 C 3724.39 -3.43087 -1.11012 0
M  V30 38042 O 3723.49 -3.47214 -2.22523 0
M  V30 38043 H 3722.83 -0.651295 -0.129272 0
M  V30 38044 H 3725.36 -2.0327 0.232866 0
M  V30 38045 H 3725.37 -3.81711 -1.44086 0
M  V30 38046 H 3724.05 -4.14538 -0.336252 0
M  V30 38047 H 3722.63 -3.20425 -1.90741 0
M  V30 38048 N 3724.81 0.135183 -1.57019 0
M  V30 38049 C 3726.06 0.844115 -1.83628 0
M  V30 38050 C 3726.38 1.81168 -0.72133 0
M  V30 38051 O 3725.65 1.94219 0.256061 0
M  V30 38052 H 3724.23 0.314713 -0.677469 0
M  V30 38053 H 3726.89 0.126365 -1.9449 0
M  V30 38054 H 3725.99 1.3992 -2.78978 0
M  V30 38055 N 3726.29 1.5231 0.404892 0
M  V30 38056 C 3727.54 1.65804 1.14856 0
M  V30 38057 C 3727.85 0.396207 1.91545 0
M  V30 38058 O 3729.06 0.411016 2.68371 0
M  V30 38059 C 3727.51 2.92951 2.09063 0
M  V30 38060 C 3727.12 4.26258 1.37871 0
M  V30 38061 C 3728.87 3.15809 2.83663 0
M  V30 38062 C 3726.77 5.44525 2.30751 0
M  V30 38063 H 3725.7 0.617658 0.432452 0
M  V30 38064 H 3728.35 1.788 0.412664 0
M  V30 38065 H 3726.74 2.73665 2.86223 0
M  V30 38066 H 3727.91 4.56042 0.660463 0
M  V30 38067 H 3726.23 4.09536 0.752954 0
M  V30 38068 H 3728.82 4.01346 3.53306 0
M  V30 38069 H 3729.17 2.30218 3.46851 0
M  V30 38070 H 3729.7 3.35588 2.13601 0
M  V30 38071 H 3726.44 6.32476 1.72203 0
M  V30 38072 H 3725.96 5.19074 3.00537 0
M  V30 38073 H 3727.64 5.77772 2.91184 0
M  V30 38074 N 3727.77 -0.662382 1.43004 0
M  V30 38075 C 3729.02 -1.41818 1.43424 0
M  V30 38076 C 3729.33 -1.95512 0.0587253 0
M  V30 38077 O 3730.54 -2.71434 -0.0596501 0
M  V30 38078 C 3728.99 -2.56609 2.52349 0
M  V30 38079 C 3728.6 -2.09562 3.95964 0
M  V30 38080 C 3730.34 -3.34039 2.61951 0
M  V30 38081 C 3728.25 -3.21509 4.96373 0
M  V30 38082 H 3727.18 -0.532823 0.533494 0
M  V30 38083 H 3729.83 -0.715882 1.6896 0
M  V30 38084 H 3728.21 -3.29267 2.19999 0
M  V30 38085 H 3729.39 -1.43976 4.3773 0
M  V30 38086 H 3727.7 -1.45037 3.90325 0
M  V30 38087 H 3730.3 -4.17435 3.34144 0
M  V30 38088 H 3730.64 -3.8146 1.66715 0
M  V30 38089 H 3731.18 -2.68457 2.93557 0
M  V30 38090 H 3727.92 -2.79066 5.93129 0
M  V30 38091 H 3727.44 -3.85837 4.59228 0
M  V30 38092 H 3729.11 -3.86784 5.18659 0
M  V30 38093 N 3729.25 -1.29383 -0.899882 0
M  V30 38094 C 3730.18 -1.1705 -2.02043 0
M  V30 38095 C 3731.16 -0.0647652 -1.69977 0
M  V30 38096 O 3732.34 -0.244207 -1.92658 0
M  V30 38097 C 3729.47 -0.84605 -3.36837 0
M  V30 38098 C 3728.43 -1.90809 -3.83114 0
M  V30 38099 C 3727.75 -1.43695 -5.1503 0
M  V30 38100 C 3729.05 -3.31691 -4.03458 0
M  V30 38101 H 3730.75 -2.10792 -2.12619 0
M  V30 38102 H 3728.29 -1.01485 -1.0216 0
M  V30 38103 H 3730.25 -0.746486 -4.14736 0
M  V30 38104 H 3728.97 0.127068 -3.26353 0
M  V30 38105 H 3727.63 -1.99703 -3.07432 0
M  V30 38106 H 3727.28 -0.45251 -5.0096 0
M  V30 38107 H 3726.98 -2.14721 -5.46963 0
M  V30 38108 H 3728.5 -1.35088 -5.95469 0
M  V30 38109 H 3729.91 -3.25639 -4.71839 0
M  V30 38110 H 3728.31 -4.00673 -4.46745 0
M  V30 38111 H 3729.38 -3.74682 -3.07801 0
M  V30 38112 N 3730.72 1.11022 -1.11856 0
M  V30 38113 C 3731.69 2.15372 -0.784071 0
M  V30 38114 C 3732.69 1.59568 0.198657 0
M  V30 38115 O 3733.88 1.7418 -0.0263735 0
M  V30 38116 C 3731.01 3.40505 -0.164047 0
M  V30 38117 H 3732.2 2.46474 -1.70853 0
M  V30 38118 H 3729.76 1.26282 -0.92101 0
M  V30 38119 H 3730.49 3.15016 0.770428 0
M  V30 38120 H 3730.28 3.82292 -0.871514 0
M  V30 38121 H 3731.77 4.17565 0.0537005 0
M  V30 38122 N 3732.2 0.90954 1.28706 0
M  V30 38123 C 3733.17 0.3995 2.25691 0
M  V30 38124 C 3734.17 -0.471821 1.53722 0
M  V30 38125 O 3735.36 -0.275474 1.72008 0
M  V30 38126 C 3732.49 -0.427733 3.38206 0
M  V30 38127 H 3733.68 1.25618 2.72324 0
M  V30 38128 H 3731.23 0.688559 1.40316 0
M  V30 38129 H 3731.97 -1.30399 2.96928 0
M  V30 38130 H 3731.75 0.196738 3.91606 0
M  V30 38131 H 3733.24 -0.775562 4.10335 0
M  V30 38132 N 3733.68 -1.42505 0.673067 0
M  V30 38133 C 3734.61 -2.33499 0.00759571 0
M  V30 38134 C 3735.59 -1.50582 -0.791134 0
M  V30 38135 O 3736.78 -1.7919 -0.748636 0
M  V30 38136 C 3733.91 -3.3418 -0.945579 0
M  V30 38137 C 3732.86 -4.27236 -0.255565 0
M  V30 38138 C 3732.19 -5.18111 -1.32156 0
M  V30 38139 C 3733.49 -5.15098 0.864345 0
M  V30 38140 H 3735.18 -2.89395 0.767538 0
M  V30 38141 H 3732.73 -1.39151 0.370548 0
M  V30 38142 H 3734.68 -3.96747 -1.42019 0
M  V30 38143 H 3733.4 -2.76584 -1.73692 0
M  V30 38144 H 3732.06 -3.66061 0.198794 0
M  V30 38145 H 3731.71 -4.56843 -2.10484 0
M  V30 38146 H 3731.41 -5.81198 -0.865006 0
M  V30 38147 H 3732.93 -5.83554 -1.79714 0
M  V30 38148 H 3734.35 -5.71362 0.471025 0
M  V30 38149 H 3732.75 -5.8701 1.24658 0
M  V30 38150 H 3733.82 -4.53602 1.71386 0
M  V30 38151 N 3735.16 -0.41628 -1.52003 0
M  V30 38152 C 3736.41 0.156855 -2.0149 0
M  V30 38153 C 3736.73 1.45035 -1.30345 0
M  V30 38154 O 3736 1.91088 -0.431536 0
M  V30 38155 H 3734.58 0.0609551 -0.744509 0
M  V30 38156 H 3737.24 -0.554163 -1.86856 0
M  V30 38157 H 3736.34 0.347862 -3.10155 0
M  V30 38158 N 3736.64 1.56914 -0.146931 0
M  V30 38159 C 3737.88 1.95735 0.503203 0
M  V30 38160 C 3738.21 1.03277 1.65405 0
M  V30 38161 O 3737.48 0.0943128 1.95673 0
M  V30 38162 H 3736.06 0.722725 0.188886 0
M  V30 38163 H 3738.72 1.93627 -0.222413 0
M  V30 38164 H 3737.81 2.99455 0.879392 0
M  V30 38165 N 3738.11 -0.126854 1.57089 0
M  V30 38166 C 3739.39 -0.865869 1.75391 0
M  V30 38167 C 3739.77 -1.9843 0.720323 0
M  V30 38168 O 3739.12 -2.27048 -0.25716 0
M  V30 38169 C 3739.33 -1.3898 3.20134 0
M  V30 38170 C 3740.68 -1.84525 3.82408 0
M  V30 38171 O 3741.7 -1.48677 3.23688 0
M  V30 38172 O 3740.56 -2.50702 4.85603 0
M  V30 38173 H 3737.65 -0.410617 0.71786 0
M  V30 38174 H 3740.2 -0.111206 1.69335 0
M  V30 38175 H 3738.97 -0.586988 3.86872 0
M  V30 38176 H 3738.6 -2.20739 3.30696 0
M  V30 38177 N 3739.59 -1.52523 -0.396809 0
M  V30 38178 C 3740.84 -1.67433 -1.14429 0
M  V30 38179 C 3741.17 -0.409148 -1.89841 0
M  V30 38180 O 3740.45 0.59283 -1.85245 0
M  V30 38181 C 3740.73 -2.90435 -2.12884 0
M  V30 38182 C 3740.58 -4.27034 -1.41288 0
M  V30 38183 C 3741.9 -3.08973 -3.13407 0
M  V30 38184 H 3739.02 -0.609302 -0.414633 0
M  V30 38185 H 3741.66 -1.85103 -0.428571 0
M  V30 38186 H 3739.81 -2.755 -2.7392 0
M  V30 38187 H 3741.48 -4.53721 -0.832769 0
M  V30 38188 H 3739.73 -4.27871 -0.714759 0
M  V30 38189 H 3740.4 -5.0917 -2.13189 0
M  V30 38190 H 3742.87 -3.22887 -2.62456 0
M  V30 38191 H 3741.75 -3.96528 -3.79548 0
M  V30 38192 H 3742.01 -2.22838 -3.81832 0
M  V30 38193 N 3741.07 0.654789 -1.43354 0
M  V30 38194 C 3741.98 1.79684 -1.50834 0
M  V30 38195 C 3743 1.69444 -0.395547 0
M  V30 38196 O 3744.17 1.90642 -0.649442 0
M  V30 38197 C 3741.24 3.15953 -1.4274 0
M  V30 38198 C 3740.3 3.38001 -2.64677 0
M  V30 38199 C 3739.53 4.67768 -2.5696 0
M  V30 38200 O 3739.76 5.47016 -1.61648 0
M  V30 38201 O 3738.69 4.91501 -3.47434 0
M  V30 38202 H 3742.52 1.76328 -2.47269 0
M  V30 38203 H 3740.1 0.813073 -1.25338 0
M  V30 38204 H 3741.98 3.9723 -1.40663 0
M  V30 38205 H 3740.66 3.19902 -0.49439 0
M  V30 38206 H 3739.56 2.56493 -2.72327 0
M  V30 38207 H 3740.9 3.38896 -3.56946 0
M  V30 38208 N 3742.55 1.29858 0.893007 0
M  V30 38209 C 3743.5 1.15558 1.99788 0
M  V30 38210 C 3744.47 0.0471449 1.66033 0
M  V30 38211 O 3745.65 0.21588 1.89575 0
M  V30 38212 C 3742.79 0.845052 3.34594 0
M  V30 38213 C 3741.9 2.03458 3.81089 0
M  V30 38214 C 3741.04 1.66284 5.04503 0
M  V30 38215 C 3740.08 2.81779 5.43385 0
M  V30 38216 N 3739.22 2.44956 6.57982 0
M  V30 38217 H 3744.06 2.10082 2.11351 0
M  V30 38218 H 3741.59 1.04533 1.03495 0
M  V30 38219 H 3743.55 0.64567 4.12173 0
M  V30 38220 H 3742.18 -0.0633058 3.22738 0
M  V30 38221 H 3741.23 2.34546 2.99487 0
M  V30 38222 H 3742.54 2.89978 4.0585 0
M  V30 38223 H 3741.7 1.42674 5.89686 0
M  V30 38224 H 3740.44 0.769229 4.81595 0
M  V30 38225 H 3739.44 3.06064 4.56733 0
M  V30 38226 H 3740.67 3.71815 5.6827 0
M  V30 38227 H 3738.61 1.5809 6.36666 0
M  V30 38228 H 3738.53 3.25008 6.82573 0
M  V30 38229 H 3739.8 2.24682 7.46417 0
M  V30 38230 N 3744.03 -1.10427 1.12443 0
M  V30 38231 C 3745.44 -1.34415 0.860505 0
M  V30 38232 C 3745.64 -1.94956 -0.509359 0
M  V30 38233 O 3744.7 -2.18929 -1.25803 0
M  V30 38234 C 3746.01 -2.26574 1.97698 0
M  V30 38235 C 3747.56 -2.40111 2.00787 0
M  V30 38236 C 3748.04 -3.35599 3.11669 0
M  V30 38237 N 3749.53 -3.43167 3.11112 0
M  V30 38238 C 3750.26 -4.17023 3.93547 0
M  V30 38239 N 3749.76 -4.93765 4.85971 0
M  V30 38240 N 3751.55 -4.12642 3.81684 0
M  V30 38241 H 3743.7 -0.695 2.00708 0
M  V30 38242 H 3745.96 -0.368603 0.873405 0
M  V30 38243 H 3745.67 -1.89301 2.96409 0
M  V30 38244 H 3745.54 -3.26882 1.88223 0
M  V30 38245 H 3747.93 -2.76654 1.02697 0
M  V30 38246 H 3748.01 -1.39618 2.14338 0
M  V30 38247 H 3747.66 -2.99782 4.09992 0
M  V30 38248 H 3747.59 -4.35972 2.95357 0
M  V30 38249 H 3750.08 -2.88438 2.44155 0
M  V30 38250 H 3750.39 -5.47519 5.45383 0
M  V30 38251 H 3748.74 -4.92889 4.89985 0
M  V30 38252 H 3751.93 -3.51783 3.08814 0
M  V30 38253 H 3752.1 -4.69942 4.4616 0
M  V30 38254 N 3745.51 -0.916353 -1.28221 0
M  V30 38255 C 3746.75 -0.549769 -1.94479 0
M  V30 38256 C 3747.07 0.909969 -1.72466 0
M  V30 38257 O 3746.34 1.64366 -1.06586 0
M  V30 38258 H 3744.92 -0.200328 -0.719637 0
M  V30 38259 H 3747.59 -1.16628 -1.56154 0
M  V30 38260 H 3746.68 -0.746416 -3.03043 0
M  V30 38261 N 3746.98 1.42146 -0.680615 0
M  V30 38262 C 3748.26 1.95141 -0.133991 0
M  V30 38263 C 3748.64 1.62076 1.35257 0
M  V30 38264 O 3747.99 0.919935 2.09164 0
M  V30 38265 C 3748.2 3.46591 -0.409327 0
M  V30 38266 C 3749.55 4.23324 -0.328974 0
M  V30 38267 O 3750.57 3.54541 -0.343399 0
M  V30 38268 O 3749.43 5.45802 -0.276172 0
M  V30 38269 H 3746.52 0.826976 -0.00624896 0
M  V30 38270 H 3749.07 1.51943 -0.755745 0
M  V30 38271 H 3747.84 3.63884 -1.43889 0
M  V30 38272 H 3747.46 3.9685 0.244147 0
M  V30 38273 N 3748.46 0.424336 1.5178 0
M  V30 38274 C 3749.88 0.075961 1.59419 0
M  V30 38275 C 3750.08 -1.41336 1.43619 0
M  V30 38276 O 3749.13 -2.18189 1.27082 0
M  V30 38277 C 3750.45 0.584463 2.94965 0
M  V30 38278 C 3751.99 0.543764 3.0824 0
M  V30 38279 C 3752.47 1.02903 4.4629 0
M  V30 38280 N 3753.96 0.986472 4.52574 0
M  V30 38281 C 3754.7 1.33296 5.57691 0
M  V30 38282 N 3754.19 1.75166 6.7029 0
M  V30 38283 N 3755.98 1.25196 5.4798 0
M  V30 38284 H 3748.14 1.39351 1.60296 0
M  V30 38285 H 3750.4 0.573424 0.75491 0
M  V30 38286 H 3750.1 1.62599 3.11857 0
M  V30 38287 H 3749.98 0.00231066 3.772 0
M  V30 38288 H 3752.37 -0.488747 2.91025 0
M  V30 38289 H 3752.45 1.16216 2.27876 0
M  V30 38290 H 3752.09 2.05994 4.64251 0
M  V30 38291 H 3752.02 0.387294 5.25174 0
M  V30 38292 H 3754.51 0.67883 3.71753 0
M  V30 38293 H 3754.82 1.99876 7.46505 0
M  V30 38294 H 3753.17 1.79082 6.71531 0
M  V30 38295 H 3756.36 0.923605 4.58898 0
M  V30 38296 H 3756.53 1.52528 6.29793 0
M  V30 38297 N 3749.94 -1.56833 0.15525 0
M  V30 38298 C 3750.85 -2.2075 -0.79414 0
M  V30 38299 C 3751.87 -1.19426 -1.26544 0
M  V30 38300 O 3753.04 -1.52032 -1.32092 0
M  V30 38301 C 3750.11 -2.82306 -2.01256 0
M  V30 38302 C 3749.17 -3.98782 -1.58969 0
M  V30 38303 C 3748.4 -4.57393 -2.75003 0
M  V30 38304 O 3748.62 -4.14885 -3.91441 0
M  V30 38305 O 3747.56 -5.47524 -2.50001 0
M  V30 38306 H 3751.38 -3.02406 -0.280011 0
M  V30 38307 H 3748.97 -1.49226 -0.0721785 0
M  V30 38308 H 3750.85 -3.21398 -2.72545 0
M  V30 38309 H 3749.53 -2.03657 -2.51606 0
M  V30 38310 H 3748.43 -3.6439 -0.846784 0
M  V30 38311 H 3749.77 -4.78976 -1.13327 0
M  V30 38312 N 3751.42 0.118521 -1.57154 0
M  V30 38313 C 3752.33 1.1642 -2.03675 0
M  V30 38314 C 3753.34 1.45304 -0.957229 0
M  V30 38315 O 3754.52 1.5641 -1.26877 0
M  V30 38316 C 3751.58 2.47077 -2.43215 0
M  V30 38317 C 3750.65 2.25587 -3.65252 0
M  V30 38318 C 3749.88 3.50014 -4.02897 0
M  V30 38319 O 3750.1 4.57338 -3.40879 0
M  V30 38320 O 3749.04 3.40987 -4.95995 0
M  V30 38321 H 3752.86 0.799154 -2.92997 0
M  V30 38322 H 3750.45 0.329351 -1.45725 0
M  V30 38323 H 3752.33 3.24056 -2.6938 0
M  V30 38324 H 3751 2.83055 -1.57039 0
M  V30 38325 H 3749.91 1.46465 -3.44237 0
M  V30 38326 H 3751.24 1.94513 -4.52135 0
M  V30 38327 N 3752.9 1.52731 0.388715 0
M  V30 38328 C 3753.86 1.76884 1.45756 0
M  V30 38329 C 3754.86 0.638866 1.47564 0
M  V30 38330 O 3756.05 0.906921 1.4873 0
M  V30 38331 C 3753.18 1.86986 2.85042 0
M  V30 38332 H 3754.37 2.72321 1.25624 0
M  V30 38333 H 3751.93 1.43457 0.620472 0
M  V30 38334 H 3752.66 0.935351 3.10518 0
M  V30 38335 H 3752.45 2.69152 2.85131 0
M  V30 38336 H 3753.94 2.07344 3.62489 0
M  V30 38337 N 3754.37 -0.647178 1.43699 0
M  V30 38338 C 3755.32 -1.75315 1.45769 0
M  V30 38339 C 3756.31 -1.57576 0.325388 0
M  V30 38340 O 3757.5 -1.67585 0.569593 0
M  V30 38341 C 3754.63 -3.13933 1.38928 0
M  V30 38342 C 3753.71 -3.37199 2.57211 0
M  V30 38343 N 3754.11 -3.30909 3.82535 0
M  V30 38344 C 3752.4 -3.6794 2.52064 0
M  V30 38345 C 3753.1 -3.54423 4.61259 0
M  V30 38346 N 3752.08 -3.76527 3.92082 0
M  V30 38347 H 3755.88 -1.68886 2.4053 0
M  V30 38348 H 3753.4 -0.849068 1.38436 0
M  V30 38349 H 3755.39 -3.93224 1.38494 0
M  V30 38350 H 3754.05 -3.2154 0.45192 0
M  V30 38351 H 3755.06 -3.10185 4.14736 0
M  V30 38352 H 3751.74 -3.82625 1.67045 0
M  V30 38353 H 3753.13 -3.55287 5.70281 0
M  V30 38354 N 3755.85 -1.3033 -0.886108 0
M  V30 38355 C 3757.1 -1.19264 -1.64024 0
M  V30 38356 C 3757.43 0.252345 -1.92554 0
M  V30 38357 O 3756.71 1.18066 -1.54566 0
M  V30 38358 C 3756.99 -2.02045 -2.98077 0
M  V30 38359 C 3756.84 -3.54757 -2.76528 0
M  V30 38360 C 3758.16 -1.85738 -3.98985 0
M  V30 38361 H 3755.28 -0.434611 -0.595216 0
M  V30 38362 H 3757.92 -1.5995 -1.02547 0
M  V30 38363 H 3756.07 -1.67475 -3.50549 0
M  V30 38364 H 3757.74 -3.99381 -2.30853 0
M  V30 38365 H 3755.99 -3.78997 -2.11054 0
M  V30 38366 H 3756.66 -4.07967 -3.71842 0
M  V30 38367 H 3759.13 -2.15959 -3.55669 0
M  V30 38368 H 3758.01 -2.45987 -4.90695 0
M  V30 38369 H 3758.27 -0.816228 -4.345 0
M  V30 38370 N 3757.33 1.0983 -1.13028 0
M  V30 38371 C 3758.74 1.63418 -0.902855 0
M  V30 38372 C 3759.09 1.87993 0.561514 0
M  V30 38373 O 3758.22 1.62655 1.42732 0
M  V30 38374 C 3758.81 2.96878 -1.63245 0
M  V30 38375 C 3757.37 3.47308 -1.45101 0
M  V30 38376 C 3756.52 2.21799 -1.66435 0
M  V30 38377 H 3759.47 0.93247 -1.28416 0
M  V30 38378 H 3759.49 3.64639 -1.08713 0
M  V30 38379 H 3759 2.78959 -2.69821 0
M  V30 38380 H 3757.1 3.70358 -0.408096 0
M  V30 38381 H 3757.22 4.25015 -2.21131 0
M  V30 38382 H 3755.58 2.3025 -1.08889 0
M  V30 38383 H 3756.36 2.06405 -2.74321 0
M  V30 38384 N 3758.81 0.92314 1.27734 0
M  V30 38385 C 3760.06 0.561183 1.94569 0
M  V30 38386 C 3760.38 -0.896775 1.72593 0
M  V30 38387 O 3759.64 -1.65433 1.04549 0
M  V30 38388 C 3759.94 0.82802 3.47676 0
M  V30 38389 C 3759.6 2.267 3.89766 0
M  V30 38390 C 3758.27 2.6604 4.00969 0
M  V30 38391 C 3760.62 3.20298 4.11167 0
M  V30 38392 C 3757.95 3.98112 4.30956 0
M  V30 38393 C 3760.3 4.51946 4.42637 0
M  V30 38394 C 3758.96 4.91127 4.52052 0
M  V30 38395 H 3758.23 0.205351 0.711977 0
M  V30 38396 H 3760.88 1.16624 1.51892 0
M  V30 38397 H 3759.18 0.140247 3.91549 0
M  V30 38398 H 3760.88 0.527002 3.97522 0
M  V30 38399 H 3757.47 1.95177 3.81581 0
M  V30 38400 H 3761.65 2.91109 4.01957 0
M  V30 38401 H 3756.91 4.28157 4.36453 0
M  V30 38402 H 3761.08 5.24478 4.58144 0
M  V30 38403 H 3758.71 5.93497 4.75043 0
M  V30 38404 N 3760.29 -1.41783 0.688143 0
M  V30 38405 C 3761.53 -2.01345 0.215979 0
M  V30 38406 C 3761.86 -1.54468 -1.18194 0
M  V30 38407 O 3761.12 -0.743406 -1.8103 0
M  V30 38408 C 3761.42 -3.5676 0.21381 0
M  V30 38409 C 3761.08 -4.23119 1.55823 0
M  V30 38410 C 3759.74 -4.40961 1.92631 0
M  V30 38411 C 3762.1 -4.60396 2.44305 0
M  V30 38412 C 3759.42 -4.93354 3.1752 0
M  V30 38413 C 3761.78 -5.14175 3.6852 0
M  V30 38414 C 3760.44 -5.30229 4.0548 0
M  V30 38415 H 3759.71 -0.736773 0.0790323 0
M  V30 38416 H 3762.36 -1.69783 0.885767 0
M  V30 38417 H 3760.66 -3.88068 -0.539515 0
M  V30 38418 H 3762.36 -4.00644 -0.168933 0
M  V30 38419 H 3758.95 -4.09601 1.26193 0
M  V30 38420 H 3763.13 -4.46273 2.1715 0
M  V30 38421 H 3758.39 -5.03967 3.4616 0
M  V30 38422 H 3762.56 -5.42001 4.37274 0
M  V30 38423 H 3760.19 -5.7059 5.02326 0
M  V30 38424 N 3761.76 -0.432379 -1.51553 0
M  V30 38425 C 3762.99 0.136959 -2.06947 0
M  V30 38426 C 3763.41 1.3612 -1.29819 0
M  V30 38427 O 3762.77 1.78183 -0.334764 0
M  V30 38428 C 3762.82 0.442722 -3.57872 0
M  V30 38429 O 3761.92 1.53 -3.82968 0
M  V30 38430 H 3761.27 0.00403985 -0.663988 0
M  V30 38431 H 3763.8 -0.612284 -1.95224 0
M  V30 38432 H 3763.81 0.694623 -4.02044 0
M  V30 38433 H 3762.48 -0.452086 -4.13436 0
M  V30 38434 H 3761.06 1.26845 -3.50663 0
M  V30 38435 N 3763.24 1.56749 -0.163565 0
M  V30 38436 C 3764.49 1.96938 0.484085 0
M  V30 38437 C 3764.82 1.04922 1.63417 0
M  V30 38438 O 3764.1 0.0948171 1.94269 0
M  V30 38439 C 3764.38 3.46664 0.974471 0
M  V30 38440 C 3764.23 4.49458 -0.175252 0
M  V30 38441 C 3765.55 3.99294 1.85075 0
M  V30 38442 H 3762.67 0.716046 0.174491 0
M  V30 38443 H 3765.31 1.88373 -0.248136 0
M  V30 38444 H 3763.46 3.54094 1.59842 0
M  V30 38445 H 3765.13 4.54095 -0.812118 0
M  V30 38446 H 3763.38 4.25748 -0.831928 0
M  V30 38447 H 3764.05 5.51601 0.209863 0
M  V30 38448 H 3766.52 3.94446 1.32481 0
M  V30 38449 H 3765.4 5.04489 2.16291 0
M  V30 38450 H 3765.66 3.42642 2.79372 0
M  V30 38451 N 3764.72 -0.110185 1.57214 0
M  V30 38452 C 3765.65 -1.16536 1.962 0
M  V30 38453 C 3766.63 -1.39645 0.83295 0
M  V30 38454 O 3767.82 -1.53654 1.09191 0
M  V30 38455 C 3764.94 -2.51752 2.26581 0
M  V30 38456 C 3763.99 -2.45017 3.49098 0
M  V30 38457 S 3764.82 -1.88127 5.01367 0
M  V30 38458 C 3765.98 -3.24998 5.34909 0
M  V30 38459 H 3766.21 -0.832946 2.85393 0
M  V30 38460 H 3763.74 -0.317287 1.51105 0
M  V30 38461 H 3765.7 -3.29548 2.44762 0
M  V30 38462 H 3764.36 -2.82168 1.37986 0
M  V30 38463 H 3763.56 -3.4464 3.67749 0
M  V30 38464 H 3763.16 -1.75344 3.30349 0
M  V30 38465 H 3765.45 -4.21234 5.3063 0
M  V30 38466 H 3766.39 -3.11165 6.36068 0
M  V30 38467 H 3766.8 -3.23833 4.62377 0
M  V30 38468 N 3766.2 -1.52935 -0.38061 0
M  V30 38469 C 3767.13 -1.81282 -1.47171 0
M  V30 38470 C 3768.11 -0.665347 -1.56548 0
M  V30 38471 O 3769.29 -0.913752 -1.7136 0
M  V30 38472 C 3766.42 -1.98923 -2.84687 0
M  V30 38473 C 3765.38 -3.14642 -2.90145 0
M  V30 38474 C 3764.7 -3.17551 -4.30192 0
M  V30 38475 C 3766 -4.53543 -2.59029 0
M  V30 38476 H 3767.7 -2.72652 -1.23698 0
M  V30 38477 H 3765.24 -1.31195 -0.593631 0
M  V30 38478 H 3767.2 -2.17336 -3.6103 0
M  V30 38479 H 3765.92 -1.04249 -3.09515 0
M  V30 38480 H 3764.58 -2.96025 -2.16251 0
M  V30 38481 H 3764.23 -2.20544 -4.52072 0
M  V30 38482 H 3763.93 -3.95291 -4.34763 0
M  V30 38483 H 3765.45 -3.3813 -5.08429 0
M  V30 38484 H 3766.87 -4.72219 -3.25088 0
M  V30 38485 H 3765.26 -5.33413 -2.74937 0
M  V30 38486 H 3766.33 -4.59684 -1.54334 0
M  V30 38487 N 3767.68 0.639548 -1.4404 0
M  V30 38488 C 3768.93 1.39519 -1.45662 0
M  V30 38489 C 3769.24 1.95394 -0.0898221 0
M  V30 38490 O 3770.44 2.71495 0.0164596 0
M  V30 38491 C 3768.9 2.52562 -2.56399 0
M  V30 38492 C 3768.51 2.03236 -3.99248 0
M  V30 38493 C 3770.25 3.29829 -2.67232 0
M  V30 38494 C 3768.16 3.13572 -5.01425 0
M  V30 38495 H 3767.09 0.524268 -0.541903 0
M  V30 38496 H 3769.74 0.688911 -1.70077 0
M  V30 38497 H 3768.12 3.25725 -2.25209 0
M  V30 38498 H 3769.3 1.36994 -4.39965 0
M  V30 38499 H 3767.61 1.38809 -3.92583 0
M  V30 38500 H 3770.21 4.12066 -3.40743 0
M  V30 38501 H 3770.55 3.7876 -1.72762 0
M  V30 38502 H 3771.08 2.63753 -2.9779 0
M  V30 38503 H 3767.82 2.69595 -5.97494 0
M  V30 38504 H 3767.34 3.78482 -4.65308 0
M  V30 38505 H 3769.02 3.78484 -5.24747 0
M  V30 38506 N 3769.15 1.30798 0.879184 0
M  V30 38507 C 3770.4 1.19717 1.62826 0
M  V30 38508 C 3770.72 -0.246997 1.93429 0
M  V30 38509 O 3769.99 -1.1652 1.5748 0
M  V30 38510 H 3768.57 0.440087 0.603599 0
M  V30 38511 H 3771.24 1.64002 1.05306 0
M  V30 38512 H 3770.33 1.76223 2.57588 0
M  V30 38513 N 3770.63 -1.09229 1.13608 0
M  V30 38514 C 3771.88 -1.81088 0.89731 0
M  V30 38515 C 3772.2 -1.86236 -0.578034 0
M  V30 38516 O 3771.47 -1.34938 -1.42016 0
M  V30 38517 H 3770.05 -0.670656 0.328983 0
M  V30 38518 H 3772.71 -1.321 1.43302 0
M  V30 38519 H 3771.81 -2.842 1.28984 0
M  V30 38520 N 3772.11 -0.929901 -1.27242 0
M  V30 38521 C 3773.06 -0.421242 -2.28754 0
M  V30 38522 C 3774.05 0.495582 -1.61989 0
M  V30 38523 O 3775.26 0.37504 -1.7605 0
M  V30 38524 H 3771.63 -0.117659 -0.742738 0
M  V30 38525 H 3773.61 -1.29016 -2.69068 0
M  V30 38526 C 3772.35 0.308676 -3.46327 0
M  V30 38527 H 3771.68 -0.387622 -3.97916 0
M  V30 38528 H 3773.12 0.628979 -4.19309 0
M  V30 38529 C 3771.58 1.52245 -3.00538 0
M  V30 38530 O 3772.11 2.62114 -3.044 0
M  V30 38531 N 3770.31 1.37505 -2.56009 0
M  V30 38532 H 3769.86 0.481171 -2.53066 0
M  V30 38533 H 3769.82 2.18841 -2.25734 0
M  V30 38534 N 3773.59 1.41416 -0.695653 0
M  V30 38535 C 3774.84 2.00455 -0.223754 0
M  V30 38536 C 3775.15 1.55733 1.18349 0
M  V30 38537 O 3776.36 2.07333 1.75286 0
M  V30 38538 C 3774.81 3.58202 -0.349139 0
M  V30 38539 C 3774.42 4.11906 -1.76176 0
M  V30 38540 C 3776.17 4.24453 0.0629816 0
M  V30 38541 C 3774.07 5.62088 -1.83879 0
M  V30 38542 H 3773 0.749755 -0.0798965 0
M  V30 38543 H 3775.65 1.61894 -0.863862 0
M  V30 38544 H 3774.04 3.94367 0.359221 0
M  V30 38545 H 3775.21 3.8716 -2.49888 0
M  V30 38546 H 3773.52 3.58181 -2.12356 0
M  V30 38547 H 3776.12 5.34694 0.0258645 0
M  V30 38548 H 3776.46 4.01457 1.10172 0
M  V30 38549 H 3777 3.93323 -0.595105 0
M  V30 38550 H 3773.74 5.89911 -2.85806 0
M  V30 38551 H 3773.26 5.8876 -1.14551 0
M  V30 38552 H 3774.94 6.2686 -1.60172 0
M  V30 38553 N 3775.07 0.44041 1.51321 0
M  V30 38554 C 3775.98 -0.375569 2.31574 0
M  V30 38555 C 3776.99 -1.0248 1.40619 0
M  V30 38556 O 3778.17 -1.0195 1.7369 0
M  V30 38557 C 3775.23 -1.46034 3.14444 0
M  V30 38558 C 3774.3 -0.830917 4.21182 0
M  V30 38559 C 3773.53 -1.864 5.00091 0
M  V30 38560 O 3773.75 -3.08661 4.79671 0
M  V30 38561 O 3772.69 -1.45283 5.84103 0
M  V30 38562 H 3776.51 0.279673 3.0241 0
M  V30 38563 H 3774.1 0.202883 1.48016 0
M  V30 38564 H 3775.98 -2.08939 3.65954 0
M  V30 38565 H 3774.65 -2.09961 2.4637 0
M  V30 38566 H 3773.56 -0.163732 3.73742 0
M  V30 38567 H 3774.89 -0.235088 4.91638 0
M  V30 38568 N 3776.55 -1.5666 0.171876 0
M  V30 38569 C 3777.79 -1.97192 -0.473634 0
M  V30 38570 C 3778.12 -1.05787 -1.62858 0
M  V30 38571 O 3777.4 -0.105118 -1.94216 0
M  V30 38572 C 3777.68 -3.47176 -0.956073 0
M  V30 38573 C 3777.54 -4.49359 0.199086 0
M  V30 38574 C 3778.85 -4.0027 -1.82954 0
M  V30 38575 H 3775.97 -0.716961 -0.170691 0
M  V30 38576 H 3778.62 -1.88238 0.258123 0
M  V30 38577 H 3776.77 -3.54937 -1.57962 0
M  V30 38578 H 3778.44 -4.53658 0.836188 0
M  V30 38579 H 3776.68 -4.25301 0.854494 0
M  V30 38580 H 3777.35 -5.51704 -0.180607 0
M  V30 38581 H 3779.83 -3.95143 -1.30387 0
M  V30 38582 H 3778.7 -5.05629 -2.13612 0
M  V30 38583 H 3778.96 -3.44119 -2.77551 0
M  V30 38584 N 3778.02 0.101846 -1.57271 0
M  V30 38585 C 3778.97 1.13025 -1.98013 0
M  V30 38586 C 3779.96 1.36141 -0.857578 0
M  V30 38587 O 3781.15 1.36946 -1.12138 0
M  V30 38588 C 3778.28 2.4523 -2.40244 0
M  V30 38589 C 3777.36 2.25516 -3.5917 0
M  V30 38590 N 3777.76 1.75654 -4.7432 0
M  V30 38591 C 3776.05 2.56108 -3.65136 0
M  V30 38592 C 3776.75 1.70052 -5.56289 0
M  V30 38593 N 3775.73 2.15022 -4.99266 0
M  V30 38594 H 3779.53 0.737561 -2.84495 0
M  V30 38595 H 3777.05 0.309367 -1.59426 0
M  V30 38596 H 3779.04 3.19633 -2.67658 0
M  V30 38597 H 3777.7 2.85242 -1.55136 0
M  V30 38598 H 3778.71 1.44949 -4.97202 0
M  V30 38599 H 3775.39 2.9969 -2.90675 0
M  V30 38600 H 3776.78 1.32609 -6.58684 0
M  V30 38601 N 3779.5 1.53135 0.372494 0
M  V30 38602 C 3780.75 1.69232 1.11751 0
M  V30 38603 C 3781.08 0.439299 1.89166 0
M  V30 38604 O 3780.36 -0.563284 1.86165 0
M  V30 38605 C 3780.64 2.93785 2.08237 0
M  V30 38606 C 3780.49 4.29227 1.34476 0
M  V30 38607 C 3781.81 3.1392 3.08451 0
M  V30 38608 H 3778.93 0.615821 0.404887 0
M  V30 38609 H 3781.57 1.85762 0.399069 0
M  V30 38610 H 3779.72 2.79823 2.69502 0
M  V30 38611 H 3781.39 4.54988 0.76048 0
M  V30 38612 H 3779.64 4.28954 0.646598 0
M  V30 38613 H 3780.31 5.12497 2.05062 0
M  V30 38614 H 3782.78 3.27022 2.57286 0
M  V30 38615 H 3781.66 4.02516 3.73191 0
M  V30 38616 H 3781.92 2.28884 3.78239 0
M  V30 38617 N 3780.98 -0.6319 1.44377 0
M  V30 38618 C 3781.93 -1.7651 1.51483 0
M  V30 38619 C 3782.92 -1.6493 0.386591 0
M  V30 38620 O 3784.13 -1.71018 0.561503 0
M  V30 38621 H 3780.5 -0.582724 0.475328 0
M  V30 38622 H 3782.47 -1.6764 2.46859 0
M  V30 38623 C 3781.22 -3.14842 1.47545 0
M  V30 38624 H 3780.55 -3.24401 2.33676 0
M  V30 38625 H 3781.99 -3.9403 1.56577 0
M  V30 38626 C 3780.44 -3.36329 0.196102 0
M  V30 38627 O 3780.97 -3.94937 -0.734014 0
M  V30 38628 N 3779.18 -2.9043 0.0994842 0
M  V30 38629 H 3778.73 -2.42919 0.857219 0
M  V30 38630 H 3778.69 -3.05181 -0.755761 0
M  V30 38631 N 3782.46 -1.31262 -0.872235 0
M  V30 38632 C 3783.87 -1.1874 -1.44075 0
M  V30 38633 C 3784.22 0.207003 -1.95105 0
M  V30 38634 O 3783.34 1.1046 -1.86085 0
M  V30 38635 C 3783.94 -2.14952 -2.6188 0
M  V30 38636 C 3782.5 -2.0637 -3.14783 0
M  V30 38637 C 3781.65 -2.04309 -1.87491 0
M  V30 38638 H 3784.6 -1.43347 -0.680986 0
M  V30 38639 H 3784.62 -1.73779 -3.38498 0
M  V30 38640 H 3784.13 -3.16429 -2.24709 0
M  V30 38641 H 3782.23 -1.08079 -3.56581 0
M  V30 38642 H 3782.34 -2.95368 -3.7722 0
M  V30 38643 H 3780.71 -1.49292 -2.06359 0
M  V30 38644 H 3781.49 -3.07539 -1.52561 0
M  V30 38645 N 3783.94 1.08625 -1.14186 0
M  V30 38646 C 3785.18 1.80609 -0.906901 0
M  V30 38647 C 3785.5 1.8654 0.568149 0
M  V30 38648 O 3784.77 1.35689 1.41298 0
M  V30 38649 H 3783.35 0.668902 -0.332535 0
M  V30 38650 H 3786.02 1.31339 -1.44001 0
M  V30 38651 H 3785.11 2.83512 -1.30489 0
M  V30 38652 N 3785.41 0.936635 1.26747 0
M  V30 38653 C 3786.69 0.499843 1.89106 0
M  V30 38654 C 3787.07 -1.02241 1.84689 0
M  V30 38655 O 3786.42 -1.88045 1.29813 0
M  V30 38656 C 3786.63 1.05604 3.32639 0
M  V30 38657 C 3787.98 1.12194 4.09509 0
M  V30 38658 O 3789 1.0063 3.4169 0
M  V30 38659 O 3787.86 1.30122 5.30783 0
M  V30 38660 H 3784.95 0.1622 0.810938 0
M  V30 38661 H 3787.5 1.0289 1.34951 0
M  V30 38662 H 3786.27 2.09974 3.30192 0
M  V30 38663 H 3785.9 0.509155 3.94326 0
M  V30 38664 N 3786.89 -1.41045 0.703143 0
M  V30 38665 C 3788.14 -2.00707 0.236853 0
M  V30 38666 C 3788.46 -1.55996 -1.17005 0
M  V30 38667 O 3787.73 -0.793903 -1.79092 0
M  V30 38668 H 3786.31 -0.742197 0.0845774 0
M  V30 38669 H 3788.97 -1.72562 0.905994 0
M  V30 38670 H 3788.07 -3.11013 0.260195 0
M  V30 38671 N 3788.37 -0.448429 -1.51086 0
M  V30 38672 C 3789.6 0.112658 -2.06593 0
M  V30 38673 C 3790.01 1.355 -1.31474 0
M  V30 38674 O 3789.37 1.78554 -0.377438 0
M  V30 38675 C 3789.42 0.423705 -3.59008 0
M  V30 38676 O 3789.14 -0.769335 -4.31292 0
M  V30 38677 C 3790.64 1.03425 -4.31066 0
M  V30 38678 H 3787.86 0.00300447 -0.670993 0
M  V30 38679 H 3790.41 -0.630701 -1.94531 0
M  V30 38680 H 3788.56 1.11697 -3.70948 0
M  V30 38681 H 3788.98 -0.500253 -5.22109 0
M  V30 38682 H 3790.45 1.20181 -5.38758 0
M  V30 38683 H 3790.93 2.0183 -3.90079 0
M  V30 38684 H 3791.53 0.380041 -4.23599 0
M  V30 38685 N 3789.85 1.56567 -0.180181 0
M  V30 38686 C 3791.1 1.96759 0.461572 0
M  V30 38687 C 3791.42 1.06763 1.63177 0
M  V30 38688 O 3790.69 0.135797 1.95429 0
M  V30 38689 H 3789.27 0.726569 0.173513 0
M  V30 38690 H 3791.93 1.93111 -0.263434 0
M  V30 38691 H 3791.03 3.01253 0.815676 0
M  V30 38692 N 3791.33 -0.0935042 1.57322 0
M  V30 38693 C 3792.26 -1.11406 2.0521 0
M  V30 38694 C 3793.24 -1.4168 0.94132 0
M  V30 38695 O 3794.42 -1.51682 1.21269 0
M  V30 38696 C 3791.55 -2.4335 2.47786 0
M  V30 38697 C 3790.51 -2.2748 3.62542 0
M  V30 38698 C 3789.83 -3.64615 3.91101 0
M  V30 38699 C 3791.13 -1.71403 4.93374 0
M  V30 38700 H 3792.83 -0.715651 2.90721 0
M  V30 38701 H 3790.37 -0.342802 1.3986 0
M  V30 38702 H 3792.33 -3.15017 2.79896 0
M  V30 38703 H 3791.05 -2.85129 1.59277 0
M  V30 38704 H 3789.71 -1.58257 3.30681 0
M  V30 38705 H 3789.36 -4.03925 2.99756 0
M  V30 38706 H 3789.06 -3.54842 4.6836 0
M  V30 38707 H 3790.58 -4.37747 4.25687 0
M  V30 38708 H 3791.99 -2.32913 5.23855 0
M  V30 38709 H 3790.39 -1.72385 5.74807 0
M  V30 38710 H 3791.46 -0.673595 4.80199 0
M  V30 38711 N 3792.8 -1.5333 -0.364368 0
M  V30 38712 C 3794.22 -1.4313 -0.706121 0
M  V30 38713 C 3794.42 -0.571341 -1.9323 0
M  V30 38714 O 3793.48 -0.0542522 -2.52442 0
M  V30 38715 C 3794.79 -2.86338 -0.918195 0
M  V30 38716 C 3796.34 -2.95978 -1.01813 0
M  V30 38717 C 3796.81 -4.40251 -1.26267 0
M  V30 38718 N 3798.3 -4.43685 -1.33034 0
M  V30 38719 C 3799.04 -5.52426 -1.53667 0
M  V30 38720 N 3798.53 -6.7121 -1.71609 0
M  V30 38721 N 3800.33 -5.40006 -1.56046 0
M  V30 38722 H 3792.48 -2.07747 0.442128 0
M  V30 38723 H 3794.74 -0.93823 0.135751 0
M  V30 38724 H 3794.45 -3.51587 -0.089001 0
M  V30 38725 H 3794.32 -3.30059 -1.82594 0
M  V30 38726 H 3796.71 -2.30882 -1.83786 0
M  V30 38727 H 3796.79 -2.55649 -0.0877443 0
M  V30 38728 H 3796.43 -5.05921 -0.447937 0
M  V30 38729 H 3796.36 -4.78153 -2.20629 0
M  V30 38730 H 3798.85 -3.5808 -1.20777 0
M  V30 38731 H 3799.17 -7.49852 -1.86929 0
M  V30 38732 H 3797.51 -6.74193 -1.68785 0
M  V30 38733 H 3800.7 -4.4617 -1.41598 0
M  V30 38734 H 3800.88 -6.24815 -1.71785 0
M  V30 38735 N 3794.28 0.624234 -1.4471 0
M  V30 38736 C 3795.23 1.73586 -1.52107 0
M  V30 38737 C 3796.2 1.61967 -0.368222 0
M  V30 38738 O 3797.38 1.8179 -0.579406 0
M  V30 38739 C 3794.52 3.11855 -1.47786 0
M  V30 38740 C 3793.64 3.344 -2.73497 0
M  V30 38741 C 3792.77 4.6268 -2.60961 0
M  V30 38742 C 3791.81 4.78427 -3.81803 0
M  V30 38743 N 3790.95 5.9799 -3.67902 0
M  V30 38744 H 3795.79 1.666 -2.4708 0
M  V30 38745 H 3793.33 0.812595 -1.22619 0
M  V30 38746 H 3795.28 3.91828 -1.4327 0
M  V30 38747 H 3793.91 3.17839 -0.56375 0
M  V30 38748 H 3792.97 2.48319 -2.8817 0
M  V30 38749 H 3794.28 3.41914 -3.63176 0
M  V30 38750 H 3793.43 5.50824 -2.54318 0
M  V30 38751 H 3792.17 4.57537 -1.68854 0
M  V30 38752 H 3791.18 3.88711 -3.88824 0
M  V30 38753 H 3792.4 4.8538 -4.74956 0
M  V30 38754 H 3790.35 5.93923 -2.78552 0
M  V30 38755 H 3790.26 6.0659 -4.51203 0
M  V30 38756 H 3791.53 6.88677 -3.65163 0
M  V30 38757 N 3795.76 1.31723 0.865262 0
M  V30 38758 C 3796.72 1.19722 1.95446 0
M  V30 38759 C 3797.72 0.123053 1.60328 0
M  V30 38760 O 3798.91 0.372673 1.70167 0
M  V30 38761 C 3796.05 0.838776 3.3042 0
M  V30 38762 H 3797.24 2.16509 2.07518 0
M  V30 38763 H 3794.79 1.15402 1.05414 0
M  V30 38764 H 3795.53 -0.12774 3.24048 0
M  V30 38765 H 3795.31 1.61528 3.57283 0
M  V30 38766 H 3796.8 0.778832 4.10273 0
M  V30 38767 N 3797.24 -1.08018 1.14761 0
M  V30 38768 C 3798.17 -2.17046 0.861016 0
M  V30 38769 C 3799.15 -1.69084 -0.185623 0
M  V30 38770 O 3800.33 -1.94156 -0.0414456 0
M  V30 38771 C 3797.46 -3.45611 0.342079 0
M  V30 38772 C 3796.42 -4.06986 1.32462 0
M  V30 38773 C 3795.74 -5.30551 0.664814 0
M  V30 38774 C 3797.04 -4.47805 2.68827 0
M  V30 38775 H 3798.74 -2.41277 1.77273 0
M  V30 38776 H 3796.28 -1.1596 0.853778 0
M  V30 38777 H 3798.24 -4.21202 0.129167 0
M  V30 38778 H 3796.96 -3.20946 -0.605081 0
M  V30 38779 H 3795.62 -3.33432 1.52377 0
M  V30 38780 H 3795.27 -5.02173 -0.288279 0
M  V30 38781 H 3794.97 -5.72571 1.32046 0
M  V30 38782 H 3796.49 -6.08853 0.461519 0
M  V30 38783 H 3797.91 -5.14555 2.52797 0
M  V30 38784 H 3796.3 -5.00755 3.30702 0
M  V30 38785 H 3797.37 -3.595 3.25404 0
M  V30 38786 N 3798.72 -0.943344 -1.26249 0
M  V30 38787 C 3799.65 -0.472387 -2.28672 0
M  V30 38788 C 3800.63 0.475452 -1.6332 0
M  V30 38789 O 3801.81 0.376841 -1.90509 0
M  V30 38790 C 3798.94 0.261225 -3.46316 0
M  V30 38791 C 3797.9 -0.600266 -4.2377 0
M  V30 38792 C 3797.22 0.263431 -5.34051 0
M  V30 38793 C 3798.52 -1.8727 -4.87573 0
M  V30 38794 H 3800.22 -1.32841 -2.68316 0
M  V30 38795 H 3797.76 -0.640205 -1.28986 0
M  V30 38796 H 3799.72 0.601747 -4.17081 0
M  V30 38797 H 3798.44 1.1514 -3.05631 0
M  V30 38798 H 3797.1 -0.923714 -3.54772 0
M  V30 38799 H 3796.75 1.15303 -4.89606 0
M  V30 38800 H 3796.45 -0.309598 -5.86784 0
M  V30 38801 H 3797.97 0.599175 -6.07653 0
M  V30 38802 H 3799.38 -1.59929 -5.50541 0
M  V30 38803 H 3797.78 -2.39047 -5.50433 0
M  V30 38804 H 3798.85 -2.58276 -4.10392 0
M  V30 38805 N 3800.2 1.4067 -0.710613 0
M  V30 38806 C 3801.15 2.27978 -0.0313931 0
M  V30 38807 C 3802.13 1.42997 0.737618 0
M  V30 38808 O 3803.32 1.66133 0.610637 0
M  V30 38809 C 3800.45 3.31475 0.893271 0
M  V30 38810 C 3799.54 4.23931 0.11971 0
M  V30 38811 N 3799.93 4.97829 -0.894429 0
M  V30 38812 C 3798.23 4.44601 0.352999 0
M  V30 38813 C 3798.93 5.65607 -1.3588 0
M  V30 38814 N 3797.9 5.39306 -0.681881 0
M  V30 38815 H 3801.7 2.82554 -0.808733 0
M  V30 38816 H 3799.22 1.53062 -0.542761 0
M  V30 38817 H 3801.22 3.92863 1.39514 0
M  V30 38818 H 3799.88 2.78459 1.67004 0
M  V30 38819 H 3800.89 5.01957 -1.27513 0
M  V30 38820 H 3797.56 4.02571 1.10648 0
M  V30 38821 H 3798.95 6.34821 -2.20119 0
M  V30 38822 N 3801.67 0.456435 1.50846 0
M  V30 38823 C 3802.64 -0.33384 2.26756 0
M  V30 38824 C 3803.64 -0.933224 1.30949 0
M  V30 38825 O 3804.83 -0.804689 1.545 0
M  V30 38826 C 3801.96 -1.47412 3.0738 0
M  V30 38827 H 3803.15 0.331686 2.9806 0
M  V30 38828 H 3800.7 0.210095 1.54882 0
M  V30 38829 H 3801.44 -2.17513 2.40538 0
M  V30 38830 H 3801.22 -1.05029 3.77771 0
M  V30 38831 H 3802.71 -2.03197 3.6483 0
M  V30 38832 N 3803.15 -1.56469 0.188482 0
M  V30 38833 C 3804.56 -1.83845 -0.325277 0
M  V30 38834 C 3804.91 -1.10893 -1.61856 0
M  V30 38835 O 3804.04 -0.367557 -2.13256 0
M  V30 38836 C 3804.63 -3.335 -0.596943 0
M  V30 38837 C 3803.19 -3.6131 -1.05509 0
M  V30 38838 C 3802.34 -2.77119 -0.100133 0
M  V30 38839 H 3805.29 -1.53248 0.412405 0
M  V30 38840 H 3805.31 -3.51911 -1.44703 0
M  V30 38841 H 3804.82 -3.86568 0.344497 0
M  V30 38842 H 3802.92 -3.13669 -2.01104 0
M  V30 38843 H 3803.04 -4.69539 -0.952379 0
M  V30 38844 H 3801.4 -2.47513 -0.600772 0
M  V30 38845 H 3802.18 -3.32975 0.835633 0
M  V30 38846 N 3804.63 0.0851597 -1.5737 0
M  V30 38847 C 3805.86 0.800104 -1.90803 0
M  V30 38848 C 3806.27 1.71791 -0.783162 0
M  V30 38849 O 3805.63 1.80857 0.244299 0
M  V30 38850 C 3805.68 1.60507 -3.23913 0
M  V30 38851 O 3805.4 0.724177 -4.32073 0
M  V30 38852 C 3806.9 2.4222 -3.71274 0
M  V30 38853 H 3804.12 0.228231 -0.630992 0
M  V30 38854 H 3806.67 0.0594228 -2.04414 0
M  V30 38855 H 3804.82 2.29816 -3.11871 0
M  V30 38856 H 3805.24 1.2827 -5.08574 0
M  V30 38857 H 3806.71 2.94178 -4.67079 0
M  V30 38858 H 3807.19 3.21138 -2.99612 0
M  V30 38859 H 3807.79 1.78092 -3.86217 0
M  V30 38860 N 3806.11 1.53521 0.356231 0
M  V30 38861 C 3807.36 1.6982 1.09571 0
M  V30 38862 C 3807.68 0.457439 1.89559 0
M  V30 38863 O 3806.95 -0.528583 1.88634 0
M  V30 38864 H 3805.53 0.626061 0.407501 0
M  V30 38865 H 3808.19 1.90739 0.400578 0
M  V30 38866 H 3807.28 2.56346 1.78025 0
M  V30 38867 N 3807.59 -0.616551 1.45039 0
M  V30 38868 C 3808.81 -1.40265 1.52097 0
M  V30 38869 C 3809.23 -1.88198 0.150592 0
M  V30 38870 O 3808.59 -1.61695 -0.84623 0
M  V30 38871 C 3808.64 -2.61318 2.4979 0
M  V30 38872 O 3808.36 -2.15379 3.81502 0
M  V30 38873 C 3809.86 -3.54282 2.66457 0
M  V30 38874 H 3807.08 -0.429672 0.515386 0
M  V30 38875 H 3809.62 -0.752735 1.90142 0
M  V30 38876 H 3807.78 -3.2237 2.14841 0
M  V30 38877 H 3808.19 -2.93965 4.34379 0
M  V30 38878 H 3809.67 -4.35789 3.3881 0
M  V30 38879 H 3810.14 -4.04041 1.72184 0
M  V30 38880 H 3810.75 -2.99089 3.02367 0
M  V30 38881 N 3809.06 -1.3218 -0.858264 0
M  V30 38882 C 3810.3 -1.23847 -1.62608 0
M  V30 38883 C 3810.67 0.197595 -1.90981 0
M  V30 38884 O 3811.87 0.404603 -2.65737 0
M  V30 38885 C 3810.14 -2.07052 -2.91315 0
M  V30 38886 S 3811.7 -2.15705 -3.82121 0
M  V30 38887 H 3808.52 -0.44091 -0.557781 0
M  V30 38888 H 3811.12 -1.66985 -1.01667 0
M  V30 38889 H 3809.82 -3.10457 -2.68412 0
M  V30 38890 H 3809.35 -1.64677 -3.57274 0
M  V30 38891 H 3811.37 -1.30392 -4.78761 0
M  V30 38892 N 3810.54 1.07407 -1.15332 0
M  V30 38893 C 3811.77 1.84253 -0.952133 0
M  V30 38894 C 3812.19 1.81483 0.494539 0
M  V30 38895 O 3811.55 1.20735 1.3525 0
M  V30 38896 C 3811.6 3.29266 -1.47025 0
M  V30 38897 O 3810.7 4.06936 -0.669076 0
M  V30 38898 H 3810.04 0.570554 -0.339653 0
M  V30 38899 H 3812.57 1.35499 -1.53301 0
M  V30 38900 H 3812.58 3.801 -1.48284 0
M  V30 38901 H 3811.26 3.30597 -2.52345 0
M  V30 38902 H 3809.83 3.65763 -0.726067 0
M  V30 38903 N 3812.02 0.950026 1.25747 0
M  V30 38904 C 3813.3 0.519872 1.88565 0
M  V30 38905 C 3813.68 -1.00276 1.85763 0
M  V30 38906 O 3813.02 -1.86657 1.318 0
M  V30 38907 C 3813.23 1.09126 3.315 0
M  V30 38908 C 3814.58 1.16531 4.08296 0
M  V30 38909 O 3815.61 1.04248 3.40603 0
M  V30 38910 O 3814.47 1.35744 5.29373 0
M  V30 38911 H 3811.56 0.170791 0.809172 0
M  V30 38912 H 3814.11 1.04316 1.33852 0
M  V30 38913 H 3812.88 2.13464 3.27946 0
M  V30 38914 H 3812.5 0.55095 3.93764 0
M  V30 38915 N 3813.5 -1.40291 0.718063 0
M  V30 38916 C 3814.75 -2.00445 0.258128 0
M  V30 38917 C 3815.07 -1.57228 -1.15344 0
M  V30 38918 O 3814.34 -0.812853 -1.7824 0
M  V30 38919 H 3812.92 -0.741258 0.0924446 0
M  V30 38920 H 3815.58 -1.71592 0.924246 0
M  V30 38921 H 3814.67 -3.1072 0.293168 0
M  V30 38922 N 3814.98 -0.464428 -1.50602 0
M  V30 38923 C 3815.91 0.36939 -2.26204 0
M  V30 38924 C 3816.92 0.962901 -1.31271 0
M  V30 38925 O 3818.11 0.852438 -1.5683 0
M  V30 38926 C 3815.21 1.53142 -3.02326 0
M  V30 38927 C 3814.38 1.05191 -4.24563 0
M  V30 38928 C 3813.44 2.0872 -4.83034 0
M  V30 38929 O 3812.47 1.67052 -5.44134 0
M  V30 38930 N 3813.67 3.41469 -4.69446 0
M  V30 38931 H 3816.44 -0.278704 -2.98401 0
M  V30 38932 H 3814 -0.294831 -1.59193 0
M  V30 38933 H 3815.99 2.2208 -3.38323 0
M  V30 38934 H 3814.56 2.08433 -2.32968 0
M  V30 38935 H 3813.78 0.188636 -3.93748 0
M  V30 38936 H 3815.07 0.709346 -5.03831 0
M  V30 38937 H 3814.46 3.78036 -4.20839 0
M  V30 38938 H 3813.02 4.06224 -5.09731 0
M  V30 38939 N 3816.45 1.56367 -0.196777 0
M  V30 38940 C 3817.42 2.17936 0.709696 0
M  V30 38941 C 3818.42 1.13428 1.13977 0
M  V30 38942 O 3819.61 1.38803 1.05259 0
M  V30 38943 C 3816.74 2.78278 1.96912 0
M  V30 38944 H 3817.93 2.99399 0.17329 0
M  V30 38945 H 3815.49 1.56211 0.0528424 0
M  V30 38946 H 3816.22 2.00618 2.548 0
M  V30 38947 H 3816.01 3.54784 1.66945 0
M  V30 38948 H 3817.5 3.25549 2.61548 0
M  V30 38949 N 3817.93 -0.0768128 1.57413 0
M  V30 38950 C 3818.88 -1.09861 1.99787 0
M  V30 38951 C 3819.87 -1.3476 0.879128 0
M  V30 38952 O 3821.06 -1.35144 1.14302 0
M  V30 38953 C 3818.19 -2.41377 2.44115 0
M  V30 38954 C 3817.27 -2.19773 3.62713 0
M  V30 38955 N 3817.66 -1.68086 4.77054 0
M  V30 38956 C 3815.96 -2.50267 3.69165 0
M  V30 38957 C 3816.66 -1.6118 5.58924 0
M  V30 38958 N 3815.64 -2.07052 5.02624 0
M  V30 38959 H 3819.44 -0.692207 2.85632 0
M  V30 38960 H 3816.96 -0.283964 1.59898 0
M  V30 38961 H 3818.95 -3.15334 2.72709 0
M  V30 38962 H 3817.61 -2.82738 1.59654 0
M  V30 38963 H 3818.62 -1.37021 4.99445 0
M  V30 38964 H 3815.3 -2.95028 2.95406 0
M  V30 38965 H 3816.69 -1.22113 6.6071 0
M  V30 38966 N 3819.41 -1.53708 -0.348084 0
M  V30 38967 C 3820.64 -1.74978 -1.11343 0
M  V30 38968 C 3821.06 -0.485557 -1.81725 0
M  V30 38969 O 3820.42 0.561535 -1.72385 0
M  V30 38970 C 3820.47 -2.92707 -2.10606 0
M  V30 38971 O 3819.57 -2.62538 -3.18037 0
M  V30 38972 H 3818.91 -0.580568 -0.322237 0
M  V30 38973 H 3821.44 -2.00655 -0.399862 0
M  V30 38974 H 3821.45 -3.19368 -2.53906 0
M  V30 38975 H 3820.13 -3.844 -1.58775 0
M  V30 38976 H 3818.7 -2.46751 -2.79586 0
M  V30 38977 N 3820.89 0.608851 -1.45364 0
M  V30 38978 C 3822.14 1.36397 -1.48589 0
M  V30 38979 C 3822.45 1.95159 -0.131248 0
M  V30 38980 O 3823.66 2.71469 -0.0411322 0
M  V30 38981 C 3822.11 2.47066 -2.61699 0
M  V30 38982 C 3821.72 1.94722 -4.03469 0
M  V30 38983 C 3823.46 3.24087 -2.74168 0
M  V30 38984 C 3821.37 3.02865 -5.07963 0
M  V30 38985 H 3820.3 0.512655 -0.552902 0
M  V30 38986 H 3822.95 0.65268 -1.715 0
M  V30 38987 H 3821.33 3.20875 -2.32068 0
M  V30 38988 H 3822.51 1.27631 -4.42772 0
M  V30 38989 H 3820.82 1.3045 -3.95439 0
M  V30 38990 H 3823.42 4.04746 -3.49407 0
M  V30 38991 H 3823.76 3.7501 -1.80758 0
M  V30 38992 H 3824.3 2.57377 -3.03318 0
M  V30 38993 H 3821.04 2.5686 -6.03078 0
M  V30 38994 H 3820.56 3.68527 -4.73231 0
M  V30 38995 H 3822.23 3.67268 -5.32657 0
M  V30 38996 N 3822.37 1.32633 0.851242 0
M  V30 38997 C 3823.59 1.26538 1.64326 0
M  V30 38998 C 3824.02 -0.163053 1.87392 0
M  V30 38999 O 3823.37 -1.11558 1.42915 0
M  V30 39000 C 3823.42 2.03374 2.97777 0
M  V30 39001 O 3822.53 1.38388 3.88488 0
M  V30 39002 H 3821.87 0.435935 0.500856 0
M  V30 39003 H 3824.4 1.75003 1.05997 0
M  V30 39004 H 3824.41 2.13676 3.47572 0
M  V30 39005 H 3823.08 3.07244 2.8031 0
M  V30 39006 H 3821.66 1.36655 3.46958 0
M  V30 39007 N 3823.84 -1.06794 1.159 0
M  V30 39008 C 3824.77 -2.1612 0.883988 0
M  V30 39009 C 3825.76 -1.69272 -0.167679 0
M  V30 39010 O 3826.94 -1.94189 -0.0208504 0
M  V30 39011 C 3824.07 -3.45229 0.378717 0
M  V30 39012 C 3823.02 -4.05559 1.36771 0
M  V30 39013 C 3822.35 -5.29816 0.721049 0
M  V30 39014 C 3823.65 -4.44928 2.73562 0
M  V30 39015 H 3825.34 -2.39383 1.79822 0
M  V30 39016 H 3822.89 -1.15048 0.866029 0
M  V30 39017 H 3824.84 -4.21041 0.173834 0
M  V30 39018 H 3823.57 -3.2157 -0.571007 0
M  V30 39019 H 3822.23 -3.31797 1.55905 0
M  V30 39020 H 3821.87 -5.02451 -0.235 0
M  V30 39021 H 3821.57 -5.71138 1.38111 0
M  V30 39022 H 3823.1 -6.0833 0.52607 0
M  V30 39023 H 3824.51 -5.11845 2.5824 0
M  V30 39024 H 3822.91 -4.9722 3.35995 0
M  V30 39025 H 3823.98 -3.56029 3.29199 0
M  V30 39026 N 3825.32 -0.956681 -1.25241 0
M  V30 39027 C 3826.57 -0.61348 -1.93298 0
M  V30 39028 C 3826.9 0.84764 -1.74725 0
M  V30 39029 O 3826.18 1.60844 -1.0936 0
M  V30 39030 C 3826.46 -0.975482 -3.46636 0
M  V30 39031 C 3826.31 -2.49248 -3.74427 0
M  V30 39032 C 3827.63 -0.502025 -4.37227 0
M  V30 39033 H 3824.75 -0.224351 -0.702023 0
M  V30 39034 H 3827.39 -1.1937 -1.4782 0
M  V30 39035 H 3825.54 -0.481738 -3.85502 0
M  V30 39036 H 3827.21 -3.06015 -3.45185 0
M  V30 39037 H 3825.46 -2.92929 -3.19961 0
M  V30 39038 H 3826.13 -2.69628 -4.81669 0
M  V30 39039 H 3828.6 -0.925585 -4.05675 0
M  V30 39040 H 3827.48 -0.783991 -5.43272 0
M  V30 39041 H 3827.74 0.598005 -4.38037 0
M  V30 39042 N 3826.8 1.39908 -0.725493 0
M  V30 39043 C 3828.22 1.54504 -0.400075 0
M  V30 39044 C 3828.42 1.69466 1.09011 0
M  V30 39045 O 3827.47 1.68981 1.87621 0
M  V30 39046 C 3828.79 2.76802 -1.17479 0
M  V30 39047 C 3830.33 2.90628 -1.16207 0
M  V30 39048 C 3830.81 4.15852 -1.91915 0
M  V30 39049 N 3832.3 4.22872 -1.89034 0
M  V30 39050 C 3833.03 5.18693 -2.44429 0
M  V30 39051 N 3832.53 6.20361 -3.08421 0
M  V30 39052 N 3834.32 5.10842 -2.34515 0
M  V30 39053 H 3826.47 1.28444 -1.69163 0
M  V30 39054 H 3828.74 0.621826 -0.715567 0
M  V30 39055 H 3828.44 2.72057 -2.22886 0
M  V30 39056 H 3828.32 3.69196 -0.772936 0
M  V30 39057 H 3830.7 2.94871 -0.116168 0
M  V30 39058 H 3830.79 1.99324 -1.60323 0
M  V30 39059 H 3830.43 4.1237 -2.96502 0
M  V30 39060 H 3830.36 5.06183 -1.45213 0
M  V30 39061 H 3832.85 3.50042 -1.42406 0
M  V30 39062 H 3833.16 6.8992 -3.48181 0
M  V30 39063 H 3831.51 6.20777 -3.12508 0
M  V30 39064 H 3834.7 4.30347 -1.84172 0
M  V30 39065 H 3834.87 5.85344 -2.77986 0
M  V30 39066 N 3828.28 0.472408 1.50353 0
M  V30 39067 C 3829.23 -0.335095 2.30174 0
M  V30 39068 C 3830.22 -0.989186 1.37519 0
M  V30 39069 O 3831.43 -0.92014 1.54704 0
M  V30 39070 H 3827.8 -0.126905 0.741215 0
M  V30 39071 H 3829.77 0.358502 2.96239 0
M  V30 39072 C 3828.52 -1.4037 3.18106 0
M  V30 39073 H 3827.84 -0.909772 3.89311 0
M  V30 39074 H 3829.28 -1.94126 3.7695 0
M  V30 39075 C 3827.74 -2.40635 2.35789 0
M  V30 39076 O 3828.27 -3.45932 2.04191 0
M  V30 39077 N 3826.48 -2.12385 1.98345 0
M  V30 39078 H 3826.03 -1.2678 2.24242 0
M  V30 39079 H 3825.98 -2.79704 1.43571 0
M  V30 39080 N 3829.76 -1.5626 0.205067 0
M  V30 39081 C 3831.17 -1.58888 -0.150616 0
M  V30 39082 C 3831.37 -1.22151 -1.60254 0
M  V30 39083 O 3830.43 -0.948953 -2.3399 0
M  V30 39084 C 3831.74 -3.0027 0.160763 0
M  V30 39085 C 3833.29 -3.12835 0.101671 0
M  V30 39086 C 3833.77 -4.56366 0.386497 0
M  V30 39087 N 3835.26 -4.61984 0.335473 0
M  V30 39088 C 3835.99 -5.70949 0.529573 0
M  V30 39089 N 3835.49 -6.88343 0.784562 0
M  V30 39090 N 3837.28 -5.60189 0.463142 0
M  V30 39091 H 3829.43 -1.78419 1.15241 0
M  V30 39092 H 3831.69 -0.828521 0.460713 0
M  V30 39093 H 3831.4 -3.31744 1.16786 0
M  V30 39094 H 3831.27 -3.73429 -0.532002 0
M  V30 39095 H 3833.66 -2.81167 -0.896044 0
M  V30 39096 H 3833.74 -2.4204 0.827664 0
M  V30 39097 H 3833.39 -4.88748 1.38157 0
M  V30 39098 H 3833.32 -5.25365 -0.360499 0
M  V30 39099 H 3835.81 -3.7762 0.145412 0
M  V30 39100 H 3836.12 -7.6729 0.921211 0
M  V30 39101 H 3834.47 -6.90127 0.82157 0
M  V30 39102 H 3837.66 -4.67353 0.264282 0
M  V30 39103 H 3837.83 -6.45048 0.617826 0
M  V30 39104 N 3831.24 0.0684638 -1.57451 0
M  V30 39105 C 3832.65 0.423327 -1.53883 0
M  V30 39106 C 3832.85 1.78976 -0.92573 0
M  V30 39107 O 3831.91 2.46882 -0.529673 0
M  V30 39108 C 3833.22 0.361333 -2.98521 0
M  V30 39109 C 3834.77 0.44128 -3.09874 0
M  V30 39110 C 3835.24 0.409158 -4.56169 0
M  V30 39111 N 3836.73 0.469135 -4.60818 0
M  V30 39112 C 3837.47 0.466548 -5.71499 0
M  V30 39113 N 3836.97 0.418578 -6.91534 0
M  V30 39114 N 3838.76 0.513353 -5.59751 0
M  V30 39115 H 3830.91 -0.826234 -1.95671 0
M  V30 39116 H 3833.17 -0.31037 -0.895754 0
M  V30 39117 H 3832.88 -0.576096 -3.4695 0
M  V30 39118 H 3832.75 1.17026 -3.58587 0
M  V30 39119 H 3835.14 1.36913 -2.61417 0
M  V30 39120 H 3835.22 -0.396281 -2.52712 0
M  V30 39121 H 3834.86 -0.51486 -5.05284 0
M  V30 39122 H 3834.79 1.2643 -5.11198 0
M  V30 39123 H 3837.29 0.510321 -3.74438 0
M  V30 39124 H 3837.6 0.420622 -7.71654 0
M  V30 39125 H 3835.94 0.385216 -6.93932 0
M  V30 39126 H 3839.13 0.548544 -4.64875 0
M  V30 39127 H 3839.31 0.507868 -6.46007 0
M  V30 39128 N 3832.71 1.5389 0.339928 0
M  V30 39129 C 3833.96 1.70526 1.0772 0
M  V30 39130 C 3834.28 0.477092 1.89692 0
M  V30 39131 O 3835.48 0.524471 2.66386 0
M  V30 39132 C 3833.94 3.01555 1.9645 0
M  V30 39133 C 3833.55 4.31722 1.19668 0
M  V30 39134 C 3835.29 3.27556 2.70013 0
M  V30 39135 C 3833.2 5.53822 2.07448 0
M  V30 39136 H 3832.13 0.635444 0.405866 0
M  V30 39137 H 3834.78 1.80389 0.336458 0
M  V30 39138 H 3833.16 2.85558 2.74359 0
M  V30 39139 H 3834.33 4.58433 0.466446 0
M  V30 39140 H 3832.65 4.12361 0.578579 0
M  V30 39141 H 3835.25 4.1597 3.35966 0
M  V30 39142 H 3835.59 2.44722 3.36774 0
M  V30 39143 H 3836.12 3.44346 1.99176 0
M  V30 39144 H 3832.86 6.39211 1.45223 0
M  V30 39145 H 3832.38 5.31354 2.78251 0
M  V30 39146 H 3834.06 5.89602 2.66417 0
M  V30 39147 N 3834.19 -0.601133 1.45685 0
M  V30 39148 C 3835.44 -1.35608 1.4931 0
M  V30 39149 C 3835.75 -1.95087 0.141596 0
M  V30 39150 O 3836.96 -2.71443 0.0555283 0
M  V30 39151 C 3835.42 -2.45675 2.63005 0
M  V30 39152 C 3835.02 -1.92579 4.04496 0
M  V30 39153 C 3836.77 -3.22628 2.75883 0
M  V30 39154 C 3834.67 -3.00167 5.09562 0
M  V30 39155 H 3833.6 -0.509716 0.555613 0
M  V30 39156 H 3836.26 -0.643576 1.71844 0
M  V30 39157 H 3834.64 -3.19639 2.33766 0
M  V30 39158 H 3835.81 -1.25281 4.43443 0
M  V30 39159 H 3834.13 -1.28351 3.96125 0
M  V30 39160 H 3836.72 -4.02887 3.51548 0
M  V30 39161 H 3837.07 -3.74046 1.82744 0
M  V30 39162 H 3837.6 -2.55765 3.04679 0
M  V30 39163 H 3834.34 -2.53658 6.04432 0
M  V30 39164 H 3833.86 -3.66012 4.75179 0
M  V30 39165 H 3835.54 -3.64438 5.34597 0
M  V30 39166 N 3835.67 -1.33083 -0.844196 0
M  V30 39167 C 3836.9 -1.27264 -1.6313 0
M  V30 39168 C 3837.31 0.157446 -1.88142 0
M  V30 39169 O 3836.67 1.0979 -1.45782 0
M  V30 39170 C 3836.72 -2.03972 -2.98459 0
M  V30 39171 O 3836.44 -3.41401 -2.74549 0
M  V30 39172 C 3837.94 -2.053 -3.92895 0
M  V30 39173 H 3835.16 -0.438656 -0.507761 0
M  V30 39174 H 3837.71 -1.75371 -1.05191 0
M  V30 39175 H 3835.86 -1.5956 -3.53015 0
M  V30 39176 H 3836.28 -3.80795 -3.60687 0
M  V30 39177 H 3837.75 -2.63436 -4.85083 0
M  V30 39178 H 3838.23 -1.0419 -4.26663 0
M  V30 39179 H 3838.83 -2.49707 -3.44277 0
M  V30 39180 N 3837.15 1.06178 -1.16464 0
M  V30 39181 C 3838.39 1.79264 -0.94828 0
M  V30 39182 C 3838.73 1.87038 0.522546 0
M  V30 39183 O 3838 1.36284 1.38769 0
M  V30 39184 C 3838.28 3.2369 -1.57787 0
M  V30 39185 C 3838.14 3.23989 -3.12011 0
M  V30 39186 C 3839.46 4.21272 -1.27351 0
M  V30 39187 H 3836.58 0.650776 -0.345919 0
M  V30 39188 H 3839.22 1.24169 -1.43812 0
M  V30 39189 H 3837.37 3.70736 -1.16133 0
M  V30 39190 H 3839.04 2.85096 -3.62654 0
M  V30 39191 H 3837.28 2.62609 -3.45281 0
M  V30 39192 H 3837.95 4.2588 -3.51184 0
M  V30 39193 H 3840.43 3.82673 -1.63403 0
M  V30 39194 H 3839.31 5.2059 -1.74002 0
M  V30 39195 H 3839.57 4.41681 -0.192546 0
M  V30 39196 N 3838.63 0.96331 1.24732 0
M  V30 39197 C 3839.56 0.447761 2.24784 0
M  V30 39198 C 3840.57 -0.441103 1.5671 0
M  V30 39199 O 3841.76 -0.247984 1.76769 0
M  V30 39200 C 3838.86 -0.373309 3.36838 0
M  V30 39201 C 3838.03 0.504608 4.3448 0
M  V30 39202 C 3837.09 -0.259717 5.25559 0
M  V30 39203 O 3836.12 0.344854 5.68154 0
M  V30 39204 N 3837.32 -1.55049 5.59411 0
M  V30 39205 H 3840.08 1.30797 2.69652 0
M  V30 39206 H 3837.65 0.834639 1.38728 0
M  V30 39207 H 3839.64 -0.892561 3.94735 0
M  V30 39208 H 3838.21 -1.13442 2.9129 0
M  V30 39209 H 3837.43 1.20488 3.75335 0
M  V30 39210 H 3838.72 1.10351 4.96689 0
M  V30 39211 H 3838.11 -2.06346 5.26724 0
M  V30 39212 H 3836.67 -2.01552 6.19855 0
M  V30 39213 N 3840.1 -1.39522 0.732902 0
M  V30 39214 C 3841.03 -2.33256 0.106624 0
M  V30 39215 C 3842.01 -1.53802 -0.726555 0
M  V30 39216 O 3843.2 -1.82204 -0.671962 0
M  V30 39217 C 3840.33 -3.3789 -0.802991 0
M  V30 39218 C 3839.28 -4.27936 -0.0741296 0
M  V30 39219 C 3838.61 -5.2325 -1.10062 0
M  V30 39220 C 3839.91 -5.10969 1.08204 0
M  V30 39221 H 3841.6 -2.85879 0.889589 0
M  V30 39222 H 3839.15 -1.37454 0.429233 0
M  V30 39223 H 3841.1 -4.02414 -1.25064 0
M  V30 39224 H 3839.83 -2.83702 -1.61805 0
M  V30 39225 H 3838.49 -3.64888 0.353874 0
M  V30 39226 H 3838.13 -4.65359 -1.90919 0
M  V30 39227 H 3837.83 -5.84344 -0.617722 0
M  V30 39228 H 3839.36 -5.90651 -1.54801 0
M  V30 39229 H 3840.77 -5.6885 0.712935 0
M  V30 39230 H 3839.17 -5.81194 1.49443 0
M  V30 39231 H 3840.24 -4.45925 1.90471 0
M  V30 39232 N 3841.58 -0.480375 -1.501 0
M  V30 39233 C 3842.86 0.133422 -1.95144 0
M  V30 39234 C 3843.24 1.561 -1.42113 0
M  V30 39235 O 3842.59 2.19756 -0.626051 0
M  V30 39236 C 3842.8 0.0672291 -3.48935 0
M  V30 39237 C 3844.14 0.25149 -4.23855 0
M  V30 39238 O 3845.17 0.143384 -3.55911 0
M  V30 39239 O 3844.03 0.470851 -5.44468 0
M  V30 39240 H 3841.12 0.106604 -0.8201 0
M  V30 39241 H 3843.67 -0.541442 -1.60831 0
M  V30 39242 H 3842.44 -0.929125 -3.80109 0
M  V30 39243 H 3842.06 0.783145 -3.89811 0
M  V30 39244 N 3843.06 1.56149 -0.213351 0
M  V30 39245 C 3843.97 2.23545 0.711663 0
M  V30 39246 C 3844.99 1.2404 1.22025 0
M  V30 39247 O 3846.16 1.5683 1.26358 0
M  V30 39248 C 3843.23 2.89581 1.9064 0
M  V30 39249 C 3842.29 4.04407 1.44059 0
M  V30 39250 C 3841.52 4.67285 2.57838 0
M  V30 39251 O 3841.74 4.29128 3.75773 0
M  V30 39252 O 3840.68 5.56426 2.29508 0
M  V30 39253 H 3844.5 3.03237 0.167582 0
M  V30 39254 H 3842.09 1.49391 0.0167447 0
M  V30 39255 H 3843.97 3.31292 2.60429 0
M  V30 39256 H 3842.65 2.12855 2.43874 0
M  V30 39257 H 3841.55 3.67282 0.710959 0
M  V30 39258 H 3842.89 4.82852 0.954724 0
M  V30 39259 N 3844.54 -0.0601128 1.57485 0
M  V30 39260 C 3845.49 -1.08883 2.05542 0
M  V30 39261 C 3846.48 -1.39366 0.962987 0
M  V30 39262 O 3847.69 -1.38636 1.14805 0
M  V30 39263 H 3844.06 -0.368521 0.655512 0
M  V30 39264 H 3846.03 -0.657462 2.91067 0
M  V30 39265 C 3844.78 -2.39072 2.52468 0
M  V30 39266 H 3844.1 -2.16469 3.36127 0
M  V30 39267 H 3845.54 -3.09471 2.89834 0
M  V30 39268 C 3844 -3.05858 1.41253 0
M  V30 39269 O 3844.53 -3.94422 0.761188 0
M  V30 39270 N 3842.74 -2.66672 1.15474 0
M  V30 39271 H 3842.29 -1.94741 1.68623 0
M  V30 39272 H 3842.24 -3.1168 0.412696 0
M  V30 39273 N 3846.02 -1.54068 -0.331762 0
M  V30 39274 C 3846.96 -1.83596 -1.42812 0
M  V30 39275 C 3847.96 -0.707258 -1.53929 0
M  V30 39276 O 3849.16 -0.89079 -1.56413 0
M  V30 39277 H 3845.54 -0.581842 -0.476408 0
M  V30 39278 H 3847.51 -2.75296 -1.15128 0
M  V30 39279 C 3846.26 -2.07282 -2.79158 0
M  V30 39280 H 3845.58 -2.93591 -2.71375 0
M  V30 39281 H 3847.02 -2.31901 -3.54962 0
M  V30 39282 C 3845.48 -0.861874 -3.25689 0
M  V30 39283 O 3846.01 -0.0670838 -4.01644 0
M  V30 39284 N 3844.22 -0.675796 -2.82633 0
M  V30 39285 H 3843.76 -1.32375 -2.20985 0
M  V30 39286 H 3843.72 0.132949 -3.14119 0
M  V30 39287 N 3847.49 0.593399 -1.46002 0
M  V30 39288 C 3848.91 1.17546 -1.45051 0
M  V30 39289 C 3849.26 1.9532 -0.185635 0
M  V30 39290 O 3848.38 2.04353 0.711953 0
M  V30 39291 C 3848.98 2.13835 -2.62793 0
M  V30 39292 C 3847.54 2.67387 -2.64917 0
M  V30 39293 C 3846.68 1.43055 -2.37551 0
M  V30 39294 H 3849.63 0.381917 -1.54036 0
M  V30 39295 H 3849.65 2.97117 -2.37701 0
M  V30 39296 H 3849.17 1.57202 -3.54837 0
M  V30 39297 H 3847.27 3.27919 -1.76917 0
M  V30 39298 H 3847.38 3.10852 -3.64565 0
M  V30 39299 H 3845.74 1.72499 -1.87393 0
M  V30 39300 H 3846.53 0.882688 -3.31758 0
M  V30 39301 N 3848.97 1.33529 0.837127 0
M  V30 39302 C 3850.22 1.25269 1.59485 0
M  V30 39303 C 3850.55 -0.180707 1.93357 0
M  V30 39304 O 3849.83 -1.12248 1.58841 0
M  V30 39305 C 3850.11 2.12969 2.90373 0
M  V30 39306 C 3849.96 3.64776 2.63171 0
M  V30 39307 C 3851.28 2.00418 3.91817 0
M  V30 39308 H 3848.4 0.456402 0.578676 0
M  V30 39309 H 3851.04 1.63646 0.965399 0
M  V30 39310 H 3849.19 1.8037 3.44091 0
M  V30 39311 H 3850.86 4.07673 2.15871 0
M  V30 39312 H 3849.11 3.86569 1.96842 0
M  V30 39313 H 3849.78 4.21487 3.56445 0
M  V30 39314 H 3852.25 2.29011 3.47409 0
M  V30 39315 H 3851.13 2.6403 4.81227 0
M  V30 39316 H 3851.39 0.976928 4.31171 0
M  V30 39317 N 3850.45 -1.05559 1.17026 0
M  V30 39318 C 3851.36 -2.16727 0.898145 0
M  V30 39319 C 3852.38 -1.73496 -0.132339 0
M  V30 39320 O 3853.55 -2.01347 0.0460556 0
M  V30 39321 C 3850.62 -3.44253 0.411152 0
M  V30 39322 C 3849.68 -4.01951 1.50777 0
M  V30 39323 C 3848.91 -5.23391 1.04392 0
M  V30 39324 O 3849.13 -5.70306 -0.103409 0
M  V30 39325 O 3848.07 -5.73233 1.8354 0
M  V30 39326 H 3851.89 -2.42528 1.82795 0
M  V30 39327 H 3849.48 -1.15237 0.950836 0
M  V30 39328 H 3851.36 -4.21144 0.146911 0
M  V30 39329 H 3850.04 -3.19961 -0.490548 0
M  V30 39330 H 3848.94 -3.26518 1.82585 0
M  V30 39331 H 3850.28 -4.30554 2.38505 0
M  V30 39332 N 3851.93 -0.969911 -1.2422 0
M  V30 39333 C 3852.86 -0.446486 -2.23789 0
M  V30 39334 C 3853.84 0.480631 -1.55334 0
M  V30 39335 O 3855.02 0.411499 -1.83954 0
M  V30 39336 C 3852.15 0.355231 -3.36832 0
M  V30 39337 C 3851.2 -0.514494 -4.23385 0
M  V30 39338 S 3852.03 -1.95604 -4.98497 0
M  V30 39339 C 3853.19 -1.16317 -6.14997 0
M  V30 39340 H 3853.42 -1.29028 -2.67842 0
M  V30 39341 H 3850.95 -0.77511 -1.33534 0
M  V30 39342 H 3852.91 0.811812 -4.02393 0
M  V30 39343 H 3851.57 1.17402 -2.91334 0
M  V30 39344 H 3850.76 0.101166 -5.03898 0
M  V30 39345 H 3850.37 -0.906892 -3.62838 0
M  V30 39346 H 3852.66 -0.419281 -6.76201 0
M  V30 39347 H 3853.6 -1.94276 -6.80928 0
M  V30 39348 H 3854.01 -0.686569 -5.60309 0
M  V30 39349 N 3853.41 1.39131 -0.740291 0
M  V30 39350 C 3854.35 2.30567 -0.103784 0
M  V30 39351 C 3855.32 1.49491 0.723999 0
M  V30 39352 O 3856.51 1.78161 0.682873 0
M  V30 39353 C 3853.65 3.35853 0.793528 0
M  V30 39354 C 3852.76 4.31974 -0.047443 0
M  V30 39355 C 3851.9 5.24329 0.851634 0
M  V30 39356 C 3850.94 6.121 0.00622874 0
M  V30 39357 N 3850.07 6.96794 0.86153 0
M  V30 39358 H 3854.91 2.84426 -0.889137 0
M  V30 39359 H 3852.45 1.40044 -0.450117 0
M  V30 39360 H 3854.41 3.95491 1.32827 0
M  V30 39361 H 3853.04 2.83436 1.5448 0
M  V30 39362 H 3852.09 3.7391 -0.699667 0
M  V30 39363 H 3853.4 4.93851 -0.700893 0
M  V30 39364 H 3852.56 5.89019 1.45403 0
M  V30 39365 H 3851.29 4.62786 1.53885 0
M  V30 39366 H 3850.3 5.46418 -0.608929 0
M  V30 39367 H 3851.52 6.75709 -0.67785 0
M  V30 39368 H 3849.47 6.37814 1.53394 0
M  V30 39369 H 3849.39 7.55537 0.264679 0
M  V30 39370 H 3850.66 7.65908 1.44932 0
M  V30 39371 N 3854.88 0.488329 1.49844 0
M  V30 39372 C 3855.81 -0.286392 2.31737 0
M  V30 39373 C 3856.8 -0.974394 1.39426 0
M  V30 39374 O 3857.98 -0.968245 1.68341 0
M  V30 39375 C 3855.11 -1.35872 3.19619 0
M  V30 39376 C 3854.06 -0.791335 4.20621 0
M  V30 39377 C 3853.39 -1.96324 4.97354 0
M  V30 39378 C 3854.69 0.209066 5.21881 0
M  V30 39379 H 3856.38 0.397144 2.96754 0
M  V30 39380 H 3853.93 0.192438 1.42708 0
M  V30 39381 H 3855.88 -1.90832 3.75714 0
M  V30 39382 H 3854.61 -2.07127 2.5252 0
M  V30 39383 H 3853.27 -0.263582 3.65651 0
M  V30 39384 H 3852.91 -2.66317 4.26713 0
M  V30 39385 H 3852.61 -1.58973 5.65686 0
M  V30 39386 H 3854.14 -2.51742 5.5629 0
M  V30 39387 H 3855.55 -0.251949 5.72746 0
M  V30 39388 H 3853.95 0.497743 5.98032 0
M  V30 39389 H 3855.02 1.12924 4.71568 0
M  V30 39390 N 3856.36 -1.56034 0.221629 0
M  V30 39391 C 3857.61 -1.97913 -0.409242 0
M  V30 39392 C 3857.93 -1.11052 -1.60289 0
M  V30 39393 O 3857.2 -0.187563 -1.95 0
M  V30 39394 H 3855.78 -0.730914 -0.154189 0
M  V30 39395 H 3858.44 -1.92345 0.314542 0
M  V30 39396 H 3857.54 -3.03309 -0.735517 0
M  V30 39397 N 3857.84 0.0517601 -1.57515 0
M  V30 39398 C 3859.07 0.759451 -1.92458 0
M  V30 39399 C 3859.48 1.70091 -0.819426 0
M  V30 39400 O 3858.84 1.81335 0.205881 0
M  V30 39401 C 3858.89 1.536 -3.27245 0
M  V30 39402 O 3858.61 0.632365 -4.33512 0
M  V30 39403 C 3860.11 2.3429 -3.76328 0
M  V30 39404 H 3857.33 0.214796 -0.635692 0
M  V30 39405 H 3859.88 0.0160503 -2.04494 0
M  V30 39406 H 3858.03 2.23149 -3.16675 0
M  V30 39407 H 3858.45 1.17453 -5.1118 0
M  V30 39408 H 3859.92 2.84205 -4.73214 0
M  V30 39409 H 3860.4 3.1471 -3.06356 0
M  V30 39410 H 3861 1.69859 -3.89907 0
M  V30 39411 N 3859.32 1.54242 0.323587 0
M  V30 39412 C 3860.25 1.86619 1.40341 0
M  V30 39413 C 3861.23 0.72299 1.5397 0
M  V30 39414 O 3862.42 0.976721 1.67851 0
M  V30 39415 C 3859.55 2.09352 2.77108 0
M  V30 39416 C 3858.5 3.25194 2.78268 0
M  V30 39417 C 3857.83 3.33299 4.1811 0
M  V30 39418 C 3859.13 4.62844 2.42017 0
M  V30 39419 H 3860.82 2.77055 1.13494 0
M  V30 39420 H 3858.37 1.33307 0.54453 0
M  V30 39421 H 3860.32 2.30586 3.52715 0
M  V30 39422 H 3859.04 1.15665 3.05433 0
M  V30 39423 H 3857.7 3.03847 2.05116 0
M  V30 39424 H 3857.35 2.3717 4.43576 0
M  V30 39425 H 3857.05 4.11155 4.19792 0
M  V30 39426 H 3858.57 3.56767 4.9553 0
M  V30 39427 H 3859.99 4.83959 3.07337 0
M  V30 39428 H 3858.38 5.4325 2.5495 0
M  V30 39429 H 3859.45 4.65095 1.37167 0
M  V30 39430 N 3860.8 -0.585648 1.46314 0
M  V30 39431 C 3862.04 -1.34596 1.51697 0
M  V30 39432 C 3862.38 -1.93481 0.166923 0
M  V30 39433 O 3861.65 -1.76309 -0.8213 0
M  V30 39434 C 3861.93 -2.4775 2.61327 0
M  V30 39435 C 3861.79 -1.93919 4.05852 0
M  V30 39436 C 3863.11 -3.49807 2.67064 0
M  V30 39437 H 3860.23 -0.488033 0.552261 0
M  V30 39438 H 3862.87 -0.658169 1.78236 0
M  V30 39439 H 3861.02 -3.06421 2.38828 0
M  V30 39440 H 3862.69 -1.39729 4.39629 0
M  V30 39441 H 3860.93 -1.24768 4.1547 0
M  V30 39442 H 3861.6 -2.75587 4.78284 0
M  V30 39443 H 3864.08 -3.01013 2.87281 0
M  V30 39444 H 3862.96 -4.26443 3.45597 0
M  V30 39445 H 3863.22 -4.06845 1.73 0
M  V30 39446 N 3862.28 -1.33971 -0.830033 0
M  V30 39447 C 3863.19 -1.27015 -1.97242 0
M  V30 39448 C 3864.2 -0.179105 -1.73076 0
M  V30 39449 O 3865.38 -0.404297 -1.973 0
M  V30 39450 C 3862.44 -1.01833 -3.31408 0
M  V30 39451 C 3861.5 -2.20025 -3.68629 0
M  V30 39452 C 3860.74 -1.96034 -4.96393 0
M  V30 39453 O 3860.96 -0.915039 -5.63013 0
M  V30 39454 O 3859.89 -2.82801 -5.31326 0
M  V30 39455 H 3863.72 -2.23106 -2.06052 0
M  V30 39456 H 3861.3 -1.14106 -0.964379 0
M  V30 39457 H 3863.19 -0.895409 -4.11777 0
M  V30 39458 H 3861.86 -0.087766 -3.23581 0
M  V30 39459 H 3860.77 -2.37874 -2.88733 0
M  V30 39460 H 3862.1 -3.11446 -3.81133 0
M  V30 39461 N 3863.75 1.04937 -1.17584 0
M  V30 39462 C 3864.98 1.82192 -0.991002 0
M  V30 39463 C 3865.4 1.82491 0.455933 0
M  V30 39464 O 3864.76 1.23577 1.32659 0
M  V30 39465 C 3864.81 3.26073 -1.53976 0
M  V30 39466 O 3863.91 4.05426 -0.755243 0
M  V30 39467 H 3863.25 0.563221 -0.351679 0
M  V30 39468 H 3865.78 1.32217 -1.5614 0
M  V30 39469 H 3865.79 3.76869 -1.56313 0
M  V30 39470 H 3864.47 3.2517 -2.59301 0
M  V30 39471 H 3863.05 3.64141 -0.803487 0
M  V30 39472 N 3865.23 0.976485 1.23703 0
M  V30 39473 C 3866.65 0.684459 1.44178 0
M  V30 39474 C 3866.85 -0.750717 1.86993 0
M  V30 39475 O 3865.9 -1.52361 2.01351 0
M  V30 39476 C 3867.22 1.67605 2.49658 0
M  V30 39477 C 3868.76 1.68965 2.63476 0
M  V30 39478 C 3869.24 2.66944 3.72162 0
M  V30 39479 N 3870.73 2.65439 3.796 0
M  V30 39480 C 3871.47 3.37922 4.63245 0
M  V30 39481 N 3870.96 4.19951 5.51011 0
M  V30 39482 N 3872.75 3.26705 4.57406 0
M  V30 39483 H 3864.91 1.90362 0.942122 0
M  V30 39484 H 3867.17 0.820058 0.475615 0
M  V30 39485 H 3866.87 2.70222 2.25107 0
M  V30 39486 H 3866.75 1.45578 3.47976 0
M  V30 39487 H 3869.14 0.670547 2.87381 0
M  V30 39488 H 3869.22 1.95058 1.65488 0
M  V30 39489 H 3868.86 3.68994 3.49006 0
M  V30 39490 H 3868.79 2.38128 4.69684 0
M  V30 39491 H 3871.28 2.05905 3.16878 0
M  V30 39492 H 3871.59 4.72123 6.11816 0
M  V30 39493 H 3869.94 4.24043 5.50647 0
M  V30 39494 H 3873.13 2.62075 3.87858 0
M  V30 39495 H 3873.3 3.83455 5.22366 0
M  V30 39496 N 3866.71 -1.38737 0.747659 0
M  V30 39497 C 3867.94 -2.04537 0.311817 0
M  V30 39498 C 3868.35 -1.56385 -1.05779 0
M  V30 39499 O 3867.71 -0.734288 -1.67076 0
M  V30 39500 C 3867.76 -3.60092 0.318738 0
M  V30 39501 O 3867.48 -4.06475 1.6343 0
M  V30 39502 C 3868.98 -4.43104 -0.131704 0
M  V30 39503 H 3866.2 -0.657453 0.134152 0
M  V30 39504 H 3868.75 -1.77542 1.01485 0
M  V30 39505 H 3866.9 -3.85944 -0.33551 0
M  V30 39506 H 3867.32 -5.00874 1.55644 0
M  V30 39507 H 3868.79 -5.51948 -0.0757008 0
M  V30 39508 H 3869.27 -4.23087 -1.17874 0
M  V30 39509 H 3869.87 -4.22428 0.493449 0
M  V30 39510 N 3868.19 -0.496268 -1.49583 0
M  V30 39511 C 3869.44 0.0517465 -2.01634 0
M  V30 39512 C 3869.75 1.38484 -1.38136 0
M  V30 39513 O 3870.96 2.01927 -1.81487 0
M  V30 39514 C 3869.41 0.142692 -3.59617 0
M  V30 39515 C 3869.02 -1.18348 -4.32085 0
M  V30 39516 C 3870.76 0.641323 -4.19628 0
M  V30 39517 C 3868.67 -1.05495 -5.81915 0
M  V30 39518 H 3867.6 0.0231125 -0.753646 0
M  V30 39519 H 3870.25 -0.634975 -1.72164 0
M  V30 39520 H 3868.63 0.893758 -3.85782 0
M  V30 39521 H 3869.81 -1.94747 -4.17625 0
M  V30 39522 H 3868.12 -1.61518 -3.83798 0
M  V30 39523 H 3870.72 0.754915 -5.29344 0
M  V30 39524 H 3871.06 1.63899 -3.82678 0
M  V30 39525 H 3871.6 -0.0530729 -3.97765 0
M  V30 39526 H 3868.33 -2.02675 -6.23381 0
M  V30 39527 H 3867.85 -0.331772 -5.98882 0
M  V30 39528 H 3869.53 -0.731754 -6.42849 0
M  V30 39529 N 3869.67 1.55914 -0.2299 0
M  V30 39530 C 3870.61 2.22032 0.693159 0
M  V30 39531 C 3871.61 1.20238 1.19328 0
M  V30 39532 O 3872.81 1.38296 1.15214 0
M  V30 39533 H 3869.19 0.712006 0.241973 0
M  V30 39534 H 3871.16 2.98189 0.112177 0
M  V30 39535 C 3869.91 2.92051 1.88683 0
M  V30 39536 H 3869.23 3.70142 1.51112 0
M  V30 39537 H 3870.67 3.41702 2.5103 0
M  V30 39538 C 3869.13 1.94981 2.74744 0
M  V30 39539 O 3869.66 1.47204 3.73756 0
M  V30 39540 N 3867.87 1.62449 2.40954 0
M  V30 39541 H 3867.41 2.01496 1.60491 0
M  V30 39542 H 3867.37 0.977633 2.98814 0
M  V30 39543 N 3871.14 -0.043406 1.5754 0
M  V30 39544 C 3872.39 -0.738166 1.88889 0
M  V30 39545 C 3872.72 -1.75765 0.825858 0
M  V30 39546 O 3872 -1.93834 -0.160763 0
M  V30 39547 C 3872.28 -1.42067 3.30891 0
M  V30 39548 C 3872.13 -0.415675 4.47875 0
M  V30 39549 C 3873.45 -2.35839 3.71575 0
M  V30 39550 H 3870.57 -0.266885 0.68698 0
M  V30 39551 H 3873.21 -0.00103617 1.9 0
M  V30 39552 H 3871.36 -2.04898 3.30075 0
M  V30 39553 H 3873.04 0.20961 4.60824 0
M  V30 39554 H 3871.28 0.266422 4.32981 0
M  V30 39555 H 3871.95 -0.931413 5.44085 0
M  V30 39556 H 3874.43 -1.83064 3.73667 0
M  V30 39557 H 3873.3 -2.80581 4.71768 0
M  V30 39558 H 3873.56 -3.21893 3.03047 0
M  V30 39559 N 3872.62 -1.54412 -0.315402 0
M  V30 39560 C 3873.85 -1.77301 -1.07607 0
M  V30 39561 C 3874.27 -0.523995 -1.80654 0
M  V30 39562 O 3873.63 0.524843 -1.73537 0
M  V30 39563 C 3873.68 -2.97108 -2.0435 0
M  V30 39564 O 3872.78 -2.69225 -3.12397 0
M  V30 39565 H 3872.12 -0.587273 -0.30985 0
M  V30 39566 H 3874.65 -2.01458 -0.35721 0
M  V30 39567 H 3874.66 -3.24681 -2.47075 0
M  V30 39568 H 3873.34 -3.87681 -1.50585 0
M  V30 39569 H 3871.91 -2.52626 -2.74289 0
M  V30 39570 N 3874.1 0.57788 -1.46623 0
M  V30 39571 C 3875.05 1.70766 -1.57929 0
M  V30 39572 C 3876.04 1.63381 -0.447537 0
M  V30 39573 O 3877.25 1.68816 -0.624588 0
M  V30 39574 H 3873.62 0.564681 -0.496628 0
M  V30 39575 H 3875.59 1.58363 -2.52911 0
M  V30 39576 C 3874.34 3.09149 -1.59129 0
M  V30 39577 H 3873.67 3.15504 -2.45555 0
M  V30 39578 H 3875.11 3.87947 -1.71094 0
M  V30 39579 C 3873.57 3.35369 -0.320793 0
M  V30 39580 O 3874.1 3.97389 0.58693 0
M  V30 39581 N 3872.3 2.8986 -0.207207 0
M  V30 39582 H 3871.85 2.3957 -0.946786 0
M  V30 39583 H 3871.81 3.07776 0.641974 0
M  V30 39584 N 3875.58 1.34409 0.822917 0
M  V30 39585 C 3876.51 1.28631 1.94875 0
M  V30 39586 C 3877.49 0.163756 1.6931 0
M  V30 39587 O 3878.67 0.356117 1.90907 0
M  V30 39588 C 3875.8 1.041 3.31331 0
M  V30 39589 C 3874.76 2.12821 3.71337 0
M  V30 39590 C 3874.08 1.73478 5.05776 0
M  V30 39591 C 3875.38 3.54649 3.83433 0
M  V30 39592 H 3877.08 2.2283 1.99968 0
M  V30 39593 H 3874.62 1.07269 0.960696 0
M  V30 39594 H 3876.58 0.987019 4.09678 0
M  V30 39595 H 3875.3 0.0634216 3.26538 0
M  V30 39596 H 3873.96 2.17288 2.95265 0
M  V30 39597 H 3873.61 0.743814 4.9747 0
M  V30 39598 H 3873.31 2.46245 5.33514 0
M  V30 39599 H 3874.83 1.69576 5.8658 0
M  V30 39600 H 3876.25 3.52595 4.52051 0
M  V30 39601 H 3874.64 4.26038 4.22625 0
M  V30 39602 H 3875.71 3.91991 2.85432 0
M  V30 39603 N 3877.06 -1.04312 1.18139 0
M  V30 39604 C 3878.29 -1.80863 0.998599 0
M  V30 39605 C 3878.69 -1.83618 -0.456206 0
M  V30 39606 O 3878.04 -1.26857 -1.32864 0
M  V30 39607 C 3878.1 -3.27891 1.47402 0
M  V30 39608 C 3877.76 -3.48803 2.95272 0
M  V30 39609 C 3878.76 -3.40196 3.93145 0
M  V30 39610 C 3876.45 -3.75479 3.33648 0
M  V30 39611 C 3878.44 -3.57965 5.2739 0
M  V30 39612 C 3876.13 -3.92896 4.68056 0
M  V30 39613 C 3877.12 -3.84139 5.64736 0
M  V30 39614 O 3876.81 -4.01059 6.96711 0
M  V30 39615 H 3876.54 -0.576492 0.353035 0
M  V30 39616 H 3879.1 -1.32373 1.57056 0
M  V30 39617 H 3877.33 -3.77339 0.845691 0
M  V30 39618 H 3879.02 -3.85994 1.25552 0
M  V30 39619 H 3879.78 -3.19554 3.64843 0
M  V30 39620 H 3875.66 -3.81395 2.58958 0
M  V30 39621 H 3879.21 -3.51046 6.02837 0
M  V30 39622 H 3875.1 -4.13032 4.9606 0
M  V30 39623 H 3875.87 -4.18234 7.03578 0
M  V30 39624 N 3878.53 -0.983032 -1.23184 0
M  V30 39625 C 3879.78 -0.654343 -1.91954 0
M  V30 39626 C 3880.11 0.810388 -1.76483 0
M  V30 39627 O 3879.39 1.58488 -1.12747 0
M  V30 39628 C 3879.67 -1.04879 -3.44489 0
M  V30 39629 C 3879.52 -2.57135 -3.69055 0
M  V30 39630 C 3880.84 -0.594655 -4.36064 0
M  V30 39631 H 3877.96 -0.239191 -0.697106 0
M  V30 39632 H 3880.6 -1.22479 -1.45255 0
M  V30 39633 H 3878.75 -0.5634 -3.84393 0
M  V30 39634 H 3880.43 -3.13268 -3.38616 0
M  V30 39635 H 3878.67 -2.9965 -3.13676 0
M  V30 39636 H 3879.34 -2.79784 -4.75841 0
M  V30 39637 H 3881.82 -1.01143 -4.0362 0
M  V30 39638 H 3880.69 -0.89905 -5.41487 0
M  V30 39639 H 3880.95 0.504956 -4.39207 0
M  V30 39640 N 3880.01 1.38338 -0.755006 0
M  V30 39641 C 3881.26 1.9969 -0.311181 0
M  V30 39642 C 3881.58 1.60231 1.11135 0
M  V30 39643 O 3880.85 0.859825 1.76022 0
M  V30 39644 H 3879.43 0.738546 -0.112065 0
M  V30 39645 H 3882.09 1.69081 -0.969415 0
M  V30 39646 H 3881.19 3.09834 -0.375447 0
M  V30 39647 N 3881.49 0.504194 1.49317 0
M  V30 39648 C 3882.74 -0.0391135 2.02062 0
M  V30 39649 C 3883.06 -1.37189 1.38579 0
M  V30 39650 O 3882.33 -1.88247 0.542212 0
M  V30 39651 H 3880.91 -0.0174444 0.746796 0
M  V30 39652 H 3883.57 0.662162 1.83307 0
M  V30 39653 H 3882.67 -0.166441 3.11656 0
M  V30 39654 N 3882.97 -1.5579 0.238166 0
M  V30 39655 C 3884.22 -1.97905 -0.389439 0
M  V30 39656 C 3884.53 -1.12933 -1.59705 0
M  V30 39657 O 3885.74 -1.45021 -2.29524 0
M  V30 39658 C 3884.19 -3.5212 -0.744257 0
M  V30 39659 C 3883.8 -4.4582 0.441466 0
M  V30 39660 C 3885.54 -4.02911 -1.33654 0
M  V30 39661 C 3883.45 -5.91366 0.063288 0
M  V30 39662 H 3882.38 -0.739075 -0.149278 0
M  V30 39663 H 3885.03 -1.80379 0.337004 0
M  V30 39664 H 3883.41 -3.65308 -1.52858 0
M  V30 39665 H 3884.59 -4.44387 1.21889 0
M  V30 39666 H 3882.9 -4.05463 0.948088 0
M  V30 39667 H 3885.5 -5.09164 -1.63267 0
M  V30 39668 H 3885.84 -3.4974 -2.25804 0
M  V30 39669 H 3886.38 -3.93013 -0.615297 0
M  V30 39670 H 3883.12 -6.48555 0.951698 0
M  V30 39671 H 3882.64 -5.95954 -0.678111 0
M  V30 39672 H 3884.31 -6.46011 -0.357598 0
M  V30 39673 N 3884.45 0.0350506 -1.57561 0
M  V30 39674 C 3885.86 0.582406 -1.77384 0
M  V30 39675 C 3886.21 1.75931 -0.868484 0
M  V30 39676 O 3885.33 2.16312 -0.061783 0
M  V30 39677 C 3885.93 1.06331 -3.21682 0
M  V30 39678 C 3884.49 1.55623 -3.42722 0
M  V30 39679 C 3883.63 0.491652 -2.72907 0
M  V30 39680 H 3886.59 -0.191177 -1.57544 0
M  V30 39681 H 3886.61 1.93091 -3.27866 0
M  V30 39682 H 3886.12 0.206535 -3.8755 0
M  V30 39683 H 3884.22 2.43506 -2.8202 0
M  V30 39684 H 3884.33 1.60786 -4.51314 0
M  V30 39685 H 3882.7 0.945307 -2.36508 0
M  V30 39686 H 3883.48 -0.355562 -3.41454 0
M  V30 39687 N 3885.92 1.54577 0.307209 0
M  V30 39688 C 3886.83 1.88146 1.40137 0
M  V30 39689 C 3887.85 0.77498 1.55789 0
M  V30 39690 O 3889.03 1.07085 1.70572 0
M  V30 39691 C 3886.09 2.11638 2.74609 0
M  V30 39692 C 3885.15 3.35376 2.67995 0
M  V30 39693 C 3884.39 3.57738 3.96054 0
M  V30 39694 O 3884.61 2.83228 4.95114 0
M  V30 39695 O 3883.54 4.51245 3.98323 0
M  V30 39696 H 3887.37 2.81219 1.14672 0
M  V30 39697 H 3884.95 1.40688 0.502714 0
M  V30 39698 H 3886.84 2.28326 3.54182 0
M  V30 39699 H 3885.51 1.21752 2.9993 0
M  V30 39700 H 3884.42 3.24057 1.86916 0
M  V30 39701 H 3885.75 4.25372 2.47627 0
M  V30 39702 N 3887.4 -0.570096 1.46927 0
M  V30 39703 C 3888.65 -1.3252 1.52587 0
M  V30 39704 C 3888.97 -1.94127 0.184325 0
M  V30 39705 O 3888.24 -1.79245 -0.790446 0
M  V30 39706 H 3886.82 -0.492071 0.562027 0
M  V30 39707 H 3889.48 -0.666714 1.83142 0
M  V30 39708 H 3888.58 -2.12541 2.28545 0
M  V30 39709 N 3888.88 -1.34844 -0.815777 0
M  V30 39710 C 3889.79 -1.291 -1.95883 0
M  V30 39711 C 3890.81 -0.197452 -1.72876 0
M  V30 39712 O 3891.98 -0.425201 -1.9686 0
M  V30 39713 C 3889.05 -1.05342 -3.30309 0
M  V30 39714 C 3888.11 -2.23922 -3.66275 0
M  V30 39715 C 3887.34 -2.01288 -4.94286 0
M  V30 39716 O 3887.57 -0.974702 -5.6201 0
M  V30 39717 O 3886.5 -2.8842 -5.28297 0
M  V30 39718 H 3890.33 -2.25279 -2.03674 0
M  V30 39719 H 3887.91 -1.15122 -0.952222 0
M  V30 39720 H 3889.79 -0.939033 -4.10804 0
M  V30 39721 H 3888.47 -0.122081 -3.2347 0
M  V30 39722 H 3887.37 -2.40923 -2.86194 0
M  V30 39723 H 3888.71 -3.15471 -3.77808 0
M  V30 39724 N 3890.36 1.03684 -1.1869 0
M  V30 39725 C 3891.61 1.766 -0.982687 0
M  V30 39726 C 3891.93 1.88782 0.48852 0
M  V30 39727 O 3891.2 1.4156 1.35416 0
M  V30 39728 H 3889.78 0.654196 -0.360606 0
M  V30 39729 H 3892.44 1.25113 -1.49442 0
M  V30 39730 H 3891.54 2.77722 -1.42396 0
M  V30 39731 N 3891.84 0.989551 1.22661 0
M  V30 39732 C 3893.07 0.681856 1.95342 0
M  V30 39733 C 3893.48 -0.752859 1.7314 0
M  V30 39734 O 3892.84 -1.50765 1.02841 0
M  V30 39735 C 3892.89 0.974111 3.48128 0
M  V30 39736 O 3892.61 2.35245 3.69583 0
M  V30 39737 C 3894.11 0.683648 4.37997 0
M  V30 39738 H 3891.33 0.25252 0.621671 0
M  V30 39739 H 3893.87 1.32342 1.55904 0
M  V30 39740 H 3892.03 0.378412 3.85547 0
M  V30 39741 H 3892.44 2.44914 4.63807 0
M  V30 39742 H 3893.92 0.938434 5.43965 0
M  V30 39743 H 3894.39 -0.38234 4.37533 0
M  V30 39744 H 3895 1.26024 4.06199 0
M  V30 39745 N 3893.32 -1.37936 0.762332 0
M  V30 39746 C 3894.54 -2.04721 0.332253 0
M  V30 39747 C 3894.97 -1.57121 -1.03415 0
M  V30 39748 O 3894.32 -0.727146 -1.66079 0
M  V30 39749 C 3894.37 -3.58656 0.373962 0
M  V30 39750 O 3893.48 -4.07576 -0.628953 0
M  V30 39751 H 3892.82 -0.647866 0.145483 0
M  V30 39752 H 3895.35 -1.76438 1.0359 0
M  V30 39753 H 3895.36 -4.07363 0.227921 0
M  V30 39754 H 3894.03 -3.92658 1.37085 0
M  V30 39755 H 3892.61 -3.70214 -0.446806 0
M  V30 39756 N 3894.79 -0.512106 -1.49048 0
M  V30 39757 C 3895.72 0.249488 -2.32163 0
M  V30 39758 C 3896.7 0.952089 -1.40958 0
M  V30 39759 O 3897.89 0.941341 -1.6986 0
M  V30 39760 C 3895.02 1.3077 -3.2174 0
M  V30 39761 C 3893.97 0.724318 -4.21827 0
M  V30 39762 C 3893.3 1.88387 -5.00414 0
M  V30 39763 C 3894.6 -0.292067 -5.21483 0
M  V30 39764 H 3896.29 -0.444305 -2.96085 0
M  V30 39765 H 3893.84 -0.215118 -1.42384 0
M  V30 39766 H 3895.79 1.8483 -3.78703 0
M  V30 39767 H 3894.52 2.03083 -2.55783 0
M  V30 39768 H 3893.18 0.205377 -3.66024 0
M  V30 39769 H 3892.82 2.59495 -4.30896 0
M  V30 39770 H 3892.52 1.49954 -5.68144 0
M  V30 39771 H 3894.05 2.4286 -5.60225 0
M  V30 39772 H 3895.46 0.160798 -5.73074 0
M  V30 39773 H 3893.86 -0.592822 -5.97165 0
M  V30 39774 H 3894.93 -1.20412 -4.69712 0
M  V30 39775 N 3896.27 1.55662 -0.246424 0
M  V30 39776 C 3897.2 2.24342 0.647523 0
M  V30 39777 C 3898.18 1.22354 1.18168 0
M  V30 39778 O 3899.37 1.51005 1.22111 0
M  V30 39779 C 3896.5 2.94253 1.8448 0
M  V30 39780 C 3895.45 4.02926 1.44343 0
M  V30 39781 C 3894.78 4.60259 2.7215 0
M  V30 39782 C 3896.08 5.18668 0.61486 0
M  V30 39783 H 3897.77 2.99306 0.0748277 0
M  V30 39784 H 3895.32 1.43959 0.0345497 0
M  V30 39785 H 3897.27 3.41 2.47582 0
M  V30 39786 H 3895.99 2.16776 2.44286 0
M  V30 39787 H 3894.65 3.56947 0.835748 0
M  V30 39788 H 3894.3 3.79484 3.30153 0
M  V30 39789 H 3894 5.33618 2.46018 0
M  V30 39790 H 3895.53 5.0974 3.36152 0
M  V30 39791 H 3896.94 5.61644 1.15018 0
M  V30 39792 H 3895.34 5.98413 0.449624 0
M  V30 39793 H 3896.41 4.83463 -0.373028 0
M  V30 39794 N 3897.75 -0.0266943 1.57577 0
M  V30 39795 C 3898.98 -0.728737 1.93642 0
M  V30 39796 C 3899.39 -1.68766 0.846382 0
M  V30 39797 O 3898.75 -1.8164 -0.177006 0
M  V30 39798 C 3898.8 -1.48375 3.29647 0
M  V30 39799 O 3898.52 -0.563317 4.34463 0
M  V30 39800 C 3900.02 -2.28273 3.80008 0
M  V30 39801 H 3897.24 -0.204655 0.639028 0
M  V30 39802 H 3899.79 0.0164849 2.04493 0
M  V30 39803 H 3897.94 -2.18083 3.20185 0
M  V30 39804 H 3898.36 -1.09306 5.12984 0
M  V30 39805 H 3899.83 -2.7664 4.77676 0
M  V30 39806 H 3900.31 -3.09797 3.11324 0
M  V30 39807 H 3900.91 -1.63635 3.9256 0
M  V30 39808 N 3899.23 -1.54738 -0.299007 0
M  V30 39809 C 3900.16 -1.80712 -1.39351 0
M  V30 39810 C 3901.14 -0.658433 -1.48672 0
M  V30 39811 O 3902.32 -0.898608 -1.65702 0
M  V30 39812 C 3899.45 -1.94561 -2.77243 0
M  V30 39813 C 3898.5 -3.16996 -2.85335 0
M  V30 39814 S 3899.33 -4.75015 -2.47227 0
M  V30 39815 C 3900.48 -4.91803 -3.87144 0
M  V30 39816 H 3900.72 -2.73263 -1.1711 0
M  V30 39817 H 3898.25 -1.46175 -0.497228 0
M  V30 39818 H 3900.21 -2.03226 -3.56665 0
M  V30 39819 H 3898.87 -1.02944 -2.96751 0
M  V30 39820 H 3898.06 -3.23495 -3.86481 0
M  V30 39821 H 3897.66 -3.06788 -2.1391 0
M  V30 39822 H 3899.96 -4.75948 -4.82161 0
M  V30 39823 H 3900.9 -5.93892 -3.85614 0
M  V30 39824 H 3901.31 -4.19942 -3.77239 0
M  V30 39825 N 3900.71 0.562296 -1.47228 0
M  V30 39826 C 3902.12 0.887722 -1.32634 0
M  V30 39827 C 3902.32 1.99054 -0.313007 0
M  V30 39828 O 3901.38 2.50973 0.277265 0
M  V30 39829 C 3902.69 1.28577 -2.71824 0
M  V30 39830 C 3904.24 1.39748 -2.80071 0
M  V30 39831 C 3904.71 1.8291 -4.1989 0
M  V30 39832 N 3906.2 1.90069 -4.22407 0
M  V30 39833 C 3906.94 2.24784 -5.27503 0
M  V30 39834 N 3906.44 2.58148 -6.42909 0
M  V30 39835 N 3908.23 2.25514 -5.14878 0
M  V30 39836 H 3900.38 -0.165872 -2.11751 0
M  V30 39837 H 3902.64 -0.0115405 -0.94793 0
M  V30 39838 H 3902.35 0.5493 -3.47384 0
M  V30 39839 H 3902.22 2.24301 -3.03264 0
M  V30 39840 H 3904.61 2.12477 -2.04787 0
M  V30 39841 H 3904.69 0.422242 -2.52291 0
M  V30 39842 H 3904.33 1.10753 -4.95678 0
M  V30 39843 H 3904.26 2.81428 -4.45091 0
M  V30 39844 H 3906.76 1.66692 -3.39149 0
M  V30 39845 H 3907.07 2.83649 -7.18862 0
M  V30 39846 H 3905.41 2.5574 -6.46237 0
M  V30 39847 H 3908.6 1.98885 -4.23748 0
M  V30 39848 H 3908.78 2.52239 -5.96891 0
M  V30 39849 N 3902.18 1.35274 0.808615 0
M  V30 39850 C 3903.6 1.15269 1.10387 0
M  V30 39851 C 3903.8 -0.0362147 2.01467 0
M  V30 39852 O 3902.86 -0.707435 2.42387 0
M  V30 39853 C 3904.17 2.4547 1.7368 0
M  V30 39854 C 3905.72 2.51658 1.8611 0
M  V30 39855 C 3906.19 3.81898 2.52819 0
M  V30 39856 N 3907.68 3.83138 2.60306 0
M  V30 39857 C 3908.42 4.8064 3.12686 0
M  V30 39858 N 3907.91 5.8853 3.65519 0
M  V30 39859 N 3909.71 4.68079 3.1122 0
M  V30 39860 H 3901.86 2.11427 0.203104 0
M  V30 39861 H 3904.12 0.935623 0.15269 0
M  V30 39862 H 3903.83 3.32635 1.14222 0
M  V30 39863 H 3903.7 2.59868 2.73401 0
M  V30 39864 H 3906.09 1.64924 2.44713 0
M  V30 39865 H 3906.17 2.41176 0.852505 0
M  V30 39866 H 3905.81 4.6903 1.94867 0
M  V30 39867 H 3905.74 3.89668 3.54212 0
M  V30 39868 H 3908.23 3.05182 2.22873 0
M  V30 39869 H 3908.55 6.58924 4.03781 0
M  V30 39870 H 3906.89 5.92225 3.63724 0
M  V30 39871 H 3910.08 3.82933 2.69221 0
M  V30 39872 H 3910.26 5.4423 3.51736 0
M  V30 39873 N 3903.66 -1.03053 1.19239 0
M  V30 39874 C 3904.89 -1.80592 1.01986 0
M  V30 39875 C 3905.31 -1.83193 -0.426842 0
M  V30 39876 O 3904.67 -1.25672 -1.30676 0
M  V30 39877 C 3904.72 -3.23582 1.59144 0
M  V30 39878 O 3903.82 -4.04173 0.819647 0
M  V30 39879 H 3903.16 -0.557555 0.360595 0
M  V30 39880 H 3905.69 -1.29716 1.58224 0
M  V30 39881 H 3905.7 -3.74334 1.62289 0
M  V30 39882 H 3904.38 -3.21004 2.64442 0
M  V30 39883 H 3902.96 -3.62816 0.861317 0
M  V30 39884 N 3905.14 -0.996042 -1.22134 0
M  V30 39885 C 3906.39 -0.673668 -1.90966 0
M  V30 39886 C 3906.72 0.794623 -1.77527 0
M  V30 39887 O 3905.97 1.59056 -1.14017 0
M  V30 39888 C 3906.27 -1.02932 -3.42257 0
M  V30 39889 C 3905.94 -2.49039 -3.75886 0
M  V30 39890 C 3904.6 -2.88966 -3.84776 0
M  V30 39891 C 3906.95 -3.43726 -3.91793 0
M  V30 39892 C 3904.28 -4.22561 -4.07012 0
M  V30 39893 C 3906.63 -4.76984 -4.15535 0
M  V30 39894 C 3905.29 -5.16647 -4.22649 0
M  V30 39895 H 3904.56 -0.246512 -0.698794 0
M  V30 39896 H 3907.21 -1.25281 -1.44834 0
M  V30 39897 H 3905.52 -0.368293 -3.90065 0
M  V30 39898 H 3907.21 -0.757872 -3.93773 0
M  V30 39899 H 3903.8 -2.17093 -3.69552 0
M  V30 39900 H 3907.99 -3.14049 -3.843 0
M  V30 39901 H 3903.24 -4.52875 -4.10748 0
M  V30 39902 H 3907.42 -5.50297 -4.26786 0
M  V30 39903 H 3905.04 -6.20183 -4.39632 0
M  V30 39904 N 3906.62 1.37529 -0.769636 0
M  V30 39905 C 3907.57 2.2764 -0.128058 0
M  V30 39906 C 3908.55 1.45996 0.676304 0
M  V30 39907 O 3909.74 1.68574 0.539624 0
M  V30 39908 C 3906.87 3.34965 0.751877 0
M  V30 39909 C 3905.96 4.24057 -0.060201 0
M  V30 39910 N 3906.35 4.93587 -1.10477 0
M  V30 39911 C 3904.65 4.45698 0.164111 0
M  V30 39912 C 3905.35 5.59335 -1.59747 0
M  V30 39913 N 3904.33 5.35929 -0.910006 0
M  V30 39914 H 3908.13 2.7887 -0.927846 0
M  V30 39915 H 3905.64 1.50622 -0.607191 0
M  V30 39916 H 3907.64 3.98427 1.22726 0
M  V30 39917 H 3906.3 2.85292 1.55043 0
M  V30 39918 H 3907.31 4.96097 -1.48688 0
M  V30 39919 H 3903.99 4.06901 0.934743 0
M  V30 39920 H 3905.38 6.24913 -2.46846 0
M  V30 39921 N 3908.1 0.520003 1.48774 0
M  V30 39922 C 3909.34 -0.0176799 2.02092 0
M  V30 39923 C 3909.67 -1.35711 1.40027 0
M  V30 39924 O 3908.94 -1.87661 0.562148 0
M  V30 39925 H 3907.52 -0.00952265 0.746939 0
M  V30 39926 H 3910.18 0.681567 1.82594 0
M  V30 39927 H 3909.27 -0.133377 3.11815 0
M  V30 39928 N 3909.57 -1.55529 0.254676 0
M  V30 39929 C 3910.81 -2.01035 -0.369338 0
M  V30 39930 C 3911.18 -1.13906 -1.54562 0
M  V30 39931 O 3912.38 -1.48902 -2.23789 0
M  V30 39932 C 3910.65 -3.49195 -0.761428 0
M  V30 39933 S 3912.21 -4.16705 -1.37487 0
M  V30 39934 H 3909.03 -0.701496 -0.115866 0
M  V30 39935 H 3911.63 -1.91933 0.37173 0
M  V30 39936 H 3910.33 -4.10269 0.103853 0
M  V30 39937 H 3909.86 -3.62239 -1.53448 0
M  V30 39938 H 3911.88 -4.18635 -2.66382 0
M  V30 39939 N 3911.05 0.0183372 -1.57589 0
M  V30 39940 C 3912.3 0.706072 -1.88938 0
M  V30 39941 C 3912.61 1.75943 -0.854596 0
M  V30 39942 O 3913.82 2.50051 -1.05767 0
M  V30 39943 C 3912.28 1.30694 -3.35331 0
M  V30 39944 C 3911.88 0.289366 -4.47065 0
M  V30 39945 C 3913.63 1.97393 -3.75814 0
M  V30 39946 C 3911.54 0.899186 -5.84524 0
M  V30 39947 H 3910.47 0.267474 -0.704964 0
M  V30 39948 H 3913.12 -0.0392008 -1.83458 0
M  V30 39949 H 3911.5 2.10227 -3.3559 0
M  V30 39950 H 3912.67 -0.480039 -4.58293 0
M  V30 39951 H 3910.99 -0.276139 -4.15483 0
M  V30 39952 H 3913.58 2.4389 -4.75838 0
M  V30 39953 H 3913.93 2.7967 -3.08367 0
M  V30 39954 H 3914.46 1.24619 -3.77776 0
M  V30 39955 H 3911.2 0.115595 -6.55398 0
M  V30 39956 H 3910.72 1.63818 -5.76995 0
M  V30 39957 H 3912.4 1.40333 -6.31598 0
M  V30 39958 N 3912.53 1.54894 0.290797 0
M  V30 39959 C 3913.48 1.8655 1.35896 0
M  V30 39960 C 3914.45 0.715316 1.49908 0
M  V30 39961 O 3915.63 0.964915 1.64603 0
M  V30 39962 C 3912.77 2.12734 2.71732 0
M  V30 39963 C 3911.89 3.40326 2.66086 0
M  V30 39964 C 3911.02 3.56301 3.93983 0
M  V30 39965 C 3910.06 4.77649 3.82776 0
M  V30 39966 N 3909.2 4.90376 5.0247 0
M  V30 39967 H 3914.04 2.77663 1.082 0
M  V30 39968 H 3911.57 1.37484 0.52312 0
M  V30 39969 H 3913.53 2.25913 3.50741 0
M  V30 39970 H 3912.16 1.24876 2.97667 0
M  V30 39971 H 3911.21 3.35715 1.78885 0
M  V30 39972 H 3912.53 4.29463 2.53699 0
M  V30 39973 H 3911.68 3.692 4.81431 0
M  V30 39974 H 3910.42 2.65317 4.09216 0
M  V30 39975 H 3909.42 4.64773 2.93712 0
M  V30 39976 H 3910.65 5.70051 3.69078 0
M  V30 39977 H 3908.59 4.02317 5.18148 0
M  V30 39978 H 3908.51 5.73529 4.92545 0
M  V30 39979 H 3909.78 5.07641 5.91541 0
M  V30 39980 N 3914.01 -0.55448 1.47524 0
M  V30 39981 C 3914.96 -1.68232 1.60626 0
M  V30 39982 C 3915.95 -1.62649 0.473473 0
M  V30 39983 O 3917.16 -1.67801 0.651367 0
M  V30 39984 H 3913.53 -0.556709 0.505548 0
M  V30 39985 H 3915.5 -1.54319 2.55398 0
M  V30 39986 C 3914.25 -3.06579 1.64027 0
M  V30 39987 H 3913.57 -3.11558 2.50543 0
M  V30 39988 H 3915.01 -3.85176 1.77244 0
M  V30 39989 C 3913.47 -3.34816 0.374107 0
M  V30 39990 O 3914 -3.98272 -0.523634 0
M  V30 39991 N 3912.21 -2.89494 0.253295 0
M  V30 39992 H 3911.76 -2.38033 0.984779 0
M  V30 39993 H 3911.71 -3.08758 -0.592928 0
M  V30 39994 N 3915.49 -1.35701 -0.80143 0
M  V30 39995 C 3916.42 -1.31715 -1.92804 0
M  V30 39996 C 3917.4 -0.190671 -1.69028 0
M  V30 39997 O 3918.58 -0.386443 -1.90316 0
M  V30 39998 C 3915.71 -1.09358 -3.29633 0
M  V30 39999 C 3914.67 -2.18701 -3.67904 0
M  V30 40000 C 3913.99 -1.81503 -5.02952 0
M  V30 40001 C 3915.29 -3.60705 -3.77743 0
M  V30 40002 H 3916.99 -2.25983 -1.96397 0
M  V30 40003 H 3914.53 -1.08784 -0.943509 0
M  V30 40004 H 3916.49 -1.05207 -4.08056 0
M  V30 40005 H 3915.21 -0.115363 -3.26396 0
M  V30 40006 H 3913.87 -2.21958 -2.91771 0
M  V30 40007 H 3913.52 -0.822864 -4.96224 0
M  V30 40008 H 3913.22 -2.54702 -5.29529 0
M  V30 40009 H 3914.74 -1.78886 -5.83808 0
M  V30 40010 H 3916.15 -3.59742 -4.46384 0
M  V30 40011 H 3914.55 -4.32708 -4.15793 0
M  V30 40012 H 3915.62 -3.96482 -2.7916 0
M  V30 40013 N 3916.96 1.02419 -1.19783 0
M  V30 40014 C 3918.21 1.753 -0.997628 0
M  V30 40015 C 3918.53 1.89824 0.471809 0
M  V30 40016 O 3919.73 2.59723 0.790953 0
M  V30 40017 C 3918.19 3.15256 -1.73614 0
M  V30 40018 C 3917.8 3.0877 -3.246 0
M  V30 40019 C 3919.54 3.924 -1.61934 0
M  V30 40020 C 3917.45 4.43686 -3.9102 0
M  V30 40021 H 3916.38 0.657169 -0.369655 0
M  V30 40022 H 3919.03 1.14584 -1.43327 0
M  V30 40023 H 3917.41 3.76468 -1.22833 0
M  V30 40024 H 3918.58 2.56911 -3.82536 0
M  V30 40025 H 3916.9 2.45121 -3.36607 0
M  V30 40026 H 3919.5 4.92202 -2.08904 0
M  V30 40027 H 3919.84 4.1232 -0.574264 0
M  V30 40028 H 3920.37 3.378 -2.10086 0
M  V30 40029 H 3917.11 4.2897 -4.95646 0
M  V30 40030 H 3916.63 4.95582 -3.37873 0
M  V30 40031 H 3918.31 5.12555 -3.94837 0
M  V30 40032 N 3918.44 1.0025 1.21604 0
M  V30 40033 C 3919.69 0.683786 1.90606 0
M  V30 40034 C 3920.02 -0.785197 1.77946 0
M  V30 40035 O 3919.27 -1.58449 1.14859 0
M  V30 40036 C 3919.57 1.04745 3.41706 0
M  V30 40037 C 3919.24 2.51029 3.7456 0
M  V30 40038 C 3917.9 2.91002 3.83238 0
M  V30 40039 C 3920.25 3.45799 3.89965 0
M  V30 40040 C 3917.58 4.24714 4.04766 0
M  V30 40041 C 3919.93 4.79181 4.12999 0
M  V30 40042 C 3918.6 5.18881 4.19903 0
M  V30 40043 H 3917.87 0.250215 0.697477 0
M  V30 40044 H 3920.51 1.26048 1.44167 0
M  V30 40045 H 3918.82 0.388974 3.89864 0
M  V30 40046 H 3920.52 0.778744 3.93366 0
M  V30 40047 H 3917.11 2.19049 3.68396 0
M  V30 40048 H 3921.29 3.16083 3.8263 0
M  V30 40049 H 3916.55 4.55047 4.08341 0
M  V30 40050 H 3920.72 5.52553 4.23862 0
M  V30 40051 H 3918.35 6.22506 4.36337 0
M  V30 40052 N 3919.92 -1.37119 0.776919 0
M  V30 40053 C 3920.87 -2.32086 0.154562 0
M  V30 40054 C 3921.86 -1.55191 -0.679128 0
M  V30 40055 O 3923.07 -1.70548 -0.575611 0
M  V30 40056 H 3919.44 -0.751353 0.0311981 0
M  V30 40057 H 3921.42 -2.82154 0.971174 0
M  V30 40058 C 3920.16 -3.40455 -0.706105 0
M  V30 40059 H 3919.49 -3.99732 -0.0739638 0
M  V30 40060 H 3920.93 -4.09255 -1.10845 0
M  V30 40061 C 3919.39 -2.8097 -1.85896 0
M  V30 40062 O 3919.92 -2.72133 -2.95477 0
M  V30 40063 N 3918.12 -2.38439 -1.66118 0
M  V30 40064 H 3917.67 -2.45827 -0.769872 0
M  V30 40065 H 3917.63 -1.98984 -2.43419 0
M  V30 40066 N 3921.4 -0.527886 -1.48496 0
M  V30 40067 C 3922.33 0.22485 -2.32415 0
M  V30 40068 C 3923.31 0.937085 -1.4196 0
M  V30 40069 O 3924.5 0.923272 -1.70849 0
M  V30 40070 C 3921.63 1.2735 -3.23109 0
M  V30 40071 C 3920.58 0.679536 -4.22571 0
M  V30 40072 C 3919.91 1.83069 -5.02384 0
M  V30 40073 C 3921.21 -0.347361 -5.21144 0
M  V30 40074 H 3922.9 -0.475684 -2.95597 0
M  V30 40075 H 3920.45 -0.230207 -1.42148 0
M  V30 40076 H 3922.4 1.80803 -3.80642 0
M  V30 40077 H 3921.12 2.00359 -2.57922 0
M  V30 40078 H 3919.78 0.166544 -3.66222 0
M  V30 40079 H 3919.43 2.5491 -4.33624 0
M  V30 40080 H 3919.13 1.43919 -5.69703 0
M  V30 40081 H 3920.65 2.36904 -5.62769 0
M  V30 40082 H 3922.07 0.100007 -5.73213 0
M  V30 40083 H 3920.46 -0.656126 -5.96502 0
M  V30 40084 H 3921.53 -1.25387 -4.68408 0
M  V30 40085 N 3922.88 1.55391 -0.26292 0
M  V30 40086 C 3923.79 2.25696 0.640184 0
M  V30 40087 C 3924.8 1.27859 1.18017 0
M  V30 40088 O 3925.98 1.6077 1.21305 0
M  V30 40089 C 3923.04 2.955 1.81331 0
M  V30 40090 C 3922.11 4.08786 1.31121 0
M  V30 40091 C 3921.34 4.75251 2.42841 0
M  V30 40092 O 3921.56 4.40865 3.61931 0
M  V30 40093 O 3920.5 5.63446 2.11689 0
M  V30 40094 H 3924.32 3.03617 0.0710247 0
M  V30 40095 H 3921.91 1.49368 -0.0307912 0
M  V30 40096 H 3923.79 3.3941 2.49758 0
M  V30 40097 H 3922.46 2.20506 2.36978 0
M  V30 40098 H 3921.37 3.69358 0.593751 0
M  V30 40099 H 3922.7 4.85645 0.800625 0
M  V30 40100 N 3924.36 -0.00997961 1.57597 0
M  V30 40101 C 3925.29 -1.00371 2.10827 0
M  V30 40102 C 3926.27 -1.36491 1.0151 0
M  V30 40103 O 3927.45 -1.45041 1.29139 0
M  V30 40104 C 3924.58 -2.29873 2.60338 0
M  V30 40105 C 3923.54 -2.07943 3.74091 0
M  V30 40106 C 3922.86 -3.43371 4.09879 0
M  V30 40107 C 3924.16 -1.45009 5.01767 0
M  V30 40108 H 3925.86 -0.560539 2.94106 0
M  V30 40109 H 3923.4 -0.268183 1.41481 0
M  V30 40110 H 3925.35 -2.99738 2.96201 0
M  V30 40111 H 3924.08 -2.76285 1.74167 0
M  V30 40112 H 3922.74 -1.40506 3.38605 0
M  V30 40113 H 3922.39 -3.87468 3.20746 0
M  V30 40114 H 3922.09 -3.29517 4.86511 0
M  V30 40115 H 3923.61 -4.14567 4.48293 0
M  V30 40116 H 3925.02 -2.04817 5.35465 0
M  V30 40117 H 3923.42 -1.41673 5.83137 0
M  V30 40118 H 3924.49 -0.418105 4.83094 0
M  V30 40119 N 3925.83 -1.55046 -0.282578 0
M  V30 40120 C 3926.76 -1.90274 -1.35344 0
M  V30 40121 C 3927.74 -0.763558 -1.51999 0
M  V30 40122 O 3928.93 -1.02088 -1.65202 0
M  V30 40123 C 3926.06 -2.16625 -2.7146 0
M  V30 40124 C 3925.01 -3.32457 -2.69548 0
M  V30 40125 C 3924.34 -3.44267 -4.09126 0
M  V30 40126 C 3925.64 -4.69098 -2.29661 0
M  V30 40127 H 3927.33 -2.79967 -1.06108 0
M  V30 40128 H 3924.88 -1.34704 -0.508994 0
M  V30 40129 H 3926.83 -2.39857 -3.46478 0
M  V30 40130 H 3925.56 -1.23722 -3.02259 0
M  V30 40131 H 3924.22 -3.09179 -1.96988 0
M  V30 40132 H 3923.86 -2.48848 -4.37131 0
M  V30 40133 H 3923.56 -4.2214 -4.08744 0
M  V30 40134 H 3925.09 -3.6978 -4.85896 0
M  V30 40135 H 3926.5 -4.91938 -2.94398 0
M  V30 40136 H 3924.9 -5.49818 -2.40457 0
M  V30 40137 H 3925.97 -4.68568 -1.24788 0
M  V30 40138 N 3927.31 0.546649 -1.47816 0
M  V30 40139 C 3928.59 1.30763 -1.45466 0
M  V30 40140 C 3928.97 2.10513 -0.157286 0
M  V30 40141 O 3928.32 2.11651 0.861166 0
M  V30 40142 C 3928.53 2.20321 -2.70665 0
M  V30 40143 C 3929.87 2.81001 -3.18314 0
M  V30 40144 O 3930.9 2.30618 -2.71466 0
M  V30 40145 O 3929.76 3.72603 -3.99786 0
M  V30 40146 H 3926.85 0.589333 -0.580186 0
M  V30 40147 H 3929.4 0.564679 -1.6003 0
M  V30 40148 H 3928.17 1.61063 -3.56615 0
M  V30 40149 H 3927.79 3.01893 -2.5874 0
M  V30 40150 N 3928.79 1.36124 0.794222 0
M  V30 40151 C 3930.04 1.30087 1.55189 0
M  V30 40152 C 3930.36 -0.121225 1.94122 0
M  V30 40153 O 3929.62 -1.0894 1.62575 0
M  V30 40154 C 3929.92 2.16474 2.84383 0
M  V30 40155 C 3929.58 3.65092 2.64611 0
M  V30 40156 C 3928.25 4.05599 2.58926 0
M  V30 40157 C 3930.6 4.5934 2.46284 0
M  V30 40158 C 3927.93 5.38503 2.32875 0
M  V30 40159 C 3930.28 5.92457 2.21761 0
M  V30 40160 C 3928.94 6.32094 2.14507 0
M  V30 40161 H 3928.21 0.476022 0.567876 0
M  V30 40162 H 3930.86 1.68134 0.916693 0
M  V30 40163 H 3929.16 1.71348 3.52345 0
M  V30 40164 H 3930.86 2.0913 3.42149 0
M  V30 40165 H 3927.45 3.32954 2.69888 0
M  V30 40166 H 3931.64 4.28921 2.4968 0
M  V30 40167 H 3926.89 5.68201 2.25738 0
M  V30 40168 H 3931.07 6.65056 2.06574 0
M  V30 40169 H 3928.69 7.35007 1.94083 0
M  V30 40170 N 3930.27 -1.01782 1.20325 0
M  V30 40171 C 3931.22 -2.12414 0.947791 0
M  V30 40172 C 3932.21 -1.69102 -0.100413 0
M  V30 40173 O 3933.42 -1.79931 0.0498345 0
M  V30 40174 H 3929.79 -0.694183 0.28916 0
M  V30 40175 H 3931.76 -2.31145 1.88718 0
M  V30 40176 C 3930.51 -3.43864 0.51509 0
M  V30 40177 H 3929.83 -3.77616 1.31325 0
M  V30 40178 H 3931.27 -4.22334 0.37555 0
M  V30 40179 C 3929.73 -3.27927 -0.772355 0
M  V30 40180 O 3930.26 -3.57539 -1.83109 0
M  V30 40181 N 3928.47 -2.8118 -0.733899 0
M  V30 40182 H 3928.02 -2.57282 0.127947 0
M  V30 40183 H 3927.97 -2.70899 -1.59566 0
M  V30 40184 N 3931.75 -1.00894 -1.21071 0
M  V30 40185 C 3932.97 -0.712623 -1.94773 0
M  V30 40186 C 3933.4 0.719055 -1.73814 0
M  V30 40187 O 3932.75 1.49373 -1.0275 0
M  V30 40188 C 3932.8 -1.04408 -3.45154 0
M  V30 40189 O 3931.91 -0.151505 -4.12122 0
M  V30 40190 H 3931.25 -0.265131 -0.608771 0
M  V30 40191 H 3933.78 -1.35025 -1.53719 0
M  V30 40192 H 3933.79 -0.992581 -3.95742 0
M  V30 40193 H 3932.46 -2.08723 -3.59733 0
M  V30 40194 H 3931.04 -0.259871 -3.71993 0
M  V30 40195 N 3933.22 1.36705 -0.78418 0
M  V30 40196 C 3934.19 2.28452 -0.184997 0
M  V30 40197 C 3935.19 1.48591 0.61461 0
M  V30 40198 O 3936.38 1.68646 0.436373 0
M  V30 40199 C 3933.51 3.32669 0.744603 0
M  V30 40200 H 3934.7 2.82951 -0.993911 0
M  V30 40201 H 3932.26 1.46181 -0.55324 0
M  V30 40202 H 3932.99 2.83316 1.57806 0
M  V30 40203 H 3932.78 3.91717 0.173244 0
M  V30 40204 H 3934.27 4.01198 1.15887 0
M  V30 40205 N 3934.7 0.535753 1.48214 0
M  V30 40206 C 3935.95 0.0037687 2.028 0
M  V30 40207 C 3936.28 -1.33386 1.41145 0
M  V30 40208 O 3935.56 -1.86286 0.55926 0
M  V30 40209 C 3935.84 -0.112123 3.59925 0
M  V30 40210 C 3935.69 1.25108 4.32051 0
M  V30 40211 C 3937.01 -0.836102 4.32085 0
M  V30 40212 H 3934.13 0.00284358 0.736995 0
M  V30 40213 H 3936.77 0.693899 1.76876 0
M  V30 40214 H 3934.92 -0.699893 3.82144 0
M  V30 40215 H 3936.59 1.8804 4.21235 0
M  V30 40216 H 3934.84 1.83145 3.93243 0
M  V30 40217 H 3935.51 1.12293 5.40458 0
M  V30 40218 H 3937.98 -0.33726 4.14731 0
M  V30 40219 H 3936.86 -0.886101 5.41701 0
M  V30 40220 H 3937.12 -1.88764 3.99775 0
M  V30 40221 N 3936.18 -1.5525 0.271158 0
M  V30 40222 C 3937.43 -1.99115 -0.346071 0
M  V30 40223 C 3937.75 -1.16095 -1.56675 0
M  V30 40224 O 3937.02 -0.249506 -1.94305 0
M  V30 40225 H 3935.6 -0.735449 -0.130857 0
M  V30 40226 H 3938.26 -1.91247 0.375576 0
M  V30 40227 H 3937.36 -3.05496 -0.638649 0
M  V30 40228 N 3937.66 0.00162173 -1.576 0
M  V30 40229 C 3938.61 1.00203 -2.04801 0
M  V30 40230 C 3939.59 1.30412 -0.942422 0
M  V30 40231 O 3940.78 1.29537 -1.2062 0
M  V30 40232 C 3937.91 2.29455 -2.55353 0
M  V30 40233 C 3937 2.02218 -3.72785 0
M  V30 40234 N 3937.39 1.45133 -4.84531 0
M  V30 40235 C 3935.69 2.32369 -3.80685 0
M  V30 40236 C 3936.39 1.34329 -5.65977 0
M  V30 40237 N 3935.37 1.82835 -5.1193 0
M  V30 40238 H 3939.17 0.55514 -2.88609 0
M  V30 40239 H 3936.68 0.207352 -1.61071 0
M  V30 40240 H 3938.68 3.01964 -2.87443 0
M  V30 40241 H 3937.34 2.74798 -1.72962 0
M  V30 40242 H 3938.35 1.13036 -5.05414 0
M  V30 40243 H 3935.03 2.80598 -3.09146 0
M  V30 40244 H 3936.42 0.904505 -6.65784 0
M  V30 40245 N 3939.14 1.55194 0.274352 0
M  V30 40246 C 3940.05 1.91076 1.36115 0
M  V30 40247 C 3941.06 0.80785 1.5411 0
M  V30 40248 O 3942.24 1.10679 1.68262 0
M  V30 40249 C 3939.3 2.17415 2.70058 0
M  V30 40250 C 3938.36 3.40985 2.60821 0
M  V30 40251 C 3937.6 3.66059 3.88377 0
M  V30 40252 O 3937.82 2.93666 4.88995 0
M  V30 40253 O 3936.75 4.59593 3.88662 0
M  V30 40254 H 3940.58 2.83588 1.08681 0
M  V30 40255 H 3938.17 1.41723 0.472759 0
M  V30 40256 H 3940.05 2.35788 3.49259 0
M  V30 40257 H 3938.72 1.28086 2.9728 0
M  V30 40258 H 3937.63 3.27949 1.8 0
M  V30 40259 H 3938.96 4.30529 2.38549 0
M  V30 40260 N 3940.61 -0.538802 1.48104 0
M  V30 40261 C 3941.55 -1.65993 1.58047 0
M  V30 40262 C 3942.56 -1.56008 0.465343 0
M  V30 40263 O 3943.75 -1.62629 0.735797 0
M  V30 40264 C 3940.85 -3.04587 1.48593 0
M  V30 40265 C 3940.02 -3.40143 2.74993 0
M  V30 40266 C 3939.08 -4.57979 2.59117 0
M  V30 40267 O 3938.11 -4.6164 3.32982 0
M  V30 40268 N 3939.31 -5.55612 1.68152 0
M  V30 40269 H 3942.07 -1.57904 2.54728 0
M  V30 40270 H 3939.63 -0.725875 1.44716 0
M  V30 40271 H 3941.63 -3.81278 1.35679 0
M  V30 40272 H 3940.2 -3.06803 0.599211 0
M  V30 40273 H 3939.42 -2.52717 3.02535 0
M  V30 40274 H 3940.7 -3.60681 3.58869 0
M  V30 40275 H 3940.1 -5.55426 1.07326 0
M  V30 40276 H 3938.66 -6.31556 1.61182 0
M  V30 40277 N 3942.09 -1.36544 -0.786992 0
M  V30 40278 C 3943.34 -1.31102 -1.54726 0
M  V30 40279 C 3943.67 0.108819 -1.93895 0
M  V30 40280 O 3942.95 1.06275 -1.62898 0
M  V30 40281 C 3943.23 -2.23599 -2.82268 0
M  V30 40282 C 3943.08 -3.74292 -2.49451 0
M  V30 40283 C 3944.4 -2.14822 -3.84109 0
M  V30 40284 H 3941.52 -0.477565 -0.561338 0
M  V30 40285 H 3944.16 -1.67116 -0.903998 0
M  V30 40286 H 3942.31 -1.93016 -3.3716 0
M  V30 40287 H 3943.98 -4.15404 -2.00591 0
M  V30 40288 H 3942.23 -3.93608 -1.82359 0
M  V30 40289 H 3942.9 -4.34426 -3.40556 0
M  V30 40290 H 3945.37 -2.41747 -3.3867 0
M  V30 40291 H 3944.25 -2.81708 -4.71096 0
M  V30 40292 H 3944.51 -1.13628 -4.27248 0
M  V30 40293 N 3943.57 1.01143 -1.20863 0
M  V30 40294 C 3944.85 1.7203 -0.93087 0
M  V30 40295 C 3945.23 2.03564 0.559015 0
M  V30 40296 O 3944.58 1.70424 1.52211 0
M  V30 40297 C 3944.79 2.98441 -1.80926 0
M  V30 40298 C 3946.13 3.71601 -2.05422 0
M  V30 40299 O 3947.16 3.08408 -1.78221 0
M  V30 40300 O 3946.02 4.85248 -2.51389 0
M  V30 40301 H 3943.11 0.749984 -0.348501 0
M  V30 40302 H 3945.66 1.06944 -1.31761 0
M  V30 40303 H 3944.43 2.71498 -2.81788 0
M  V30 40304 H 3944.05 3.71267 -1.42292 0
M  V30 40305 N 3945.05 1.01535 1.20534 0
M  V30 40306 C 3945.98 0.604905 2.25529 0
M  V30 40307 C 3946.96 -0.379423 1.65814 0
M  V30 40308 O 3948.14 -0.265128 1.92382 0
M  V30 40309 C 3945.27 -0.0588682 3.4725 0
M  V30 40310 C 3944.23 0.846315 4.19549 0
M  V30 40311 C 3943.55 0.0483841 5.34678 0
M  V30 40312 C 3944.85 2.15378 4.75825 0
M  V30 40313 H 3946.55 1.48259 2.60115 0
M  V30 40314 H 3944.09 0.714319 1.25034 0
M  V30 40315 H 3946.05 -0.357553 4.1988 0
M  V30 40316 H 3944.77 -0.971255 3.11824 0
M  V30 40317 H 3943.43 1.12898 3.48783 0
M  V30 40318 H 3943.08 -0.865613 4.95496 0
M  V30 40319 H 3942.78 0.651183 5.83981 0
M  V30 40320 H 3944.3 -0.243876 6.10113 0
M  V30 40321 H 3945.72 1.91755 5.4028 0
M  V30 40322 H 3944.11 2.70733 5.35559 0
M  V30 40323 H 3945.18 2.81763 3.94636 0
M  V30 40324 N 3946.53 -1.36288 0.791419 0
M  V30 40325 C 3947.8 -1.93459 0.288636 0
M  V30 40326 C 3948.18 -1.72312 -1.2195 0
M  V30 40327 O 3947.53 -1.08324 -2.01192 0
M  V30 40328 C 3947.74 -3.42243 0.683452 0
M  V30 40329 C 3949.09 -4.19371 0.664328 0
M  V30 40330 O 3950.11 -3.50691 0.62405 0
M  V30 40331 O 3948.97 -5.41881 0.709021 0
M  V30 40332 H 3946.07 -0.823865 0.071945 0
M  V30 40333 H 3948.61 -1.45457 0.874097 0
M  V30 40334 H 3947.38 -3.51299 1.7235 0
M  V30 40335 H 3947.01 -3.97535 0.0719826 0
M  V30 40336 N 3948.01 -0.543606 -1.47928 0
M  V30 40337 C 3949.23 -0.0189551 -2.06891 0
M  V30 40338 C 3949.65 1.26864 -1.39825 0
M  V30 40339 O 3949.01 1.75793 -0.490228 0
M  V30 40340 C 3949.06 0.194532 -3.60976 0
M  V30 40341 O 3948.78 -1.04206 -4.25526 0
M  V30 40342 C 3950.28 0.758016 -4.36771 0
M  V30 40343 H 3947.5 -0.0396743 -0.669826 0
M  V30 40344 H 3950.04 -0.753139 -1.90126 0
M  V30 40345 H 3948.2 0.878803 -3.77301 0
M  V30 40346 H 3948.61 -0.831282 -5.17871 0
M  V30 40347 H 3950.09 0.85675 -5.45311 0
M  V30 40348 H 3950.56 1.76614 -4.02125 0
M  V30 40349 H 3951.17 0.109878 -4.25158 0
M  V30 40350 N 3949.48 1.55104 -0.279387 0
M  V30 40351 C 3950.72 2.01598 0.337309 0
M  V30 40352 C 3951.09 1.16351 1.5273 0
M  V30 40353 O 3952.29 1.52444 2.21392 0
M  V30 40354 C 3950.56 3.50362 0.705778 0
M  V30 40355 S 3952.12 4.18839 1.3084 0
M  V30 40356 H 3948.94 0.70325 0.104691 0
M  V30 40357 H 3951.54 1.91318 -0.402218 0
M  V30 40358 H 3950.24 4.10051 -0.16911 0
M  V30 40359 H 3949.77 3.64635 1.47666 0
M  V30 40360 H 3951.79 4.2282 2.59688 0
M  V30 40361 N 3950.96 0.0067362 1.57599 0
M  V30 40362 C 3952.21 -0.672031 1.91977 0
M  V30 40363 C 3952.56 -1.71006 0.88175 0
M  V30 40364 O 3951.86 -1.91311 -0.105192 0
M  V30 40365 C 3952.05 -1.35127 3.30871 0
M  V30 40366 C 3951.88 -0.380556 4.48087 0
M  V30 40367 C 3950.65 0.0114918 5.05299 0
M  V30 40368 C 3952.85 0.355993 5.13066 0
M  V30 40369 N 3950.83 0.979717 6.06032 0
M  V30 40370 C 3952.2 1.17868 6.08693 0
M  V30 40371 C 3954.25 0.419105 4.96133 0
M  V30 40372 C 3952.96 2.05874 6.89208 0
M  V30 40373 C 3954.98 1.28642 5.77239 0
M  V30 40374 C 3954.35 2.09694 6.72464 0
M  V30 40375 H 3950.44 -0.218909 0.750735 0
M  V30 40376 H 3953.03 0.0686647 1.94579 0
M  V30 40377 H 3951.2 -2.06222 3.2913 0
M  V30 40378 H 3952.93 -1.98527 3.5266 0
M  V30 40379 H 3949.69 -0.358294 4.72243 0
M  V30 40380 H 3950.11 1.4594 6.61083 0
M  V30 40381 H 3954.75 -0.193261 4.22358 0
M  V30 40382 H 3952.47 2.68176 7.62304 0
M  V30 40383 H 3956.06 1.33925 5.66176 0
M  V30 40384 H 3954.94 2.75721 7.34131 0
M  V30 40385 N 3952.44 -1.55337 -0.266118 0
M  V30 40386 C 3953.37 -1.91699 -1.33318 0
M  V30 40387 C 3954.35 -0.779637 -1.51181 0
M  V30 40388 O 3955.54 -1.03835 -1.6411 0
M  V30 40389 C 3952.67 -2.19492 -2.69147 0
M  V30 40390 C 3951.62 -3.35298 -2.66007 0
M  V30 40391 C 3950.95 -3.48587 -4.05452 0
M  V30 40392 C 3952.25 -4.71508 -2.24672 0
M  V30 40393 H 3953.94 -2.81076 -1.03133 0
M  V30 40394 H 3951.49 -1.35237 -0.494678 0
M  V30 40395 H 3953.44 -2.43518 -3.43914 0
M  V30 40396 H 3952.16 -1.26921 -3.00929 0
M  V30 40397 H 3950.82 -3.11251 -1.93697 0
M  V30 40398 H 3950.47 -2.5347 -4.34467 0
M  V30 40399 H 3950.17 -4.26452 -4.04243 0
M  V30 40400 H 3951.69 -3.74912 -4.81947 0
M  V30 40401 H 3953.11 -4.95032 -2.89164 0
M  V30 40402 H 3951.5 -5.52338 -2.34612 0
M  V30 40403 H 3952.57 -4.69865 -1.19811 0
M  V30 40404 N 3953.92 0.53094 -1.48387 0
M  V30 40405 C 3955.14 1.31636 -1.60271 0
M  V30 40406 C 3955.57 1.86255 -0.262822 0
M  V30 40407 O 3954.93 1.64353 0.76536 0
M  V30 40408 C 3954.97 2.44374 -2.65167 0
M  V30 40409 O 3954.08 3.47382 -2.22261 0
M  V30 40410 H 3953.42 0.38991 -0.537462 0
M  V30 40411 H 3955.95 0.638966 -1.94367 0
M  V30 40412 H 3955.96 2.90574 -2.86411 0
M  V30 40413 H 3954.63 2.03981 -3.62443 0
M  V30 40414 H 3953.21 3.07307 -2.11227 0
M  V30 40415 N 3955.4 1.36959 0.779739 0
M  V30 40416 C 3956.31 1.34248 1.92392 0
M  V30 40417 C 3957.32 0.243218 1.72292 0
M  V30 40418 O 3958.5 0.477245 1.95664 0
M  V30 40419 C 3955.56 1.14063 3.274 0
M  V30 40420 C 3954.62 2.33555 3.60209 0
M  V30 40421 C 3953.86 2.14322 4.88776 0
M  V30 40422 O 3954.08 1.12337 5.59229 0
M  V30 40423 O 3953.01 3.02325 5.20464 0
M  V30 40424 H 3956.84 2.306 1.97629 0
M  V30 40425 H 3954.42 1.17606 0.921365 0
M  V30 40426 H 3956.31 1.04762 4.0817 0
M  V30 40427 H 3954.98 0.2078 3.23032 0
M  V30 40428 H 3953.89 2.48426 2.79706 0
M  V30 40429 H 3955.22 3.25377 3.69311 0
M  V30 40430 N 3956.87 -1.00501 1.21398 0
M  V30 40431 C 3958.29 -1.26639 0.971327 0
M  V30 40432 C 3958.49 -1.98571 -0.342301 0
M  V30 40433 O 3957.55 -2.28803 -1.06796 0
M  V30 40434 C 3958.86 -2.09004 2.16189 0
M  V30 40435 C 3960.41 -2.2223 2.20415 0
M  V30 40436 C 3960.88 -3.07978 3.38989 0
M  V30 40437 N 3962.37 -3.15566 3.39076 0
M  V30 40438 C 3963.11 -3.8217 4.27474 0
M  V30 40439 N 3962.6 -4.50802 5.2607 0
M  V30 40440 N 3964.4 -3.7881 4.15282 0
M  V30 40441 H 3956.55 -0.522399 2.05876 0
M  V30 40442 H 3958.81 -0.293256 0.901502 0
M  V30 40443 H 3958.52 -1.63499 3.11386 0
M  V30 40444 H 3958.39 -3.09754 2.15249 0
M  V30 40445 H 3960.78 -2.66955 1.25774 0
M  V30 40446 H 3960.86 -1.2095 2.25399 0
M  V30 40447 H 3960.5 -2.63956 4.33924 0
M  V30 40448 H 3960.43 -4.09372 3.31244 0
M  V30 40449 H 3962.92 -2.66708 2.67722 0
M  V30 40450 H 3963.24 -4.99328 5.89823 0
M  V30 40451 H 3961.58 -4.49589 5.29995 0
M  V30 40452 H 3964.77 -3.24346 3.37517 0
M  V30 40453 H 3964.95 -4.30439 4.84382 0
M  V30 40454 N 3958.35 -1.02172 -1.19994 0
M  V30 40455 C 3959.76 -0.744807 -1.712 0
M  V30 40456 C 3960.11 0.736207 -1.81864 0
M  V30 40457 O 3959.24 1.57428 -1.48477 0
M  V30 40458 C 3959.83 -1.34537 -3.10943 0
M  V30 40459 C 3958.39 -1.1172 -3.59438 0
M  V30 40460 C 3957.54 -1.44788 -2.36499 0
M  V30 40461 H 3960.49 -1.19055 -1.04936 0
M  V30 40462 H 3960.51 -0.738596 -3.73263 0
M  V30 40463 H 3960.02 -2.42326 -3.03149 0
M  V30 40464 H 3958.12 -0.0572001 -3.72556 0
M  V30 40465 H 3958.24 -1.80087 -4.43966 0
M  V30 40466 H 3956.6 -0.867023 -2.39489 0
M  V30 40467 H 3957.38 -2.53645 -2.31342 0
M  V30 40468 N 3959.83 1.35866 -0.798635 0
M  V30 40469 C 3960.78 2.29919 -0.201482 0
M  V30 40470 C 3961.75 1.52427 0.659944 0
M  V30 40471 O 3962.93 1.80897 0.606694 0
M  V30 40472 C 3960.07 3.38916 0.650367 0
M  V30 40473 C 3959.18 4.31384 -0.230615 0
M  V30 40474 C 3958.32 5.27469 0.628482 0
M  V30 40475 C 3957.36 6.11575 -0.253389 0
M  V30 40476 N 3956.5 6.99821 0.56522 0
M  V30 40477 H 3961.34 2.80399 -1.00897 0
M  V30 40478 H 3958.87 1.38009 -0.50911 0
M  V30 40479 H 3960.83 4.00768 1.15934 0
M  V30 40480 H 3959.46 2.89733 1.4232 0
M  V30 40481 H 3958.51 3.70606 -0.857625 0
M  V30 40482 H 3959.82 4.90434 -0.909721 0
M  V30 40483 H 3958.98 5.94656 1.2029 0
M  V30 40484 H 3957.72 4.68896 1.34118 0
M  V30 40485 H 3956.72 5.43343 -0.840136 0
M  V30 40486 H 3957.95 6.72225 -0.963831 0
M  V30 40487 H 3955.89 6.43746 1.26204 0
M  V30 40488 H 3955.81 7.55979 -0.0560081 0
M  V30 40489 H 3957.08 7.71366 1.12317 0
M  V30 40490 N 3961.31 0.551443 1.47638 0
M  V30 40491 C 3962.24 -0.187846 2.32743 0
M  V30 40492 C 3963.22 -0.914381 1.43433 0
M  V30 40493 O 3964.4 -0.895974 1.72296 0
M  V30 40494 C 3961.53 -1.22194 3.25094 0
M  V30 40495 C 3960.49 -0.612223 4.23599 0
M  V30 40496 C 3959.81 -1.75053 5.05233 0
M  V30 40497 C 3961.11 0.430226 5.20525 0
M  V30 40498 H 3962.81 0.52265 2.94803 0
M  V30 40499 H 3960.35 0.252793 1.41764 0
M  V30 40500 H 3962.31 -1.74725 3.8347 0
M  V30 40501 H 3961.03 -1.9623 2.61077 0
M  V30 40502 H 3959.69 -0.10826 3.6644 0
M  V30 40503 H 3959.34 -2.47979 4.37625 0
M  V30 40504 H 3959.04 -1.34838 5.7192 0
M  V30 40505 H 3960.56 -2.27921 5.66467 0
M  V30 40506 H 3961.98 -0.00880091 5.73299 0
M  V30 40507 H 3960.37 0.750941 5.95383 0
M  V30 40508 H 3961.44 1.32823 4.66354 0
M  V30 40509 N 3962.79 -1.54953 0.287609 0
M  V30 40510 C 3963.75 -2.21703 -0.581426 0
M  V30 40511 C 3964.75 -1.1988 -1.0717 0
M  V30 40512 O 3965.94 -1.44703 -0.969874 0
M  V30 40513 C 3963.07 -2.89285 -1.80353 0
M  V30 40514 H 3964.26 -2.999 0.00156306 0
M  V30 40515 H 3961.82 -1.56253 0.0383228 0
M  V30 40516 H 3962.55 -2.15132 -2.4267 0
M  V30 40517 H 3962.34 -3.63914 -1.45976 0
M  V30 40518 H 3963.83 -3.40244 -2.42123 0
M  V30 40519 N 3964.26 -0.0150939 -1.57593 0
M  V30 40520 C 3965.68 0.525678 -1.79147 0
M  V30 40521 C 3966.03 1.73079 -0.924015 0
M  V30 40522 O 3965.15 2.16006 -0.13057 0
M  V30 40523 C 3965.75 0.960435 -3.24902 0
M  V30 40524 C 3964.31 1.44641 -3.47499 0
M  V30 40525 C 3963.45 0.40458 -2.74333 0
M  V30 40526 H 3966.4 -0.241202 -1.56856 0
M  V30 40527 H 3966.42 1.82562 -3.33843 0
M  V30 40528 H 3965.94 0.0831343 -3.88011 0
M  V30 40529 H 3964.04 2.34411 -2.89625 0
M  V30 40530 H 3964.15 1.46346 -4.56201 0
M  V30 40531 H 3962.51 0.869585 -2.39396 0
M  V30 40532 H 3963.3 -0.464013 -3.4015 0
M  V30 40533 N 3965.74 1.55476 0.257876 0
M  V30 40534 C 3967.02 1.67529 1.00962 0
M  V30 40535 C 3967.4 0.551729 2.03762 0
M  V30 40536 O 3966.75 -0.446275 2.241 0
M  V30 40537 C 3966.96 3.0738 1.65284 0
M  V30 40538 C 3968.31 3.65623 2.15881 0
M  V30 40539 O 3969.33 3.10109 1.75244 0
M  V30 40540 O 3968.19 4.62919 2.90463 0
M  V30 40541 H 3965.28 0.680977 0.469254 0
M  V30 40542 H 3967.83 1.6781 0.252533 0
M  V30 40543 H 3966.6 3.80603 0.908702 0
M  V30 40544 H 3966.22 3.11062 2.47641 0
M  V30 40545 N 3967.22 -0.523064 1.48667 0
M  V30 40546 C 3968.18 -1.60916 1.63214 0
M  V30 40547 C 3969.18 -1.52663 0.505039 0
M  V30 40548 O 3970.37 -1.56209 0.770994 0
M  V30 40549 C 3967.51 -3.00548 1.60883 0
M  V30 40550 H 3968.7 -1.49355 2.60064 0
M  V30 40551 H 3966.25 -0.745649 1.37367 0
M  V30 40552 H 3966.99 -3.17609 0.655362 0
M  V30 40553 H 3966.77 -3.07948 2.42715 0
M  V30 40554 H 3968.26 -3.79499 1.7427 0
M  V30 40555 N 3968.7 -1.37371 -0.772465 0
M  V30 40556 C 3969.61 -1.35267 -1.91677 0
M  V30 40557 C 3970.62 -0.252351 -1.7216 0
M  V30 40558 O 3971.8 -0.487615 -1.95408 0
M  V30 40559 C 3968.87 -1.15797 -3.2679 0
M  V30 40560 C 3967.93 -2.35462 -3.58966 0
M  V30 40561 C 3967.16 -2.16911 -4.87632 0
M  V30 40562 O 3967.38 -1.15301 -5.58625 0
M  V30 40563 O 3966.32 -3.05081 -5.18854 0
M  V30 40564 H 3970.14 -2.31645 -1.96404 0
M  V30 40565 H 3967.73 -1.18093 -0.915115 0
M  V30 40566 H 3969.61 -1.06925 -4.07609 0
M  V30 40567 H 3968.28 -0.224929 -3.22918 0
M  V30 40568 H 3967.19 -2.49906 -2.78385 0
M  V30 40569 H 3968.52 -3.27331 -3.6758 0
M  V30 40570 N 3970.18 0.998553 -1.21929 0
M  V30 40571 C 3971.45 1.71033 -0.949064 0
M  V30 40572 C 3971.83 2.04145 0.537393 0
M  V30 40573 O 3971.18 1.72028 1.50394 0
M  V30 40574 C 3971.39 2.96505 -1.84081 0
M  V30 40575 C 3972.74 3.69401 -2.09352 0
M  V30 40576 O 3973.76 3.065 -1.81483 0
M  V30 40577 O 3972.62 4.82555 -2.56521 0
M  V30 40578 H 3969.72 0.746246 -0.356436 0
M  V30 40579 H 3972.26 1.0554 -1.32888 0
M  V30 40580 H 3971.03 2.68494 -2.84651 0
M  V30 40581 H 3970.66 3.69736 -1.46221 0
M  V30 40582 N 3971.65 1.02807 1.1945 0
M  V30 40583 C 3972.88 0.743519 1.93614 0
M  V30 40584 C 3973.3 -0.691311 1.74936 0
M  V30 40585 O 3972.66 -1.47719 1.05113 0
M  V30 40586 C 3972.71 1.09886 3.43449 0
M  V30 40587 O 3971.81 0.217051 4.11828 0
M  V30 40588 H 3971.16 0.274782 0.604476 0
M  V30 40589 H 3973.69 1.37453 1.51551 0
M  V30 40590 H 3973.7 1.05541 3.94113 0
M  V30 40591 H 3972.37 2.14419 3.56367 0
M  V30 40592 H 3970.95 0.319019 3.71533 0
M  V30 40593 N 3973.13 -1.35441 0.805829 0
M  V30 40594 C 3974.08 -2.29809 0.213672 0
M  V30 40595 C 3975.05 -1.52775 -0.651851 0
M  V30 40596 O 3976.23 -1.81217 -0.597092 0
M  V30 40597 C 3973.37 -3.39256 -0.632385 0
M  V30 40598 C 3972.49 -4.31256 0.253489 0
M  V30 40599 C 3971.62 -5.27795 -0.6005 0
M  V30 40600 C 3970.66 -6.11432 0.285819 0
M  V30 40601 N 3969.8 -7.00111 -0.528099 0
M  V30 40602 H 3974.64 -2.7986 1.02383 0
M  V30 40603 H 3972.18 -1.37737 0.516422 0
M  V30 40604 H 3974.13 -4.01378 -1.13807 0
M  V30 40605 H 3972.76 -2.90483 -1.40781 0
M  V30 40606 H 3971.82 -3.70146 0.877267 0
M  V30 40607 H 3973.13 -4.89945 0.935718 0
M  V30 40608 H 3972.28 -5.95285 -1.17134 0
M  V30 40609 H 3971.02 -4.69601 -1.3163 0
M  V30 40610 H 3970.03 -5.4289 0.868939 0
M  V30 40611 H 3971.25 -6.71705 0.999467 0
M  V30 40612 H 3969.2 -6.44406 -1.22789 0
M  V30 40613 H 3969.11 -7.55939 0.0960987 0
M  V30 40614 H 3970.38 -7.71951 -1.08224 0
M  V30 40615 N 3974.61 -0.559265 -1.47343 0
M  V30 40616 C 3975.54 0.175501 -2.3284 0
M  V30 40617 C 3976.52 0.906762 -1.43916 0
M  V30 40618 O 3977.71 0.886824 -1.72769 0
M  V30 40619 C 3974.84 1.20468 -3.25737 0
M  V30 40620 C 3973.79 0.58975 -4.23917 0
M  V30 40621 C 3973.12 1.72371 -5.06154 0
M  V30 40622 C 3974.42 -0.457825 -5.2029 0
M  V30 40623 H 3976.11 -0.538277 -2.94522 0
M  V30 40624 H 3973.66 -0.260307 -1.41628 0
M  V30 40625 H 3975.61 1.72689 -3.84391 0
M  V30 40626 H 3974.33 1.94843 -2.62114 0
M  V30 40627 H 3972.99 0.0888253 -3.66492 0
M  V30 40628 H 3972.64 2.45655 -4.38934 0
M  V30 40629 H 3972.34 1.31803 -5.72627 0
M  V30 40630 H 3973.86 2.24914 -5.67667 0
M  V30 40631 H 3975.28 -0.0216027 -5.73296 0
M  V30 40632 H 3973.68 -0.782505 -5.94976 0
M  V30 40633 H 3974.75 -1.35294 -4.65643 0
M  V30 40634 N 3976.09 1.54799 -0.295822 0
M  V30 40635 C 3977.02 2.26289 0.575823 0
M  V30 40636 C 3978 1.26051 1.14215 0
M  V30 40637 O 3979.18 1.54814 1.17245 0
M  V30 40638 C 3976.31 2.99973 1.75025 0
M  V30 40639 C 3975.27 4.07314 1.31452 0
M  V30 40640 C 3974.59 4.68685 2.57369 0
M  V30 40641 C 3975.89 5.20362 0.449538 0
M  V30 40642 H 3977.59 2.99393 -0.0204323 0
M  V30 40643 H 3975.13 1.43996 -0.0112671 0
M  V30 40644 H 3977.09 3.48704 2.36608 0
M  V30 40645 H 3975.81 2.24438 2.37266 0
M  V30 40646 H 3974.47 3.59425 0.721765 0
M  V30 40647 H 3974.12 3.89795 3.17913 0
M  V30 40648 H 3973.82 5.41175 2.28917 0
M  V30 40649 H 3975.34 5.20176 3.19765 0
M  V30 40650 H 3976.76 5.65019 0.970914 0
M  V30 40651 H 3975.15 5.99541 0.259016 0
M  V30 40652 H 3976.22 4.82032 -0.526649 0
M  V30 40653 N 3977.57 0.0234513 1.57583 0
M  V30 40654 C 3978.98 -0.51617 1.79423 0
M  V30 40655 C 3979.33 -1.72587 0.933181 0
M  V30 40656 O 3978.45 -2.15933 0.142023 0
M  V30 40657 C 3979.05 -0.943191 3.25406 0
M  V30 40658 C 3977.61 -1.42796 3.48262 0
M  V30 40659 C 3976.76 -0.390026 2.74543 0
M  V30 40660 H 3979.71 0.249517 1.56726 0
M  V30 40661 H 3979.73 -1.80789 3.34807 0
M  V30 40662 H 3979.24 -0.0625559 3.8805 0
M  V30 40663 H 3977.34 -2.32871 2.90864 0
M  V30 40664 H 3977.45 -1.43925 4.56971 0
M  V30 40665 H 3975.82 -0.856877 2.39854 0
M  V30 40666 H 3976.6 0.482045 3.39899 0
M  V30 40667 N 3979.05 -1.5561 -0.249627 0
M  V30 40668 C 3979.96 -1.93217 -1.33058 0
M  V30 40669 C 3980.97 -0.832266 -1.52805 0
M  V30 40670 O 3982.15 -1.13342 -1.6648 0
M  V30 40671 C 3979.21 -2.21684 -2.66565 0
M  V30 40672 C 3978.27 -3.45091 -2.55364 0
M  V30 40673 C 3977.51 -3.72191 -3.82504 0
M  V30 40674 O 3977.73 -3.01408 -4.84261 0
M  V30 40675 O 3976.66 -4.65718 -3.81301 0
M  V30 40676 H 3980.49 -2.85281 -1.04156 0
M  V30 40677 H 3978.07 -1.42457 -0.450152 0
M  V30 40678 H 3979.96 -2.41314 -3.45464 0
M  V30 40679 H 3978.63 -1.32799 -2.95205 0
M  V30 40680 H 3977.54 -3.30771 -1.7476 0
M  V30 40681 H 3978.87 -4.3427 -2.31669 0
M  V30 40682 N 3980.52 0.515172 -1.48942 0
M  V30 40683 C 3981.93 1.09692 -1.51078 0
M  V30 40684 C 3982.29 1.94061 -0.288909 0
M  V30 40685 O 3981.41 2.0784 0.602629 0
M  V30 40686 C 3982.01 1.99604 -2.73758 0
M  V30 40687 C 3980.56 2.52969 -2.78718 0
M  V30 40688 C 3979.71 1.30261 -2.448 0
M  V30 40689 H 3982.66 0.299729 -1.55844 0
M  V30 40690 H 3982.68 2.84099 -2.53117 0
M  V30 40691 H 3982.2 1.38172 -3.62671 0
M  V30 40692 H 3980.3 3.1808 -1.94051 0
M  V30 40693 H 3980.41 2.9109 -3.8053 0
M  V30 40694 H 3978.77 1.62324 -1.96273 0
M  V30 40695 H 3979.56 0.705589 -3.35971 0
M  V30 40696 N 3982 1.37779 0.765169 0
M  V30 40697 C 3983.42 1.18722 1.06664 0
M  V30 40698 C 3983.62 0.027899 2.01481 0
M  V30 40699 O 3982.67 -0.629963 2.44515 0
M  V30 40700 C 3983.99 2.50871 1.65783 0
M  V30 40701 C 3985.53 2.57452 1.7801 0
M  V30 40702 C 3986.01 3.89748 2.40542 0
M  V30 40703 N 3987.5 3.91226 2.47985 0
M  V30 40704 C 3988.24 4.90345 2.97237 0
M  V30 40705 N 3987.73 5.99861 3.46611 0
M  V30 40706 N 3989.52 4.77744 2.96171 0
M  V30 40707 H 3981.68 2.11966 0.135738 0
M  V30 40708 H 3983.94 0.940007 0.122846 0
M  V30 40709 H 3983.64 3.36101 1.03582 0
M  V30 40710 H 3983.52 2.68435 2.64995 0
M  V30 40711 H 3985.91 1.72625 2.39342 0
M  V30 40712 H 3985.99 2.43766 0.775345 0
M  V30 40713 H 3985.63 4.74992 1.79847 0
M  V30 40714 H 3985.56 4.0074 3.41636 0
M  V30 40715 H 3988.05 3.12118 2.13051 0
M  V30 40716 H 3988.36 6.71436 3.82613 0
M  V30 40717 H 3986.71 6.03497 3.44698 0
M  V30 40718 H 3989.9 3.91304 2.56902 0
M  V30 40719 H 3990.07 5.55144 3.34243 0
M  V30 40720 N 3983.48 -0.992073 1.22457 0
M  V30 40721 C 3984.44 -2.06392 0.99674 0
M  V30 40722 C 3985.44 -1.60757 -0.0371376 0
M  V30 40723 O 3986.63 -1.73031 0.20145 0
M  V30 40724 C 3983.76 -3.37128 0.505735 0
M  V30 40725 H 3984.96 -2.28037 1.9478 0
M  V30 40726 H 3982.51 -1.16377 1.04337 0
M  V30 40727 H 3983.25 -3.21168 -0.44964 0
M  V30 40728 H 3983.03 -3.71586 1.25165 0
M  V30 40729 H 3984.52 -4.15988 0.366608 0
M  V30 40730 N 3984.96 -1.03439 -1.18904 0
M  V30 40731 C 3986.2 -0.734081 -1.88726 0
M  V30 40732 C 3986.53 0.737741 -1.79966 0
M  V30 40733 O 3985.79 1.55348 -1.19019 0
M  V30 40734 C 3986.09 -1.13768 -3.38809 0
M  V30 40735 C 3985.75 -2.60871 -3.67773 0
M  V30 40736 C 3984.41 -3.01061 -3.75388 0
M  V30 40737 C 3986.77 -3.56016 -3.8066 0
M  V30 40738 C 3984.09 -4.35296 -3.93363 0
M  V30 40739 C 3986.45 -4.89962 -4.00149 0
M  V30 40740 C 3985.11 -5.29832 -4.05998 0
M  V30 40741 H 3984.38 -0.268619 -0.690597 0
M  V30 40742 H 3987.03 -1.29826 -1.40775 0
M  V30 40743 H 3985.33 -0.492202 -3.88696 0
M  V30 40744 H 3987.03 -0.882764 -3.91163 0
M  V30 40745 H 3983.62 -2.2874 -3.62458 0
M  V30 40746 H 3987.8 -3.26116 -3.74115 0
M  V30 40747 H 3983.06 -4.65714 -3.96132 0
M  V30 40748 H 3987.23 -5.63596 -4.09063 0
M  V30 40749 H 3984.86 -6.33856 -4.19679 0
M  V30 40750 N 3986.44 1.35011 -0.813001 0
M  V30 40751 C 3987.85 1.81033 -0.456502 0
M  V30 40752 C 3988.2 1.67472 1.02214 0
M  V30 40753 O 3987.32 1.20902 1.79476 0
M  V30 40754 C 3987.92 3.28681 -0.82183 0
M  V30 40755 C 3986.48 3.72821 -0.517841 0
M  V30 40756 C 3985.62 2.56895 -1.04403 0
M  V30 40757 H 3988.57 1.22899 -1.00407 0
M  V30 40758 H 3988.6 3.80305 -0.121797 0
M  V30 40759 H 3988.11 3.3852 -1.89805 0
M  V30 40760 H 3986.21 3.68528 0.549381 0
M  V30 40761 H 3986.32 4.67341 -1.05496 0
M  V30 40762 H 3984.69 2.504 -0.466046 0
M  V30 40763 H 3985.47 2.69509 -2.1265 0
M  V30 40764 N 3987.91 0.567071 1.47044 0
M  V30 40765 C 3988.82 -0.177957 2.33924 0
M  V30 40766 C 3989.84 -0.901941 1.48799 0
M  V30 40767 O 3991.02 -0.86863 1.81705 0
M  V30 40768 C 3988.08 -1.18859 3.25689 0
M  V30 40769 C 3987.14 -0.470974 4.26709 0
M  V30 40770 C 3986.37 -1.43346 5.14089 0
M  V30 40771 O 3986.6 -2.66898 5.04105 0
M  V30 40772 O 3985.53 -0.952569 5.94315 0
M  V30 40773 H 3989.36 0.53496 2.98951 0
M  V30 40774 H 3986.94 0.327597 1.45764 0
M  V30 40775 H 3988.82 -1.77173 3.82345 0
M  V30 40776 H 3987.5 -1.88326 2.63278 0
M  V30 40777 H 3986.41 0.153605 3.73785 0
M  V30 40778 H 3987.74 0.182424 4.91862 0
M  V30 40779 N 3989.39 -1.5464 0.304027 0
M  V30 40780 C 3990.32 -2.21086 -0.604436 0
M  V30 40781 C 3991.34 -1.20456 -1.09518 0
M  V30 40782 O 3992.53 -1.47032 -1.01211 0
M  V30 40783 C 3989.63 -2.8461 -1.83985 0
M  V30 40784 C 3988.8 -4.112 -1.49109 0
M  V30 40785 C 3987.86 -4.58498 -2.58197 0
M  V30 40786 O 3986.88 -5.23629 -2.23162 0
M  V30 40787 N 3988.09 -4.31071 -3.8879 0
M  V30 40788 H 3990.85 -2.99679 -0.0355804 0
M  V30 40789 H 3988.41 -1.61406 0.12636 0
M  V30 40790 H 3990.4 -3.13184 -2.56316 0
M  V30 40791 H 3988.97 -2.0984 -2.31702 0
M  V30 40792 H 3988.19 -3.89603 -0.600278 0
M  V30 40793 H 3989.48 -4.93622 -1.2335 0
M  V30 40794 H 3988.88 -3.78899 -4.20062 0
M  V30 40795 H 3987.44 -4.64348 -4.57411 0
M  V30 40796 N 3990.87 -0.0318079 -1.57568 0
M  V30 40797 C 3992.11 0.650373 -1.93777 0
M  V30 40798 C 3992.47 1.69138 -0.908647 0
M  V30 40799 O 3993.67 2.42624 -1.15702 0
M  V30 40800 C 3991.95 1.24837 -3.34889 0
M  V30 40801 S 3993.5 1.95125 -3.93029 0
M  V30 40802 H 3990.32 0.214062 -0.678011 0
M  V30 40803 H 3992.92 -0.0961161 -1.95264 0
M  V30 40804 H 3991.63 0.478323 -4.07603 0
M  V30 40805 H 3991.16 2.0321 -3.36852 0
M  V30 40806 H 3993.17 3.22994 -3.76682 0
M  V30 40807 N 3992.35 1.55741 0.241371 0
M  V30 40808 C 3993.59 1.78094 0.970067 0
M  V30 40809 C 3993.93 0.598037 1.84762 0
M  V30 40810 O 3993.2 -0.403482 1.90269 0
M  V30 40811 C 3993.49 3.10376 1.82589 0
M  V30 40812 C 3993.34 4.3908 0.976151 0
M  V30 40813 C 3994.66 3.38932 2.80737 0
M  V30 40814 H 3991.78 0.64792 0.351239 0
M  V30 40815 H 3994.42 1.88476 0.240199 0
M  V30 40816 H 3992.57 3.01657 2.44817 0
M  V30 40817 H 3994.24 4.59796 0.372139 0
M  V30 40818 H 3992.48 4.32891 0.280731 0
M  V30 40819 H 3993.15 5.28033 1.6089 0
M  V30 40820 H 3995.63 3.4765 2.28645 0
M  V30 40821 H 3994.51 4.32696 3.37735 0
M  V30 40822 H 3994.77 2.60117 3.5748 0
M  V30 40823 N 3993.83 -0.507266 1.49213 0
M  V30 40824 C 3995.07 -1.26365 1.58618 0
M  V30 40825 C 3995.41 -1.92324 0.269249 0
M  V30 40826 O 3994.68 -1.80415 -0.726688 0
M  V30 40827 C 3994.96 -2.3355 2.74092 0
M  V30 40828 C 3994.82 -1.72133 4.1556 0
M  V30 40829 C 3996.14 -3.35159 2.85231 0
M  V30 40830 H 3993.25 -0.458073 0.577355 0
M  V30 40831 H 3995.9 -0.562765 1.81474 0
M  V30 40832 H 3994.05 -2.9333 2.54735 0
M  V30 40833 H 3995.72 -1.16228 4.46418 0
M  V30 40834 H 3993.96 -1.02569 4.215 0
M  V30 40835 H 3994.63 -2.49847 4.9222 0
M  V30 40836 H 3997.11 -2.85362 3.02833 0
M  V30 40837 H 3995.98 -4.07525 3.67716 0
M  V30 40838 H 3996.25 -3.97103 1.94323 0
M  V30 40839 N 3995.3 -1.38182 -0.757851 0
M  V30 40840 C 3996.58 -1.2468 -1.50713 0
M  V30 40841 C 3996.96 0.153652 -2.1054 0
M  V30 40842 O 3996.31 1.16273 -1.96705 0
M  V30 40843 C 3996.52 -2.35365 -2.5769 0
M  V30 40844 C 3997.87 -2.73583 -3.24711 0
M  V30 40845 O 3998.89 -2.34645 -2.67993 0
M  V30 40846 O 3997.75 -3.40716 -4.27288 0
M  V30 40847 H 3994.84 -0.487323 -0.668166 0
M  V30 40848 H 3997.39 -1.49999 -0.793627 0
M  V30 40849 H 3996.16 -3.29088 -2.117 0
M  V30 40850 H 3995.79 -2.11587 -3.36626 0
M  V30 40851 N 3996.78 0.985565 -1.22981 0
M  V30 40852 C 3997.75 2.05861 -1.00767 0
M  V30 40853 C 3998.75 1.60775 0.0286117 0
M  V30 40854 O 3999.94 1.72922 -0.210624 0
M  V30 40855 C 3997.07 3.36855 -0.523606 0
M  V30 40856 H 3998.26 2.27001 -1.95986 0
M  V30 40857 H 3995.81 1.15822 -1.04952 0
M  V30 40858 H 3996.55 3.21402 0.432602 0
M  V30 40859 H 3996.33 3.70917 -1.27134 0
M  V30 40860 H 3997.82 4.15787 -0.388664 0
M  V30 40861 N 3998.26 1.04068 1.18353 0
M  V30 40862 C 3999.22 0.636187 2.20194 0
M  V30 40863 C 4000.22 -0.306429 1.57853 0
M  V30 40864 O 4001.41 -0.091827 1.73958 0
M  V30 40865 C 3998.55 -0.0672824 3.40834 0
M  V30 40866 H 3999.74 1.53742 2.57494 0
M  V30 40867 H 3997.29 0.833237 1.32238 0
M  V30 40868 H 3998.03 -0.982317 3.09065 0
M  V30 40869 H 3997.81 0.610213 3.87323 0
M  V30 40870 H 3999.3 -0.336796 4.1624 0
M  V30 40871 N 3999.74 -1.34578 0.820149 0
M  V30 40872 C 4000.67 -2.32106 0.25475 0
M  V30 40873 C 4001.65 -1.58112 -0.627272 0
M  V30 40874 O 4002.83 -1.86109 -0.554727 0
M  V30 40875 C 3999.96 -3.42312 -0.586481 0
M  V30 40876 C 3998.92 -4.27541 0.198172 0
M  V30 40877 C 3998.24 -5.2919 -0.765625 0
M  V30 40878 C 3999.54 -5.03053 1.4048 0
M  V30 40879 H 4001.24 -2.79643 1.0696 0
M  V30 40880 H 3998.78 -1.34446 0.51578 0
M  V30 40881 H 4000.74 -4.09553 -0.992187 0
M  V30 40882 H 3999.46 -2.93418 -1.43435 0
M  V30 40883 H 3998.12 -3.61899 0.585213 0
M  V30 40884 H 3997.77 -4.76559 -1.60937 0
M  V30 40885 H 3997.47 -5.8709 -0.24485 0
M  V30 40886 H 3998.99 -5.993 -1.16925 0
M  V30 40887 H 4000.41 -5.63164 1.07326 0
M  V30 40888 H 3998.8 -5.70514 1.86102 0
M  V30 40889 H 3999.87 -4.32909 2.18444 0
M  V30 40890 N 4001.22 -0.574861 -1.46742 0
M  V30 40891 C 4002.13 0.165549 -2.34015 0
M  V30 40892 C 4003.14 0.894037 -1.49275 0
M  V30 40893 O 4004.32 0.858981 -1.82163 0
M  V30 40894 C 4001.38 1.17131 -3.26315 0
M  V30 40895 C 4000.44 0.448338 -4.26952 0
M  V30 40896 C 3999.68 1.40618 -5.14842 0
M  V30 40897 O 3999.9 2.64221 -5.05513 0
M  V30 40898 O 3998.83 0.921038 -5.94811 0
M  V30 40899 H 4002.66 -0.550807 -2.98663 0
M  V30 40900 H 4000.25 -0.335323 -1.45588 0
M  V30 40901 H 4002.13 1.75143 -3.83279 0
M  V30 40902 H 4000.8 1.86927 -2.64273 0
M  V30 40903 H 3999.71 -0.173425 -3.73698 0
M  V30 40904 H 4001.04 -0.208506 -4.91758 0
M  V30 40905 N 4002.69 1.54476 -0.312224 0
M  V30 40906 C 4003.92 2.04474 0.295596 0
M  V30 40907 C 4004.33 1.18854 1.47209 0
M  V30 40908 O 4003.68 0.20938 1.82503 0
M  V30 40909 C 4003.74 3.50393 0.804061 0
M  V30 40910 C 4003.4 4.56323 -0.248627 0
M  V30 40911 C 4004.4 5.0854 -1.08089 0
M  V30 40912 C 4002.08 5.00756 -0.393555 0
M  V30 40913 C 4004.08 6.03741 -2.04392 0
M  V30 40914 C 4001.76 5.95774 -1.36001 0
M  V30 40915 C 4002.76 6.47151 -2.18367 0
M  V30 40916 O 4002.45 7.40306 -3.13373 0
M  V30 40917 H 4002.18 0.672719 0.0665248 0
M  V30 40918 H 4004.74 2.0034 -0.453115 0
M  V30 40919 H 4002.97 3.51888 1.60349 0
M  V30 40920 H 4004.66 3.83527 1.32899 0
M  V30 40921 H 4005.42 4.74999 -0.979849 0
M  V30 40922 H 4001.3 4.60387 0.237628 0
M  V30 40923 H 4004.84 6.43767 -2.6872 0
M  V30 40924 H 4000.74 6.28732 -1.46173 0
M  V30 40925 H 4001.51 7.58144 -3.0848 0
M  V30 40926 N 4004.17 0.0401637 1.57549 0
M  V30 40927 C 4005.42 -0.637003 1.92536 0
M  V30 40928 C 4005.75 -1.7114 0.917866 0
M  V30 40929 O 4005.03 -1.94414 -0.0577898 0
M  V30 40930 C 4005.31 -1.24327 3.37957 0
M  V30 40931 C 4005.16 -0.177682 4.49449 0
M  V30 40932 C 4006.48 -2.15811 3.83554 0
M  V30 40933 H 4003.6 -0.230095 0.700161 0
M  V30 40934 H 4006.24 0.0996801 1.89738 0
M  V30 40935 H 4004.39 -1.87113 3.40472 0
M  V30 40936 H 4006.06 0.453588 4.59065 0
M  V30 40937 H 4004.31 0.495562 4.3096 0
M  V30 40938 H 4004.98 -0.641696 5.48257 0
M  V30 40939 H 4007.45 -1.62999 3.82845 0
M  V30 40940 H 4006.33 -2.55179 4.85978 0
M  V30 40941 H 4006.59 -3.05376 3.19684 0
M  V30 40942 N 4005.65 -1.55866 -0.233109 0
M  V30 40943 C 4007.06 -1.68641 -0.801063 0
M  V30 40944 C 4007.41 -0.640114 -1.85464 0
M  V30 40945 O 4006.54 0.211001 -2.15369 0
M  V30 40946 C 4007.13 -3.05738 -1.45979 0
M  V30 40947 C 4005.69 -3.20406 -1.97527 0
M  V30 40948 C 4004.84 -2.64547 -0.831275 0
M  V30 40949 H 4007.79 -1.58698 -0.00865918 0
M  V30 40950 H 4007.81 -3.00952 -2.32827 0
M  V30 40951 H 4007.32 -3.81867 -0.692738 0
M  V30 40952 H 4005.42 -2.49125 -2.7707 0
M  V30 40953 H 4005.54 -4.27485 -2.16318 0
M  V30 40954 H 4003.9 -2.22727 -1.2355 0
M  V30 40955 H 4004.68 -3.43213 -0.0770862 0
M  V30 40956 N 4007.13 0.499346 -1.4948 0
M  V30 40957 C 4008.38 1.25089 -1.58736 0
M  V30 40958 C 4008.7 1.93026 -0.276735 0
M  V30 40959 O 4007.97 1.82812 0.704026 0
M  V30 40960 H 4006.55 0.464696 -0.584865 0
M  V30 40961 H 4009.21 0.578575 -1.86114 0
M  V30 40962 H 4008.31 2.01394 -2.38426 0
M  V30 40963 N 4008.61 1.38582 0.750513 0
M  V30 40964 C 4009.57 1.35855 1.84597 0
M  V30 40965 C 4010.57 0.258489 1.58709 0
M  V30 40966 O 4011.76 0.515549 1.66396 0
M  V30 40967 C 4008.89 1.11579 3.22123 0
M  V30 40968 H 4010.09 2.33318 1.88422 0
M  V30 40969 H 4007.64 1.23921 0.952542 0
M  V30 40970 H 4008.37 0.147352 3.23965 0
M  V30 40971 H 4008.16 1.91227 3.42308 0
M  V30 40972 H 4009.65 1.12374 4.02196 0
M  V30 40973 N 4010.09 -0.979029 1.23502 0
M  V30 40974 C 4011.04 -2.05647 0.984548 0
M  V30 40975 C 4012.02 -1.60748 -0.069955 0
M  V30 40976 O 4013.21 -1.76427 0.142347 0
M  V30 40977 C 4010.34 -3.3838 0.579141 0
M  V30 40978 C 4009.43 -3.89873 1.66912 0
M  V30 40979 N 4009.82 -4.1443 2.89967 0
M  V30 40980 C 4008.12 -4.18421 1.54402 0
M  V30 40981 C 4008.82 -4.56487 3.60547 0
M  V30 40982 N 4007.79 -4.60998 2.88066 0
M  V30 40983 H 4011.59 -2.22593 1.9191 0
M  V30 40984 H 4009.11 -1.16191 1.13461 0
M  V30 40985 H 4011.11 -4.15156 0.380969 0
M  V30 40986 H 4009.77 -3.22826 -0.348352 0
M  V30 40987 H 4010.78 -4.02213 3.26259 0
M  V30 40988 H 4007.45 -4.11863 0.683731 0
M  V30 40989 H 4008.84 -4.83994 4.66046 0
M  V30 40990 N 4011.56 -1.04695 -1.178 0
M  V30 40991 C 4012.5 -0.601546 -2.21165 0
M  V30 40992 C 4013.51 0.3321 -1.59377 0
M  V30 40993 O 4014.7 0.125622 -1.78057 0
M  V30 40994 C 4011.8 0.140382 -3.38609 0
M  V30 40995 C 4010.97 -0.802713 -4.29971 0
M  V30 40996 C 4010.03 -0.102946 -5.26099 0
M  V30 40997 O 4009.06 -0.735424 -5.64429 0
M  V30 40998 N 4010.26 1.16144 -5.68763 0
M  V30 40999 H 4013.02 -1.49062 -2.60001 0
M  V30 41000 H 4010.58 -0.928222 -1.32649 0
M  V30 41001 H 4012.58 0.618517 -3.99946 0
M  V30 41002 H 4011.15 0.931064 -2.98412 0
M  V30 41003 H 4010.37 -1.46058 -3.66143 0
M  V30 41004 H 4011.65 -1.44305 -4.87907 0
M  V30 41005 H 4011.05 1.69571 -5.39687 0
M  V30 41006 H 4009.61 1.58373 -6.32267 0
M  V30 41007 N 4013.04 1.34141 -0.827275 0
M  V30 41008 C 4014.29 1.98151 -0.41742 0
M  V30 41009 C 4014.62 1.65574 1.02057 0
M  V30 41010 O 4013.87 0.921736 1.72634 0
M  V30 41011 C 4014.17 3.528 -0.571596 0
M  V30 41012 C 4013.84 4.05299 -1.97595 0
M  V30 41013 C 4012.5 4.19347 -2.36011 0
M  V30 41014 C 4014.85 4.33486 -2.89378 0
M  V30 41015 C 4012.18 4.58911 -3.65537 0
M  V30 41016 C 4014.53 4.74497 -4.18372 0
M  V30 41017 C 4013.19 4.86751 -4.5676 0
M  V30 41018 H 4012.46 0.725086 -0.152745 0
M  V30 41019 H 4015.11 1.60012 -1.05206 0
M  V30 41020 H 4013.42 3.91526 0.146414 0
M  V30 41021 H 4015.11 4.00311 -0.234938 0
M  V30 41022 H 4011.7 3.9483 -1.66755 0
M  V30 41023 H 4015.89 4.22166 -2.6094 0
M  V30 41024 H 4011.14 4.6659 -3.95099 0
M  V30 41025 H 4015.32 4.95265 -4.89576 0
M  V30 41026 H 4012.94 5.17166 -5.57175 0
M  V30 41027 N 4014.52 0.582635 1.46435 0
M  V30 41028 C 4015.77 0.0680503 2.01985 0
M  V30 41029 C 4016.09 -1.2965 1.45657 0
M  V30 41030 O 4015.36 -1.85108 0.641235 0
M  V30 41031 H 4013.94 0.0221662 0.746671 0
M  V30 41032 H 4016.6 0.758398 1.79539 0
M  V30 41033 H 4015.7 -0.00100515 3.121 0
M  V30 41034 N 4016 -1.54309 0.320412 0
M  V30 41035 C 4016.93 -2.27176 -0.539749 0
M  V30 41036 C 4017.91 -1.27852 -1.12195 0
M  V30 41037 O 4019.09 -1.56659 -1.14767 0
M  V30 41038 C 4016.22 -3.02719 -1.7023 0
M  V30 41039 C 4015.18 -4.09353 -1.24955 0
M  V30 41040 C 4014.5 -4.7272 -2.4988 0
M  V30 41041 C 4015.8 -5.21011 -0.366696 0
M  V30 41042 H 4017.5 -2.99323 0.0680605 0
M  V30 41043 H 4015.04 -1.43959 0.0341741 0
M  V30 41044 H 4017 -3.52424 -2.31031 0
M  V30 41045 H 4015.72 -2.28184 -2.33665 0
M  V30 41046 H 4014.38 -3.60527 -0.664493 0
M  V30 41047 H 4014.03 -3.94803 -3.11672 0
M  V30 41048 H 4013.73 -5.44749 -2.20279 0
M  V30 41049 H 4015.25 -5.25197 -3.11449 0
M  V30 41050 H 4016.67 -5.66492 -0.880902 0
M  V30 41051 H 4015.06 -5.99877 -0.163601 0
M  V30 41052 H 4016.13 -4.81133 0.603269 0
M  V30 41053 N 4017.48 -0.0485183 -1.57525 0
M  V30 41054 C 4018.7 0.635518 -1.96898 0
M  V30 41055 C 4019.12 1.64535 -0.925938 0
M  V30 41056 O 4018.48 1.82277 0.0901422 0
M  V30 41057 C 4018.53 1.32478 -3.36351 0
M  V30 41058 O 4018.25 0.355387 -4.36656 0
M  V30 41059 C 4019.75 2.09883 -3.90467 0
M  V30 41060 H 4016.97 0.173933 -0.648065 0
M  V30 41061 H 4019.51 -0.114033 -2.04182 0
M  V30 41062 H 4017.67 2.02558 -3.30226 0
M  V30 41063 H 4018.08 0.847062 -5.17615 0
M  V30 41064 H 4019.56 2.53535 -4.90331 0
M  V30 41065 H 4020.03 2.9459 -3.2575 0
M  V30 41066 H 4020.64 1.44719 -3.99921 0
M  V30 41067 N 4018.95 1.55988 0.224839 0
M  V30 41068 C 4019.89 1.88628 1.30201 0
M  V30 41069 C 4020.9 0.774273 1.43209 0
M  V30 41070 O 4022.09 1.05255 1.44165 0
M  V30 41071 C 4019.19 2.0769 2.67802 0
M  V30 41072 C 4018.36 3.38689 2.76783 0
M  V30 41073 C 4017.42 3.47223 3.95377 0
M  V30 41074 O 4016.45 4.20278 3.83869 0
M  V30 41075 N 4017.65 2.78125 5.09536 0
M  V30 41076 H 4020.41 2.81617 1.02528 0
M  V30 41077 H 4017.97 1.56494 0.414888 0
M  V30 41078 H 4019.97 2.10718 3.45514 0
M  V30 41079 H 4018.54 1.21341 2.88089 0
M  V30 41080 H 4017.76 3.47787 1.85574 0
M  V30 41081 H 4019.04 4.24991 2.7975 0
M  V30 41082 H 4018.44 2.18544 5.21781 0
M  V30 41083 H 4017 2.86818 5.85302 0
M  V30 41084 N 4020.43 -0.491412 1.49743 0
M  V30 41085 C 4021.38 -1.61268 1.67617 0
M  V30 41086 C 4022.37 -1.60494 0.542032 0
M  V30 41087 O 4023.58 -1.64887 0.721951 0
M  V30 41088 H 4019.95 -0.534766 0.528705 0
M  V30 41089 H 4021.93 -1.43348 2.61714 0
M  V30 41090 C 4020.67 -2.99346 1.76883 0
M  V30 41091 H 4020 -3.00651 2.63532 0
M  V30 41092 H 4021.44 -3.77312 1.93421 0
M  V30 41093 C 4019.9 -3.32928 0.515778 0
M  V30 41094 O 4020.43 -4.00135 -0.354242 0
M  V30 41095 N 4018.63 -2.88159 0.375851 0
M  V30 41096 H 4018.18 -2.33642 1.08485 0
M  V30 41097 H 4018.14 -3.10995 -0.46144 0
M  V30 41098 N 4021.91 -1.38978 -0.743153 0
M  V30 41099 C 4023.14 -1.39196 -1.53751 0
M  V30 41100 C 4023.56 0.013626 -1.88095 0
M  V30 41101 O 4022.92 0.998482 -1.51328 0
M  V30 41102 C 4022.97 -2.26394 -2.80675 0
M  V30 41103 O 4022.07 -1.68821 -3.76262 0
M  V30 41104 H 4021.41 -0.474357 -0.464631 0
M  V30 41105 H 4023.94 -1.82872 -0.917547 0
M  V30 41106 H 4023.95 -2.4062 -3.29493 0
M  V30 41107 H 4022.63 -3.28547 -2.55009 0
M  V30 41108 H 4021.2 -1.63794 -3.35002 0
M  V30 41109 N 4023.39 0.972465 -1.2402 0
M  V30 41110 C 4024.34 2.05122 -0.99544 0
M  V30 41111 C 4025.32 1.60783 0.0614292 0
M  V30 41112 O 4026.51 1.76349 -0.151701 0
M  V30 41113 C 4023.64 3.38068 -0.597078 0
M  V30 41114 C 4022.73 3.88983 -1.68977 0
M  V30 41115 N 4023.12 4.12887 -2.92161 0
M  V30 41116 C 4021.42 4.17596 -1.56618 0
M  V30 41117 C 4022.12 4.54569 -3.62963 0
M  V30 41118 N 4021.1 4.59464 -2.90507 0
M  V30 41119 H 4024.9 2.21572 -1.93088 0
M  V30 41120 H 4022.41 1.15588 -1.14075 0
M  V30 41121 H 4024.41 4.14948 -0.40298 0
M  V30 41122 H 4023.07 3.23006 0.331227 0
M  V30 41123 H 4024.08 4.00477 -3.28388 0
M  V30 41124 H 4020.76 4.11495 -0.705564 0
M  V30 41125 H 4022.15 4.81516 -4.68607 0
M  V30 41126 N 4024.87 1.05318 1.17243 0
M  V30 41127 C 4026.11 0.764013 1.87534 0
M  V30 41128 C 4026.44 -0.709017 1.81117 0
M  V30 41129 O 4025.7 -1.53435 1.21476 0
M  V30 41130 C 4026 1.19144 3.36956 0
M  V30 41131 C 4025.66 2.66689 3.63576 0
M  V30 41132 C 4024.32 3.06995 3.70551 0
M  V30 41133 C 4026.68 3.62027 3.74948 0
M  V30 41134 C 4024 4.41499 3.86388 0
M  V30 41135 C 4026.36 4.96267 3.92304 0
M  V30 41136 C 4025.02 5.36224 3.97518 0
M  V30 41137 H 4024.29 0.279572 0.686236 0
M  V30 41138 H 4026.94 1.32049 1.38691 0
M  V30 41139 H 4025.24 0.553978 3.87864 0
M  V30 41140 H 4026.94 0.944883 3.89709 0
M  V30 41141 H 4023.53 2.34477 3.58773 0
M  V30 41142 H 4027.71 3.32027 3.68879 0
M  V30 41143 H 4022.97 4.71957 3.88673 0
M  V30 41144 H 4027.14 5.70033 4.00045 0
M  V30 41145 H 4024.77 6.40453 4.09542 0
M  V30 41146 N 4026.34 -1.33701 0.834377 0
M  V30 41147 C 4027.59 -1.97188 0.42426 0
M  V30 41148 C 4027.91 -1.66848 -1.02083 0
M  V30 41149 O 4029.11 -2.23914 -1.53541 0
M  V30 41150 C 4027.57 -3.52874 0.70769 0
M  V30 41151 C 4027.18 -3.92094 2.16716 0
M  V30 41152 C 4028.92 -4.22934 0.364302 0
M  V30 41153 C 4026.83 -5.4074 2.39488 0
M  V30 41154 H 4025.76 -0.737915 0.15491 0
M  V30 41155 H 4028.41 -1.52383 1.02233 0
M  V30 41156 H 4026.79 -3.9598 0.0393019 0
M  V30 41157 H 4027.96 -3.60059 2.87566 0
M  V30 41158 H 4026.28 -3.35003 2.47309 0
M  V30 41159 H 4028.88 -5.32242 0.512124 0
M  V30 41160 H 4029.22 -4.10503 -0.692302 0
M  V30 41161 H 4029.75 -3.85342 0.987737 0
M  V30 41162 H 4026.49 -5.58169 3.43697 0
M  V30 41163 H 4026.01 -5.74251 1.73194 0
M  V30 41164 H 4027.69 -6.07569 2.22417 0
M  V30 41165 N 4027.82 -0.590393 -1.46124 0
M  V30 41166 C 4028.75 0.126073 -2.33159 0
M  V30 41167 C 4029.73 0.876031 -1.45807 0
M  V30 41168 O 4030.92 0.849978 -1.74611 0
M  V30 41169 C 4028.05 1.13531 -3.28219 0
M  V30 41170 C 4027 0.499698 -4.25073 0
M  V30 41171 C 4026.33 1.61596 -5.09697 0
M  V30 41172 C 4027.63 -0.568083 -5.19201 0
M  V30 41173 H 4029.32 -0.600628 -2.93314 0
M  V30 41174 H 4026.87 -0.29029 -1.41044 0
M  V30 41175 H 4028.82 1.64496 -3.87968 0
M  V30 41176 H 4027.55 1.89239 -2.66188 0
M  V30 41177 H 4026.2 0.0110669 -3.66598 0
M  V30 41178 H 4025.85 2.36289 -4.44045 0
M  V30 41179 H 4025.55 1.19627 -5.75294 0
M  V30 41180 H 4027.08 2.12822 -5.7231 0
M  V30 41181 H 4028.49 -0.143202 -5.73121 0
M  V30 41182 H 4026.89 -0.908532 -5.93183 0
M  V30 41183 H 4027.96 -1.45141 -4.62668 0
M  V30 41184 N 4029.3 1.54136 -0.328591 0
M  V30 41185 C 4030.71 1.86027 0.158434 0
M  V30 41186 C 4031.06 1.25015 1.51214 0
M  V30 41187 O 4030.19 0.558066 2.0908 0
M  V30 41188 C 4030.78 3.3752 0.294258 0
M  V30 41189 C 4029.34 3.69342 0.725506 0
M  V30 41190 C 4028.49 2.76895 -0.149773 0
M  V30 41191 H 4031.44 1.48912 -0.548705 0
M  V30 41192 H 4031.46 3.6351 1.12432 0
M  V30 41193 H 4030.97 3.81896 -0.691138 0
M  V30 41194 H 4029.07 3.30501 1.72047 0
M  V30 41195 H 4029.19 4.76206 0.525769 0
M  V30 41196 H 4027.55 2.51917 0.375487 0
M  V30 41197 H 4028.33 3.24099 -1.13203 0
M  V30 41198 N 4030.78 0.0568716 1.57497 0
M  V30 41199 C 4032.03 -0.615634 1.92915 0
M  V30 41200 C 4032.35 -1.70513 0.935707 0
M  V30 41201 O 4031.61 -1.95633 -0.0510911 0
M  V30 41202 C 4031.91 -1.24532 3.35002 0
M  V30 41203 C 4031.57 -0.283457 4.50008 0
M  V30 41204 C 4030.24 -0.0187963 4.81196 0
M  V30 41205 C 4032.59 0.375428 5.19846 0
M  V30 41206 C 4029.92 0.912088 5.79567 0
M  V30 41207 C 4032.27 1.29454 6.19213 0
M  V30 41208 C 4030.93 1.56782 6.48826 0
M  V30 41209 H 4030.2 -0.225276 0.705926 0
M  V30 41210 H 4032.85 0.124567 1.91094 0
M  V30 41211 H 4031.15 -2.06092 3.33217 0
M  V30 41212 H 4032.85 -1.7727 3.59689 0
M  V30 41213 H 4029.44 -0.499919 4.25674 0
M  V30 41214 H 4033.62 0.184055 4.95959 0
M  V30 41215 H 4028.88 1.13122 6.00844 0
M  V30 41216 H 4033.05 1.81112 6.72437 0
M  V30 41217 H 4030.68 2.29076 7.24864 0
M  V30 41218 N 4032.26 -1.56105 -0.216564 0
M  V30 41219 C 4033.2 -1.93684 -1.288 0
M  V30 41220 C 4034.2 -0.819491 -1.48259 0
M  V30 41221 O 4035.4 -1.00436 -1.49374 0
M  V30 41222 H 4031.78 -0.615577 -0.431936 0
M  V30 41223 H 4033.75 -2.83078 -0.943905 0
M  V30 41224 C 4032.5 -2.27419 -2.63013 0
M  V30 41225 H 4031.82 -3.12912 -2.48849 0
M  V30 41226 H 4033.26 -2.57592 -3.36782 0
M  V30 41227 C 4031.72 -1.10109 -3.18399 0
M  V30 41228 O 4032.25 -0.364829 -4.0004 0
M  V30 41229 N 4030.46 -0.883584 -2.76841 0
M  V30 41230 H 4030 -1.48403 -2.10557 0
M  V30 41231 H 4029.96 -0.100423 -3.1424 0
M  V30 41232 N 4033.73 0.483463 -1.50001 0
M  V30 41233 C 4034.67 1.60013 -1.64099 0
M  V30 41234 C 4035.68 1.54173 -0.522924 0
M  V30 41235 O 4036.87 1.59786 -0.795649 0
M  V30 41236 C 4033.97 2.98863 -1.59795 0
M  V30 41237 C 4033.14 3.29703 -2.87428 0
M  V30 41238 C 4032.2 4.48047 -2.75936 0
M  V30 41239 O 4031.23 4.48964 -3.49886 0
M  V30 41240 N 4032.43 5.48989 -1.88658 0
M  V30 41241 H 4035.19 1.48341 -2.60413 0
M  V30 41242 H 4032.75 0.671665 -1.4731 0
M  V30 41243 H 4034.75 3.7598 -1.49737 0
M  V30 41244 H 4033.32 3.04368 -0.712666 0
M  V30 41245 H 4032.54 2.41315 -3.11706 0
M  V30 41246 H 4033.82 3.47113 -3.72008 0
M  V30 41247 H 4033.22 5.5106 -1.27867 0
M  V30 41248 H 4031.78 6.25139 -1.84511 0
M  V30 41249 N 4035.21 1.39371 0.735772 0
M  V30 41250 C 4036.44 1.40009 1.5301 0
M  V30 41251 C 4036.86 -0.0036507 1.881 0
M  V30 41252 O 4036.22 -0.990443 1.51855 0
M  V30 41253 C 4036.27 2.27879 2.7947 0
M  V30 41254 O 4035.37 1.70814 3.75361 0
M  V30 41255 H 4034.71 0.476814 0.462108 0
M  V30 41256 H 4037.24 1.83356 0.907836 0
M  V30 41257 H 4037.25 2.42364 3.28213 0
M  V30 41258 H 4035.93 3.29895 2.53263 0
M  V30 41259 H 4034.51 1.65568 3.34128 0
M  V30 41260 N 4036.69 -0.965875 1.24534 0
M  V30 41261 C 4037.65 -2.04232 1.04029 0
M  V30 41262 C 4038.65 -1.608 -0.00303028 0
M  V30 41263 O 4039.84 -1.72565 0.238107 0
M  V30 41264 C 4036.98 -3.35979 0.577131 0
M  V30 41265 H 4038.17 -2.23854 1.99573 0
M  V30 41266 H 4035.72 -1.14137 1.06782 0
M  V30 41267 H 4036.46 -3.22049 -0.381415 0
M  V30 41268 H 4036.24 -3.68848 1.33018 0
M  V30 41269 H 4037.73 -4.15116 0.454763 0
M  V30 41270 N 4038.17 -1.05938 -1.16683 0
M  V30 41271 C 4039.42 -0.775094 -1.87404 0
M  V30 41272 C 4039.75 0.696511 -1.8128 0
M  V30 41273 O 4039.02 1.50997 -1.22598 0
M  V30 41274 C 4039.31 -1.26575 -3.37121 0
M  V30 41275 C 4039.16 -2.80085 -3.51956 0
M  V30 41276 C 4040.48 -0.870771 -4.314 0
M  V30 41277 H 4037.6 -0.28304 -0.680483 0
M  V30 41278 H 4040.24 -1.31468 -1.37172 0
M  V30 41279 H 4038.39 -0.80672 -3.80032 0
M  V30 41280 H 4040.06 -3.34168 -3.18008 0
M  V30 41281 H 4038.3 -3.18992 -2.93984 0
M  V30 41282 H 4038.98 -3.09479 -4.57085 0
M  V30 41283 H 4041.45 -1.26607 -3.96371 0
M  V30 41284 H 4040.33 -1.2416 -5.34673 0
M  V30 41285 H 4040.59 0.224615 -4.41529 0
M  V30 41286 N 4039.65 1.33256 -0.841456 0
M  V30 41287 C 4041.06 1.50558 -0.529579 0
M  V30 41288 C 4041.26 1.78095 0.942567 0
M  V30 41289 O 4040.32 1.84274 1.72625 0
M  V30 41290 C 4041.63 2.65849 -1.40515 0
M  V30 41291 C 4043.18 2.79734 -1.4042 0
M  V30 41292 C 4043.66 3.9809 -2.26469 0
M  V30 41293 N 4045.15 4.0533 -2.24192 0
M  V30 41294 C 4045.88 4.96111 -2.87509 0
M  V30 41295 N 4045.38 5.91991 -3.59887 0
M  V30 41296 N 4047.17 4.89128 -2.76965 0
M  V30 41297 H 4039.32 1.13645 -1.7944 0
M  V30 41298 H 4041.58 0.558944 -0.765693 0
M  V30 41299 H 4041.29 2.52188 -2.45141 0
M  V30 41300 H 4041.16 3.61317 -1.08305 0
M  V30 41301 H 4043.55 2.92826 -0.365655 0
M  V30 41302 H 4043.63 1.8502 -1.76639 0
M  V30 41303 H 4043.28 3.85758 -3.30383 0
M  V30 41304 H 4043.21 4.92055 -1.8759 0
M  V30 41305 H 4045.7 3.36713 -1.71559 0
M  V30 41306 H 4046.01 6.57929 -4.054 0
M  V30 41307 H 4044.36 5.92058 -3.63995 0
M  V30 41308 H 4047.55 4.1319 -2.19981 0
M  V30 41309 H 4047.72 5.59679 -3.26594 0
M  V30 41310 N 4041.13 0.598134 1.45809 0
M  V30 41311 C 4042.07 -0.12622 2.30455 0
M  V30 41312 C 4043.04 -0.869196 1.41542 0
M  V30 41313 O 4044.23 -0.856811 1.7048 0
M  V30 41314 C 4041.37 -1.12387 3.26287 0
M  V30 41315 C 4040.48 -0.382749 4.30301 0
M  V30 41316 C 4039.62 -1.36928 5.13249 0
M  V30 41317 C 4038.65 -0.615438 6.08998 0
M  V30 41318 N 4037.79 -1.55079 6.84759 0
M  V30 41319 H 4042.63 0.601624 2.91864 0
M  V30 41320 H 4040.17 0.308492 1.43829 0
M  V30 41321 H 4042.13 -1.71532 3.80306 0
M  V30 41322 H 4040.76 -1.81924 2.66652 0
M  V30 41323 H 4039.81 0.324029 3.79017 0
M  V30 41324 H 4041.12 0.205868 4.98375 0
M  V30 41325 H 4040.27 -2.03308 5.71621 0
M  V30 41326 H 4039.01 -1.99183 4.45171 0
M  V30 41327 H 4038.02 0.0620407 5.49765 0
M  V30 41328 H 4039.24 0.00193188 6.791 0
M  V30 41329 H 4037.19 -2.16116 6.19379 0
M  V30 41330 H 4037.11 -1.01537 7.4915 0
M  V30 41331 H 4038.37 -2.20445 7.47679 0
M  V30 41332 N 4042.6 -1.5396 0.33676 0
M  V30 41333 C 4043.55 -2.24793 -0.523159 0
M  V30 41334 C 4044.52 -1.24363 -1.10104 0
M  V30 41335 O 4045.71 -1.53079 -1.13893 0
M  V30 41336 C 4042.85 -3.01913 -1.67161 0
M  V30 41337 C 4041.96 -4.17184 -1.12169 0
M  V30 41338 C 4041.09 -4.81806 -2.23689 0
M  V30 41339 C 4040.13 -5.89157 -1.66013 0
M  V30 41340 N 4039.27 -6.47587 -2.71249 0
M  V30 41341 H 4044.11 -2.97872 0.087423 0
M  V30 41342 H 4041.65 -1.46997 0.0549156 0
M  V30 41343 H 4043.6 -3.4488 -2.34762 0
M  V30 41344 H 4042.23 -2.31143 -2.25328 0
M  V30 41345 H 4041.29 -3.78906 -0.336818 0
M  V30 41346 H 4042.6 -4.94417 -0.659765 0
M  V30 41347 H 4041.75 -5.27809 -2.99169 0
M  V30 41348 H 4040.49 -4.03981 -2.73222 0
M  V30 41349 H 4039.5 -5.42543 -0.890362 0
M  V30 41350 H 4040.72 -6.68886 -1.1734 0
M  V30 41351 H 4038.67 -5.7263 -3.20049 0
M  V30 41352 H 4038.58 -7.20273 -2.29659 0
M  V30 41353 H 4039.85 -6.98245 -3.46518 0
M  V30 41354 N 4044.08 -0.0652232 -1.57465 0
M  V30 41355 C 4045.01 0.90198 -2.15375 0
M  V30 41356 C 4045.99 1.31492 -1.07906 0
M  V30 41357 O 4047.18 1.38714 -1.35912 0
M  V30 41358 C 4044.31 2.1719 -2.71009 0
M  V30 41359 C 4043.26 1.89857 -3.83586 0
M  V30 41360 C 4042.59 3.23424 -4.25794 0
M  V30 41361 C 4043.89 1.20904 -5.08114 0
M  V30 41362 H 4045.58 0.419579 -2.96445 0
M  V30 41363 H 4043.13 0.200376 -1.42599 0
M  V30 41364 H 4045.08 2.85264 -3.10165 0
M  V30 41365 H 4043.8 2.67661 -1.8715 0
M  V30 41366 H 4042.46 1.24191 -3.44923 0
M  V30 41367 H 4042.11 3.71723 -3.38867 0
M  V30 41368 H 4041.81 3.05929 -5.01678 0
M  V30 41369 H 4043.34 3.92706 -4.67562 0
M  V30 41370 H 4044.75 1.79036 -5.44627 0
M  V30 41371 H 4043.15 1.13689 -5.89232 0
M  V30 41372 H 4044.22 0.187139 -4.84539 0
M  V30 41373 N 4045.56 1.56218 0.208282 0
M  V30 41374 C 4046.78 1.84292 0.951371 0
M  V30 41375 C 4047.21 0.647199 1.76615 0
M  V30 41376 O 4046.57 -0.40405 1.7674 0
M  V30 41377 C 4046.62 3.1048 1.83398 0
M  V30 41378 O 4045.72 2.90106 2.93108 0
M  V30 41379 H 4045.06 0.607222 0.268658 0
M  V30 41380 H 4047.59 2.0344 0.217582 0
M  V30 41381 H 4047.6 3.40931 2.24121 0
M  V30 41382 H 4046.28 3.97134 1.23521 0
M  V30 41383 H 4044.85 2.70921 2.56235 0
M  V30 41384 N 4047.04 -0.475502 1.50256 0
M  V30 41385 C 4048.28 -1.22972 1.61263 0
M  V30 41386 C 4048.62 -1.9171 0.309983 0
M  V30 41387 O 4047.89 -1.81916 -0.688256 0
M  V30 41388 C 4048.17 -2.27683 2.78984 0
M  V30 41389 C 4048.03 -1.63279 4.19118 0
M  V30 41390 C 4049.35 -3.29033 2.92276 0
M  V30 41391 H 4046.47 -0.445723 0.586941 0
M  V30 41392 H 4049.11 -0.524145 1.82627 0
M  V30 41393 H 4047.26 -2.87861 2.60899 0
M  V30 41394 H 4048.93 -1.06733 4.48783 0
M  V30 41395 H 4047.17 -0.936052 4.23581 0
M  V30 41396 H 4047.84 -2.3935 4.97409 0
M  V30 41397 H 4050.32 -2.78874 3.08818 0
M  V30 41398 H 4049.2 -3.99633 3.76277 0
M  V30 41399 H 4049.46 -3.92892 2.02703 0
M  V30 41400 N 4048.52 -1.39759 -0.72837 0
M  V30 41401 C 4049.43 -1.41296 -1.87276 0
M  V30 41402 C 4050.44 -0.306995 -1.7127 0
M  V30 41403 O 4051.62 -0.549536 -1.93758 0
M  V30 41404 C 4048.68 -1.26135 -3.22941 0
M  V30 41405 C 4047.74 -2.46763 -3.51293 0
M  V30 41406 C 4046.98 -2.32315 -4.80484 0
M  V30 41407 O 4047.2 -1.33015 -5.54674 0
M  V30 41408 O 4046.13 -3.21434 -5.08885 0
M  V30 41409 H 4049.96 -2.37776 -1.88935 0
M  V30 41410 H 4047.54 -1.20945 -0.877082 0
M  V30 41411 H 4049.43 -1.19839 -4.04001 0
M  V30 41412 H 4048.1 -0.327549 -3.22039 0
M  V30 41413 H 4047.01 -2.58636 -2.70293 0
M  V30 41414 H 4048.34 -3.3886 -3.5698 0
M  V30 41415 N 4049.99 0.959257 -1.25044 0
M  V30 41416 C 4050.92 2.07284 -1.07498 0
M  V30 41417 C 4051.9 1.70094 0.0145965 0
M  V30 41418 O 4053.09 1.93588 -0.154069 0
M  V30 41419 C 4050.22 3.40417 -0.688 0
M  V30 41420 C 4049.17 3.91597 -1.72729 0
M  V30 41421 C 4048.5 5.21172 -1.19513 0
M  V30 41422 C 4049.8 4.18492 -3.12509 0
M  V30 41423 H 4051.49 2.22221 -2.00645 0
M  V30 41424 H 4049.04 1.06783 -0.966093 0
M  V30 41425 H 4050.99 4.17766 -0.552206 0
M  V30 41426 H 4049.72 3.25405 0.279167 0
M  V30 41427 H 4048.38 3.16413 -1.85145 0
M  V30 41428 H 4048.02 5.02526 -0.218328 0
M  V30 41429 H 4047.72 5.56384 -1.88972 0
M  V30 41430 H 4049.25 6.01123 -1.07163 0
M  V30 41431 H 4050.66 4.86516 -3.03274 0
M  V30 41432 H 4049.06 4.64949 -3.79397 0
M  V30 41433 H 4050.13 3.24944 -3.59916 0
M  V30 41434 N 4051.47 1.06556 1.16119 0
M  V30 41435 C 4052.7 0.80474 1.91151 0
M  V30 41436 C 4053.12 -0.635307 1.77046 0
M  V30 41437 O 4052.48 -1.443 1.09759 0
M  V30 41438 C 4052.53 1.20757 3.3978 0
M  V30 41439 O 4051.63 0.347961 4.10929 0
M  V30 41440 H 4050.97 0.293874 0.595428 0
M  V30 41441 H 4053.5 1.42205 1.47102 0
M  V30 41442 H 4053.51 1.18026 3.90556 0
M  V30 41443 H 4052.19 2.25648 3.49365 0
M  V30 41444 H 4050.77 0.437058 3.7033 0
M  V30 41445 N 4052.95 -1.32808 0.848511 0
M  V30 41446 C 4054.2 -1.96726 0.445151 0
M  V30 41447 C 4054.51 -1.67922 -1.00308 0
M  V30 41448 O 4055.72 -2.2553 -1.51158 0
M  V30 41449 C 4054.17 -3.52103 0.745077 0
M  V30 41450 C 4053.78 -3.89774 2.20863 0
M  V30 41451 C 4055.53 -4.22524 0.40914 0
M  V30 41452 C 4053.43 -5.38169 2.4521 0
M  V30 41453 H 4052.36 -0.736231 0.162728 0
M  V30 41454 H 4055.01 -1.5129 1.03844 0
M  V30 41455 H 4053.4 -3.95917 0.0812987 0
M  V30 41456 H 4054.57 -3.56989 2.91368 0
M  V30 41457 H 4052.89 -3.32361 2.50848 0
M  V30 41458 H 4055.48 -5.31669 0.568547 0
M  V30 41459 H 4055.83 -4.11214 -0.648724 0
M  V30 41460 H 4056.36 -3.84273 1.02855 0
M  V30 41461 H 4053.1 -5.54493 3.49597 0
M  V30 41462 H 4052.62 -5.72381 1.79275 0
M  V30 41463 H 4054.3 -6.05175 2.28848 0
M  V30 41464 N 4054.43 -0.605858 -1.45489 0
M  V30 41465 C 4055.84 -0.269367 -1.5731 0
M  V30 41466 C 4056.04 1.22811 -1.59749 0
M  V30 41467 O 4055.1 2.01105 -1.52686 0
M  V30 41468 C 4056.41 -0.939013 -2.85662 0
M  V30 41469 C 4057.96 -0.91477 -2.99334 0
M  V30 41470 C 4058.44 -1.56439 -4.30454 0
M  V30 41471 N 4059.93 -1.5298 -4.37209 0
M  V30 41472 C 4060.66 -2.00162 -5.37329 0
M  V30 41473 N 4060.16 -2.55421 -6.43997 0
M  V30 41474 N 4061.95 -1.9094 -5.28676 0
M  V30 41475 H 4054.1 -1.5782 -1.4215 0
M  V30 41476 H 4056.37 -0.661016 -0.679531 0
M  V30 41477 H 4056.07 -1.99335 -2.89756 0
M  V30 41478 H 4055.95 -0.461244 -3.74369 0
M  V30 41479 H 4058.33 0.131017 -2.94809 0
M  V30 41480 H 4058.41 -1.43079 -2.12043 0
M  V30 41481 H 4058.06 -2.6095 -4.35738 0
M  V30 41482 H 4057.99 -1.02341 -5.1656 0
M  V30 41483 H 4060.48 -1.12611 -3.60731 0
M  V30 41484 H 4060.79 -2.8922 -7.16639 0
M  V30 41485 H 4059.14 -2.59459 -6.44753 0
M  V30 41486 H 4062.33 -1.4751 -4.4425 0
M  V30 41487 H 4062.5 -2.28024 -6.06555 0
M  V30 41488 N 4055.91 1.53779 -0.34492 0
M  V30 41489 C 4057.13 2.05353 0.252523 0
M  V30 41490 C 4057.55 1.2198 1.44105 0
M  V30 41491 O 4056.91 0.255462 1.80703 0
M  V30 41492 C 4056.96 3.55308 0.666231 0
M  V30 41493 O 4056.68 4.35517 -0.475034 0
M  V30 41494 C 4058.18 4.23059 1.32425 0
M  V30 41495 H 4055.4 0.669244 0.0485085 0
M  V30 41496 H 4057.94 1.98361 -0.497305 0
M  V30 41497 H 4056.1 3.62518 1.366 0
M  V30 41498 H 4056.51 5.243 -0.144975 0
M  V30 41499 H 4057.99 5.29366 1.56446 0
M  V30 41500 H 4058.46 3.75491 2.27823 0
M  V30 41501 H 4059.07 4.20045 0.666476 0
M  V30 41502 N 4057.38 0.0735731 1.57428 0
M  V30 41503 C 4058.63 -0.595138 1.93557 0
M  V30 41504 C 4058.96 -1.69511 0.95374 0
M  V30 41505 O 4058.21 -1.95676 -0.0303387 0
M  V30 41506 C 4058.51 -1.20972 3.36304 0
M  V30 41507 C 4058.18 -0.235711 4.50283 0
M  V30 41508 C 4056.84 0.0322421 4.81189 0
M  V30 41509 C 4059.19 0.430543 5.19419 0
M  V30 41510 C 4056.52 0.973508 5.78567 0
M  V30 41511 C 4058.87 1.36014 6.17805 0
M  V30 41512 C 4057.54 1.63654 6.47127 0
M  V30 41513 H 4056.81 -0.217776 0.708276 0
M  V30 41514 H 4059.45 0.144828 1.90952 0
M  V30 41515 H 4057.76 -2.02546 3.35384 0
M  V30 41516 H 4059.46 -1.73445 3.61549 0
M  V30 41517 H 4056.05 -0.454743 4.26181 0
M  V30 41518 H 4060.23 0.236647 4.95735 0
M  V30 41519 H 4055.49 1.19489 5.9961 0
M  V30 41520 H 4059.66 1.88234 6.70478 0
M  V30 41521 H 4057.29 2.36751 7.22394 0
M  V30 41522 N 4058.86 -1.56326 -0.199995 0
M  V30 41523 C 4059.83 -1.93304 -1.23151 0
M  V30 41524 C 4060.83 -0.813665 -1.38694 0
M  V30 41525 O 4062.02 -1.08115 -1.3659 0
M  V30 41526 C 4059.15 -2.20279 -2.60173 0
M  V30 41527 H 4060.34 -2.85583 -0.915566 0
M  V30 41528 H 4057.89 -1.4994 -0.441314 0
M  V30 41529 H 4058.63 -1.30622 -2.96831 0
M  V30 41530 H 4058.41 -3.01845 -2.50264 0
M  V30 41531 H 4059.9 -2.49909 -3.34567 0
M  V30 41532 N 4060.34 0.467527 -1.50506 0
M  V30 41533 C 4061.57 1.2472 -1.6571 0
M  V30 41534 C 4061.99 1.84972 -0.341582 0
M  V30 41535 O 4061.35 1.67451 0.694963 0
M  V30 41536 C 4061.4 2.32908 -2.75293 0
M  V30 41537 O 4060.5 3.37642 -2.36794 0
M  V30 41538 H 4059.84 0.366764 -0.553516 0
M  V30 41539 H 4062.37 0.555953 -1.96902 0
M  V30 41540 H 4062.38 2.78164 -2.98477 0
M  V30 41541 H 4061.06 1.88425 -3.70768 0
M  V30 41542 H 4059.63 2.98072 -2.2407 0
M  V30 41543 N 4061.82 1.40143 0.720948 0
M  V30 41544 C 4063.04 1.41624 1.51517 0
M  V30 41545 C 4063.47 0.0163 1.88093 0
M  V30 41546 O 4062.83 -0.974281 1.52897 0
M  V30 41547 C 4062.87 2.3083 2.77037 0
M  V30 41548 O 4061.98 1.74786 3.73529 0
M  V30 41549 H 4061.32 0.481689 0.457025 0
M  V30 41550 H 4063.85 1.84309 0.888337 0
M  V30 41551 H 4063.86 2.45832 3.25624 0
M  V30 41552 H 4062.53 3.32563 2.49749 0
M  V30 41553 H 4061.11 1.69103 3.32353 0
M  V30 41554 N 4063.3 -0.952612 1.25551 0
M  V30 41555 C 4064.54 -1.69411 1.10201 0
M  V30 41556 C 4064.87 -1.91698 -0.357312 0
M  V30 41557 O 4064.14 -1.50552 -1.25343 0
M  V30 41558 H 4062.72 -0.6278 0.404816 0
M  V30 41559 H 4065.38 -1.14521 1.57705 0
M  V30 41560 H 4064.47 -2.67253 1.6119 0
M  V30 41561 N 4064.77 -1.0717 -1.15553 0
M  V30 41562 C 4065.7 -0.711819 -2.22386 0
M  V30 41563 C 4066.69 0.299879 -1.67436 0
M  V30 41564 O 4067.87 0.173039 -1.93428 0
M  V30 41565 C 4065 -0.106876 -3.47136 0
M  V30 41566 C 4063.95 -1.04552 -4.15033 0
M  V30 41567 C 4063.28 -0.303431 -5.33838 0
M  V30 41568 C 4064.58 -2.37835 -4.65007 0
M  V30 41569 H 4066.27 -1.605 -2.52745 0
M  V30 41570 H 4063.82 -0.77316 -1.21483 0
M  V30 41571 H 4065.77 0.156816 -4.21108 0
M  V30 41572 H 4064.5 0.821373 -3.16103 0
M  V30 41573 H 4063.16 -1.29411 -3.42999 0
M  V30 41574 H 4062.8 0.62822 -4.99062 0
M  V30 41575 H 4062.5 -0.929066 -5.80209 0
M  V30 41576 H 4064.03 -0.0474942 -6.10582 0
M  V30 41577 H 4065.44 -2.17314 -5.30516 0
M  V30 41578 H 4063.84 -2.95977 -5.22032 0
M  V30 41579 H 4064.91 -3.00271 -3.80743 0
M  V30 41580 N 4066.25 1.32356 -0.855542 0
M  V30 41581 C 4067.5 1.96488 -0.455577 0
M  V30 41582 C 4067.82 1.68451 0.99416 0
M  V30 41583 O 4069.02 2.26328 1.4996 0
M  V30 41584 C 4067.48 3.51703 -0.763739 0
M  V30 41585 C 4067.09 3.88597 -2.22927 0
M  V30 41586 C 4068.83 4.22301 -0.431541 0
M  V30 41587 C 4066.74 5.36861 -2.4806 0
M  V30 41588 H 4065.67 0.735357 -0.16663 0
M  V30 41589 H 4068.32 1.50737 -1.04645 0
M  V30 41590 H 4066.7 3.95868 -0.102294 0
M  V30 41591 H 4067.87 3.55439 -2.93258 0
M  V30 41592 H 4066.19 3.31026 -2.52607 0
M  V30 41593 H 4068.79 5.3136 -0.596734 0
M  V30 41594 H 4069.13 4.11553 0.626907 0
M  V30 41595 H 4069.66 3.83722 -1.04892 0
M  V30 41596 H 4066.4 5.52631 -3.52533 0
M  V30 41597 H 4065.92 5.71423 -1.82308 0
M  V30 41598 H 4067.6 6.03953 -2.32055 0
M  V30 41599 N 4067.73 0.613565 1.45166 0
M  V30 41600 C 4068.96 0.117473 2.06266 0
M  V30 41601 C 4069.37 -1.20595 1.45786 0
M  V30 41602 O 4068.71 -1.74679 0.568587 0
M  V30 41603 C 4068.77 -0.0902573 3.59387 0
M  V30 41604 C 4068.44 1.15228 4.42235 0
M  V30 41605 C 4069.44 2.07185 4.76834 0
M  V30 41606 C 4067.12 1.38278 4.82892 0
M  V30 41607 C 4069.11 3.20516 5.50952 0
M  V30 41608 C 4066.8 2.51909 5.56763 0
M  V30 41609 C 4067.8 3.42855 5.90711 0
M  V30 41610 O 4067.49 4.54507 6.63083 0
M  V30 41611 H 4067.22 0.0687592 0.672494 0
M  V30 41612 H 4069.77 0.842959 1.87306 0
M  V30 41613 H 4068 -0.8707 3.7677 0
M  V30 41614 H 4069.69 -0.538695 4.02309 0
M  V30 41615 H 4070.46 1.90605 4.45976 0
M  V30 41616 H 4066.34 0.683854 4.559 0
M  V30 41617 H 4069.88 3.91526 5.77368 0
M  V30 41618 H 4065.78 2.68439 5.87035 0
M  V30 41619 H 4066.55 4.53265 6.81537 0
M  V30 41620 N 4069.21 -1.53594 0.353071 0
M  V30 41621 C 4070.44 -2.05186 -0.241279 0
M  V30 41622 C 4070.85 -1.22715 -1.44006 0
M  V30 41623 O 4070.19 -0.257693 -1.81884 0
M  V30 41624 C 4070.25 -3.52401 -0.710878 0
M  V30 41625 C 4069.92 -4.55504 0.369525 0
M  V30 41626 C 4070.91 -5.05495 1.21534 0
M  V30 41627 C 4068.6 -4.99536 0.526183 0
M  V30 41628 C 4070.59 -5.98109 2.20327 0
M  V30 41629 C 4068.28 -5.91959 1.51749 0
M  V30 41630 C 4069.28 -6.41134 2.35448 0
M  V30 41631 O 4068.97 -7.31737 3.3289 0
M  V30 41632 H 4068.7 -0.674246 -0.0486655 0
M  V30 41633 H 4071.25 -1.99068 0.506073 0
M  V30 41634 H 4069.48 -3.56016 -1.50963 0
M  V30 41635 H 4071.17 -3.86915 -1.22683 0
M  V30 41636 H 4071.94 -4.72234 1.10544 0
M  V30 41637 H 4067.82 -4.60855 -0.115481 0
M  V30 41638 H 4071.36 -6.36416 2.85694 0
M  V30 41639 H 4067.26 -6.24635 1.62792 0
M  V30 41640 H 4068.02 -7.49699 3.28473 0
M  V30 41641 N 4070.69 -0.0819208 -1.57387 0
M  V30 41642 C 4071.62 0.917983 -2.08922 0
M  V30 41643 C 4072.6 1.28473 -0.996671 0
M  V30 41644 O 4073.78 1.39227 -1.27075 0
M  V30 41645 C 4070.91 2.22312 -2.55529 0
M  V30 41646 C 4069.96 2.00721 -3.76316 0
M  V30 41647 S 4070.79 1.25727 -5.20531 0
M  V30 41648 C 4071.94 2.57499 -5.70478 0
M  V30 41649 H 4072.18 0.479511 -2.93408 0
M  V30 41650 H 4069.71 0.131076 -1.53843 0
M  V30 41651 H 4071.67 2.97319 -2.8304 0
M  V30 41652 H 4070.33 2.63282 -1.71293 0
M  V30 41653 H 4069.52 2.97335 -4.0695 0
M  V30 41654 H 4069.12 1.33847 -3.49229 0
M  V30 41655 H 4071.42 3.53541 -5.7794 0
M  V30 41656 H 4072.36 2.31461 -6.69202 0
M  V30 41657 H 4072.77 2.65168 -4.98343 0
M  V30 41658 N 4072.17 1.5643 0.191702 0
M  V30 41659 C 4073.13 1.93954 1.22124 0
M  V30 41660 C 4074.13 0.821009 1.38261 0
M  V30 41661 O 4075.32 1.08838 1.36015 0
M  V30 41662 C 4072.45 2.21655 2.59001 0
M  V30 41663 H 4073.64 2.86064 0.900408 0
M  V30 41664 H 4071.2 1.50172 0.433356 0
M  V30 41665 H 4071.93 1.32194 2.96134 0
M  V30 41666 H 4071.72 3.03168 2.4866 0
M  V30 41667 H 4073.21 2.51679 3.33237 0
M  V30 41668 N 4073.64 -0.459538 1.50751 0
M  V30 41669 C 4074.59 -1.55394 1.66843 0
M  V30 41670 C 4075.58 -1.52171 0.522774 0
M  V30 41671 O 4076.77 -1.58999 0.777709 0
M  V30 41672 C 4073.9 -2.93759 1.77654 0
M  V30 41673 C 4072.98 -3.01823 2.97933 0
M  V30 41674 N 4073.38 -2.79675 4.21445 0
M  V30 41675 C 4071.67 -3.32968 2.96729 0
M  V30 41676 C 4072.37 -2.93006 5.02516 0
M  V30 41677 N 4071.35 -3.23712 4.36705 0
M  V30 41678 H 4075.15 -1.36988 2.60022 0
M  V30 41679 H 4072.67 -0.666476 1.48094 0
M  V30 41680 H 4074.66 -3.72463 1.87287 0
M  V30 41681 H 4073.32 -3.13202 0.856411 0
M  V30 41682 H 4074.33 -2.55031 4.50754 0
M  V30 41683 H 4071.01 -3.58327 2.14262 0
M  V30 41684 H 4072.4 -2.80024 6.10767 0
M  V30 41685 N 4075.12 -1.40523 -0.713506 0
M  V30 41686 C 4076.05 -1.36871 -1.83845 0
M  V30 41687 C 4077.07 -0.273774 -1.60482 0
M  V30 41688 O 4078.26 -0.534268 -1.70317 0
M  V30 41689 C 4075.36 -1.1077 -3.20286 0
M  V30 41690 C 4074.53 -2.31959 -3.70829 0
M  V30 41691 C 4073.59 -2.01985 -4.85889 0
M  V30 41692 O 4072.61 -2.74869 -4.98433 0
M  V30 41693 N 4073.82 -0.999086 -5.71838 0
M  V30 41694 H 4076.58 -2.33823 -1.87475 0
M  V30 41695 H 4074.14 -1.34904 -0.895127 0
M  V30 41696 H 4076.13 -0.887002 -3.9486 0
M  V30 41697 H 4074.7 -0.224781 -3.11791 0
M  V30 41698 H 4073.92 -2.69845 -2.87363 0
M  V30 41699 H 4075.21 -3.12745 -4.01333 0
M  V30 41700 H 4074.61 -0.395492 -5.64316 0
M  V30 41701 H 4073.17 -0.838291 -6.46387 0
M  V30 41702 N 4076.6 0.94594 -1.26054 0
M  V30 41703 C 4077.55 2.06527 -1.07002 0
M  V30 41704 C 4078.54 1.694 0.00165114 0
M  V30 41705 O 4079.75 1.79334 -0.154655 0
M  V30 41706 H 4076.12 0.676144 -0.329141 0
M  V30 41707 H 4078.09 2.19749 -2.01873 0
M  V30 41708 C 4076.84 3.40275 -0.714696 0
M  V30 41709 H 4076.17 3.69317 -1.53117 0
M  V30 41710 H 4077.61 4.19426 -0.621144 0
M  V30 41711 C 4076.06 3.31872 0.57985 0
M  V30 41712 O 4076.59 3.67606 1.61952 0
M  V30 41713 N 4074.8 2.84981 0.568714 0
M  V30 41714 H 4074.35 2.56098 -0.277732 0
M  V30 41715 H 4074.31 2.79741 1.435 0
M  V30 41716 N 4078.08 1.07781 1.14983 0
M  V30 41717 C 4079.01 0.659973 2.19493 0
M  V30 41718 C 4080.02 -0.289728 1.60201 0
M  V30 41719 O 4081.21 -0.0783691 1.78328 0
M  V30 41720 C 4078.31 -0.0505565 3.38862 0
M  V30 41721 C 4077.48 0.91643 4.27692 0
M  V30 41722 C 4076.54 0.242396 5.25641 0
M  V30 41723 O 4075.57 0.884814 5.62281 0
M  V30 41724 N 4076.77 -1.01023 5.71642 0
M  V30 41725 H 4079.54 1.55903 2.55958 0
M  V30 41726 H 4077.1 0.963066 1.30141 0
M  V30 41727 H 4079.09 -0.512261 4.01445 0
M  V30 41728 H 4077.66 -0.851618 3.00776 0
M  V30 41729 H 4076.88 1.55714 3.62142 0
M  V30 41730 H 4078.17 1.5719 4.8391 0
M  V30 41731 H 4077.57 -1.55202 5.43993 0
M  V30 41732 H 4076.12 -1.41554 6.36243 0
M  V30 41733 N 4079.56 -1.31901 0.862549 0
M  V30 41734 C 4080.52 -2.26985 0.317876 0
M  V30 41735 C 4081.52 -1.51921 -0.526932 0
M  V30 41736 O 4082.71 -1.70903 -0.337306 0
M  V30 41737 C 4079.84 -3.36444 -0.549381 0
M  V30 41738 H 4081.03 -2.76675 1.15719 0
M  V30 41739 H 4078.59 -1.42707 0.637526 0
M  V30 41740 H 4079.32 -2.92034 -1.41019 0
M  V30 41741 H 4079.11 -3.92061 0.0554331 0
M  V30 41742 H 4080.6 -4.07272 -0.922987 0
M  V30 41743 N 4081.03 -0.621255 -1.44838 0
M  V30 41744 C 4082.31 -0.0531855 -1.95528 0
M  V30 41745 C 4082.69 1.41843 -1.56345 0
M  V30 41746 O 4082.04 2.12789 -0.832659 0
M  V30 41747 C 4082.25 -0.265661 -3.47987 0
M  V30 41748 C 4083.6 -0.153647 -4.24322 0
M  V30 41749 O 4084.62 -0.196502 -3.55658 0
M  V30 41750 O 4083.48 -0.050246 -5.46477 0
M  V30 41751 H 4080.57 0.027952 -0.826527 0
M  V30 41752 H 4083.12 -0.692271 -1.54938 0
M  V30 41753 H 4081.89 -1.28719 -3.69523 0
M  V30 41754 H 4081.52 0.408036 -3.95501 0
M  V30 41755 N 4082.51 1.53405 -0.361211 0
M  V30 41756 C 4083.74 2.05311 0.230394 0
M  V30 41757 C 4084.15 1.23477 1.43353 0
M  V30 41758 O 4083.49 0.267335 1.81744 0
M  V30 41759 C 4083.56 3.52773 0.692179 0
M  V30 41760 C 4083.22 4.55301 -0.393677 0
M  V30 41761 C 4084.22 5.04844 -1.24213 0
M  V30 41762 C 4081.9 4.9925 -0.552668 0
M  V30 41763 C 4083.9 5.96933 -2.23496 0
M  V30 41764 C 4081.58 5.91146 -1.54887 0
M  V30 41765 C 4082.58 6.39877 -2.38845 0
M  V30 41766 O 4082.27 7.29961 -3.36766 0
M  V30 41767 H 4082 0.674495 0.0450891 0
M  V30 41768 H 4084.55 1.98797 -0.516622 0
M  V30 41769 H 4082.78 3.56811 1.49073 0
M  V30 41770 H 4084.47 3.87561 1.2063 0
M  V30 41771 H 4085.24 4.71641 -1.13047 0
M  V30 41772 H 4081.12 4.6091 0.0910388 0
M  V30 41773 H 4084.66 6.34892 -2.89065 0
M  V30 41774 H 4080.56 6.23763 -1.66102 0
M  V30 41775 H 4081.33 7.47946 -3.32444 0
M  V30 41776 N 4083.99 0.0902663 1.57341 0
M  V30 41777 C 4084.95 -0.855879 2.1262 0
M  V30 41778 C 4085.95 -1.21408 1.05436 0
M  V30 41779 O 4087.14 -1.14431 1.31344 0
M  V30 41780 C 4084.28 -2.15333 2.64281 0
M  V30 41781 H 4085.47 -0.375962 2.97534 0
M  V30 41782 H 4083.02 -0.158672 1.55493 0
M  V30 41783 H 4083.76 -2.6782 1.82873 0
M  V30 41784 H 4083.54 -1.90624 3.42644 0
M  V30 41785 H 4085.03 -2.83027 3.0706 0
M  V30 41786 N 4085.47 -1.56529 -0.183403 0
M  V30 41787 C 4086.71 -1.81572 -0.9033 0
M  V30 41788 C 4087.05 -0.666199 -1.82416 0
M  V30 41789 O 4086.32 0.332587 -1.91635 0
M  V30 41790 C 4086.61 -3.16939 -1.70944 0
M  V30 41791 C 4086.46 -4.424 -0.812517 0
M  V30 41792 C 4087.78 -3.49118 -2.67964 0
M  V30 41793 H 4084.9 -0.66051 -0.32695 0
M  V30 41794 H 4087.54 -1.89237 -0.170082 0
M  V30 41795 H 4085.69 -3.10535 -2.33453 0
M  V30 41796 H 4087.36 -4.60861 -0.201232 0
M  V30 41797 H 4085.6 -4.33634 -0.119873 0
M  V30 41798 H 4086.27 -5.3364 -1.41181 0
M  V30 41799 H 4088.75 -3.55897 -2.15584 0
M  V30 41800 H 4087.63 -4.44933 -3.21443 0
M  V30 41801 H 4087.89 -2.73205 -3.47579 0
M  V30 41802 N 4086.95 0.451537 -1.50993 0
M  V30 41803 C 4087.88 1.55467 -1.74219 0
M  V30 41804 C 4088.86 1.59481 -0.591596 0
M  V30 41805 O 4090.04 1.75436 -0.832821 0
M  V30 41806 C 4087.17 2.93657 -1.85426 0
M  V30 41807 C 4086.13 3.04507 -3.00765 0
M  V30 41808 C 4085.45 4.44537 -2.97138 0
M  V30 41809 C 4086.75 2.79904 -4.40966 0
M  V30 41810 H 4088.45 1.36283 -2.66585 0
M  V30 41811 H 4085.99 0.654184 -1.28283 0
M  V30 41812 H 4087.95 3.70776 -2.00258 0
M  V30 41813 H 4086.67 3.14041 -0.896976 0
M  V30 41814 H 4085.33 2.29825 -2.85615 0
M  V30 41815 H 4084.98 4.61868 -1.99215 0
M  V30 41816 H 4084.68 4.52729 -3.7458 0
M  V30 41817 H 4086.2 5.23649 -3.14045 0
M  V30 41818 H 4087.61 3.46762 -4.5654 0
M  V30 41819 H 4086.01 2.99521 -5.20007 0
M  V30 41820 H 4087.08 1.7561 -4.51984 0
M  V30 41821 N 4088.42 1.409 0.706044 0
M  V30 41822 C 4089.36 1.37845 1.83116 0
M  V30 41823 C 4090.37 0.282281 1.60334 0
M  V30 41824 O 4091.56 0.543292 1.70031 0
M  V30 41825 C 4088.66 1.12467 3.19694 0
M  V30 41826 C 4087.83 2.33922 3.69593 0
M  V30 41827 C 4086.89 2.04559 4.84811 0
M  V30 41828 O 4085.92 2.77509 4.96968 0
M  V30 41829 N 4087.12 1.0294 5.713 0
M  V30 41830 H 4089.88 2.34814 1.86233 0
M  V30 41831 H 4087.44 1.35377 0.88796 0
M  V30 41832 H 4089.44 0.90793 3.94384 0
M  V30 41833 H 4088.01 0.241313 3.11667 0
M  V30 41834 H 4087.23 2.71365 2.85928 0
M  V30 41835 H 4088.51 3.14869 3.99669 0
M  V30 41836 H 4087.91 0.425413 5.64098 0
M  V30 41837 H 4086.47 0.872559 6.45933 0
M  V30 41838 N 4089.9 -0.939242 1.26554 0
M  V30 41839 C 4090.83 -2.05547 1.10782 0
M  V30 41840 C 4091.81 -1.70095 0.0124658 0
M  V30 41841 O 4093 -1.93318 0.184848 0
M  V30 41842 C 4090.13 -3.3928 0.74207 0
M  V30 41843 C 4089.08 -3.888 1.78937 0
M  V30 41844 C 4088.41 -5.19205 1.2779 0
M  V30 41845 C 4089.71 -4.13467 3.19128 0
M  V30 41846 H 4091.4 -2.19001 2.04155 0
M  V30 41847 H 4088.95 -1.05233 0.982959 0
M  V30 41848 H 4090.9 -4.16835 0.618599 0
M  V30 41849 H 4089.63 -3.25808 -0.227363 0
M  V30 41850 H 4088.28 -3.13427 1.90155 0
M  V30 41851 H 4087.93 -5.02115 0.298248 0
M  V30 41852 H 4087.63 -5.53307 1.978 0
M  V30 41853 H 4089.16 -5.99342 1.16713 0
M  V30 41854 H 4090.57 -4.81629 3.10976 0
M  V30 41855 H 4088.97 -4.58855 3.86746 0
M  V30 41856 H 4090.04 -3.19177 3.6504 0
M  V30 41857 N 4091.38 -1.08389 -1.14409 0
M  V30 41858 C 4092.33 -0.683331 -2.17519 0
M  V30 41859 C 4093.31 0.296943 -1.58136 0
M  V30 41860 O 4094.51 0.10899 -1.76664 0
M  V30 41861 C 4091.64 -0.0940006 -3.43171 0
M  V30 41862 C 4090.72 -1.10005 -4.09585 0
M  V30 41863 N 4091.11 -2.28341 -4.51325 0
M  V30 41864 C 4089.41 -0.935771 -4.36073 0
M  V30 41865 C 4090.11 -2.92252 -5.02955 0
M  V30 41866 N 4089.09 -2.19863 -4.97153 0
M  V30 41867 H 4092.89 -1.58446 -2.47532 0
M  V30 41868 H 4090.4 -0.958587 -1.31091 0
M  V30 41869 H 4092.4 0.210924 -4.16366 0
M  V30 41870 H 4091.06 0.80211 -3.14637 0
M  V30 41871 H 4092.07 -2.65998 -4.44371 0
M  V30 41872 H 4088.75 -0.0934491 -4.17395 0
M  V30 41873 H 4090.14 -3.92792 -5.45128 0
M  V30 41874 N 4092.86 1.31442 -0.869532 0
M  V30 41875 C 4094.11 1.96334 -0.4793 0
M  V30 41876 C 4094.43 1.69074 0.971553 0
M  V30 41877 O 4093.7 1.00591 1.68102 0
M  V30 41878 H 4092.28 0.726391 -0.174254 0
M  V30 41879 H 4094.94 1.60257 -1.10922 0
M  V30 41880 H 4094.04 3.05537 -0.636681 0
M  V30 41881 N 4094.34 0.628927 1.44507 0
M  V30 41882 C 4095.58 0.132276 2.01667 0
M  V30 41883 C 4095.91 -1.2495 1.49708 0
M  V30 41884 O 4095.18 -1.82974 0.699801 0
M  V30 41885 H 4093.76 0.0459097 0.745588 0
M  V30 41886 H 4096.42 0.815133 1.77036 0
M  V30 41887 H 4095.51 0.0982876 3.11945 0
M  V30 41888 N 4095.82 -1.53211 0.369342 0
M  V30 41889 C 4097.23 -1.59589 0.0184396 0
M  V30 41890 C 4097.43 -1.3843 -1.46422 0
M  V30 41891 O 4096.49 -1.19134 -2.22628 0
M  V30 41892 C 4097.8 -2.96881 0.477745 0
M  V30 41893 C 4099.35 -3.1 0.432287 0
M  V30 41894 C 4099.82 -4.4971 0.867465 0
M  V30 41895 N 4101.31 -4.55836 0.822674 0
M  V30 41896 C 4102.05 -5.62134 1.13104 0
M  V30 41897 N 4101.55 -6.76169 1.50888 0
M  V30 41898 N 4103.34 -5.52138 1.05359 0
M  V30 41899 H 4095.49 -1.65216 1.33482 0
M  V30 41900 H 4097.75 -0.775091 0.545836 0
M  V30 41901 H 4097.46 -3.17516 1.5125 0
M  V30 41902 H 4097.33 -3.76963 -0.133675 0
M  V30 41903 H 4099.72 -2.89073 -0.593346 0
M  V30 41904 H 4099.8 -2.31918 1.07925 0
M  V30 41905 H 4099.44 -4.71375 1.89123 0
M  V30 41906 H 4099.37 -5.26229 0.197712 0
M  V30 41907 H 4101.87 -3.73959 0.544369 0
M  V30 41908 H 4102.18 -7.53225 1.72834 0
M  V30 41909 H 4100.52 -6.77551 1.54757 0
M  V30 41910 H 4103.71 -4.61929 0.757568 0
M  V30 41911 H 4103.89 -6.34882 1.29724 0
M  V30 41912 N 4097.29 -0.0986092 -1.57291 0
M  V30 41913 C 4098.22 0.856093 -2.1724 0
M  V30 41914 C 4099.2 1.29174 -1.10671 0
M  V30 41915 O 4100.39 1.358 -1.38823 0
M  V30 41916 C 4097.52 2.11393 -2.75555 0
M  V30 41917 C 4096.47 1.81678 -3.87527 0
M  V30 41918 C 4095.8 3.1432 -4.32559 0
M  V30 41919 C 4097.1 1.10099 -5.10564 0
M  V30 41920 H 4098.79 0.356604 -2.97269 0
M  V30 41921 H 4096.34 0.170083 -1.42992 0
M  V30 41922 H 4098.29 2.78621 -3.16146 0
M  V30 41923 H 4097.02 2.63631 -1.92786 0
M  V30 41924 H 4095.68 1.16847 -3.4748 0
M  V30 41925 H 4095.32 3.64452 -3.46676 0
M  V30 41926 H 4095.02 2.95219 -5.08055 0
M  V30 41927 H 4096.55 3.827 -4.75786 0
M  V30 41928 H 4097.96 1.67443 -5.48302 0
M  V30 41929 H 4096.36 1.01165 -5.91511 0
M  V30 41930 H 4097.43 0.0843189 -4.84827 0
M  V30 41931 N 4098.77 1.56624 0.175099 0
M  V30 41932 C 4099.72 1.92525 1.22139 0
M  V30 41933 C 4100.71 0.793137 1.39993 0
M  V30 41934 O 4101.9 1.05627 1.42028 0
M  V30 41935 C 4099.03 2.28543 2.5617 0
M  V30 41936 C 4098.11 3.48259 2.42025 0
M  V30 41937 N 4098.5 4.6561 1.97589 0
M  V30 41938 C 4096.8 3.52792 2.72863 0
M  V30 41939 C 4097.5 5.47751 1.95816 0
M  V30 41940 N 4096.48 4.88692 2.38078 0
M  V30 41941 H 4100.28 2.80744 0.86947 0
M  V30 41942 H 4097.79 1.57809 0.3834 0
M  V30 41943 H 4099.79 2.52456 3.31771 0
M  V30 41944 H 4098.45 1.41661 2.92168 0
M  V30 41945 H 4099.46 4.89899 1.67985 0
M  V30 41946 H 4096.14 2.76378 3.12924 0
M  V30 41947 H 4097.53 6.51781 1.63191 0
M  V30 41948 N 4100.25 -0.443523 1.5123 0
M  V30 41949 C 4101.5 -1.19347 1.63593 0
M  V30 41950 C 4101.82 -1.91339 0.349206 0
M  V30 41951 O 4101.08 -1.84004 -0.666418 0
M  V30 41952 C 4101.38 -2.23973 2.78515 0
M  V30 41953 C 4101.04 -1.69037 4.18016 0
M  V30 41954 C 4099.71 -1.53778 4.55967 0
M  V30 41955 C 4102.06 -1.28582 5.0509 0
M  V30 41956 C 4099.39 -0.965272 5.78705 0
M  V30 41957 C 4101.74 -0.727629 6.28401 0
M  V30 41958 C 4100.4 -0.561884 6.65131 0
M  V30 41959 H 4099.67 -0.436722 0.598627 0
M  V30 41960 H 4102.32 -0.485416 1.85246 0
M  V30 41961 H 4100.62 -3.00793 2.51059 0
M  V30 41962 H 4102.32 -2.81809 2.8528 0
M  V30 41963 H 4098.91 -1.81889 3.88091 0
M  V30 41964 H 4103.1 -1.39194 4.76381 0
M  V30 41965 H 4098.35 -0.824564 6.05814 0
M  V30 41966 H 4102.53 -0.405612 6.95218 0
M  V30 41967 H 4100.15 -0.116132 7.60111 0
M  V30 41968 N 4101.73 -1.41272 -0.698562 0
M  V30 41969 C 4102.66 -1.37298 -1.82276 0
M  V30 41970 C 4103.64 -0.240696 -1.60809 0
M  V30 41971 O 4104.82 -0.427123 -1.83597 0
M  V30 41972 C 4101.95 -1.14093 -3.18905 0
M  V30 41973 C 4101 -2.30001 -3.59168 0
M  V30 41974 S 4101.83 -3.92468 -3.6432 0
M  V30 41975 C 4102.98 -3.7156 -5.03681 0
M  V30 41976 H 4103.22 -2.32434 -1.85369 0
M  V30 41977 H 4100.75 -1.2776 -0.866986 0
M  V30 41978 H 4102.71 -1.0139 -3.97782 0
M  V30 41979 H 4101.37 -0.205825 -3.13425 0
M  V30 41980 H 4100.56 -2.0945 -4.58418 0
M  V30 41981 H 4100.16 -2.39095 -2.87593 0
M  V30 41982 H 4102.46 -3.3108 -5.91094 0
M  V30 41983 H 4103.4 -4.70401 -5.29272 0
M  V30 41984 H 4103.81 -3.04896 -4.75078 0
M  V30 41985 N 4103.21 0.932517 -1.27051 0
M  V30 41986 C 4104.45 1.67968 -1.13106 0
M  V30 41987 C 4104.78 1.91782 0.324013 0
M  V30 41988 O 4104.04 1.50262 1.25379 0
M  V30 41989 C 4104.33 3.05505 -1.85476 0
M  V30 41990 C 4104 3.01418 -3.35348 0
M  V30 41991 C 4102.66 3.00011 -3.76227 0
M  V30 41992 C 4105.01 2.93071 -4.30998 0
M  V30 41993 C 4102.34 2.88032 -5.1113 0
M  V30 41994 C 4104.69 2.82634 -5.65951 0
M  V30 41995 C 4103.36 2.79574 -6.06131 0
M  V30 41996 H 4102.63 0.61464 -0.413883 0
M  V30 41997 H 4105.28 1.08786 -1.576 0
M  V30 41998 H 4103.58 3.68363 -1.33475 0
M  V30 41999 H 4105.28 3.62183 -1.72118 0
M  V30 42000 H 4101.87 3.03298 -3.02834 0
M  V30 42001 H 4106.05 2.9326 -4.0039 0
M  V30 42002 H 4101.31 2.84047 -5.41413 0
M  V30 42003 H 4105.48 2.7514 -6.39743 0
M  V30 42004 H 4103.11 2.70049 -7.10618 0
M  V30 42005 N 4104.68 1.08995 1.13833 0
M  V30 42006 C 4105.96 0.735841 1.81231 0
M  V30 42007 C 4106.34 -0.779703 1.96173 0
M  V30 42008 O 4105.69 -1.70046 1.52632 0
M  V30 42009 C 4105.9 1.46974 3.16543 0
M  V30 42010 C 4107.25 1.63267 3.91955 0
M  V30 42011 O 4108.27 1.43189 3.26153 0
M  V30 42012 O 4107.13 1.96444 5.09972 0
M  V30 42013 H 4104.22 0.263824 0.783789 0
M  V30 42014 H 4106.77 1.19188 1.20798 0
M  V30 42015 H 4105.54 2.50188 3.00868 0
M  V30 42016 H 4105.16 1.00558 3.84674 0
M  V30 42017 N 4106.16 -1.30979 0.87649 0
M  V30 42018 C 4107.09 -2.30817 0.352965 0
M  V30 42019 C 4108.07 -1.6063 -0.559647 0
M  V30 42020 O 4109.26 -1.88294 -0.475293 0
M  V30 42021 C 4106.39 -3.44492 -0.440767 0
M  V30 42022 C 4105.34 -4.26316 0.379328 0
M  V30 42023 C 4104.67 -5.31961 -0.540489 0
M  V30 42024 C 4105.97 -4.96642 1.6169 0
M  V30 42025 H 4107.66 -2.74854 1.18724 0
M  V30 42026 H 4105.21 -1.32137 0.572339 0
M  V30 42027 H 4107.16 -4.13393 -0.817588 0
M  V30 42028 H 4105.88 -2.99237 -1.30861 0
M  V30 42029 H 4104.54 -3.59091 0.73818 0
M  V30 42030 H 4104.19 -4.82956 -1.4058 0
M  V30 42031 H 4103.89 -5.876 0.00437462 0
M  V30 42032 H 4105.42 -6.0372 -0.914012 0
M  V30 42033 H 4106.83 -5.58105 1.31115 0
M  V30 42034 H 4105.23 -5.62107 2.10132 0
M  V30 42035 H 4106.3 -4.23254 2.36609 0
M  V30 42036 N 4107.64 -0.636582 -1.44171 0
M  V30 42037 C 4108.89 -0.142969 -2.01594 0
M  V30 42038 C 4109.21 1.24155 -1.50368 0
M  V30 42039 O 4108.48 1.82601 -0.709495 0
M  V30 42040 H 4107.06 -0.0498631 -0.745334 0
M  V30 42041 H 4109.72 -0.82451 -1.76601 0
M  V30 42042 H 4108.82 -0.114829 -3.11889 0
M  V30 42043 N 4109.12 1.53013 -0.377462 0
M  V30 42044 C 4110.06 2.26101 0.463375 0
M  V30 42045 C 4111.03 1.27239 1.06768 0
M  V30 42046 O 4112.22 1.56045 1.09794 0
M  V30 42047 C 4109.36 3.06238 1.59098 0
M  V30 42048 C 4108.47 4.20011 1.01068 0
M  V30 42049 C 4107.61 4.87567 2.10836 0
M  V30 42050 C 4106.65 5.93352 1.50334 0
M  V30 42051 N 4105.78 6.54551 2.53984 0
M  V30 42052 H 4110.62 2.97535 -0.166368 0
M  V30 42053 H 4108.16 1.468 -0.09387 0
M  V30 42054 H 4110.12 3.50984 2.25536 0
M  V30 42055 H 4108.75 2.37036 2.1912 0
M  V30 42056 H 4107.8 3.79666 0.236239 0
M  V30 42057 H 4109.11 4.95993 0.528447 0
M  V30 42058 H 4108.27 5.35556 2.8507 0
M  V30 42059 H 4107.01 4.11083 2.62416 0
M  V30 42060 H 4106.01 5.44713 0.746203 0
M  V30 42061 H 4107.24 6.71762 0.995645 0
M  V30 42062 H 4105.18 5.80914 3.04754 0
M  V30 42063 H 4105.1 7.26109 2.10481 0
M  V30 42064 H 4106.37 7.07187 3.27883 0
M  V30 42065 N 4110.6 0.106949 1.57237 0
M  V30 42066 C 4111.84 -0.552854 1.94391 0
M  V30 42067 C 4112.17 -1.6798 0.990346 0
M  V30 42068 O 4111.44 -1.95849 0.0444847 0
M  V30 42069 H 4110.02 -0.207218 0.717684 0
M  V30 42070 H 4112.68 0.173064 1.9413 0
M  V30 42071 H 4111.77 -0.955317 2.9712 0
M  V30 42072 N 4112.07 -1.56715 -0.166791 0
M  V30 42073 C 4113.49 -1.50935 -0.518728 0
M  V30 42074 C 4113.69 -0.811996 -1.84415 0
M  V30 42075 O 4112.75 -0.37425 -2.49711 0
M  V30 42076 C 4114.06 -2.95677 -0.547304 0
M  V30 42077 C 4115.61 -3.06508 -0.634193 0
M  V30 42078 C 4116.08 -4.52717 -0.693619 0
M  V30 42079 N 4117.57 -4.56983 -0.756385 0
M  V30 42080 C 4118.31 -5.67463 -0.823017 0
M  V30 42081 N 4117.8 -6.87563 -0.850205 0
M  V30 42082 N 4119.6 -5.55445 -0.862384 0
M  V30 42083 H 4111.75 -2.00455 0.702256 0
M  V30 42084 H 4114.01 -0.913409 0.253747 0
M  V30 42085 H 4113.72 -3.49873 0.358007 0
M  V30 42086 H 4113.59 -3.50567 -1.39221 0
M  V30 42087 H 4115.98 -2.52343 -1.52993 0
M  V30 42088 H 4116.06 -2.54695 0.237474 0
M  V30 42089 H 4115.7 -5.07514 0.197878 0
M  V30 42090 H 4115.63 -5.02291 -1.5815 0
M  V30 42091 H 4118.12 -3.70514 -0.743474 0
M  V30 42092 H 4118.44 -7.67514 -0.902346 0
M  V30 42093 H 4116.78 -6.90165 -0.818407 0
M  V30 42094 H 4119.97 -4.60535 -0.838177 0
M  V30 42095 H 4120.15 -6.41566 -0.910849 0
M  V30 42096 N 4113.55 0.435497 -1.51463 0
M  V30 42097 C 4114.78 1.20716 -1.68033 0
M  V30 42098 C 4115.2 1.84968 -0.378459 0
M  V30 42099 O 4114.55 1.7079 0.643204 0
M  V30 42100 C 4114.6 2.28984 -2.7973 0
M  V30 42101 O 4114.32 1.6736 -4.04873 0
M  V30 42102 C 4115.83 3.19229 -3.07584 0
M  V30 42103 H 4113.05 0.363771 -0.563836 0
M  V30 42104 H 4115.59 0.51579 -1.97888 0
M  V30 42105 H 4113.74 2.93834 -2.52468 0
M  V30 42106 H 4114.16 2.38928 -4.66919 0
M  V30 42107 H 4115.63 3.91327 -3.89316 0
M  V30 42108 H 4116.11 3.80089 -2.20065 0
M  V30 42109 H 4116.72 2.60077 -3.36511 0
M  V30 42110 N 4115.03 1.41641 0.69106 0
M  V30 42111 C 4115.98 1.43844 1.80493 0
M  V30 42112 C 4116.95 0.292266 1.63508 0
M  V30 42113 O 4118.13 0.493973 1.84295 0
M  V30 42114 C 4115.27 1.33077 3.18409 0
M  V30 42115 C 4114.39 2.576 3.46794 0
M  V30 42116 C 4113.52 2.39094 4.7435 0
M  V30 42117 C 4112.56 3.5907 4.95717 0
M  V30 42118 N 4111.7 3.39607 6.14501 0
M  V30 42119 H 4116.54 2.39039 1.77945 0
M  V30 42120 H 4114.07 1.18694 0.86891 0
M  V30 42121 H 4116.03 1.24836 3.98085 0
M  V30 42122 H 4114.66 0.41487 3.20123 0
M  V30 42123 H 4113.71 2.76273 2.61491 0
M  V30 42124 H 4115.03 3.46831 3.58483 0
M  V30 42125 H 4114.18 2.28346 5.62088 0
M  V30 42126 H 4112.92 1.47327 4.64915 0
M  V30 42127 H 4111.92 3.70268 4.06425 0
M  V30 42128 H 4113.15 4.51797 5.07007 0
M  V30 42129 H 4111.09 2.50543 6.06271 0
M  V30 42130 H 4111.01 4.22416 6.26978 0
M  V30 42131 H 4112.28 3.32639 7.04962 0
M  V30 42132 N 4116.51 -0.925766 1.27543 0
M  V30 42133 C 4117.75 -1.67614 1.14164 0
M  V30 42134 C 4118.09 -1.91686 -0.311437 0
M  V30 42135 O 4117.36 -1.50862 -1.22763 0
M  V30 42136 C 4117.65 -3.04149 1.92783 0
M  V30 42137 C 4117.5 -2.87306 3.46086 0
M  V30 42138 C 4118.82 -4.04508 1.73381 0
M  V30 42139 H 4115.94 -0.608299 0.416102 0
M  V30 42140 H 4118.58 -1.07417 1.56721 0
M  V30 42141 H 4116.73 -3.55533 1.56616 0
M  V30 42142 H 4118.4 -2.43025 3.92093 0
M  V30 42143 H 4116.64 -2.22608 3.72328 0
M  V30 42144 H 4117.31 -3.84212 3.9634 0
M  V30 42145 H 4119.79 -3.62142 2.0492 0
M  V30 42146 H 4118.67 -4.98027 2.30782 0
M  V30 42147 H 4118.93 -4.36804 0.682231 0
M  V30 42148 N 4117.99 -1.09597 -1.13253 0
M  V30 42149 C 4119.21 -0.855137 -1.8895 0
M  V30 42150 C 4119.64 0.588143 -1.78669 0
M  V30 42151 O 4118.99 1.41339 -1.13547 0
M  V30 42152 C 4119.04 -1.29723 -3.36458 0
M  V30 42153 O 4118.15 -0.456789 -4.09862 0
M  V30 42154 H 4117.49 -0.309557 -0.587427 0
M  V30 42155 H 4120.02 -1.46055 -1.4328 0
M  V30 42156 H 4120.03 -1.2834 -3.87289 0
M  V30 42157 H 4118.7 -2.34832 -3.43259 0
M  V30 42158 H 4117.28 -0.535091 -3.69041 0
M  V30 42159 N 4119.46 1.30512 -0.883424 0
M  V30 42160 C 4120.41 2.25736 -0.320524 0
M  V30 42161 C 4121.4 1.51203 0.550139 0
M  V30 42162 O 4122.59 1.7254 0.394816 0
M  V30 42163 C 4119.72 3.40132 0.465288 0
M  V30 42164 C 4118.81 4.22021 -0.419375 0
M  V30 42165 N 4119.2 4.82449 -1.51911 0
M  V30 42166 C 4117.49 4.45485 -0.214211 0
M  V30 42167 C 4118.2 5.43784 -2.06576 0
M  V30 42168 N 4117.17 5.26288 -1.36093 0
M  V30 42169 H 4120.97 2.70003 -1.16085 0
M  V30 42170 H 4118.49 1.44934 -0.732659 0
M  V30 42171 H 4120.48 4.07394 0.885177 0
M  V30 42172 H 4119.14 2.97406 1.30307 0
M  V30 42173 H 4120.16 4.81711 -1.90197 0
M  V30 42174 H 4116.83 4.1336 0.586529 0
M  V30 42175 H 4118.22 6.01745 -2.98919 0
M  V30 42176 N 4120.94 0.644219 1.43832 0
M  V30 42177 C 4122.35 0.234813 1.85217 0
M  V30 42178 C 4122.7 -1.21668 1.5392 0
M  V30 42179 O 4121.83 -1.92749 0.983711 0
M  V30 42180 C 4122.42 0.419386 3.36194 0
M  V30 42181 C 4120.98 0.0643766 3.76345 0
M  V30 42182 C 4120.13 0.726553 2.67613 0
M  V30 42183 H 4123.08 0.848504 1.34112 0
M  V30 42184 H 4123.1 -0.337804 3.78998 0
M  V30 42185 H 4122.61 1.47588 3.58942 0
M  V30 42186 H 4120.72 -0.989876 3.59211 0
M  V30 42187 H 4120.83 0.483565 4.76653 0
M  V30 42188 H 4119.19 0.160619 2.54193 0
M  V30 42189 H 4119.98 1.7859 2.9319 0
M  V30 42190 N 4122.42 -1.52811 0.385571 0
M  V30 42191 C 4123.38 -2.24952 -0.439254 0
M  V30 42192 C 4124.38 -1.26453 -0.993293 0
M  V30 42193 O 4125.57 -1.50579 -0.875885 0
M  V30 42194 C 4122.71 -3.00169 -1.6159 0
M  V30 42195 H 4123.9 -2.99283 0.192285 0
M  V30 42196 H 4121.45 -1.55693 0.137616 0
M  V30 42197 H 4122.19 -2.30129 -2.28497 0
M  V30 42198 H 4121.97 -3.72461 -1.22537 0
M  V30 42199 H 4123.46 -3.54954 -2.19995 0
M  V30 42200 N 4123.9 -0.115287 -1.57178 0
M  V30 42201 C 4124.83 0.833004 -2.18136 0
M  V30 42202 C 4125.81 1.27993 -1.12035 0
M  V30 42203 O 4126.99 1.3432 -1.40256 0
M  V30 42204 C 4124.12 2.08458 -2.77781 0
M  V30 42205 C 4123.08 1.77558 -3.89432 0
M  V30 42206 C 4122.4 3.09714 -4.35868 0
M  V30 42207 C 4123.7 1.04678 -5.11703 0
M  V30 42208 H 4125.4 0.325055 -2.9763 0
M  V30 42209 H 4122.94 0.154908 -1.43164 0
M  V30 42210 H 4124.9 2.75252 -3.19083 0
M  V30 42211 H 4123.62 2.61571 -1.95571 0
M  V30 42212 H 4122.28 1.13155 -3.487 0
M  V30 42213 H 4121.93 3.60754 -3.50522 0
M  V30 42214 H 4121.63 2.89814 -5.11157 0
M  V30 42215 H 4123.15 3.77633 -4.79819 0
M  V30 42216 H 4124.57 1.61618 -5.50048 0
M  V30 42217 H 4122.96 0.948859 -5.92551 0
M  V30 42218 H 4124.03 0.0328918 -4.84889 0
M  V30 42219 N 4125.38 1.56801 0.158477 0
M  V30 42220 C 4126.31 2.00428 1.19796 0
M  V30 42221 C 4127.29 0.88193 1.45451 0
M  V30 42222 O 4128.47 1.14893 1.56567 0
M  V30 42223 C 4125.6 2.37512 2.53388 0
M  V30 42224 C 4124.56 3.52826 2.42277 0
M  V30 42225 C 4123.88 3.7569 3.80475 0
M  V30 42226 C 4125.18 4.85865 1.91657 0
M  V30 42227 H 4126.88 2.87513 0.835252 0
M  V30 42228 H 4124.42 1.38323 0.400341 0
M  V30 42229 H 4126.38 2.66631 3.26322 0
M  V30 42230 H 4125.1 1.4735 2.91471 0
M  V30 42231 H 4123.76 3.23855 1.71796 0
M  V30 42232 H 4123.41 2.82797 4.15974 0
M  V30 42233 H 4123.11 4.53286 3.73905 0
M  V30 42234 H 4124.63 4.07222 4.54975 0
M  V30 42235 H 4126.05 5.13776 2.54375 0
M  V30 42236 H 4124.44 5.67188 1.96006 0
M  V30 42237 H 4125.51 4.77003 0.871582 0
M  V30 42238 N 4126.86 -0.427458 1.51692 0
M  V30 42239 C 4128.08 -1.20282 1.68958 0
M  V30 42240 C 4128.51 -1.84002 0.390505 0
M  V30 42241 O 4127.86 -1.69235 -0.650322 0
M  V30 42242 C 4127.91 -2.25527 2.81372 0
M  V30 42243 O 4127.02 -3.31245 2.45663 0
M  V30 42244 H 4126.36 -0.351959 0.563046 0
M  V30 42245 H 4128.89 -0.503553 1.98307 0
M  V30 42246 H 4128.9 -2.70153 3.05747 0
M  V30 42247 H 4127.57 -1.78528 3.75633 0
M  V30 42248 H 4126.15 -2.92026 2.31895 0
M  V30 42249 N 4128.33 -1.42005 -0.683539 0
M  V30 42250 C 4129.61 -1.32494 -1.43892 0
M  V30 42251 C 4129.99 0.041833 -2.11059 0
M  V30 42252 O 4129.34 1.05682 -2.02592 0
M  V30 42253 C 4129.55 -2.48694 -2.44852 0
M  V30 42254 C 4130.9 -2.90411 -3.09753 0
M  V30 42255 O 4131.92 -2.48521 -2.55178 0
M  V30 42256 O 4130.78 -3.62887 -4.08626 0
M  V30 42257 H 4127.87 -0.522055 -0.641395 0
M  V30 42258 H 4130.42 -1.53995 -0.713 0
M  V30 42259 H 4129.19 -3.39847 -1.93958 0
M  V30 42260 H 4128.81 -2.29133 -3.24937 0
M  V30 42261 N 4129.81 0.918989 -1.28033 0
M  V30 42262 C 4131.06 1.6643 -1.14654 0
M  V30 42263 C 4131.38 1.92578 0.306361 0
M  V30 42264 O 4130.65 1.53823 1.21307 0
M  V30 42265 H 4129.23 0.616847 -0.421318 0
M  V30 42266 H 4131.89 1.10299 -1.60686 0
M  V30 42267 H 4130.99 2.62885 -1.68219 0
M  V30 42268 N 4131.29 1.10196 1.12671 0
M  V30 42269 C 4132.24 0.748535 2.18325 0
M  V30 42270 C 4133.21 -0.273979 1.63825 0
M  V30 42271 O 4134.39 -0.153819 1.90179 0
M  V30 42272 C 4131.53 0.183833 3.4461 0
M  V30 42273 C 4130.64 1.26135 4.13176 0
M  V30 42274 C 4129.78 0.658555 5.27102 0
M  V30 42275 C 4128.82 1.71682 5.8753 0
M  V30 42276 N 4127.96 1.13448 6.92874 0
M  V30 42277 H 4132.8 1.65373 2.47903 0
M  V30 42278 H 4130.33 0.826085 1.21714 0
M  V30 42279 H 4132.29 -0.161438 4.16888 0
M  V30 42280 H 4130.92 -0.684602 3.15457 0
M  V30 42281 H 4129.97 1.72378 3.39102 0
M  V30 42282 H 4131.28 2.06254 4.54159 0
M  V30 42283 H 4130.44 0.262587 6.06131 0
M  V30 42284 H 4129.18 -0.174098 4.87389 0
M  V30 42285 H 4128.18 2.12224 5.07189 0
M  V30 42286 H 4129.41 2.55228 6.29314 0
M  V30 42287 H 4127.35 0.323242 6.55203 0
M  V30 42288 H 4127.27 1.87253 7.32443 0
M  V30 42289 H 4128.54 0.764974 7.75737 0
M  V30 42290 N 4132.77 -1.30042 0.890333 0
M  V30 42291 C 4134.01 -1.96598 0.521626 0
M  V30 42292 C 4134.37 -1.68971 -0.920133 0
M  V30 42293 O 4133.66 -0.986969 -1.64224 0
M  V30 42294 C 4133.86 -3.49671 0.739271 0
M  V30 42295 C 4133.68 -3.92176 2.20063 0
M  V30 42296 C 4132.45 -4.17512 2.84626 0
M  V30 42297 C 4134.65 -4.046 3.17496 0
M  V30 42298 N 4132.63 -4.46517 4.21302 0
M  V30 42299 C 4134.01 -4.37549 4.39262 0
M  V30 42300 C 4136.06 -3.87044 3.13212 0
M  V30 42301 C 4134.76 -4.54773 5.57292 0
M  V30 42302 C 4136.79 -4.05471 4.30519 0
M  V30 42303 C 4136.15 -4.38771 5.51053 0
M  V30 42304 H 4132.25 -0.744162 0.240306 0
M  V30 42305 H 4134.83 -1.57168 1.14919 0
M  V30 42306 H 4133.01 -3.88143 0.141156 0
M  V30 42307 H 4134.74 -4.03295 0.336931 0
M  V30 42308 H 4131.49 -4.10917 2.35467 0
M  V30 42309 H 4131.92 -4.65145 4.91904 0
M  V30 42310 H 4136.56 -3.6037 2.21119 0
M  V30 42311 H 4134.28 -4.80287 6.49885 0
M  V30 42312 H 4137.86 -3.9335 4.2868 0
M  V30 42313 H 4136.74 -4.52736 6.40312 0
M  V30 42314 N 4134.25 -0.651838 -1.43488 0
M  V30 42315 C 4135.2 0.0629033 -2.27913 0
M  V30 42316 C 4136.18 0.796116 -1.39824 0
M  V30 42317 O 4137.37 0.678811 -1.63466 0
M  V30 42318 C 4134.5 1.02957 -3.27498 0
M  V30 42319 C 4133.59 0.294904 -4.23073 0
M  V30 42320 N 4133.98 -0.687811 -5.01102 0
M  V30 42321 C 4132.28 0.536541 -4.42761 0
M  V30 42322 C 4132.98 -1.12376 -5.70742 0
M  V30 42323 N 4131.95 -0.458294 -5.41665 0
M  V30 42324 H 4135.75 -0.691204 -2.85656 0
M  V30 42325 H 4133.27 -0.479005 -1.55175 0
M  V30 42326 H 4135.27 1.5564 -3.86758 0
M  V30 42327 H 4133.93 1.78376 -2.71316 0
M  V30 42328 H 4134.94 -1.06648 -5.068 0
M  V30 42329 H 4131.61 1.272 -3.97651 0
M  V30 42330 H 4133 -1.93681 -6.4338 0
M  V30 42331 N 4135.72 1.52604 -0.39367 0
M  V30 42332 C 4136.95 2.06053 0.187064 0
M  V30 42333 C 4137.37 1.26503 1.40151 0
M  V30 42334 O 4136.72 0.312822 1.79799 0
M  V30 42335 C 4136.77 3.57247 0.552856 0
M  V30 42336 O 4136.5 4.33785 -0.61335 0
M  V30 42337 C 4138 4.27057 1.18898 0
M  V30 42338 H 4135.22 0.670449 0.0271924 0
M  V30 42339 H 4137.76 1.96679 -0.560161 0
M  V30 42340 H 4135.92 3.6668 1.24998 0
M  V30 42341 H 4136.33 5.23573 -0.311703 0
M  V30 42342 H 4137.8 5.34075 1.39526 0
M  V30 42343 H 4138.28 3.82549 2.15762 0
M  V30 42344 H 4138.89 4.21953 0.532505 0
M  V30 42345 N 4137.2 0.12362 1.57114 0
M  V30 42346 C 4138.45 -0.534048 1.95642 0
M  V30 42347 C 4138.78 -1.66034 1.00729 0
M  V30 42348 O 4138.06 -1.94447 0.0453462 0
M  V30 42349 C 4138.34 -1.06238 3.44072 0
M  V30 42350 C 4138.19 0.0608111 4.49759 0
M  V30 42351 C 4139.51 -1.95176 3.94454 0
M  V30 42352 H 4136.63 -0.192657 0.711373 0
M  V30 42353 H 4139.27 0.200116 1.88943 0
M  V30 42354 H 4137.42 -1.68802 3.49912 0
M  V30 42355 H 4139.09 0.69629 4.56015 0
M  V30 42356 H 4137.34 0.723308 4.27727 0
M  V30 42357 H 4138.01 -0.350174 5.50888 0
M  V30 42358 H 4140.48 -1.42477 3.90947 0
M  V30 42359 H 4139.36 -2.2906 4.98821 0
M  V30 42360 H 4139.62 -2.88001 3.35422 0
M  V30 42361 N 4138.68 -1.56883 -0.15016 0
M  V30 42362 C 4139.63 -1.98028 -1.18548 0
M  V30 42363 C 4140.6 -0.847378 -1.42859 0
M  V30 42364 O 4141.78 -1.10919 -1.55247 0
M  V30 42365 C 4138.92 -2.36335 -2.51475 0
M  V30 42366 C 4138.03 -3.62901 -2.34365 0
M  V30 42367 C 4137.17 -3.90326 -3.60304 0
M  V30 42368 C 4136.21 -5.10172 -3.38217 0
M  V30 42369 N 4135.35 -5.33623 -4.56279 0
M  V30 42370 H 4140.19 -2.86277 -0.827616 0
M  V30 42371 H 4137.72 -1.41636 -0.397213 0
M  V30 42372 H 4139.68 -2.56574 -3.28977 0
M  V30 42373 H 4138.31 -1.51169 -2.85215 0
M  V30 42374 H 4137.36 -3.50457 -1.47933 0
M  V30 42375 H 4138.67 -4.5056 -2.14002 0
M  V30 42376 H 4137.83 -4.11046 -4.46236 0
M  V30 42377 H 4136.57 -3.01083 -3.83667 0
M  V30 42378 H 4135.57 -4.89329 -2.50674 0
M  V30 42379 H 4136.8 -6.00965 -3.16256 0
M  V30 42380 H 4134.74 -4.47334 -4.79821 0
M  V30 42381 H 4134.66 -6.15545 -4.38908 0
M  V30 42382 H 4135.93 -5.58838 -5.43434 0
M  V30 42383 N 4140.16 0.419408 -1.51917 0
M  V30 42384 C 4141.39 1.18927 -1.69304 0
M  V30 42385 C 4141.8 1.84556 -0.398056 0
M  V30 42386 O 4141.16 1.71462 0.625053 0
M  V30 42387 C 4141.21 2.26004 -2.82143 0
M  V30 42388 O 4140.93 1.63056 -4.06625 0
M  V30 42389 C 4142.43 3.15948 -3.10952 0
M  V30 42390 H 4139.65 0.357771 -0.567663 0
M  V30 42391 H 4142.2 0.494772 -1.98424 0
M  V30 42392 H 4140.35 2.9114 -2.55571 0
M  V30 42393 H 4140.76 2.33963 -4.69427 0
M  V30 42394 H 4142.24 3.87176 -3.93445 0
M  V30 42395 H 4142.72 3.77734 -2.24084 0
M  V30 42396 H 4143.32 2.56494 -3.39251 0
M  V30 42397 N 4141.64 1.42366 0.675998 0
M  V30 42398 C 4142.91 1.33255 1.43187 0
M  V30 42399 C 4143.29 -0.0306394 2.11078 0
M  V30 42400 O 4142.64 -1.04606 2.0315 0
M  V30 42401 C 4142.85 2.49989 2.4353 0
M  V30 42402 C 4144.2 2.9205 3.08208 0
M  V30 42403 O 4145.22 2.49871 2.53857 0
M  V30 42404 O 4144.08 3.65049 4.06696 0
M  V30 42405 H 4141.18 0.52545 0.638617 0
M  V30 42406 H 4143.72 1.54371 0.704823 0
M  V30 42407 H 4142.49 3.40871 1.92153 0
M  V30 42408 H 4142.12 2.30853 3.23717 0
M  V30 42409 N 4143.11 -0.912187 1.28518 0
M  V30 42410 C 4144.34 -1.69275 1.18446 0
M  V30 42411 C 4144.75 -1.87415 -0.259253 0
M  V30 42412 O 4144.1 -1.4021 -1.18688 0
M  V30 42413 C 4144.16 -3.10444 1.81287 0
M  V30 42414 C 4143.82 -3.15583 3.30539 0
M  V30 42415 C 4144.82 -2.96663 4.26951 0
M  V30 42416 C 4142.5 -3.38047 3.71523 0
M  V30 42417 C 4144.5 -3.0012 5.62323 0
M  V30 42418 C 4142.18 -3.41136 5.0702 0
M  V30 42419 C 4143.18 -3.22193 6.0223 0
M  V30 42420 O 4142.87 -3.25047 7.35255 0
M  V30 42421 H 4142.6 -0.535877 0.412082 0
M  V30 42422 H 4145.16 -1.15002 1.70187 0
M  V30 42423 H 4143.39 -3.66266 1.24042 0
M  V30 42424 H 4145.08 -3.70533 1.65711 0
M  V30 42425 H 4145.84 -2.79133 3.96623 0
M  V30 42426 H 4141.72 -3.51836 2.9788 0
M  V30 42427 H 4145.26 -2.85253 6.36613 0
M  V30 42428 H 4141.16 -3.58194 5.36998 0
M  V30 42429 H 4141.93 -3.41398 7.43902 0
M  V30 42430 N 4144.59 -1.10792 -1.12085 0
M  V30 42431 C 4145.84 -0.853881 -1.83948 0
M  V30 42432 C 4146.17 0.618997 -1.84071 0
M  V30 42433 O 4145.45 1.45661 -1.28892 0
M  V30 42434 C 4145.73 -1.40759 -3.3145 0
M  V30 42435 C 4145.58 -2.9476 -3.39759 0
M  V30 42436 C 4146.9 -1.05296 -4.27318 0
M  V30 42437 H 4144.02 -0.311647 -0.667866 0
M  V30 42438 H 4146.66 -1.37168 -1.31472 0
M  V30 42439 H 4144.81 -0.967178 -3.76268 0
M  V30 42440 H 4146.48 -3.47355 -3.03549 0
M  V30 42441 H 4144.73 -3.31173 -2.8019 0
M  V30 42442 H 4145.4 -3.28587 -4.43547 0
M  V30 42443 H 4147.87 -1.43304 -3.90644 0
M  V30 42444 H 4146.75 -1.46725 -5.28926 0
M  V30 42445 H 4147.01 0.037145 -4.42084 0
M  V30 42446 N 4146.07 1.29568 -0.897217 0
M  V30 42447 C 4147.02 2.27791 -0.371475 0
M  V30 42448 C 4147.99 1.56902 0.545059 0
M  V30 42449 O 4149.17 1.84899 0.470837 0
M  V30 42450 C 4146.31 3.42807 0.397176 0
M  V30 42451 C 4145.43 4.28485 -0.54997 0
M  V30 42452 C 4144.56 5.30678 0.235487 0
M  V30 42453 C 4143.6 6.08011 -0.706343 0
M  V30 42454 N 4142.74 7.02086 0.0445529 0
M  V30 42455 H 4147.58 2.72142 -1.21419 0
M  V30 42456 H 4145.11 1.33852 -0.610079 0
M  V30 42457 H 4147.07 4.08264 0.858861 0
M  V30 42458 H 4145.7 2.99491 1.20436 0
M  V30 42459 H 4144.75 3.63224 -1.13017 0
M  V30 42460 H 4146.07 4.82335 -1.27101 0
M  V30 42461 H 4145.22 6.0194 0.758483 0
M  V30 42462 H 4143.96 4.77553 0.989673 0
M  V30 42463 H 4142.96 5.35614 -1.24086 0
M  V30 42464 H 4144.19 6.63224 -1.45982 0
M  V30 42465 H 4142.13 6.51334 0.781051 0
M  V30 42466 H 4142.05 7.53481 -0.616621 0
M  V30 42467 H 4143.32 7.77572 0.547893 0
M  V30 42468 N 4147.55 0.659438 1.4314 0
M  V30 42469 C 4148.96 0.327566 1.56202 0
M  V30 42470 C 4149.16 -1.16798 1.64197 0
M  V30 42471 O 4148.22 -1.953 1.60044 0
M  V30 42472 C 4149.53 1.04439 2.81981 0
M  V30 42473 C 4151.08 1.02524 2.95733 0
M  V30 42474 C 4151.56 1.72308 4.24351 0
M  V30 42475 N 4153.05 1.69102 4.3123 0
M  V30 42476 C 4153.78 2.19966 5.2953 0
M  V30 42477 N 4153.28 2.79147 6.34073 0
M  V30 42478 N 4155.07 2.1043 5.21225 0
M  V30 42479 H 4147.22 1.62987 1.36195 0
M  V30 42480 H 4149.49 0.685781 0.654529 0
M  V30 42481 H 4149.19 2.09952 2.82158 0
M  V30 42482 H 4149.07 0.599871 3.724 0
M  V30 42483 H 4151.45 -0.0215108 2.95092 0
M  V30 42484 H 4151.53 1.5085 2.06586 0
M  V30 42485 H 4151.18 2.76942 4.25753 0
M  V30 42486 H 4151.11 1.21442 5.12405 0
M  V30 42487 H 4153.6 1.25922 3.56303 0
M  V30 42488 H 4153.91 3.15619 7.05411 0
M  V30 42489 H 4152.26 2.8321 6.34679 0
M  V30 42490 H 4155.45 1.63896 4.3847 0
M  V30 42491 H 4155.62 2.50378 5.97674 0
M  V30 42492 N 4149.03 -1.52393 0.401757 0
M  V30 42493 C 4149.97 -2.26809 -0.427346 0
M  V30 42494 C 4150.94 -1.28921 -1.04731 0
M  V30 42495 O 4152.13 -1.57772 -1.07298 0
M  V30 42496 C 4149.27 -3.08731 -1.54205 0
M  V30 42497 C 4148.38 -4.21566 -0.943734 0
M  V30 42498 C 4147.52 -4.90859 -2.03053 0
M  V30 42499 C 4146.56 -5.95668 -1.40876 0
M  V30 42500 N 4145.69 -6.58509 -2.43538 0
M  V30 42501 H 4150.53 -2.97233 0.213682 0
M  V30 42502 H 4148.07 -1.46632 0.117213 0
M  V30 42503 H 4150.03 -3.54527 -2.19923 0
M  V30 42504 H 4148.66 -2.40492 -2.15322 0
M  V30 42505 H 4147.71 -3.79994 -0.175808 0
M  V30 42506 H 4149.02 -4.96771 -0.449472 0
M  V30 42507 H 4148.18 -5.40023 -2.76513 0
M  V30 42508 H 4146.91 -4.15206 -2.55842 0
M  V30 42509 H 4145.92 -5.45831 -0.65945 0
M  V30 42510 H 4147.14 -6.73261 -0.888648 0
M  V30 42511 H 4145.09 -5.85689 -2.95474 0
M  V30 42512 H 4145.01 -7.29365 -1.98903 0
M  V30 42513 H 4146.28 -7.12313 -3.16591 0
M  V30 42514 N 4150.5 -0.131951 -1.57047 0
M  V30 42515 C 4151.75 0.521858 -1.95246 0
M  V30 42516 C 4152.07 1.66383 -1.01694 0
M  V30 42517 O 4151.34 1.95754 -0.075637 0
M  V30 42518 H 4149.92 0.195774 -0.72089 0
M  V30 42519 H 4152.59 -0.203927 -1.9383 0
M  V30 42520 H 4151.68 0.907927 -2.98602 0
M  V30 42521 N 4151.98 1.5696 0.141838 0
M  V30 42522 C 4153.23 1.83631 0.853577 0
M  V30 42523 C 4153.56 0.713623 1.80936 0
M  V30 42524 O 4152.81 -0.296947 1.93434 0
M  V30 42525 C 4153.11 3.16661 1.65712 0
M  V30 42526 C 4152.78 4.4286 0.84767 0
M  V30 42527 C 4151.44 4.77132 0.624374 0
M  V30 42528 C 4153.79 5.20437 0.281938 0
M  V30 42529 C 4151.12 5.86438 -0.175278 0
M  V30 42530 C 4153.47 6.30583 -0.504781 0
M  V30 42531 C 4152.14 6.63401 -0.738606 0
M  V30 42532 H 4151.41 0.671953 0.312346 0
M  V30 42533 H 4154.05 1.91142 0.116973 0
M  V30 42534 H 4152.36 3.04623 2.46398 0
M  V30 42535 H 4154.05 3.34513 2.21138 0
M  V30 42536 H 4150.64 4.15996 1.03178 0
M  V30 42537 H 4154.83 4.9433 0.441719 0
M  V30 42538 H 4150.08 6.10304 -0.365885 0
M  V30 42539 H 4154.26 6.89886 -0.950256 0
M  V30 42540 H 4151.89 7.47934 -1.36008 0
M  V30 42541 N 4153.46 -0.411345 1.52137 0
M  V30 42542 C 4154.71 -1.15558 1.65316 0
M  V30 42543 C 4155.02 -1.91711 0.388084 0
M  V30 42544 O 4156.23 -2.68543 0.399636 0
M  V30 42545 C 4154.68 -2.10303 2.92063 0
M  V30 42546 C 4154.29 -1.39677 4.25669 0
M  V30 42547 C 4156.04 -2.84999 3.14604 0
M  V30 42548 C 4153.94 -2.33058 5.43542 0
M  V30 42549 H 4152.87 -0.435066 0.615819 0
M  V30 42550 H 4155.52 -0.42024 1.78623 0
M  V30 42551 H 4153.91 -2.87381 2.72449 0
M  V30 42552 H 4155.08 -0.679789 4.55758 0
M  V30 42553 H 4153.4 -0.770308 4.09213 0
M  V30 42554 H 4155.99 -3.55004 3.99845 0
M  V30 42555 H 4156.34 -3.47824 2.28745 0
M  V30 42556 H 4156.87 -2.15022 3.3468 0
M  V30 42557 H 4153.61 -1.74883 6.31741 0
M  V30 42558 H 4153.13 -3.02734 5.17795 0
M  V30 42559 H 4154.81 -2.93631 5.76533 0
M  V30 42560 N 4154.94 -1.42722 -0.668439 0
M  V30 42561 C 4156.17 -1.46941 -1.45657 0
M  V30 42562 C 4156.58 -0.0826464 -1.88619 0
M  V30 42563 O 4155.94 0.903972 -1.58539 0
M  V30 42564 C 4155.99 -2.40207 -2.70153 0
M  V30 42565 O 4155.71 -3.73489 -2.28992 0
M  V30 42566 C 4157.21 -2.53512 -3.63657 0
M  V30 42567 H 4154.43 -0.499561 -0.447973 0
M  V30 42568 H 4156.98 -1.87305 -0.820793 0
M  V30 42569 H 4155.13 -2.03079 -3.29905 0
M  V30 42570 H 4155.55 -4.23499 -3.09433 0
M  V30 42571 H 4157.02 -3.22879 -4.4772 0
M  V30 42572 H 4157.5 -1.57506 -4.09986 0
M  V30 42573 H 4158.1 -2.91388 -3.09795 0
M  V30 42574 N 4156.42 0.905358 -1.29 0
M  V30 42575 C 4157.66 1.65777 -1.16816 0
M  V30 42576 C 4158 1.92158 0.280902 0
M  V30 42577 O 4157.27 1.52796 1.20348 0
M  V30 42578 C 4157.55 3.01043 -1.97598 0
M  V30 42579 C 4157.41 2.81764 -3.50613 0
M  V30 42580 C 4158.73 4.01699 -1.79795 0
M  V30 42581 H 4155.85 0.601603 -0.425727 0
M  V30 42582 H 4158.49 1.0491 -1.5841 0
M  V30 42583 H 4156.64 3.52996 -1.62253 0
M  V30 42584 H 4158.31 2.36756 -3.95909 0
M  V30 42585 H 4156.55 2.16657 -3.75822 0
M  V30 42586 H 4157.22 3.77858 -4.02402 0
M  V30 42587 H 4159.7 3.58836 -2.10656 0
M  V30 42588 H 4158.58 4.94292 -2.38676 0
M  V30 42589 H 4158.84 4.35664 -0.751636 0
M  V30 42590 N 4157.9 1.11385 1.11495 0
M  V30 42591 C 4159.17 0.774117 1.7963 0
M  V30 42592 C 4159.55 -0.737916 1.97783 0
M  V30 42593 O 4158.9 -1.6677 1.56205 0
M  V30 42594 C 4159.11 1.53655 3.13355 0
M  V30 42595 C 4160.46 1.71545 3.88404 0
M  V30 42596 O 4161.48 1.50074 3.23042 0
M  V30 42597 O 4160.34 2.07217 5.05691 0
M  V30 42598 H 4157.44 0.28039 0.778017 0
M  V30 42599 H 4159.98 1.21724 1.18243 0
M  V30 42600 H 4158.75 2.56514 2.95493 0
M  V30 42601 H 4158.38 1.08694 3.82454 0
M  V30 42602 N 4159.37 -1.2909 0.904076 0
M  V30 42603 C 4160.62 -1.94994 0.531186 0
M  V30 42604 C 4160.94 -1.7159 -0.926385 0
M  V30 42605 O 4160.21 -1.05013 -1.65376 0
M  V30 42606 H 4158.79 -0.721516 0.193452 0
M  V30 42607 H 4161.45 -1.57259 1.15132 0
M  V30 42608 H 4160.55 -3.03741 0.717465 0
M  V30 42609 N 4160.85 -0.66702 -1.42789 0
M  V30 42610 C 4162.27 -0.335845 -1.56026 0
M  V30 42611 C 4162.47 1.15925 -1.64814 0
M  V30 42612 O 4161.52 1.94448 -1.61078 0
M  V30 42613 C 4162.84 -1.05933 -2.81423 0
M  V30 42614 C 4164.38 -1.0409 -2.95185 0
M  V30 42615 C 4164.86 -1.74556 -4.23432 0
M  V30 42616 N 4166.35 -1.71386 -4.30327 0
M  V30 42617 C 4167.09 -2.22772 -5.28356 0
M  V30 42618 N 4166.58 -2.82505 -6.32584 0
M  V30 42619 N 4168.37 -2.13191 -5.20102 0
M  V30 42620 H 4160.53 -1.63707 -1.35329 0
M  V30 42621 H 4162.79 -0.689242 -0.650883 0
M  V30 42622 H 4162.49 -2.11445 -2.8104 0
M  V30 42623 H 4162.37 -0.619611 -3.72076 0
M  V30 42624 H 4164.76 0.00586101 -2.95099 0
M  V30 42625 H 4164.84 -1.51944 -2.05783 0
M  V30 42626 H 4164.48 -2.79196 -4.24278 0
M  V30 42627 H 4164.41 -1.24158 -5.11754 0
M  V30 42628 H 4166.9 -1.27809 -3.55631 0
M  V30 42629 H 4167.21 -3.19355 -7.03727 0
M  V30 42630 H 4165.56 -2.86572 -6.33168 0
M  V30 42631 H 4168.75 -1.66219 -4.37594 0
M  V30 42632 H 4168.92 -2.53545 -5.96338 0
M  V30 42633 N 4162.33 1.52178 -0.409833 0
M  V30 42634 C 4163.24 2.30771 0.422149 0
M  V30 42635 C 4164.26 1.38526 1.05293 0
M  V30 42636 O 4165.43 1.716 1.05429 0
M  V30 42637 C 4162.5 3.11438 1.5234 0
M  V30 42638 C 4161.56 4.19422 0.915606 0
M  V30 42639 C 4160.79 4.96234 1.96438 0
M  V30 42640 O 4161.01 4.73355 3.18262 0
M  V30 42641 O 4159.95 5.81058 1.57021 0
M  V30 42642 H 4163.77 3.02912 -0.218688 0
M  V30 42643 H 4161.36 1.48395 -0.17302 0
M  V30 42644 H 4163.24 3.6167 2.1627 0
M  V30 42645 H 4161.92 2.4209 2.14882 0
M  V30 42646 H 4160.82 3.73336 0.238998 0
M  V30 42647 H 4162.16 4.91065 0.334093 0
M  V30 42648 N 4163.81 0.140278 1.56974 0
M  V30 42649 C 4165.03 -0.522903 2.007 0
M  V30 42650 C 4165.46 -1.58064 1.01967 0
M  V30 42651 O 4164.82 -1.81299 -0.00557883 0
M  V30 42652 C 4164.86 -1.10647 3.43205 0
M  V30 42653 O 4163.97 -2.22153 3.4745 0
M  V30 42654 H 4163.31 -0.128579 0.651432 0
M  V30 42655 H 4165.84 0.235029 2.03246 0
M  V30 42656 H 4165.85 -1.4368 3.81864 0
M  V30 42657 H 4164.52 -0.331841 4.14574 0
M  V30 42658 H 4163.1 -1.904 3.20628 0
M  V30 42659 N 4165.29 -1.57033 -0.133512 0
M  V30 42660 C 4166.7 -1.73394 -0.692191 0
M  V30 42661 C 4167.05 -0.756767 -1.81018 0
M  V30 42662 O 4166.17 0.0736068 -2.16275 0
M  V30 42663 C 4166.77 -3.14403 -1.26239 0
M  V30 42664 C 4165.33 -3.32319 -1.76751 0
M  V30 42665 C 4164.47 -2.69298 -0.66135 0
M  V30 42666 H 4167.42 -1.58431 0.0922841 0
M  V30 42667 H 4167.45 -3.15149 -2.13216 0
M  V30 42668 H 4166.96 -3.855 -0.448482 0
M  V30 42669 H 4165.06 -2.66241 -2.60666 0
M  V30 42670 H 4165.17 -4.40376 -1.88694 0
M  V30 42671 H 4163.54 -2.30134 -1.09136 0
M  V30 42672 H 4164.32 -3.43009 0.141341 0
M  V30 42673 N 4166.76 0.403271 -1.52353 0
M  V30 42674 C 4167.7 1.51287 -1.70844 0
M  V30 42675 C 4168.67 1.52796 -0.556078 0
M  V30 42676 O 4169.86 1.71416 -0.784149 0
M  V30 42677 C 4166.99 2.89801 -1.75309 0
M  V30 42678 C 4166.03 3.06178 -2.96913 0
M  V30 42679 S 4166.86 2.78876 -4.57152 0
M  V30 42680 C 4168.02 4.19609 -4.64412 0
M  V30 42681 H 4168.25 1.35374 -2.64691 0
M  V30 42682 H 4165.79 0.595228 -1.42465 0
M  V30 42683 H 4167.74 3.69627 -1.78566 0
M  V30 42684 H 4166.41 3.0305 -0.825796 0
M  V30 42685 H 4165.6 4.07532 -2.96536 0
M  V30 42686 H 4165.2 2.34225 -2.91572 0
M  V30 42687 H 4167.49 5.13333 -4.42149 0
M  V30 42688 H 4168.44 4.25007 -5.6637 0
M  V30 42689 H 4168.84 4.04853 -3.93388 0
M  V30 42690 N 4168.24 1.43075 0.66086 0
M  V30 42691 C 4169.49 1.445 1.42294 0
M  V30 42692 C 4169.82 0.0661935 1.94087 0
M  V30 42693 O 4169.1 -0.911775 1.71805 0
M  V30 42694 C 4169.38 2.48105 2.60991 0
M  V30 42695 C 4169.23 3.95231 2.14739 0
M  V30 42696 C 4170.55 2.48533 3.63207 0
M  V30 42697 H 4167.67 0.526165 0.516062 0
M  V30 42698 H 4170.31 1.74577 0.749866 0
M  V30 42699 H 4168.46 2.22588 3.18413 0
M  V30 42700 H 4170.13 4.31777 1.62377 0
M  V30 42701 H 4168.38 4.08428 1.46181 0
M  V30 42702 H 4169.05 4.63323 3.0006 0
M  V30 42703 H 4171.52 2.71257 3.15529 0
M  V30 42704 H 4170.4 3.22979 4.4382 0
M  V30 42705 H 4170.66 1.51633 4.15283 0
M  V30 42706 N 4169.72 -0.898504 1.29478 0
M  V30 42707 C 4170.95 -1.68253 1.20409 0
M  V30 42708 C 4171.36 -1.8733 -0.235108 0
M  V30 42709 O 4170.72 -1.41117 -1.15724 0
M  V30 42710 C 4170.77 -3.06638 1.91456 0
M  V30 42711 O 4170.49 -2.88431 3.29756 0
M  V30 42712 C 4171.99 -4.01048 1.88878 0
M  V30 42713 H 4169.21 -0.525466 0.417285 0
M  V30 42714 H 4171.76 -1.12353 1.70872 0
M  V30 42715 H 4169.91 -3.59311 1.44826 0
M  V30 42716 H 4170.33 -3.76125 3.65555 0
M  V30 42717 H 4171.8 -4.95561 2.43152 0
M  V30 42718 H 4172.28 -4.30606 0.864583 0
M  V30 42719 H 4172.88 -3.54308 2.35257 0
M  V30 42720 N 4171.2 -1.11974 -1.10903 0
M  V30 42721 C 4172.44 -0.873343 -1.83032 0
M  V30 42722 C 4172.78 0.599439 -1.84717 0
M  V30 42723 O 4172.05 1.44286 -1.30429 0
M  V30 42724 C 4172.34 -1.44267 -3.29938 0
M  V30 42725 C 4172.19 -2.98347 -3.36614 0
M  V30 42726 C 4173.51 -1.09822 -4.26177 0
M  V30 42727 H 4170.63 -0.318713 -0.664523 0
M  V30 42728 H 4173.27 -1.38555 -1.3001 0
M  V30 42729 H 4171.42 -1.00703 -3.75221 0
M  V30 42730 H 4173.09 -3.50555 -2.99848 0
M  V30 42731 H 4171.33 -3.34127 -2.76662 0
M  V30 42732 H 4172 -3.33273 -4.40037 0
M  V30 42733 H 4174.48 -1.47439 -3.89103 0
M  V30 42734 H 4173.36 -1.52327 -5.2734 0
M  V30 42735 H 4173.62 -0.00974609 -4.42099 0
M  V30 42736 N 4172.68 1.28609 -0.910909 0
M  V30 42737 C 4173.92 1.95384 -0.543395 0
M  V30 42738 C 4174.26 1.71555 0.910079 0
M  V30 42739 O 4173.53 1.0349 1.64682 0
M  V30 42740 C 4173.81 3.49927 -0.849883 0
M  V30 42741 C 4173.67 3.83169 -2.35588 0
M  V30 42742 C 4174.99 4.38753 -0.344074 0
M  V30 42743 H 4172.1 0.709654 -0.198896 0
M  V30 42744 H 4174.75 1.52027 -1.13963 0
M  V30 42745 H 4172.9 3.86988 -0.342448 0
M  V30 42746 H 4174.57 3.55993 -2.93372 0
M  V30 42747 H 4172.81 3.30314 -2.81203 0
M  V30 42748 H 4173.48 4.91076 -2.52088 0
M  V30 42749 H 4175.96 4.08748 -0.778734 0
M  V30 42750 H 4174.83 5.45746 -0.587626 0
M  V30 42751 H 4175.1 4.35596 0.755532 0
M  V30 42752 N 4174.15 0.674583 1.42433 0
M  V30 42753 C 4175.4 0.196368 2.01144 0
M  V30 42754 C 4175.72 -1.20124 1.53607 0
M  V30 42755 O 4174.99 -1.80655 0.757659 0
M  V30 42756 H 4173.57 0.0696068 0.74375 0
M  V30 42757 H 4176.24 0.871043 1.74353 0
M  V30 42758 H 4175.33 0.197481 3.11475 0
M  V30 42759 N 4175.63 -1.51958 0.417898 0
M  V30 42760 C 4176.91 -1.94426 -0.214 0
M  V30 42761 C 4177.29 -1.35537 -1.61842 0
M  V30 42762 O 4176.64 -0.534645 -2.22157 0
M  V30 42763 C 4176.85 -3.48359 -0.211457 0
M  V30 42764 C 4178.2 -4.22452 -0.42654 0
M  V30 42765 O 4179.22 -3.55014 -0.290431 0
M  V30 42766 O 4178.08 -5.42055 -0.695587 0
M  V30 42767 H 4175.17 -0.814991 -0.140424 0
M  V30 42768 H 4177.72 -1.62932 0.474475 0
M  V30 42769 H 4176.49 -3.83626 0.771154 0
M  V30 42770 H 4176.11 -3.86239 -0.943663 0
M  V30 42771 N 4177.11 -0.1486 -1.56898 0
M  V30 42772 C 4178.36 0.50112 -1.95789 0
M  V30 42773 C 4178.68 1.65295 -1.03453 0
M  V30 42774 O 4177.95 1.95663 -0.0963951 0
M  V30 42775 H 4176.53 0.188117 -0.722925 0
M  V30 42776 H 4179.19 -0.224473 -1.93603 0
M  V30 42777 H 4178.29 0.876205 -2.99548 0
M  V30 42778 N 4178.59 1.57102 0.125182 0
M  V30 42779 C 4179.82 1.88705 0.848403 0
M  V30 42780 C 4180.23 0.739189 1.73728 0
M  V30 42781 O 4179.59 -0.290247 1.80177 0
M  V30 42782 C 4179.64 3.19723 1.68699 0
M  V30 42783 O 4179.36 4.3009 0.833903 0
M  V30 42784 C 4180.86 3.64989 2.5159 0
M  V30 42785 H 4178.08 0.62498 0.244216 0
M  V30 42786 H 4180.63 2.04196 0.111426 0
M  V30 42787 H 4178.78 3.05921 2.37679 0
M  V30 42788 H 4179.19 5.05145 1.41171 0
M  V30 42789 H 4180.67 4.59441 3.0597 0
M  V30 42790 H 4181.15 2.91342 3.28659 0
M  V30 42791 H 4181.75 3.81559 1.87863 0
M  V30 42792 N 4180.07 -0.395186 1.52565 0
M  V30 42793 C 4181 -1.50378 1.71644 0
M  V30 42794 C 4181.98 -1.52499 0.564174 0
M  V30 42795 O 4183.16 -1.70997 0.793228 0
M  V30 42796 C 4180.29 -2.88867 1.76843 0
M  V30 42797 C 4179.33 -3.04599 2.98532 0
M  V30 42798 S 4180.17 -2.76448 4.58625 0
M  V30 42799 C 4181.32 -4.17141 4.66631 0
M  V30 42800 H 4181.56 -1.33969 2.65405 0
M  V30 42801 H 4179.09 -0.587664 1.42779 0
M  V30 42802 H 4181.05 -3.68675 1.80524 0
M  V30 42803 H 4179.71 -3.02608 0.841855 0
M  V30 42804 H 4178.9 -4.05954 2.98693 0
M  V30 42805 H 4178.5 -2.32676 2.9281 0
M  V30 42806 H 4180.8 -5.10981 4.44865 0
M  V30 42807 H 4181.74 -4.21998 5.68616 0
M  V30 42808 H 4182.15 -4.02762 3.95529 0
M  V30 42809 N 4181.54 -1.43423 -0.653263 0
M  V30 42810 C 4182.47 -1.51386 -1.77776 0
M  V30 42811 C 4183.46 -0.368544 -1.6606 0
M  V30 42812 O 4184.64 -0.585753 -1.85156 0
M  V30 42813 C 4181.77 -1.4364 -3.16204 0
M  V30 42814 C 4180.72 -2.56421 -3.42684 0
M  V30 42815 C 4180.05 -2.33729 -4.80911 0
M  V30 42816 C 4181.35 -3.98668 -3.37433 0
M  V30 42817 H 4183.04 -2.45505 -1.7137 0
M  V30 42818 H 4180.59 -1.18161 -0.823041 0
M  V30 42819 H 4182.54 -1.47815 -3.94625 0
M  V30 42820 H 4181.27 -0.460259 -3.23341 0
M  V30 42821 H 4179.93 -2.51599 -2.66634 0
M  V30 42822 H 4179.57 -1.34357 -4.84724 0
M  V30 42823 H 4179.27 -3.0933 -4.99589 0
M  V30 42824 H 4180.8 -2.39687 -5.61589 0
M  V30 42825 H 4182.21 -4.04977 -4.05791 0
M  V30 42826 H 4180.61 -4.74295 -3.67647 0
M  V30 42827 H 4181.68 -4.23808 -2.35617 0
M  V30 42828 N 4183.02 0.891625 -1.29953 0
M  V30 42829 C 4184.3 1.62374 -1.0906 0
M  V30 42830 C 4184.68 2.07965 0.362445 0
M  V30 42831 O 4184.03 1.84155 1.35274 0
M  V30 42832 C 4184.24 2.79837 -2.08548 0
M  V30 42833 C 4185.59 3.50329 -2.39905 0
M  V30 42834 O 4186.61 2.90017 -2.06806 0
M  V30 42835 O 4185.47 4.59078 -2.96495 0
M  V30 42836 H 4182.56 0.713353 -0.418398 0
M  V30 42837 H 4185.11 0.938984 -1.41355 0
M  V30 42838 H 4183.88 2.43404 -3.06382 0
M  V30 42839 H 4183.5 3.56014 -1.77031 0
M  V30 42840 N 4184.5 1.12561 1.10308 0
M  V30 42841 C 4185.75 0.883037 1.82566 0
M  V30 42842 C 4186.08 -0.589635 1.85032 0
M  V30 42843 O 4185.36 -1.43592 1.31193 0
M  V30 42844 C 4185.64 1.46015 3.29168 0
M  V30 42845 C 4185.49 3.00128 3.35027 0
M  V30 42846 C 4186.81 1.12081 4.25589 0
M  V30 42847 H 4183.93 0.322233 0.662824 0
M  V30 42848 H 4186.57 1.39242 1.29273 0
M  V30 42849 H 4184.72 1.02692 3.74682 0
M  V30 42850 H 4186.39 3.52141 2.97984 0
M  V30 42851 H 4184.64 3.35589 2.74886 0
M  V30 42852 H 4185.31 3.35602 4.38264 0
M  V30 42853 H 4187.78 1.49501 3.88315 0
M  V30 42854 H 4186.66 1.55121 5.26525 0
M  V30 42855 H 4186.92 0.0331915 4.42088 0
M  V30 42856 N 4185.98 -1.28124 0.917717 0
M  V30 42857 C 4186.89 -2.30911 0.41438 0
M  V30 42858 C 4187.91 -1.66663 -0.499951 0
M  V30 42859 O 4189.08 -1.97682 -0.385178 0
M  V30 42860 C 4186.15 -3.45089 -0.333825 0
M  V30 42861 C 4185.21 -4.24884 0.614206 0
M  V30 42862 C 4184.44 -5.33609 -0.0983868 0
M  V30 42863 O 4184.66 -5.54929 -1.31946 0
M  V30 42864 O 4183.6 -5.99211 0.568333 0
M  V30 42865 H 4187.42 -2.75981 1.26759 0
M  V30 42866 H 4185.01 -1.3289 0.682684 0
M  V30 42867 H 4186.89 -4.14559 -0.756238 0
M  V30 42868 H 4185.57 -3.02094 -1.16281 0
M  V30 42869 H 4184.47 -3.57987 1.0861 0
M  V30 42870 H 4185.81 -4.71568 1.41012 0
M  V30 42871 N 4187.46 -0.682127 -1.42073 0
M  V30 42872 C 4188.71 -0.207032 -2.01037 0
M  V30 42873 C 4189.03 1.19308 -1.54242 0
M  V30 42874 O 4188.3 1.80251 -0.767229 0
M  V30 42875 H 4186.88 -0.0735501 -0.74337 0
M  V30 42876 H 4189.54 -0.880277 -1.73888 0
M  V30 42877 H 4188.63 -0.213996 -3.11365 0
M  V30 42878 N 4188.94 1.51735 -0.425951 0
M  V30 42879 C 4189.87 2.30355 0.38197 0
M  V30 42880 C 4190.85 1.35278 1.03121 0
M  V30 42881 O 4192.03 1.64193 1.03703 0
M  V30 42882 C 4189.16 3.13727 1.48972 0
M  V30 42883 C 4188.12 4.16989 0.964586 0
M  V30 42884 C 4187.44 4.88811 2.16722 0
M  V30 42885 C 4188.74 5.223 0.00691133 0
M  V30 42886 H 4190.44 2.98143 -0.274096 0
M  V30 42887 H 4187.98 1.43382 -0.133264 0
M  V30 42888 H 4189.93 3.67502 2.06204 0
M  V30 42889 H 4188.66 2.43739 2.17391 0
M  V30 42890 H 4187.32 3.64249 0.414554 0
M  V30 42891 H 4186.97 4.15336 2.83734 0
M  V30 42892 H 4186.67 5.58629 1.82229 0
M  V30 42893 H 4188.19 5.45405 2.74529 0
M  V30 42894 H 4189.6 5.71214 0.488565 0
M  V30 42895 H 4188 5.99579 -0.25003 0
M  V30 42896 H 4189.07 4.75834 -0.933278 0
M  V30 42897 N 4190.41 0.156919 1.56817 0
M  V30 42898 C 4191.66 -0.491701 1.9644 0
M  V30 42899 C 4191.99 -1.64217 1.04225 0
M  V30 42900 O 4191.24 -1.95562 0.0734278 0
M  V30 42901 C 4191.54 -1.02975 3.42244 0
M  V30 42902 C 4191.21 0.00330544 4.509 0
M  V30 42903 C 4189.87 0.287265 4.80342 0
M  V30 42904 C 4192.22 0.705271 5.16406 0
M  V30 42905 C 4189.55 1.27882 5.72593 0
M  V30 42906 C 4191.9 1.68572 6.09726 0
M  V30 42907 C 4190.57 1.97727 6.37542 0
M  V30 42908 H 4189.84 -0.179926 0.718824 0
M  V30 42909 H 4192.48 0.245843 1.89915 0
M  V30 42910 H 4190.79 -1.84483 3.45649 0
M  V30 42911 H 4192.49 -1.54037 3.70235 0
M  V30 42912 H 4189.08 -0.228194 4.27992 0
M  V30 42913 H 4193.26 0.499093 4.93784 0
M  V30 42914 H 4188.52 1.51105 5.92433 0
M  V30 42915 H 4192.69 2.2351 6.59558 0
M  V30 42916 H 4190.32 2.74711 7.08829 0
M  V30 42917 N 4191.89 -1.57166 -0.116849 0
M  V30 42918 C 4193.12 -1.88878 -0.837168 0
M  V30 42919 C 4193.53 -0.746502 -1.7385 0
M  V30 42920 O 4192.87 0.291605 -1.81371 0
M  V30 42921 C 4192.93 -3.15627 -1.72104 0
M  V30 42922 C 4192.6 -4.46064 -0.993788 0
M  V30 42923 C 4193.6 -5.18829 -0.333602 0
M  V30 42924 C 4191.28 -4.9276 -0.974327 0
M  V30 42925 C 4193.27 -6.36512 0.336323 0
M  V30 42926 C 4190.96 -6.1036 -0.300605 0
M  V30 42927 C 4191.96 -6.82084 0.353564 0
M  V30 42928 O 4191.65 -7.97447 1.01653 0
M  V30 42929 H 4191.38 -0.629711 -0.245845 0
M  V30 42930 H 4193.93 -2.05131 -0.105141 0
M  V30 42931 H 4192.16 -2.95463 -2.49477 0
M  V30 42932 H 4193.85 -3.33342 -2.31598 0
M  V30 42933 H 4194.62 -4.83805 -0.340242 0
M  V30 42934 H 4190.5 -4.36836 -1.47293 0
M  V30 42935 H 4194.04 -6.92433 0.847504 0
M  V30 42936 H 4189.94 -6.4484 -0.291735 0
M  V30 42937 H 4190.71 -8.13299 0.921225 0
M  V30 42938 N 4193.37 0.38709 -1.52772 0
M  V30 42939 C 4194.3 1.47938 -1.80656 0
M  V30 42940 C 4195.28 1.56828 -0.658705 0
M  V30 42941 O 4196.47 1.71746 -0.90648 0
M  V30 42942 C 4193.6 2.85528 -1.97714 0
M  V30 42943 C 4192.55 2.91476 -3.13409 0
M  V30 42944 C 4191.88 4.31534 -3.15725 0
M  V30 42945 C 4193.18 2.60949 -4.52441 0
M  V30 42946 H 4194.87 1.24853 -2.72125 0
M  V30 42947 H 4192.42 0.599187 -1.30942 0
M  V30 42948 H 4194.37 3.61948 -2.15804 0
M  V30 42949 H 4193.09 3.09954 -1.02936 0
M  V30 42950 H 4191.75 2.17504 -2.95106 0
M  V30 42951 H 4191.4 4.53003 -2.18626 0
M  V30 42952 H 4191.1 4.36434 -3.93445 0
M  V30 42953 H 4192.62 5.09858 -3.35972 0
M  V30 42954 H 4194.04 3.27086 -4.70837 0
M  V30 42955 H 4192.43 2.77196 -5.32243 0
M  V30 42956 H 4193.5 1.56281 -4.59025 0
M  V30 42957 N 4194.85 1.43768 0.645648 0
M  V30 42958 C 4196.1 1.45497 1.40267 0
M  V30 42959 C 4196.42 0.0832366 1.94822 0
M  V30 42960 O 4195.69 -0.882488 1.74897 0
M  V30 42961 H 4194.27 0.535708 0.520602 0
M  V30 42962 H 4196.93 1.79431 0.760947 0
M  V30 42963 H 4196.02 2.17196 2.24125 0
M  V30 42964 N 4196.33 -0.884721 1.30424 0
M  V30 42965 C 4197.57 -1.63332 1.19026 0
M  V30 42966 C 4197.89 -1.93323 -0.255194 0
M  V30 42967 O 4197.16 -1.56985 -1.17186 0
M  V30 42968 H 4195.74 -0.605459 0.437525 0
M  V30 42969 H 4198.41 -1.06 1.63554 0
M  V30 42970 H 4197.5 -2.58333 1.7513 0
M  V30 42971 N 4197.8 -1.13144 -1.09709 0
M  V30 42972 C 4198.73 -0.8287 -2.183 0
M  V30 42973 C 4199.71 0.210703 -1.6879 0
M  V30 42974 O 4200.9 0.0702636 -1.94073 0
M  V30 42975 C 4198.03 -0.290735 -3.46081 0
M  V30 42976 C 4196.98 -1.26405 -4.08908 0
M  V30 42977 C 4196.31 -0.58598 -5.31479 0
M  V30 42978 C 4197.61 -2.6215 -4.51746 0
M  V30 42979 H 4199.3 -1.73672 -2.43882 0
M  V30 42980 H 4196.85 -0.836469 -1.17214 0
M  V30 42981 H 4198.8 -0.0666249 -4.21347 0
M  V30 42982 H 4197.53 0.652659 -3.20012 0
M  V30 42983 H 4196.19 -1.4741 -3.35657 0
M  V30 42984 H 4195.83 0.362795 -5.0169 0
M  V30 42985 H 4195.53 -1.23532 -5.74468 0
M  V30 42986 H 4197.06 -0.371083 -6.09471 0
M  V30 42987 H 4198.47 -2.4513 -5.18251 0
M  V30 42988 H 4196.87 -3.23232 -5.05609 0
M  V30 42989 H 4197.94 -3.20031 -3.64291 0
M  V30 42990 N 4199.28 1.27635 -0.924498 0
M  V30 42991 C 4200.69 1.76513 -0.608286 0
M  V30 42992 C 4201.04 1.75532 0.876529 0
M  V30 42993 O 4200.17 1.35677 1.68584 0
M  V30 42994 C 4200.76 3.20534 -1.09743 0
M  V30 42995 C 4199.32 3.67091 -0.831946 0
M  V30 42996 C 4198.47 2.47123 -1.258 0
M  V30 42997 H 4201.42 1.13947 -1.10462 0
M  V30 42998 H 4201.44 3.77905 -0.443669 0
M  V30 42999 H 4200.95 3.21216 -2.17812 0
M  V30 43000 H 4199.06 3.71858 0.235076 0
M  V30 43001 H 4199.17 4.56719 -1.44724 0
M  V30 43002 H 4197.53 2.45549 -0.676584 0
M  V30 43003 H 4198.32 2.50517 -2.34726 0
M  V30 43004 N 4200.76 0.689652 1.41709 0
M  V30 43005 C 4201.99 0.225461 2.06171 0
M  V30 43006 C 4202.41 -1.11437 1.51537 0
M  V30 43007 O 4201.77 -1.69632 0.639895 0
M  V30 43008 C 4201.82 0.187153 3.60114 0
M  V30 43009 O 4200.92 -0.839819 4.03758 0
M  V30 43010 H 4200.26 0.111633 0.654549 0
M  V30 43011 H 4202.79 0.942846 1.81581 0
M  V30 43012 H 4202.8 0.0160086 4.07997 0
M  V30 43013 H 4201.48 1.16504 3.99249 0
M  V30 43014 H 4200.05 -0.638511 3.67393 0
M  V30 43015 N 4202.24 -1.51507 0.433991 0
M  V30 43016 C 4203.17 -2.25414 -0.41489 0
M  V30 43017 C 4204.18 -1.29304 -0.989153 0
M  V30 43018 O 4205.37 -1.55081 -0.883862 0
M  V30 43019 C 4202.47 -2.99179 -1.59202 0
M  V30 43020 C 4201.65 -4.22357 -1.13723 0
M  V30 43021 C 4200.7 -4.78731 -2.1841 0
M  V30 43022 O 4199.73 -5.40658 -1.77981 0
M  V30 43023 N 4200.93 -4.62471 -3.50858 0
M  V30 43024 H 4203.7 -2.98902 0.218527 0
M  V30 43025 H 4201.26 -1.59755 0.262698 0
M  V30 43026 H 4203.25 -3.3378 -2.28851 0
M  V30 43027 H 4201.82 -2.28722 -2.13085 0
M  V30 43028 H 4201.04 -3.93288 -0.267928 0
M  V30 43029 H 4202.33 -5.023 -0.810711 0
M  V30 43030 H 4201.73 -4.13137 -3.86438 0
M  V30 43031 H 4200.28 -5.01443 -4.16411 0
M  V30 43032 N 4203.72 -0.165233 -1.56731 0
M  V30 43033 C 4204.95 0.487006 -2.00778 0
M  V30 43034 C 4205.35 1.57756 -1.0445 0
M  V30 43035 O 4204.7 1.83664 -0.0364302 0
M  V30 43036 C 4204.76 1.13074 -3.41254 0
M  V30 43037 C 4204.42 0.182585 -4.56635 0
M  V30 43038 C 4205.42 -0.596756 -5.16464 0
M  V30 43039 C 4203.11 0.080182 -5.02236 0
M  V30 43040 C 4205.1 -1.46576 -6.20318 0
M  V30 43041 C 4202.79 -0.792414 -6.05941 0
M  V30 43042 C 4203.78 -1.56398 -6.64852 0
M  V30 43043 O 4203.47 -2.422 -7.66547 0
M  V30 43044 H 4203.2 0.129635 -0.663454 0
M  V30 43045 H 4205.76 -0.262269 -2.03719 0
M  V30 43046 H 4203.99 1.92802 -3.35208 0
M  V30 43047 H 4205.68 1.68456 -3.69293 0
M  V30 43048 H 4206.44 -0.527779 -4.8212 0
M  V30 43049 H 4202.32 0.670506 -4.56098 0
M  V30 43050 H 4205.87 -2.06845 -6.66229 0
M  V30 43051 H 4201.76 -0.862616 -6.3971 0
M  V30 43052 H 4202.53 -2.35649 -7.83844 0
M  V30 43053 N 4205.19 1.57226 0.108512 0
M  V30 43054 C 4206.13 1.97766 1.1585 0
M  V30 43055 C 4207.14 0.878369 1.37071 0
M  V30 43056 O 4208.33 1.15659 1.35961 0
M  V30 43057 C 4205.43 2.26983 2.51659 0
M  V30 43058 C 4204.6 3.58287 2.50897 0
M  V30 43059 C 4203.66 3.75594 3.68532 0
M  V30 43060 O 4202.69 4.47594 3.51636 0
M  V30 43061 N 4203.89 3.15155 4.87502 0
M  V30 43062 H 4206.65 2.88446 0.813559 0
M  V30 43063 H 4204.21 1.5914 0.297662 0
M  V30 43064 H 4206.21 2.35767 3.28932 0
M  V30 43065 H 4204.78 1.42377 2.78294 0
M  V30 43066 H 4204 3.60594 1.59265 0
M  V30 43067 H 4205.28 4.44571 2.47455 0
M  V30 43068 H 4204.68 2.56646 5.04132 0
M  V30 43069 H 4203.24 3.29444 5.62414 0
M  V30 43070 N 4206.67 -0.378982 1.52975 0
M  V30 43071 C 4207.64 -1.44627 1.77808 0
M  V30 43072 C 4208.64 -1.47154 0.648249 0
M  V30 43073 O 4209.83 -1.48149 0.916373 0
M  V30 43074 C 4206.96 -2.83846 1.88797 0
M  V30 43075 H 4208.15 -1.23887 2.73115 0
M  V30 43076 H 4205.7 -0.611325 1.43849 0
M  V30 43077 H 4206.44 -3.09917 0.955104 0
M  V30 43078 H 4206.22 -2.83411 2.70962 0
M  V30 43079 H 4207.71 -3.61161 2.09648 0
M  V30 43080 N 4208.15 -1.44108 -0.638015 0
M  V30 43081 C 4209.57 -1.27843 -0.95542 0
M  V30 43082 C 4209.77 -0.209186 -2.00411 0
M  V30 43083 O 4208.82 0.407259 -2.49194 0
M  V30 43084 C 4210.14 -2.64779 -1.42523 0
M  V30 43085 C 4211.68 -2.72433 -1.54107 0
M  V30 43086 C 4212.16 -4.09822 -2.04474 0
M  V30 43087 N 4213.65 -4.11964 -2.11755 0
M  V30 43088 C 4214.38 -5.15115 -2.51882 0
M  V30 43089 N 4213.88 -6.28631 -2.91196 0
M  V30 43090 N 4215.67 -5.02469 -2.51955 0
M  V30 43091 H 4207.82 -2.12327 0.0556537 0
M  V30 43092 H 4210.09 -0.947249 -0.0377154 0
M  V30 43093 H 4209.79 -3.44062 -0.729007 0
M  V30 43094 H 4209.67 -2.91203 -2.39751 0
M  V30 43095 H 4212.05 -1.93473 -2.22828 0
M  V30 43096 H 4212.14 -2.49757 -0.552725 0
M  V30 43097 H 4211.78 -4.89255 -1.36351 0
M  V30 43098 H 4211.71 -4.29871 -3.04168 0
M  V30 43099 H 4214.2 -3.30032 -1.84085 0
M  V30 43100 H 4214.51 -7.03157 -3.20608 0
M  V30 43101 H 4212.86 -6.3208 -2.88964 0
M  V30 43102 H 4216.05 -4.12845 -2.20628 0
M  V30 43103 H 4216.22 -5.82983 -2.82904 0
M  V30 43104 N 4209.63 0.877792 -1.30891 0
M  V30 43105 C 4210.58 1.98425 -1.17881 0
M  V30 43106 C 4211.55 1.65967 -0.0665185 0
M  V30 43107 O 4212.73 1.8931 -0.237989 0
M  V30 43108 C 4209.87 3.33585 -0.884043 0
M  V30 43109 C 4208.98 3.78689 -2.07892 0
M  V30 43110 C 4208.12 5.02528 -1.72161 0
M  V30 43111 C 4207.16 5.40059 -2.88101 0
M  V30 43112 N 4206.29 6.55079 -2.52618 0
M  V30 43113 H 4211.13 2.08885 -2.12535 0
M  V30 43114 H 4208.67 1.02268 -1.05734 0
M  V30 43115 H 4210.63 4.11392 -0.693729 0
M  V30 43116 H 4209.26 3.2279 0.0256366 0
M  V30 43117 H 4208.31 2.96729 -2.38025 0
M  V30 43118 H 4209.62 4.02438 -2.94694 0
M  V30 43119 H 4208.78 5.8798 -1.49546 0
M  V30 43120 H 4207.52 4.80665 -0.825381 0
M  V30 43121 H 4206.52 4.5313 -3.11374 0
M  V30 43122 H 4207.75 5.63892 -3.78422 0
M  V30 43123 H 4205.69 6.34778 -1.6551 0
M  V30 43124 H 4205.61 6.78733 -3.32952 0
M  V30 43125 H 4206.88 7.43744 -2.33378 0
M  V30 43126 N 4211.11 1.13725 1.09108 0
M  V30 43127 C 4212.36 0.89565 1.80724 0
M  V30 43128 C 4212.67 -0.579692 1.86813 0
M  V30 43129 O 4213.87 -0.938323 2.5477 0
M  V30 43130 C 4212.33 1.55284 3.24677 0
M  V30 43131 C 4211.94 3.06394 3.26844 0
M  V30 43132 C 4213.68 1.39207 4.01026 0
M  V30 43133 C 4211.59 3.64982 4.65341 0
M  V30 43134 H 4210.52 0.331432 0.677251 0
M  V30 43135 H 4213.17 1.36533 1.226 0
M  V30 43136 H 4211.55 1.01082 3.82882 0
M  V30 43137 H 4212.73 3.67203 2.78386 0
M  V30 43138 H 4211.04 3.22025 2.63987 0
M  V30 43139 H 4213.64 1.80388 5.03353 0
M  V30 43140 H 4213.98 0.337309 4.14931 0
M  V30 43141 H 4214.51 1.90406 3.49271 0
M  V30 43142 H 4211.25 4.70279 4.56637 0
M  V30 43143 H 4210.77 3.08952 5.1411 0
M  V30 43144 H 4212.45 3.64851 5.34315 0
M  V30 43145 N 4212.58 -1.27143 0.931254 0
M  V30 43146 C 4213.83 -1.93824 0.572428 0
M  V30 43147 C 4214.15 -1.73516 -0.889779 0
M  V30 43148 O 4213.42 -1.08497 -1.63111 0
M  V30 43149 H 4212 -0.71725 0.208713 0
M  V30 43150 H 4214.67 -1.54782 1.18442 0
M  V30 43151 H 4213.76 -3.02151 0.781732 0
M  V30 43152 N 4214.06 -0.697157 -1.41342 0
M  V30 43153 C 4215.01 -0.0214616 -2.3259 0
M  V30 43154 C 4216.01 0.766847 -1.51049 0
M  V30 43155 O 4217.21 0.67229 -1.66974 0
M  V30 43156 H 4213.59 0.0118608 -0.751906 0
M  V30 43157 H 4215.56 -0.808076 -2.8725 0
M  V30 43158 C 4214.31 0.899825 -3.35855 0
M  V30 43159 H 4213.63 0.302651 -3.98653 0
M  V30 43160 H 4215.07 1.3409 -4.02239 0
M  V30 43161 C 4213.53 2.01674 -2.69869 0
M  V30 43162 O 4214.06 3.10569 -2.54774 0
M  V30 43163 N 4212.26 1.79494 -2.28539 0
M  V30 43164 H 4211.81 0.909322 -2.41017 0
M  V30 43165 H 4211.77 2.54409 -1.84725 0
M  V30 43166 N 4215.54 1.51274 -0.44202 0
M  V30 43167 C 4216.79 2.01316 0.124404 0
M  V30 43168 C 4217.1 1.33053 1.43374 0
M  V30 43169 O 4218.31 1.7409 2.08339 0
M  V30 43170 C 4216.77 3.58869 0.272244 0
M  V30 43171 C 4216.37 4.36071 -1.02694 0
M  V30 43172 C 4218.12 4.17043 0.792186 0
M  V30 43173 C 4216.02 5.8534 -0.844481 0
M  V30 43174 H 4214.95 0.752323 0.0502671 0
M  V30 43175 H 4217.61 1.74341 -0.572495 0
M  V30 43176 H 4215.99 3.82309 1.03226 0
M  V30 43177 H 4217.16 4.24374 -1.79564 0
M  V30 43178 H 4215.48 3.89371 -1.47576 0
M  V30 43179 H 4218.07 5.26278 0.945257 0
M  V30 43180 H 4218.42 3.76521 1.77589 0
M  V30 43181 H 4218.95 3.97697 0.0903593 0
M  V30 43182 H 4215.69 6.30282 -1.80069 0
M  V30 43183 H 4215.21 5.99688 -0.115654 0
M  V30 43184 H 4216.89 6.45069 -0.499525 0
M  V30 43185 N 4217.02 0.173543 1.56642 0
M  V30 43186 C 4218.25 -0.477043 2.01325 0
M  V30 43187 C 4218.66 -1.56657 1.05376 0
M  V30 43188 O 4218.02 -1.82417 0.0549898 0
M  V30 43189 C 4218.07 -1.05331 3.45814 0
M  V30 43190 O 4217.79 -0.00727415 4.38099 0
M  V30 43191 C 4219.29 -1.7819 4.0591 0
M  V30 43192 H 4216.51 -0.121885 0.659837 0
M  V30 43193 H 4219.06 0.275925 2.0263 0
M  V30 43194 H 4217.21 -1.75676 3.45278 0
M  V30 43195 H 4217.63 -0.43306 5.22709 0
M  V30 43196 H 4219.1 -2.13769 5.08927 0
M  V30 43197 H 4219.58 -2.67773 3.4813 0
M  V30 43198 H 4220.18 -1.12482 4.10156 0
M  V30 43199 N 4218.5 -1.57281 -0.100172 0
M  V30 43200 C 4219.45 -1.98134 -1.12814 0
M  V30 43201 C 4220.43 -0.859026 -1.3605 0
M  V30 43202 O 4221.62 -1.12283 -1.36826 0
M  V30 43203 C 4218.75 -2.40505 -2.44974 0
M  V30 43204 C 4217.84 -3.5941 -2.25134 0
M  V30 43205 N 4218.23 -4.74507 -1.75149 0
M  V30 43206 C 4216.53 -3.65409 -2.5572 0
M  V30 43207 C 4217.23 -5.5647 -1.6946 0
M  V30 43208 N 4216.2 -4.99495 -2.1449 0
M  V30 43209 H 4220.01 -2.84573 -0.734533 0
M  V30 43210 H 4217.52 -1.59459 -0.30767 0
M  V30 43211 H 4219.52 -2.67997 -3.19348 0
M  V30 43212 H 4218.18 -1.55439 -2.85077 0
M  V30 43213 H 4219.19 -4.97356 -1.4442 0
M  V30 43214 H 4215.87 -2.90994 -2.99381 0
M  V30 43215 H 4217.26 -6.58825 -1.31908 0
M  V30 43216 N 4219.98 0.370864 -1.53174 0
M  V30 43217 C 4221.2 1.13929 -1.73306 0
M  V30 43218 C 4221.63 1.82426 -0.458527 0
M  V30 43219 O 4220.98 1.71532 0.587064 0
M  V30 43220 C 4221.03 2.14928 -2.89548 0
M  V30 43221 O 4220.14 3.21899 -2.57788 0
M  V30 43222 H 4219.48 0.33082 -0.575721 0
M  V30 43223 H 4222.01 0.429606 -2.00039 0
M  V30 43224 H 4222.02 2.58619 -3.15563 0
M  V30 43225 H 4220.69 1.64464 -3.82001 0
M  V30 43226 H 4219.27 2.83218 -2.42573 0
M  V30 43227 N 4221.45 1.44444 0.630363 0
M  V30 43228 C 4222.7 1.46548 1.38588 0
M  V30 43229 C 4223.02 0.102262 1.95332 0
M  V30 43230 O 4224.22 0.000827858 2.715 0
M  V30 43231 C 4222.68 2.58002 2.50924 0
M  V30 43232 C 4222.29 4.00534 2.0069 0
M  V30 43233 C 4224.03 2.69327 3.28121 0
M  V30 43234 C 4221.94 5.03411 3.10372 0
M  V30 43235 H 4220.87 0.545231 0.520807 0
M  V30 43236 H 4223.52 1.70512 0.678067 0
M  V30 43237 H 4221.9 2.27279 3.24284 0
M  V30 43238 H 4223.07 4.40829 1.3419 0
M  V30 43239 H 4221.39 3.93459 1.36306 0
M  V30 43240 H 4223.99 3.4336 4.09888 0
M  V30 43241 H 4224.33 1.75171 3.77652 0
M  V30 43242 H 4224.86 2.99464 2.61852 0
M  V30 43243 H 4221.6 5.99198 2.65785 0
M  V30 43244 H 4221.12 4.67709 3.75511 0
M  V30 43245 H 4222.8 5.27146 3.75135 0
M  V30 43246 N 4222.93 -0.870838 1.31355 0
M  V30 43247 C 4224.34 -1.43949 1.18894 0
M  V30 43248 C 4224.69 -1.95127 -0.204927 0
M  V30 43249 O 4223.82 -1.86202 -1.10262 0
M  V30 43250 C 4224.41 -2.61651 2.1523 0
M  V30 43251 C 4222.97 -3.14563 2.06705 0
M  V30 43252 C 4222.12 -1.87274 2.04509 0
M  V30 43253 H 4225.07 -0.67946 1.43419 0
M  V30 43254 H 4225.09 -3.38313 1.7414 0
M  V30 43255 H 4224.6 -2.24372 3.16668 0
M  V30 43256 H 4222.7 -3.56465 1.08458 0
M  V30 43257 H 4222.82 -3.76905 2.95769 0
M  V30 43258 H 4221.18 -2.062 1.49512 0
M  V30 43259 H 4221.96 -1.52234 3.07701 0
M  V30 43260 N 4224.41 -1.14302 -1.08503 0
M  V30 43261 C 4225.37 -0.831851 -2.13572 0
M  V30 43262 C 4226.37 0.163064 -1.59971 0
M  V30 43263 O 4227.56 -0.0651662 -1.74078 0
M  V30 43264 C 4224.69 -0.239855 -3.40055 0
M  V30 43265 H 4225.89 -1.76301 -2.42607 0
M  V30 43266 H 4223.44 -0.948912 -1.24199 0
M  V30 43267 H 4224.18 0.700065 -3.16654 0
M  V30 43268 H 4223.96 -0.956455 -3.80256 0
M  V30 43269 H 4225.45 -0.0393272 -4.17581 0
M  V30 43270 N 4225.89 1.26648 -0.937984 0
M  V30 43271 C 4227.13 1.95661 -0.591287 0
M  V30 43272 C 4227.49 1.71997 0.853285 0
M  V30 43273 O 4228.69 2.34787 1.30876 0
M  V30 43274 C 4226.96 3.45344 -0.920443 0
M  V30 43275 S 4228.52 4.33439 -0.683809 0
M  V30 43276 H 4225.34 0.676789 -0.217894 0
M  V30 43277 H 4227.94 1.53664 -1.20862 0
M  V30 43278 H 4226.65 3.60067 -1.96927 0
M  V30 43279 H 4226.18 3.9231 -0.29271 0
M  V30 43280 H 4228.19 4.94123 0.453519 0
M  V30 43281 N 4227.37 0.704643 1.4097 0
M  V30 43282 C 4228.61 0.236513 2.00309 0
M  V30 43283 C 4228.93 -1.17355 1.56484 0
M  V30 43284 O 4230.13 -1.73963 2.08445 0
M  V30 43285 C 4228.59 0.37194 3.57973 0
M  V30 43286 C 4228.2 1.78795 4.10775 0
M  V30 43287 C 4229.94 -0.0359538 4.24485 0
M  V30 43288 C 4227.85 1.87454 5.60905 0
M  V30 43289 H 4226.78 0.0846688 0.749231 0
M  V30 43290 H 4229.43 0.874153 1.61341 0
M  V30 43291 H 4227.81 -0.334103 3.94588 0
M  V30 43292 H 4228.99 2.52348 3.85561 0
M  V30 43293 H 4227.3 2.14632 3.56822 0
M  V30 43294 H 4229.9 0.00818212 5.34699 0
M  V30 43295 H 4230.24 -1.07614 4.0215 0
M  V30 43296 H 4230.77 0.620138 3.92937 0
M  V30 43297 H 4227.51 2.89556 5.88079 0
M  V30 43298 H 4227.03 1.18298 5.88018 0
M  V30 43299 H 4228.71 1.64161 6.25828 0
M  V30 43300 N 4228.84 -1.51038 0.450036 0
M  V30 43301 C 4230.09 -2.0179 -0.111933 0
M  V30 43302 C 4230.41 -1.33544 -1.42095 0
M  V30 43303 O 4229.68 -0.473995 -1.90079 0
M  V30 43304 H 4228.26 -0.745682 -0.0443557 0
M  V30 43305 H 4230.93 -1.85575 0.595648 0
M  V30 43306 H 4230.02 -3.10853 -0.278688 0
M  V30 43307 N 4230.32 -0.181847 -1.56547 0
M  V30 43308 C 4231.6 0.507304 -1.88907 0
M  V30 43309 C 4231.98 1.80579 -1.09337 0
M  V30 43310 O 4231.33 2.27705 -0.190437 0
M  V30 43311 C 4231.54 0.73898 -3.41087 0
M  V30 43312 C 4232.89 1.06428 -4.11045 0
M  V30 43313 O 4233.91 0.82716 -3.46463 0
M  V30 43314 O 4232.77 1.51216 -5.25163 0
M  V30 43315 H 4229.86 0.26278 -0.78414 0
M  V30 43316 H 4232.41 -0.221071 -1.68254 0
M  V30 43317 H 4231.18 -0.178539 -3.90892 0
M  V30 43318 H 4230.8 1.52029 -3.67387 0
M  V30 43319 N 4231.8 1.57332 0.09183 0
M  V30 43320 C 4233.05 1.86529 0.795902 0
M  V30 43321 C 4233.38 0.771419 1.78221 0
M  V30 43322 O 4232.65 -0.220292 1.93248 0
M  V30 43323 C 4232.94 3.26366 1.52175 0
M  V30 43324 C 4232.79 4.46385 0.553203 0
M  V30 43325 C 4234.11 3.64147 2.47154 0
M  V30 43326 H 4231.23 0.678448 0.287884 0
M  V30 43327 H 4233.87 1.89907 0.0594618 0
M  V30 43328 H 4232.02 3.23618 2.14951 0
M  V30 43329 H 4233.69 4.6125 -0.067805 0
M  V30 43330 H 4231.94 4.33596 -0.133152 0
M  V30 43331 H 4232.61 5.40964 1.09828 0
M  V30 43332 H 4235.08 3.67861 1.94468 0
M  V30 43333 H 4233.96 4.62917 2.94956 0
M  V30 43334 H 4234.22 2.93005 3.31059 0
M  V30 43335 N 4233.28 -0.362736 1.53369 0
M  V30 43336 C 4234.51 -1.12562 1.73601 0
M  V30 43337 C 4234.92 -1.82952 0.466279 0
M  V30 43338 O 4234.28 -1.73664 -0.560985 0
M  V30 43339 C 4234.33 -2.15377 2.90336 0
M  V30 43340 O 4234.05 -1.47852 4.12397 0
M  V30 43341 C 4235.55 -3.0419 3.22464 0
M  V30 43342 H 4232.77 -0.336456 0.58055 0
M  V30 43343 H 4235.32 -0.420788 2.00124 0
M  V30 43344 H 4233.47 -2.81454 2.662 0
M  V30 43345 H 4233.88 -2.16379 4.77787 0
M  V30 43346 H 4235.36 -3.72307 4.07544 0
M  V30 43347 H 4235.84 -3.69157 2.37949 0
M  V30 43348 H 4236.44 -2.43726 3.48537 0
M  V30 43349 N 4234.76 -1.44777 -0.622694 0
M  V30 43350 C 4236 -1.48222 -1.38413 0
M  V30 43351 C 4236.34 -0.117629 -1.93843 0
M  V30 43352 O 4235.61 0.865904 -1.74162 0
M  V30 43353 C 4235.89 -2.54937 -2.54321 0
M  V30 43354 C 4235.75 -4.00785 -2.04185 0
M  V30 43355 C 4237.07 -2.58075 -3.5649 0
M  V30 43356 H 4234.18 -0.539662 -0.50193 0
M  V30 43357 H 4236.83 -1.76503 -0.703316 0
M  V30 43358 H 4234.98 -2.30952 -3.12399 0
M  V30 43359 H 4236.65 -4.35931 -1.50872 0
M  V30 43360 H 4234.89 -4.1216 -1.35301 0
M  V30 43361 H 4235.56 -4.71116 -2.8767 0
M  V30 43362 H 4238.04 -2.79527 -3.08227 0
M  V30 43363 H 4236.91 -3.34632 -4.35101 0
M  V30 43364 H 4237.18 -1.6259 -4.11116 0
M  V30 43365 N 4236.23 0.863859 -1.31815 0
M  V30 43366 C 4237.18 1.99304 -1.1992 0
M  V30 43367 C 4238.18 1.69068 -0.106084 0
M  V30 43368 O 4239.38 1.77988 -0.268392 0
M  V30 43369 H 4235.76 0.653843 -0.371475 0
M  V30 43370 H 4237.73 2.06466 -2.1544 0
M  V30 43371 C 4236.48 3.35041 -0.929652 0
M  V30 43372 H 4235.8 3.58832 -1.76295 0
M  V30 43373 H 4237.24 4.14626 -0.886625 0
M  V30 43374 C 4235.7 3.34888 0.367618 0
M  V30 43375 O 4236.23 3.77162 1.38246 0
M  V30 43376 N 4234.44 2.88021 0.386326 0
M  V30 43377 H 4233.98 2.53814 -0.440039 0
M  V30 43378 H 4233.94 2.88301 1.2542 0
M  V30 43379 N 4237.71 1.14875 1.07895 0
M  V30 43380 C 4238.94 0.944314 1.84655 0
M  V30 43381 C 4239.36 -0.502228 1.81271 0
M  V30 43382 O 4238.72 -1.35761 1.20161 0
M  V30 43383 C 4238.77 1.45628 3.29886 0
M  V30 43384 O 4237.87 0.65182 4.07216 0
M  V30 43385 H 4237.21 0.337232 0.571988 0
M  V30 43386 H 4239.74 1.52725 1.36148 0
M  V30 43387 H 4239.75 1.46672 3.80725 0
M  V30 43388 H 4238.43 2.50942 3.31664 0
M  V30 43389 H 4237.01 0.710555 3.66068 0
M  V30 43390 N 4239.19 -1.26148 0.944687 0
M  V30 43391 C 4240.14 -2.26255 0.455762 0
M  V30 43392 C 4241.11 -1.58817 -0.48645 0
M  V30 43393 O 4242.29 -1.86519 -0.401888 0
M  V30 43394 C 4239.43 -3.44045 -0.269672 0
M  V30 43395 C 4238.55 -4.26149 0.70862 0
M  V30 43396 C 4237.68 -5.31186 -0.0383673 0
M  V30 43397 C 4236.72 -6.0497 0.931515 0
M  V30 43398 N 4235.86 -7.01767 0.216052 0
M  V30 43399 H 4240.7 -2.67449 1.31435 0
M  V30 43400 H 4238.23 -1.31496 0.659337 0
M  V30 43401 H 4240.19 -4.1117 -0.706745 0
M  V30 43402 H 4238.82 -3.03755 -1.09238 0
M  V30 43403 H 4237.87 -3.58779 1.2642 0
M  V30 43404 H 4239.19 -4.77285 1.44915 0
M  V30 43405 H 4238.34 -6.0434 -0.534554 0
M  V30 43406 H 4237.08 -4.80897 -0.81175 0
M  V30 43407 H 4236.08 -5.3064 1.43879 0
M  V30 43408 H 4237.31 -6.57349 1.70496 0
M  V30 43409 H 4235.25 -6.53784 -0.538774 0
M  V30 43410 H 4235.17 -7.50673 0.895845 0
M  V30 43411 H 4236.44 -7.7907 -0.258924 0
M  V30 43412 N 4240.67 -0.712109 -1.40594 0
M  V30 43413 C 4241.6 -0.0179542 -2.29193 0
M  V30 43414 C 4242.61 0.727363 -1.45648 0
M  V30 43415 O 4243.8 0.57532 -1.68974 0
M  V30 43416 C 4240.9 0.998819 -3.23847 0
M  V30 43417 C 4240.08 0.319745 -4.3623 0
M  V30 43418 C 4239.13 1.24142 -5.11347 0
M  V30 43419 O 4238.16 0.727528 -5.64531 0
M  V30 43420 N 4239.36 2.57278 -5.20373 0
M  V30 43421 H 4242.13 -0.778674 -2.89408 0
M  V30 43422 H 4239.69 -0.559459 -1.51927 0
M  V30 43423 H 4241.68 1.6175 -3.7097 0
M  V30 43424 H 4240.25 1.66093 -2.64824 0
M  V30 43425 H 4239.47 -0.47908 -3.91278 0
M  V30 43426 H 4240.76 -0.15177 -5.08574 0
M  V30 43427 H 4240.16 3.0153 -4.7864 0
M  V30 43428 H 4238.71 3.14299 -5.71016 0
M  V30 43429 N 4242.15 1.50797 -0.45804 0
M  V30 43430 C 4243.08 2.31113 0.333023 0
M  V30 43431 C 4244.06 1.37434 1.00229 0
M  V30 43432 O 4245.24 1.66356 1.00196 0
M  V30 43433 C 4242.37 3.16816 1.42284 0
M  V30 43434 C 4241.33 4.18941 0.875919 0
M  V30 43435 C 4240.65 4.93298 2.06305 0
M  V30 43436 C 4241.95 5.22197 -0.103878 0
M  V30 43437 H 4243.65 2.97494 -0.337275 0
M  V30 43438 H 4241.19 1.43067 -0.163647 0
M  V30 43439 H 4243.15 3.71793 1.98363 0
M  V30 43440 H 4241.87 2.48295 2.12172 0
M  V30 43441 H 4240.53 3.65046 0.337199 0
M  V30 43442 H 4240.18 4.21261 2.7486 0
M  V30 43443 H 4239.88 5.62369 1.70338 0
M  V30 43444 H 4241.4 5.51105 2.62898 0
M  V30 43445 H 4242.81 5.72122 0.367292 0
M  V30 43446 H 4241.21 5.98914 -0.377153 0
M  V30 43447 H 4242.28 4.73747 -1.034 0
M  V30 43448 N 4243.63 0.190147 1.56449 0
M  V30 43449 C 4244.9 -0.497278 1.89173 0
M  V30 43450 C 4245.28 -1.79996 1.10293 0
M  V30 43451 O 4244.63 -2.27601 0.202511 0
M  V30 43452 C 4244.84 -0.720881 3.41474 0
M  V30 43453 C 4246.19 -1.04247 4.11604 0
M  V30 43454 O 4247.21 -0.808774 3.46897 0
M  V30 43455 O 4246.07 -1.48429 5.25957 0
M  V30 43456 H 4243.17 -0.258618 0.785522 0
M  V30 43457 H 4245.71 0.229991 1.68134 0
M  V30 43458 H 4244.48 0.199266 3.90792 0
M  V30 43459 H 4244.11 -1.50079 3.68188 0
M  V30 43460 N 4245.1 -1.57379 -0.083485 0
M  V30 43461 C 4246.05 -2.02877 -1.10043 0
M  V30 43462 C 4247.02 -0.907207 -1.39136 0
M  V30 43463 O 4248.21 -1.17404 -1.50403 0
M  V30 43464 C 4245.35 -2.46789 -2.41225 0
M  V30 43465 C 4244.46 -3.72515 -2.18762 0
M  V30 43466 C 4243.59 -4.05257 -3.43425 0
M  V30 43467 C 4242.63 -5.24058 -3.16275 0
M  V30 43468 N 4241.77 -5.52495 -4.33236 0
M  V30 43469 H 4246.61 -2.8953 -0.705452 0
M  V30 43470 H 4244.15 -1.43193 -0.336783 0
M  V30 43471 H 4246.1 -2.70296 -3.17799 0
M  V30 43472 H 4244.73 -1.6313 -2.78547 0
M  V30 43473 H 4243.79 -3.56416 -1.32936 0
M  V30 43474 H 4245.1 -4.59231 -1.947 0
M  V30 43475 H 4244.25 -4.29602 -4.284 0
M  V30 43476 H 4242.99 -3.17084 -3.70552 0
M  V30 43477 H 4242 -4.9952 -2.29694 0
M  V30 43478 H 4243.22 -6.13838 -2.90482 0
M  V30 43479 H 4241.17 -4.67282 -4.60417 0
M  V30 43480 H 4241.08 -6.33607 -4.12406 0
M  V30 43481 H 4242.35 -5.81384 -5.19242 0
M  V30 43482 N 4246.58 0.354597 -1.53559 0
M  V30 43483 C 4247.86 1.1124 -1.60888 0
M  V30 43484 C 4248.24 2.06814 -0.423228 0
M  V30 43485 O 4247.59 2.2087 0.585541 0
M  V30 43486 C 4247.8 1.84182 -2.96442 0
M  V30 43487 C 4249.14 2.38323 -3.51408 0
M  V30 43488 O 4250.17 1.94294 -2.98544 0
M  V30 43489 O 4249.03 3.18843 -4.43849 0
M  V30 43490 H 4246.12 0.51092 -0.6503 0
M  V30 43491 H 4248.67 0.356978 -1.65903 0
M  V30 43492 H 4247.44 1.14493 -3.74175 0
M  V30 43493 H 4247.06 2.66608 -2.94968 0
M  V30 43494 N 4248.06 1.45105 0.615008 0
M  V30 43495 C 4249.28 1.52473 1.40594 0
M  V30 43496 C 4249.71 0.155778 1.87454 0
M  V30 43497 O 4249.07 -0.858181 1.59703 0
M  V30 43498 C 4249.12 2.50744 2.59152 0
M  V30 43499 O 4248.22 2.02012 3.59534 0
M  V30 43500 H 4247.56 0.514263 0.420036 0
M  V30 43501 H 4250.09 1.9039 0.749174 0
M  V30 43502 H 4250.1 2.69308 3.06491 0
M  V30 43503 H 4248.78 3.50172 2.24393 0
M  V30 43504 H 4247.35 1.9329 3.18894 0
M  V30 43505 N 4249.54 -0.856857 1.32271 0
M  V30 43506 C 4250.95 -1.4268 1.20414 0
M  V30 43507 C 4251.3 -1.95333 -0.184219 0
M  V30 43508 O 4250.42 -1.87361 -1.08281 0
M  V30 43509 C 4251.02 -2.59354 2.17993 0
M  V30 43510 C 4249.58 -3.12353 2.10029 0
M  V30 43511 C 4248.73 -1.85094 2.06484 0
M  V30 43512 H 4251.68 -0.664211 1.44132 0
M  V30 43513 H 4251.7 -3.36447 1.77718 0
M  V30 43514 H 4251.21 -2.21001 3.1903 0
M  V30 43515 H 4249.31 -3.55295 1.12233 0
M  V30 43516 H 4249.42 -3.73747 2.9975 0
M  V30 43517 H 4247.79 -2.04602 1.5169 0
M  V30 43518 H 4248.57 -1.48961 3.09298 0
M  V30 43519 N 4251.02 -1.15446 -1.07285 0
M  V30 43520 C 4252.26 -0.931131 -1.8016 0
M  V30 43521 C 4252.59 0.540369 -1.86531 0
M  V30 43522 O 4251.87 1.40063 -1.34954 0
M  V30 43523 C 4252.15 -1.54691 -3.25181 0
M  V30 43524 C 4252.01 -3.08905 -3.26952 0
M  V30 43525 C 4253.32 -1.23325 -4.22468 0
M  V30 43526 H 4250.44 -0.339693 -0.654047 0
M  V30 43527 H 4253.09 -1.42621 -1.25536 0
M  V30 43528 H 4251.24 -1.1259 -3.71828 0
M  V30 43529 H 4252.91 -3.59917 -2.88543 0
M  V30 43530 H 4251.15 -3.42759 -2.65892 0
M  V30 43531 H 4251.82 -3.47104 -4.29212 0
M  V30 43532 H 4254.3 -1.59744 -3.84215 0
M  V30 43533 H 4253.17 -1.69027 -5.22227 0
M  V30 43534 H 4253.43 -0.150392 -4.41844 0
M  V30 43535 N 4252.49 1.25646 -0.951364 0
M  V30 43536 C 4253.72 1.97885 -0.620989 0
M  V30 43537 C 4254.14 1.7027 0.799353 0
M  V30 43538 O 4253.5 0.956699 1.54003 0
M  V30 43539 C 4253.55 3.49649 -0.881934 0
M  V30 43540 O 4252.65 4.1238 0.0409076 0
M  V30 43541 H 4251.99 0.620476 -0.236444 0
M  V30 43542 H 4254.52 1.5985 -1.27707 0
M  V30 43543 H 4254.53 3.99942 -0.806893 0
M  V30 43544 H 4253.21 3.69078 -1.91715 0
M  V30 43545 H 4251.79 3.72801 -0.0860593 0
M  V30 43546 N 4253.97 0.719555 1.40215 0
M  V30 43547 C 4254.93 0.0782263 2.29066 0
M  V30 43548 C 4255.93 -0.683256 1.45562 0
M  V30 43549 O 4257.12 -0.514569 1.66427 0
M  V30 43550 C 4254.26 -0.898977 3.28833 0
M  V30 43551 H 4255.45 0.860837 2.8728 0
M  V30 43552 H 4253 0.484446 1.48603 0
M  V30 43553 H 4253.74 -1.7085 2.75646 0
M  V30 43554 H 4253.52 -0.355785 3.90482 0
M  V30 43555 H 4255.01 -1.34476 3.95356 0
M  V30 43556 N 4255.45 -1.50552 0.466031 0
M  V30 43557 C 4256.7 -2.02297 -0.0907036 0
M  V30 43558 C 4257.02 -1.34837 -1.40176 0
M  V30 43559 O 4256.28 -0.461361 -1.90184 0
M  V30 43560 C 4256.58 -3.55895 -0.327657 0
M  V30 43561 C 4256.24 -4.41805 0.901072 0
M  V30 43562 C 4254.91 -4.65003 1.23797 0
M  V30 43563 C 4257.26 -4.92022 1.71942 0
M  V30 43564 C 4254.59 -5.35663 2.39336 0
M  V30 43565 C 4256.94 -5.63951 2.86605 0
M  V30 43566 C 4255.6 -5.85404 3.20715 0
M  V30 43567 H 4254.87 -0.740256 -0.0331908 0
M  V30 43568 H 4257.52 -1.81217 0.61908 0
M  V30 43569 H 4255.82 -3.75462 -1.11964 0
M  V30 43570 H 4257.52 -3.93493 -0.77231 0
M  V30 43571 H 4254.11 -4.23965 0.628594 0
M  V30 43572 H 4258.3 -4.73958 1.47232 0
M  V30 43573 H 4253.55 -5.50482 2.66044 0
M  V30 43574 H 4257.73 -6.01845 3.50365 0
M  V30 43575 H 4255.35 -6.39934 4.10352 0
M  V30 43576 N 4256.93 -0.198441 -1.56346 0
M  V30 43577 C 4258.16 0.444954 -2.02059 0
M  V30 43578 C 4258.57 1.54961 -1.07855 0
M  V30 43579 O 4257.93 1.82307 -0.0840038 0
M  V30 43580 C 4257.98 0.998159 -3.47446 0
M  V30 43581 O 4257.7 -0.0624246 -4.38056 0
M  V30 43582 C 4259.2 1.7171 -4.08694 0
M  V30 43583 H 4256.42 0.111372 -0.661693 0
M  V30 43584 H 4258.96 -0.308127 -2.02165 0
M  V30 43585 H 4257.12 1.70161 -3.48029 0
M  V30 43586 H 4257.53 0.349847 -5.23332 0
M  V30 43587 H 4259.01 2.05645 -5.12264 0
M  V30 43588 H 4259.48 2.622 -3.52346 0
M  V30 43589 H 4260.09 1.05942 -4.11894 0
M  V30 43590 N 4258.41 1.57421 0.0751377 0
M  V30 43591 C 4259.65 1.87363 0.776073 0
M  V30 43592 C 4259.99 0.790278 1.77393 0
M  V30 43593 O 4259.26 -0.199783 1.93471 0
M  V30 43594 C 4259.54 3.27962 1.48704 0
M  V30 43595 C 4259.4 4.46947 0.505827 0
M  V30 43596 C 4260.72 3.66748 2.43278 0
M  V30 43597 H 4257.83 0.681463 0.280672 0
M  V30 43598 H 4260.48 1.89959 0.0393163 0
M  V30 43599 H 4258.63 3.25879 2.11506 0
M  V30 43600 H 4260.3 4.61152 -0.116723 0
M  V30 43601 H 4258.54 4.3343 -0.179133 0
M  V30 43602 H 4259.21 5.42098 1.04084 0
M  V30 43603 H 4261.69 3.69902 1.90555 0
M  V30 43604 H 4260.56 4.6602 2.90029 0
M  V30 43605 H 4260.83 2.965 3.27933 0
M  V30 43606 N 4259.88 -0.346449 1.53745 0
M  V30 43607 C 4260.83 -1.44558 1.82225 0
M  V30 43608 C 4261.83 -1.54597 0.692538 0
M  V30 43609 O 4263.03 -1.57256 0.875825 0
M  V30 43610 H 4259.41 -0.481938 0.577269 0
M  V30 43611 H 4261.38 -1.1775 2.74185 0
M  V30 43612 C 4260.13 -2.81123 2.04609 0
M  V30 43613 H 4259.45 -2.74164 2.90988 0
M  V30 43614 H 4260.89 -3.57158 2.28503 0
M  V30 43615 C 4259.35 -3.26497 0.830756 0
M  V30 43616 O 4259.88 -4.0169 0.028755 0
M  V30 43617 N 4258.09 -2.83265 0.648796 0
M  V30 43618 H 4257.63 -2.22238 1.30261 0
M  V30 43619 H 4257.59 -3.13978 -0.162917 0
M  V30 43620 N 4261.36 -1.45429 -0.607304 0
M  V30 43621 C 4262.78 -1.29841 -0.928087 0
M  V30 43622 C 4262.98 -0.251649 -1.99922 0
M  V30 43623 O 4262.03 0.35431 -2.50002 0
M  V30 43624 C 4263.35 -2.67742 -1.36875 0
M  V30 43625 C 4264.9 -2.75641 -1.48294 0
M  V30 43626 C 4265.37 -4.14067 -1.95735 0
M  V30 43627 N 4266.86 -4.16363 -2.02969 0
M  V30 43628 C 4267.6 -5.20341 -2.40899 0
M  V30 43629 N 4267.09 -6.34666 -2.77796 0
M  V30 43630 N 4268.89 -5.077 -2.4124 0
M  V30 43631 H 4261.04 -2.12161 0.100679 0
M  V30 43632 H 4263.3 -0.947836 -0.0176143 0
M  V30 43633 H 4263.01 -3.45531 -0.655862 0
M  V30 43634 H 4262.88 -2.96223 -2.3352 0
M  V30 43635 H 4265.27 -1.98156 -2.18674 0
M  V30 43636 H 4265.35 -2.50873 -0.499623 0
M  V30 43637 H 4264.99 -4.92037 -1.25943 0
M  V30 43638 H 4264.92 -4.36226 -2.94981 0
M  V30 43639 H 4267.41 -3.33863 -1.77043 0
M  V30 43640 H 4267.73 -7.098 -3.05621 0
M  V30 43641 H 4266.07 -6.38067 -2.75491 0
M  V30 43642 H 4269.26 -4.17432 -2.11821 0
M  V30 43643 H 4269.43 -5.88853 -2.70475 0
M  V30 43644 N 4262.84 0.84983 -1.32724 0
M  V30 43645 C 4264.08 1.61816 -1.2488 0
M  V30 43646 C 4264.44 1.91102 0.18543 0
M  V30 43647 O 4265.65 2.6599 0.387675 0
M  V30 43648 C 4263.92 2.89991 -2.08902 0
M  V30 43649 S 4265.48 3.8074 -2.18134 0
M  V30 43650 H 4262.29 0.554962 -0.444452 0
M  V30 43651 H 4264.9 1.00602 -1.67629 0
M  V30 43652 H 4263.6 2.6643 -3.12159 0
M  V30 43653 H 4263.13 3.56218 -1.66949 0
M  V30 43654 H 4265.15 4.77921 -1.33438 0
M  V30 43655 N 4264.32 1.16013 1.06671 0
M  V30 43656 C 4265.55 0.961957 1.82839 0
M  V30 43657 C 4265.96 -0.493108 1.82661 0
M  V30 43658 O 4265.3 -1.35393 1.24155 0
M  V30 43659 C 4265.36 1.40766 3.30795 0
M  V30 43660 C 4265.03 2.88185 3.54681 0
M  V30 43661 C 4266.02 3.86211 3.48047 0
M  V30 43662 C 4263.71 3.26015 3.82125 0
M  V30 43663 C 4265.7 5.20071 3.68518 0
M  V30 43664 C 4263.39 4.60045 4.02246 0
M  V30 43665 C 4264.39 5.56882 3.95439 0
M  V30 43666 O 4264.07 6.88489 4.15015 0
M  V30 43667 H 4263.81 0.341348 0.583487 0
M  V30 43668 H 4266.36 1.54357 1.3551 0
M  V30 43669 H 4264.59 0.769495 3.78967 0
M  V30 43670 H 4266.28 1.1775 3.88445 0
M  V30 43671 H 4267.05 3.58331 3.26839 0
M  V30 43672 H 4262.92 2.51221 3.86535 0
M  V30 43673 H 4266.47 5.95642 3.6312 0
M  V30 43674 H 4262.37 4.87637 4.22942 0
M  V30 43675 H 4263.13 6.95009 4.32324 0
M  V30 43676 N 4265.8 -1.25139 0.958014 0
M  V30 43677 C 4266.76 -2.24002 0.485372 0
M  V30 43678 C 4267.76 -1.55411 -0.412789 0
M  V30 43679 O 4268.95 -1.72934 -0.209604 0
M  V30 43680 C 4266.08 -3.39592 -0.298302 0
M  V30 43681 H 4267.27 -2.67329 1.35923 0
M  V30 43682 H 4264.83 -1.37585 0.741627 0
M  V30 43683 H 4265.56 -3.0169 -1.18968 0
M  V30 43684 H 4265.35 -3.9057 0.346101 0
M  V30 43685 H 4266.84 -4.12997 -0.61834 0
M  V30 43686 N 4267.27 -0.726981 -1.39831 0
M  V30 43687 C 4268.52 -0.271824 -2.0097 0
M  V30 43688 C 4268.85 1.13557 -1.57539 0
M  V30 43689 O 4268.13 1.77258 -0.800611 0
M  V30 43690 C 4268.41 -0.364659 -3.58249 0
M  V30 43691 C 4268.26 -1.81124 -4.11721 0
M  V30 43692 C 4269.58 0.257575 -4.39346 0
M  V30 43693 H 4266.7 -0.100245 -0.730151 0
M  V30 43694 H 4269.34 -0.921628 -1.66151 0
M  V30 43695 H 4267.49 0.188581 -3.88042 0
M  V30 43696 H 4269.17 -2.42074 -3.9268 0
M  V30 43697 H 4267.41 -2.33522 -3.65581 0
M  V30 43698 H 4268.08 -1.82752 -5.2087 0
M  V30 43699 H 4270.56 -0.213948 -4.1555 0
M  V30 43700 H 4269.43 0.162231 -5.4866 0
M  V30 43701 H 4269.69 1.3426 -4.2122 0
M  V30 43702 N 4268.75 1.50303 -0.474008 0
M  V30 43703 C 4269.72 2.2713 0.307354 0
M  V30 43704 C 4270.72 1.32029 0.917878 0
M  V30 43705 O 4271.91 1.55429 0.786603 0
M  V30 43706 C 4269.04 3.0908 1.43814 0
M  V30 43707 H 4270.23 2.97653 -0.366449 0
M  V30 43708 H 4267.78 1.54626 -0.228156 0
M  V30 43709 H 4268.52 2.4306 2.14691 0
M  V30 43710 H 4268.3 3.78971 1.00613 0
M  V30 43711 H 4269.79 3.67176 1.98926 0
M  V30 43712 N 4270.23 0.20673 1.56238 0
M  V30 43713 C 4271.16 -0.741508 2.16874 0
M  V30 43714 C 4272.18 -1.16836 1.13372 0
M  V30 43715 O 4273.36 -1.10208 1.40415 0
M  V30 43716 C 4270.46 -2.01423 2.72548 0
M  V30 43717 C 4269.64 -1.74531 4.01071 0
M  V30 43718 C 4268.7 -2.86363 4.41455 0
M  V30 43719 O 4267.72 -2.5547 5.08649 0
M  V30 43720 N 4268.92 -4.14986 4.05915 0
M  V30 43721 H 4271.69 -0.222913 2.9887 0
M  V30 43722 H 4269.25 0.0251788 1.6188 0
M  V30 43723 H 4271.24 -2.75399 2.96542 0
M  V30 43724 H 4269.81 -2.44371 1.9494 0
M  V30 43725 H 4269.03 -0.842738 3.85086 0
M  V30 43726 H 4270.32 -1.53976 4.84942 0
M  V30 43727 H 4269.72 -4.42934 3.5189 0
M  V30 43728 H 4268.28 -4.85553 4.34835 0
M  V30 43729 N 4271.71 -1.57458 -0.0667882 0
M  V30 43730 C 4272.62 -2.07392 -1.09661 0
M  V30 43731 C 4273.63 -1.00448 -1.42078 0
M  V30 43732 O 4274.81 -1.31951 -1.52154 0
M  V30 43733 C 4271.88 -2.51207 -2.38947 0
M  V30 43734 C 4270.94 -3.72471 -2.13456 0
M  V30 43735 C 4270.17 -4.14187 -3.36578 0
M  V30 43736 O 4270.39 -3.55731 -4.45883 0
M  V30 43737 O 4269.33 -5.06938 -3.24496 0
M  V30 43738 H 4273.15 -2.95466 -0.702391 0
M  V30 43739 H 4270.74 -1.46729 -0.281262 0
M  V30 43740 H 4272.62 -2.79888 -3.15025 0
M  V30 43741 H 4271.29 -1.66261 -2.77739 0
M  V30 43742 H 4270.2 -3.48866 -1.35068 0
M  V30 43743 H 4271.53 -4.58285 -1.79542 0
M  V30 43744 N 4273.19 0.33829 -1.53926 0
M  V30 43745 C 4274.44 1.07581 -1.71087 0
M  V30 43746 C 4274.76 1.89012 -0.479531 0
M  V30 43747 O 4274.03 1.89238 0.506533 0
M  V30 43748 H 4272.61 0.400167 -0.630774 0
M  V30 43749 H 4275.27 0.378291 -1.91194 0
M  V30 43750 H 4274.36 1.75021 -2.58407 0
M  V30 43751 N 4274.67 1.45749 0.599583 0
M  V30 43752 C 4275.89 1.53723 1.3848 0
M  V30 43753 C 4276.31 0.172545 1.8801 0
M  V30 43754 O 4275.67 -0.827302 1.62671 0
M  V30 43755 C 4275.72 2.52823 2.58385 0
M  V30 43756 O 4275.44 3.83989 2.10912 0
M  V30 43757 C 4276.94 2.70574 3.51148 0
M  V30 43758 H 4274.16 0.520365 0.423628 0
M  V30 43759 H 4276.7 1.91008 0.730493 0
M  V30 43760 H 4274.86 2.18588 3.1984 0
M  V30 43761 H 4275.27 4.3778 2.88875 0
M  V30 43762 H 4276.75 3.43873 4.31805 0
M  V30 43763 H 4277.22 1.76887 4.02004 0
M  V30 43764 H 4277.83 3.05837 2.9554 0
M  V30 43765 N 4276.14 -0.84278 1.33173 0
M  V30 43766 C 4277.37 -1.62759 1.27253 0
M  V30 43767 C 4277.78 -1.88526 -0.159544 0
M  V30 43768 O 4277.12 -1.46304 -1.11089 0
M  V30 43769 C 4277.19 -3.00398 1.97488 0
M  V30 43770 C 4276.85 -2.97618 3.46803 0
M  V30 43771 C 4277.85 -2.73614 4.42076 0
M  V30 43772 C 4275.53 -3.17878 3.8892 0
M  V30 43773 C 4277.53 -2.69891 5.77441 0
M  V30 43774 C 4275.21 -3.13781 5.2439 0
M  V30 43775 C 4276.21 -2.89817 6.18462 0
M  V30 43776 O 4275.9 -2.85616 7.51451 0
M  V30 43777 H 4275.63 -0.51328 0.439908 0
M  V30 43778 H 4278.19 -1.05819 1.76044 0
M  V30 43779 H 4276.42 -3.59176 1.43282 0
M  V30 43780 H 4278.1 -3.61228 1.85119 0
M  V30 43781 H 4278.87 -2.57717 4.10862 0
M  V30 43782 H 4274.75 -3.35552 3.16111 0
M  V30 43783 H 4278.29 -2.51106 6.50839 0
M  V30 43784 H 4274.19 -3.29226 5.5523 0
M  V30 43785 H 4274.96 -3.01486 7.60952 0
M  V30 43786 N 4277.62 -1.16577 -1.06054 0
M  V30 43787 C 4278.87 -0.948781 -1.78898 0
M  V30 43788 C 4279.2 0.523233 -1.8733 0
M  V30 43789 O 4278.45 1.40437 -1.36294 0
M  V30 43790 C 4278.75 -1.52435 -3.23262 0
M  V30 43791 C 4278.42 -3.01909 -3.34905 0
M  V30 43792 C 4277.08 -3.42712 -3.3779 0
M  V30 43793 C 4279.43 -3.97908 -3.36629 0
M  V30 43794 C 4276.76 -4.78127 -3.40017 0
M  V30 43795 C 4279.11 -5.33212 -3.40394 0
M  V30 43796 C 4277.77 -5.73491 -3.41562 0
M  V30 43797 H 4277.04 -0.347184 -0.654633 0
M  V30 43798 H 4279.69 -1.4533 -1.24705 0
M  V30 43799 H 4278 -0.941327 -3.80324 0
M  V30 43800 H 4279.69 -1.33211 -3.78227 0
M  V30 43801 H 4276.28 -2.69378 -3.33367 0
M  V30 43802 H 4280.47 -3.67449 -3.33609 0
M  V30 43803 H 4275.72 -5.0866 -3.39227 0
M  V30 43804 H 4279.9 -6.07383 -3.40675 0
M  V30 43805 H 4277.52 -6.78401 -3.4304 0
M  V30 43806 N 4279.1 1.2463 -0.964637 0
M  V30 43807 C 4280.38 1.87945 -0.541843 0
M  V30 43808 C 4280.76 1.86921 0.981014 0
M  V30 43809 O 4280.1 1.33969 1.85107 0
M  V30 43810 C 4280.31 3.30204 -1.12988 0
M  V30 43811 C 4281.66 4.06908 -1.21288 0
M  V30 43812 O 4282.69 3.39364 -1.08216 0
M  V30 43813 O 4281.55 5.27753 -1.41913 0
M  V30 43814 H 4278.64 0.807124 -0.180223 0
M  V30 43815 H 4281.19 1.32625 -1.05871 0
M  V30 43816 H 4279.96 3.25433 -2.17277 0
M  V30 43817 H 4279.58 3.93094 -0.596867 0
M  V30 43818 N 4280.58 0.734386 1.39444 0
M  V30 43819 C 4281.83 0.281503 2.0013 0
M  V30 43820 C 4282.15 -1.13501 1.58564 0
M  V30 43821 O 4281.42 -1.77279 0.833599 0
M  V30 43822 H 4280 0.101089 0.740128 0
M  V30 43823 H 4282.66 0.944208 1.70501 0
M  V30 43824 H 4281.75 0.32941 3.10357 0
M  V30 43825 N 4282.06 -1.50049 0.481972 0
M  V30 43826 C 4283.28 -2.07286 -0.0688449 0
M  V30 43827 C 4283.71 -1.34225 -1.31778 0
M  V30 43828 O 4283.06 -0.393166 -1.76986 0
M  V30 43829 C 4283.11 -3.59134 -0.324822 0
M  V30 43830 O 4282.22 -3.87792 -1.40326 0
M  V30 43831 H 4281.56 -0.663762 0.0177928 0
M  V30 43832 H 4284.09 -1.93105 0.676138 0
M  V30 43833 H 4284.1 -4.0411 -0.562064 0
M  V30 43834 H 4282.77 -4.11726 0.58777 0
M  V30 43835 H 4281.35 -3.54644 -1.15247 0
M  V30 43836 N 4283.53 -0.215012 -1.56126 0
M  V30 43837 C 4284.78 0.417628 -1.97738 0
M  V30 43838 C 4285.1 1.60758 -1.10371 0
M  V30 43839 O 4284.37 1.95078 -0.179296 0
M  V30 43840 H 4282.95 0.157286 -0.730254 0
M  V30 43841 H 4285.61 -0.306385 -1.92477 0
M  V30 43842 H 4284.71 0.748368 -3.02995 0
M  V30 43843 N 4285.01 1.57492 0.0584368 0
M  V30 43844 C 4286.24 1.91855 0.76649 0
M  V30 43845 C 4286.65 0.810511 1.7096 0
M  V30 43846 O 4285.99 -0.22409 1.82328 0
M  V30 43847 C 4286.05 3.21797 1.60272 0
M  V30 43848 C 4285.72 4.49445 0.82755 0
M  V30 43849 C 4286.72 5.19709 0.140812 0
M  V30 43850 C 4284.4 4.96036 0.790771 0
M  V30 43851 C 4286.39 6.34825 -0.572329 0
M  V30 43852 C 4284.08 6.11055 0.0738663 0
M  V30 43853 C 4285.08 6.80302 -0.606471 0
M  V30 43854 O 4284.77 7.93125 -1.3118 0
M  V30 43855 H 4284.5 0.638402 0.222304 0
M  V30 43856 H 4287.05 2.0538 0.0289352 0
M  V30 43857 H 4285.28 3.04518 2.38339 0
M  V30 43858 H 4286.97 3.41708 2.19067 0
M  V30 43859 H 4287.74 4.84735 0.160446 0
M  V30 43860 H 4283.62 4.42002 1.30979 0
M  V30 43861 H 4287.16 6.8881 -1.10391 0
M  V30 43862 H 4283.06 6.45479 0.0522057 0
M  V30 43863 H 4283.83 8.0932 -1.22244 0
M  V30 43864 N 4286.49 -0.330122 1.54104 0
M  V30 43865 C 4287.45 -1.38897 1.82319 0
M  V30 43866 C 4288.45 -1.45017 0.694737 0
M  V30 43867 O 4289.64 -1.45159 0.963042 0
M  V30 43868 C 4286.77 -2.77696 1.97732 0
M  V30 43869 H 4287.97 -1.15136 2.76918 0
M  V30 43870 H 4285.52 -0.565251 1.45721 0
M  V30 43871 H 4286.26 -3.06721 1.05322 0
M  V30 43872 H 4286.04 -2.74647 2.79841 0
M  V30 43873 H 4287.53 -3.54309 2.21032 0
M  V30 43874 N 4287.97 -1.46065 -0.591845 0
M  V30 43875 C 4288.93 -1.55529 -1.68354 0
M  V30 43876 C 4289.93 -0.433275 -1.54853 0
M  V30 43877 O 4291.12 -0.697286 -1.59636 0
M  V30 43878 C 4288.25 -1.46688 -3.07726 0
M  V30 43879 H 4289.45 -2.52813 -1.61324 0
M  V30 43880 H 4287 -1.33739 -0.808917 0
M  V30 43881 H 4287.73 -0.506489 -3.2032 0
M  V30 43882 H 4287.52 -2.28086 -3.18935 0
M  V30 43883 H 4289.01 -1.56377 -3.87216 0
M  V30 43884 N 4289.45 0.835705 -1.33618 0
M  V30 43885 C 4290.38 1.96094 -1.26765 0
M  V30 43886 C 4291.36 1.69458 -0.147593 0
M  V30 43887 O 4292.54 1.91238 -0.337884 0
M  V30 43888 C 4289.67 3.3231 -1.00933 0
M  V30 43889 C 4288.63 3.73351 -2.09268 0
M  V30 43890 C 4287.95 5.07408 -1.68644 0
M  V30 43891 C 4289.25 3.868 -3.50975 0
M  V30 43892 H 4290.95 2.02085 -2.20912 0
M  V30 43893 H 4288.49 0.970888 -1.06347 0
M  V30 43894 H 4290.45 4.10601 -0.947881 0
M  V30 43895 H 4289.17 3.26584 -0.0322597 0
M  V30 43896 H 4287.83 2.97325 -2.1446 0
M  V30 43897 H 4287.48 4.98157 -0.696311 0
M  V30 43898 H 4287.18 5.35839 -2.41143 0
M  V30 43899 H 4288.7 5.88172 -1.63971 0
M  V30 43900 H 4290.11 4.55395 -3.48265 0
M  V30 43901 H 4288.51 4.26671 -4.21986 0
M  V30 43902 H 4289.58 2.89159 -3.89249 0
M  V30 43903 N 4290.92 1.17138 1.05434 0
M  V30 43904 C 4292.17 0.959675 1.78656 0
M  V30 43905 C 4292.5 -0.510626 1.87367 0
M  V30 43906 O 4291.78 -1.37899 1.37165 0
M  V30 43907 C 4292.06 1.59844 3.22679 0
M  V30 43908 C 4291.91 3.14068 3.21996 0
M  V30 43909 C 4293.23 1.30031 4.20452 0
M  V30 43910 H 4290.35 0.350055 0.64856 0
M  V30 43911 H 4292.99 1.446 1.23251 0
M  V30 43912 H 4291.14 1.18491 3.69989 0
M  V30 43913 H 4292.82 3.64462 2.82781 0
M  V30 43914 H 4291.06 3.46946 2.60405 0
M  V30 43915 H 4291.73 3.53889 4.23635 0
M  V30 43916 H 4294.21 1.65836 3.81625 0
M  V30 43917 H 4293.08 1.77314 5.19472 0
M  V30 43918 H 4293.34 0.220666 4.41549 0
M  V30 43919 N 4292.4 -1.24116 0.971232 0
M  V30 43920 C 4293.35 -2.25238 0.503652 0
M  V30 43921 C 4294.32 -1.59813 -0.452653 0
M  V30 43922 O 4295.5 -1.8733 -0.362235 0
M  V30 43923 C 4292.64 -3.44539 -0.196634 0
M  V30 43924 C 4291.76 -4.2455 0.798853 0
M  V30 43925 C 4290.89 -5.31148 0.0743137 0
M  V30 43926 C 4289.93 -6.02858 1.05963 0
M  V30 43927 N 4289.07 -7.01151 0.364859 0
M  V30 43928 H 4293.91 -2.64601 1.37079 0
M  V30 43929 H 4291.45 -1.30068 0.687081 0
M  V30 43930 H 4293.4 -4.12577 -0.619371 0
M  V30 43931 H 4292.03 -3.06004 -1.0277 0
M  V30 43932 H 4291.09 -3.56016 1.34002 0
M  V30 43933 H 4292.4 -4.74104 1.55006 0
M  V30 43934 H 4291.55 -6.05338 -0.406244 0
M  V30 43935 H 4290.29 -4.82511 -0.709562 0
M  V30 43936 H 4289.3 -5.27469 1.55103 0
M  V30 43937 H 4290.52 -6.53585 1.84401 0
M  V30 43938 H 4288.47 -6.5478 -0.399976 0
M  V30 43939 H 4288.38 -7.48604 1.05487 0
M  V30 43940 H 4289.65 -7.79444 -0.0936138 0
M  V30 43941 N 4293.88 -0.741771 -1.39052 0
M  V30 43942 C 4294.79 -0.107987 -2.34351 0
M  V30 43943 C 4295.81 0.714192 -1.58667 0
M  V30 43944 O 4296.98 0.64109 -1.90924 0
M  V30 43945 C 4294.05 0.783488 -3.37731 0
M  V30 43946 C 4293.11 -0.0517147 -4.29269 0
M  V30 43947 C 4292.34 0.797306 -5.27711 0
M  V30 43948 O 4292.56 2.03579 -5.32834 0
M  V30 43949 O 4291.5 0.222372 -6.01489 0
M  V30 43950 H 4295.32 -0.894728 -2.90221 0
M  V30 43951 H 4292.91 -0.502518 -1.40695 0
M  V30 43952 H 4294.79 1.29335 -4.01061 0
M  V30 43953 H 4293.47 1.54893 -2.84236 0
M  V30 43954 H 4292.37 -0.607258 -3.69138 0
M  V30 43955 H 4293.71 -0.779531 -4.85988 0
M  V30 43956 N 4295.36 1.49792 -0.489923 0
M  V30 43957 C 4296.61 2.02016 0.0583929 0
M  V30 43958 C 4296.93 1.37264 1.38505 0
M  V30 43959 O 4296.2 0.524224 1.88756 0
M  V30 43960 H 4294.78 0.746596 0.0245697 0
M  V30 43961 H 4297.44 1.8393 -0.64464 0
M  V30 43962 H 4296.54 3.11483 0.196172 0
M  V30 43963 N 4296.84 0.223289 1.5601 0
M  V30 43964 C 4298.07 -0.412153 2.02447 0
M  V30 43965 C 4298.47 -1.53771 1.10233 0
M  V30 43966 O 4297.82 -1.83402 0.104571 0
M  V30 43967 C 4297.88 -1.00331 3.45216 0
M  V30 43968 C 4297.54 -0.0129823 4.56998 0
M  V30 43969 C 4298.54 0.788027 5.13893 0
M  V30 43970 C 4296.23 0.106275 5.02188 0
M  V30 43971 C 4298.22 1.69498 6.1445 0
M  V30 43972 C 4295.91 1.01676 6.02582 0
M  V30 43973 C 4296.9 1.80966 6.5859 0
M  V30 43974 O 4296.59 2.70483 7.5703 0
M  V30 43975 H 4296.32 -0.104922 0.667808 0
M  V30 43976 H 4298.88 0.337697 2.02605 0
M  V30 43977 H 4297.11 -1.80228 3.42133 0
M  V30 43978 H 4298.8 -1.54634 3.75291 0
M  V30 43979 H 4299.56 0.706351 4.79829 0
M  V30 43980 H 4295.44 -0.500766 4.58272 0
M  V30 43981 H 4298.99 2.3143 6.58093 0
M  V30 43982 H 4294.88 1.09945 6.36068 0
M  V30 43983 H 4295.65 2.64578 7.74558 0
M  V30 43984 N 4298.31 -1.5752 -0.0500839 0
M  V30 43985 C 4299.26 -2.05166 -1.05715 0
M  V30 43986 C 4300.23 -0.936516 -1.37181 0
M  V30 43987 O 4301.42 -1.20568 -1.47878 0
M  V30 43988 C 4298.56 -2.5185 -2.35936 0
M  V30 43989 C 4297.67 -3.77071 -2.10811 0
M  V30 43990 C 4296.8 -4.1245 -3.34751 0
M  V30 43991 C 4295.84 -5.30649 -3.05088 0
M  V30 43992 N 4294.98 -5.61561 -4.21419 0
M  V30 43993 H 4299.82 -2.90961 -0.643879 0
M  V30 43994 H 4297.36 -1.43875 -0.306334 0
M  V30 43995 H 4299.32 -2.76976 -3.11994 0
M  V30 43996 H 4297.95 -1.69002 -2.75024 0
M  V30 43997 H 4297 -3.59155 -1.25346 0
M  V30 43998 H 4298.31 -4.63258 -1.84915 0
M  V30 43999 H 4297.46 -4.38592 -4.19192 0
M  V30 44000 H 4296.2 -3.24873 -3.63743 0
M  V30 44001 H 4295.21 -5.0428 -2.19047 0
M  V30 44002 H 4296.43 -6.19861 -2.77396 0
M  V30 44003 H 4294.38 -4.76943 -4.50401 0
M  V30 44004 H 4294.3 -6.42212 -3.98873 0
M  V30 44005 H 4295.56 -5.92267 -5.06793 0
M  V30 44006 N 4299.79 0.321945 -1.54277 0
M  V30 44007 C 4301.04 1.06127 -1.72815 0
M  V30 44008 C 4301.37 1.87619 -0.501255 0
M  V30 44009 O 4300.65 1.87916 0.501773 0
M  V30 44010 C 4300.93 1.98465 -3.00472 0
M  V30 44011 C 4300.78 1.20291 -4.33417 0
M  V30 44012 C 4302.1 2.97964 -3.23891 0
M  V30 44013 H 4299.22 0.384421 -0.6288 0
M  V30 44014 H 4301.86 0.337778 -1.86973 0
M  V30 44015 H 4300.01 2.60156 -2.88532 0
M  V30 44016 H 4301.68 0.610479 -4.57243 0
M  V30 44017 H 4299.93 0.505217 -4.30848 0
M  V30 44018 H 4300.6 1.88101 -5.18962 0
M  V30 44019 H 4303.07 2.46395 -3.35304 0
M  V30 44020 H 4301.95 3.59756 -4.14569 0
M  V30 44021 H 4302.21 3.70509 -2.41196 0
M  V30 44022 N 4301.27 1.46377 0.58409 0
M  V30 44023 C 4302.2 1.52868 1.70775 0
M  V30 44024 C 4303.22 0.41715 1.57365 0
M  V30 44025 O 4304.4 0.68544 1.64815 0
M  V30 44026 C 4301.5 1.39156 3.09013 0
M  V30 44027 C 4300.68 2.64404 3.48439 0
M  V30 44028 C 4299.74 2.44911 4.65731 0
M  V30 44029 O 4298.76 3.18629 4.71661 0
M  V30 44030 N 4299.96 1.50987 5.6052 0
M  V30 44031 H 4302.73 2.49752 1.65662 0
M  V30 44032 H 4300.29 1.42415 0.770033 0
M  V30 44033 H 4302.28 1.23891 3.8527 0
M  V30 44034 H 4300.85 0.504584 3.08501 0
M  V30 44035 H 4300.07 2.94621 2.61901 0
M  V30 44036 H 4301.36 3.47608 3.71546 0
M  V30 44037 H 4300.76 0.901959 5.58463 0
M  V30 44038 H 4299.32 1.41685 6.36214 0
M  V30 44039 N 4302.75 -0.828607 1.34059 0
M  V30 44040 C 4303.97 -1.62154 1.29309 0
M  V30 44041 C 4304.4 -1.87642 -0.131223 0
M  V30 44042 O 4303.76 -1.44787 -1.09116 0
M  V30 44043 C 4303.81 -2.94283 2.08399 0
M  V30 44044 O 4302.91 -3.86083 1.44962 0
M  V30 44045 H 4302.25 -0.493385 0.444373 0
M  V30 44046 H 4304.78 -1.03011 1.76776 0
M  V30 44047 H 4304.79 -3.43896 2.19545 0
M  V30 44048 H 4303.47 -2.75055 3.11958 0
M  V30 44049 H 4302.04 -3.44589 1.42524 0
M  V30 44050 N 4304.23 -1.17696 -1.04812 0
M  V30 44051 C 4305.5 -0.87753 -1.74811 0
M  V30 44052 C 4305.88 0.621348 -2.01749 0
M  V30 44053 O 4305.23 1.57379 -1.65662 0
M  V30 44054 C 4305.44 -1.71663 -3.03863 0
M  V30 44055 C 4306.79 -1.93898 -3.77742 0
M  V30 44056 O 4307.81 -1.68653 -3.13743 0
M  V30 44057 O 4306.67 -2.36348 -4.92749 0
M  V30 44058 H 4303.77 -0.325274 -0.760346 0
M  V30 44059 H 4306.31 -1.28411 -1.10945 0
M  V30 44060 H 4305.09 -2.73306 -2.80035 0
M  V30 44061 H 4304.71 -1.30808 -3.75467 0
M  V30 44062 N 4305.71 1.23599 -0.977801 0
M  V30 44063 C 4306.95 1.92229 -0.6462 0
M  V30 44064 C 4307.28 1.76138 0.817862 0
M  V30 44065 O 4306.56 1.12074 1.58965 0
M  V30 44066 C 4306.84 3.4493 -1.03418 0
M  V30 44067 C 4306.7 3.70142 -2.55568 0
M  V30 44068 C 4308.01 4.36312 -0.576164 0
M  V30 44069 H 4305.13 0.698114 -0.236234 0
M  V30 44070 H 4307.78 1.45773 -1.21862 0
M  V30 44071 H 4305.93 3.84628 -0.547101 0
M  V30 44072 H 4307.6 3.39941 -3.11829 0
M  V30 44073 H 4305.84 3.14943 -2.98317 0
M  V30 44074 H 4306.51 4.77023 -2.77764 0
M  V30 44075 H 4308.99 4.04045 -0.994308 0
M  V30 44076 H 4307.86 5.41863 -0.876088 0
M  V30 44077 H 4308.12 4.38989 0.52357 0
M  V30 44078 N 4307.18 0.749135 1.38657 0
M  V30 44079 C 4308.13 0.107771 2.3235 0
M  V30 44080 C 4309.13 -0.710257 1.53791 0
M  V30 44081 O 4310.33 -0.609855 1.69354 0
M  V30 44082 H 4306.71 0.0160539 0.751829 0
M  V30 44083 H 4308.68 0.91413 2.84053 0
M  V30 44084 C 4307.43 -0.774555 3.38963 0
M  V30 44085 H 4306.75 -0.154485 3.99501 0
M  V30 44086 H 4308.19 -1.19068 4.06938 0
M  V30 44087 C 4306.65 -1.91519 2.77168 0
M  V30 44088 O 4307.18 -3.009 2.66125 0
M  V30 44089 N 4305.38 -1.70888 2.35044 0
M  V30 44090 H 4304.93 -0.819244 2.44226 0
M  V30 44091 H 4304.89 -2.47378 1.9404 0
M  V30 44092 N 4308.66 -1.4953 0.49786 0
M  V30 44093 C 4309.91 -2.01639 -0.0496008 0
M  V30 44094 C 4310.22 -1.38283 -1.38337 0
M  V30 44095 O 4311.43 -1.81702 -2.01734 0
M  V30 44096 C 4309.89 -3.59632 -0.138865 0
M  V30 44097 C 4309.49 -4.31959 1.18807 0
M  V30 44098 C 4311.24 -4.19696 -0.636857 0
M  V30 44099 C 4309.14 -5.81802 1.06114 0
M  V30 44100 H 4308.07 -0.75367 -0.0223105 0
M  V30 44101 H 4310.73 -1.72096 0.636806 0
M  V30 44102 H 4309.11 -3.85877 -0.889653 0
M  V30 44103 H 4310.28 -4.17417 1.95191 0
M  V30 44104 H 4308.6 -3.83626 1.61926 0
M  V30 44105 H 4311.19 -5.29424 -0.749281 0
M  V30 44106 H 4311.54 -3.82853 -1.63492 0
M  V30 44107 H 4312.07 -3.97759 0.0573057 0
M  V30 44108 H 4308.81 -6.23164 2.03338 0
M  V30 44109 H 4308.33 -5.98846 0.338145 0
M  V30 44110 H 4310.01 -6.4277 0.738594 0
M  V30 44111 N 4310.14 -0.23156 -1.5589 0
M  V30 44112 C 4311.37 0.401994 -2.02957 0
M  V30 44113 C 4311.78 1.52638 -1.11117 0
M  V30 44114 O 4311.14 1.82087 -0.122655 0
M  V30 44115 C 4311.19 0.924236 -3.49486 0
M  V30 44116 O 4310.91 -0.155329 -4.37825 0
M  V30 44117 C 4312.41 1.63003 -4.12244 0
M  V30 44118 H 4309.63 0.0973113 -0.663906 0
M  V30 44119 H 4312.18 -0.35094 -2.01466 0
M  V30 44120 H 4310.33 1.6274 -3.5156 0
M  V30 44121 H 4310.75 0.238762 -5.23956 0
M  V30 44122 H 4312.22 1.94733 -5.1651 0
M  V30 44123 H 4312.7 2.54668 -3.57828 0
M  V30 44124 H 4313.3 0.971814 -4.14048 0
M  V30 44125 N 4311.62 1.57545 0.0417295 0
M  V30 44126 C 4312.55 2.08762 1.04598 0
M  V30 44127 C 4313.53 0.987392 1.38508 0
M  V30 44128 O 4314.71 1.2619 1.47613 0
M  V30 44129 C 4311.84 2.55653 2.35072 0
M  V30 44130 C 4310.8 3.69825 2.15437 0
M  V30 44131 C 4310.12 4.02877 3.51559 0
M  V30 44132 C 4311.42 4.98743 1.55089 0
M  V30 44133 H 4313.12 2.92917 0.619681 0
M  V30 44134 H 4310.66 1.40912 0.296634 0
M  V30 44135 H 4312.62 2.90102 3.05645 0
M  V30 44136 H 4311.34 1.68565 2.79738 0
M  V30 44137 H 4310 3.35706 1.473 0
M  V30 44138 H 4309.65 3.12874 3.93851 0
M  V30 44139 H 4309.35 4.79773 3.39252 0
M  V30 44140 H 4310.87 4.39849 4.23515 0
M  V30 44141 H 4312.29 5.3123 2.15564 0
M  V30 44142 H 4310.68 5.80164 1.53393 0
M  V30 44143 H 4311.75 4.82154 0.515352 0
M  V30 44144 N 4313.1 -0.313759 1.54445 0
M  V30 44145 C 4314.01 -1.40933 1.8755 0
M  V30 44146 C 4315.02 -1.56116 0.768369 0
M  V30 44147 O 4316.2 -1.71024 1.06361 0
M  V30 44148 C 4313.26 -2.75504 2.10472 0
M  V30 44149 C 4312.32 -2.69415 3.34237 0
M  V30 44150 C 4311.56 -3.97567 3.56056 0
M  V30 44151 O 4311.78 -4.96311 2.81126 0
M  V30 44152 O 4310.71 -4.00232 4.49553 0
M  V30 44153 H 4314.54 -1.15863 2.8073 0
M  V30 44154 H 4312.12 -0.508674 1.40474 0
M  V30 44155 H 4314.01 -3.55147 2.26823 0
M  V30 44156 H 4312.68 -3.00444 1.20479 0
M  V30 44157 H 4311.59 -1.88288 3.23262 0
M  V30 44158 H 4312.92 -2.49428 4.24319 0
M  V30 44159 N 4314.57 -1.46684 -0.576319 0
M  V30 44160 C 4315.82 -1.52325 -1.33429 0
M  V30 44161 C 4316.15 -0.177579 -1.93688 0
M  V30 44162 O 4315.4 0.827489 -1.77345 0
M  V30 44163 C 4315.7 -2.57483 -2.47865 0
M  V30 44164 C 4315.37 -4.01318 -2.05559 0
M  V30 44165 C 4314.03 -4.40476 -1.93737 0
M  V30 44166 C 4316.38 -4.91647 -1.73012 0
M  V30 44167 C 4313.71 -5.67821 -1.47634 0
M  V30 44168 C 4316.06 -6.19435 -1.28385 0
M  V30 44169 C 4314.73 -6.57494 -1.15145 0
M  V30 44170 H 4314 -0.557396 -0.488252 0
M  V30 44171 H 4316.64 -1.80192 -0.648311 0
M  V30 44172 H 4314.95 -2.23301 -3.21938 0
M  V30 44173 H 4316.65 -2.59075 -3.06074 0
M  V30 44174 H 4313.24 -3.70368 -2.15698 0
M  V30 44175 H 4317.42 -4.62107 -1.81027 0
M  V30 44176 H 4312.68 -5.96075 -1.36031 0
M  V30 44177 H 4316.85 -6.88852 -1.02256 0
M  V30 44178 H 4314.48 -7.56063 -0.79197 0
M  V30 44179 N 4316.05 0.821486 -1.34497 0
M  V30 44180 C 4317.47 1.11482 -1.1421 0
M  V30 44181 C 4317.67 2.01424 0.0554375 0
M  V30 44182 O 4316.72 2.41701 0.730532 0
M  V30 44183 C 4318.04 1.76015 -2.43802 0
M  V30 44184 C 4319.58 1.88503 -2.49871 0
M  V30 44185 C 4320.06 2.56452 -3.79468 0
M  V30 44186 N 4321.55 2.6395 -3.80637 0
M  V30 44187 C 4322.29 3.17258 -4.77635 0
M  V30 44188 N 4321.78 3.71119 -5.85015 0
M  V30 44189 N 4323.57 3.15673 -4.65088 0
M  V30 44190 H 4315.73 0.22327 -2.11223 0
M  V30 44191 H 4317.99 0.161611 -0.934123 0
M  V30 44192 H 4317.69 1.17391 -3.3153 0
M  V30 44193 H 4317.57 2.75869 -2.57248 0
M  V30 44194 H 4319.96 2.46275 -1.62581 0
M  V30 44195 H 4320.04 0.87548 -2.40352 0
M  V30 44196 H 4319.68 1.99334 -4.67149 0
M  V30 44197 H 4319.61 3.57914 -3.86271 0
M  V30 44198 H 4322.1 2.25775 -3.03042 0
M  V30 44199 H 4322.41 4.1005 -6.55041 0
M  V30 44200 H 4320.76 3.69358 -5.88727 0
M  V30 44201 H 4323.95 2.72863 -3.80347 0
M  V30 44202 H 4324.12 3.56913 -5.40849 0
M  V30 44203 N 4317.53 1.1825 1.04186 0
M  V30 44204 C 4318.76 1.00198 1.81019 0
M  V30 44205 C 4319.17 -0.449625 1.83368 0
M  V30 44206 O 4318.53 -1.3123 1.26827 0
M  V30 44207 C 4318.58 1.54808 3.26676 0
M  V30 44208 O 4318.3 2.94285 3.24543 0
M  V30 44209 C 4319.8 1.41357 4.20159 0
M  V30 44210 H 4317.02 0.353887 0.570092 0
M  V30 44211 H 4319.57 1.56771 1.31313 0
M  V30 44212 H 4317.72 1.02413 3.73618 0
M  V30 44213 H 4318.14 3.19729 4.15781 0
M  V30 44214 H 4319.61 1.84366 5.20301 0
M  V30 44215 H 4320.09 0.362106 4.37705 0
M  V30 44216 H 4320.69 1.92817 3.7908 0
M  V30 44217 N 4319.01 -1.23079 0.984342 0
M  V30 44218 C 4320.23 -1.96169 0.673236 0
M  V30 44219 C 4320.66 -1.7233 -0.753928 0
M  V30 44220 O 4320.02 -0.997194 -1.51412 0
M  V30 44221 C 4320.06 -3.47188 0.974327 0
M  V30 44222 O 4319.17 -4.12343 0.068442 0
M  V30 44223 H 4318.51 -0.613989 0.252812 0
M  V30 44224 H 4321.04 -1.56408 1.319 0
M  V30 44225 H 4321.05 -3.97662 0.912647 0
M  V30 44226 H 4319.72 -3.63865 2.01433 0
M  V30 44227 H 4318.3 -3.72441 0.184871 0
M  V30 44228 N 4320.49 -0.756478 -1.38258 0
M  V30 44229 C 4321.71 -0.323571 -2.0486 0
M  V30 44230 C 4322.14 1.0408 -1.56681 0
M  V30 44231 O 4321.49 1.66386 -0.7201 0
M  V30 44232 C 4321.54 -0.358755 -3.58811 0
M  V30 44233 O 4320.65 0.646224 -4.07305 0
M  V30 44234 H 4319.99 -0.142735 -0.648477 0
M  V30 44235 H 4322.52 -1.02841 -1.76876 0
M  V30 44236 H 4322.53 -0.210651 -4.07456 0
M  V30 44237 H 4321.2 -1.3542 -3.93236 0
M  V30 44238 H 4319.78 0.462496 -3.70021 0
M  V30 44239 N 4321.96 1.49264 -0.505783 0
M  V30 44240 C 4322.9 2.27136 0.30687 0
M  V30 44241 C 4323.91 1.33876 0.926334 0
M  V30 44242 O 4325.1 1.59121 0.808864 0
M  V30 44243 C 4322.2 3.06434 1.44746 0
M  V30 44244 C 4321.37 4.27302 0.934423 0
M  V30 44245 C 4320.43 4.88607 1.9532 0
M  V30 44246 O 4319.46 5.48534 1.51983 0
M  V30 44247 N 4320.66 4.78684 3.28393 0
M  V30 44248 H 4323.42 2.97519 -0.360888 0
M  V30 44249 H 4320.98 1.58319 -0.33862 0
M  V30 44250 H 4322.98 3.44319 2.12666 0
M  V30 44251 H 4321.55 2.38628 2.0193 0
M  V30 44252 H 4320.77 3.94119 0.0799799 0
M  V30 44253 H 4322.05 5.05596 0.570135 0
M  V30 44254 H 4321.45 4.31104 3.66287 0
M  V30 44255 H 4320.01 5.20739 3.92012 0
M  V30 44256 N 4323.44 0.239823 1.55765 0
M  V30 44257 C 4324.39 -0.679007 2.22469 0
M  V30 44258 C 4325.38 -1.1856 1.20995 0
M  V30 44259 O 4326.59 -1.14331 1.39026 0
M  V30 44260 H 4322.97 -0.237435 0.713533 0
M  V30 44261 H 4324.94 -0.0931878 2.98254 0
M  V30 44262 C 4323.69 -1.8682 2.93247 0
M  V30 44263 H 4323.01 -1.48752 3.71097 0
M  V30 44264 H 4324.45 -2.48849 3.43293 0
M  V30 44265 C 4322.91 -2.73497 1.96726 0
M  V30 44266 O 4323.44 -3.72811 1.49581 0
M  V30 44267 N 4321.64 -2.39914 1.6398 0
M  V30 44268 H 4321.19 -1.59205 2.02513 0
M  V30 44269 H 4321.15 -2.98185 0.99664 0
M  V30 44270 N 4324.92 -1.57565 -0.0333739 0
M  V30 44271 C 4326.17 -1.88701 -0.723618 0
M  V30 44272 C 4326.49 -0.83696 -1.76125 0
M  V30 44273 O 4325.76 0.129946 -1.95469 0
M  V30 44274 H 4324.34 -0.6964 -0.270251 0
M  V30 44275 H 4327 -1.949 -0.00034676 0
M  V30 44276 H 4326.1 -2.87442 -1.21589 0
M  V30 44277 N 4326.4 0.305564 -1.54609 0
M  V30 44278 C 4327.64 1.04288 -1.73931 0
M  V30 44279 C 4327.98 1.87077 -0.521126 0
M  V30 44280 O 4327.25 1.88438 0.481814 0
M  V30 44281 C 4327.54 1.95267 -3.0256 0
M  V30 44282 C 4327.39 1.15688 -4.34668 0
M  V30 44283 C 4328.71 2.94512 -3.27034 0
M  V30 44284 H 4325.83 0.37773 -0.632842 0
M  V30 44285 H 4328.47 0.317928 -1.87321 0
M  V30 44286 H 4326.62 2.57081 -2.91275 0
M  V30 44287 H 4328.29 0.561948 -4.57864 0
M  V30 44288 H 4326.53 0.459492 -4.3136 0
M  V30 44289 H 4327.2 1.82586 -5.20928 0
M  V30 44290 H 4329.68 2.42825 -3.37898 0
M  V30 44291 H 4328.56 3.55338 -4.18361 0
M  V30 44292 H 4328.82 3.6793 -2.45112 0
M  V30 44293 N 4327.88 1.46988 0.568532 0
M  V30 44294 C 4328.81 1.61494 1.68648 0
M  V30 44295 C 4329.79 0.464735 1.63628 0
M  V30 44296 O 4330.97 0.692708 1.81425 0
M  V30 44297 C 4328.1 1.61832 3.07291 0
M  V30 44298 C 4327.06 2.75964 3.27151 0
M  V30 44299 C 4326.38 2.61369 4.66466 0
M  V30 44300 C 4327.68 4.17663 3.13616 0
M  V30 44301 H 4329.38 2.55079 1.56764 0
M  V30 44302 H 4326.92 1.22759 0.75275 0
M  V30 44303 H 4328.88 1.70572 3.85335 0
M  V30 44304 H 4327.6 0.647993 3.20107 0
M  V30 44305 H 4326.26 2.66717 2.51511 0
M  V30 44306 H 4325.91 1.6239 4.76066 0
M  V30 44307 H 4325.61 3.37931 4.80704 0
M  V30 44308 H 4327.13 2.72021 5.4666 0
M  V30 44309 H 4328.54 4.27947 3.81489 0
M  V30 44310 H 4326.94 4.94923 3.39369 0
M  V30 44311 H 4328.01 4.36824 2.10507 0
M  V30 44312 N 4329.35 -0.814342 1.3493 0
M  V30 44313 C 4330.28 -1.94052 1.29869 0
M  V30 44314 C 4331.27 -1.69202 0.174534 0
M  V30 44315 O 4332.45 -1.90676 0.368265 0
M  V30 44316 C 4329.58 -3.30662 1.06207 0
M  V30 44317 C 4328.53 -3.69975 2.15181 0
M  V30 44318 C 4327.86 -5.04661 1.76695 0
M  V30 44319 C 4329.16 -3.81167 3.57084 0
M  V30 44320 H 4330.85 -1.98545 2.24099 0
M  V30 44321 H 4328.4 -0.953846 1.07879 0
M  V30 44322 H 4330.35 -4.09041 1.01308 0
M  V30 44323 H 4329.08 -3.26491 0.0842123 0
M  V30 44324 H 4327.74 -2.93876 2.19163 0
M  V30 44325 H 4327.38 -4.96986 0.775475 0
M  V30 44326 H 4327.08 -5.31935 2.49637 0
M  V30 44327 H 4328.61 -5.85489 1.73307 0
M  V30 44328 H 4330.02 -4.49796 3.55466 0
M  V30 44329 H 4328.42 -4.19903 4.2872 0
M  V30 44330 H 4329.49 -2.8293 3.938 0
M  V30 44331 N 4330.83 -1.18801 -1.03557 0
M  V30 44332 C 4332.08 -0.984566 -1.76496 0
M  V30 44333 C 4332.4 0.486511 -1.88833 0
M  V30 44334 O 4331.67 1.35266 -1.41704 0
M  V30 44335 H 4330.25 -0.361302 -0.653812 0
M  V30 44336 H 4332.91 -1.49575 -1.24954 0
M  V30 44337 H 4332.01 -1.42692 -2.77571 0
M  V30 44338 N 4332.31 1.22555 -0.990855 0
M  V30 44339 C 4333.56 1.9056 -0.661032 0
M  V30 44340 C 4333.87 1.78029 0.81024 0
M  V30 44341 O 4335.08 2.40932 1.25156 0
M  V30 44342 C 4333.54 3.41641 -1.13178 0
M  V30 44343 C 4333.14 3.62813 -2.62813 0
M  V30 44344 C 4334.89 4.15359 -0.876192 0
M  V30 44345 C 4332.79 5.07583 -3.03502 0
M  V30 44346 H 4331.72 0.713584 -0.243544 0
M  V30 44347 H 4334.38 1.38812 -1.20015 0
M  V30 44348 H 4332.76 3.9256 -0.520811 0
M  V30 44349 H 4333.93 3.22395 -3.29239 0
M  V30 44350 H 4332.25 3.02423 -2.86232 0
M  V30 44351 H 4334.84 5.22056 -1.15591 0
M  V30 44352 H 4335.19 4.15877 0.187687 0
M  V30 44353 H 4335.72 3.70461 -1.44926 0
M  V30 44354 H 4332.46 5.12204 -4.09057 0
M  V30 44355 H 4331.98 5.48911 -2.41778 0
M  V30 44356 H 4333.66 5.75992 -2.94689 0
M  V30 44357 N 4333.79 0.763799 1.37855 0
M  V30 44358 C 4335.01 0.334431 2.04686 0
M  V30 44359 C 4335.44 -1.03247 1.57231 0
M  V30 44360 O 4334.8 -1.66002 0.728913 0
M  V30 44361 C 4334.85 0.377778 3.58616 0
M  V30 44362 O 4333.95 -0.624615 4.07642 0
M  V30 44363 H 4333.29 0.146172 0.647711 0
M  V30 44364 H 4335.82 1.03777 1.76328 0
M  V30 44365 H 4335.83 0.232256 4.07338 0
M  V30 44366 H 4334.51 1.37503 3.92512 0
M  V30 44367 H 4333.08 -0.442866 3.70261 0
M  V30 44368 N 4335.27 -1.48993 0.513692 0
M  V30 44369 C 4336.5 -2.06888 -0.0227323 0
M  V30 44370 C 4336.91 -1.3724 -1.29655 0
M  V30 44371 O 4336.27 -0.45471 -1.76745 0
M  V30 44372 C 4336.32 -3.60511 -0.26722 0
M  V30 44373 O 4336.04 -4.27539 0.956118 0
M  V30 44374 C 4337.54 -4.35155 -0.845861 0
M  V30 44375 H 4334.76 -0.670489 0.0261709 0
M  V30 44376 H 4337.3 -1.91605 0.71468 0
M  V30 44377 H 4335.46 -3.75454 -0.954641 0
M  V30 44378 H 4335.87 -5.1944 0.726776 0
M  V30 44379 H 4337.35 -5.43474 -0.966443 0
M  V30 44380 H 4337.82 -3.98485 -1.8468 0
M  V30 44381 H 4338.43 -4.2485 -0.195515 0
M  V30 44382 N 4336.75 -0.248081 -1.55635 0
M  V30 44383 C 4337.71 0.637659 -2.20151 0
M  V30 44384 C 4338.71 1.10186 -1.17114 0
M  V30 44385 O 4339.9 1.00639 -1.42188 0
M  V30 44386 C 4337.03 1.87656 -2.84601 0
M  V30 44387 H 4338.22 0.0747603 -2.99807 0
M  V30 44388 H 4335.78 0.00145511 -1.563 0
M  V30 44389 H 4336.51 2.48066 -2.08886 0
M  V30 44390 H 4336.3 1.5519 -3.60081 0
M  V30 44391 H 4337.79 2.50704 -3.33972 0
M  V30 44392 N 4338.22 1.5758 0.0250174 0
M  V30 44393 C 4339.17 2.06822 1.02437 0
M  V30 44394 C 4340.14 0.958222 1.35674 0
M  V30 44395 O 4341.33 1.22905 1.45942 0
M  V30 44396 C 4338.47 2.55572 2.31899 0
M  V30 44397 C 4337.58 3.80377 2.04786 0
M  V30 44398 C 4336.71 4.17723 3.28147 0
M  V30 44399 C 4335.75 5.35435 2.96607 0
M  V30 44400 N 4334.89 5.68194 4.12432 0
M  V30 44401 H 4339.73 2.91948 0.597509 0
M  V30 44402 H 4337.27 1.44344 0.283406 0
M  V30 44403 H 4339.22 2.81904 3.07548 0
M  V30 44404 H 4337.85 1.73356 2.72301 0
M  V30 44405 H 4336.91 3.61104 1.19616 0
M  V30 44406 H 4338.22 4.66141 1.77522 0
M  V30 44407 H 4337.37 4.45206 4.12161 0
M  V30 44408 H 4336.11 3.30619 3.58528 0
M  V30 44409 H 4335.12 5.07701 2.10996 0
M  V30 44410 H 4336.34 6.24196 2.675 0
M  V30 44411 H 4334.29 4.84048 4.42756 0
M  V30 44412 H 4334.2 6.48476 3.88606 0
M  V30 44413 H 4335.47 6.00255 4.97307 0
M  V30 44414 N 4339.7 -0.29736 1.54769 0
M  V30 44415 C 4340.95 -1.03364 1.74481 0
M  V30 44416 C 4341.28 -1.86798 0.53104 0
M  V30 44417 O 4340.56 -1.88691 -0.471814 0
M  V30 44418 C 4340.84 -1.9366 3.03592 0
M  V30 44419 C 4340.69 -1.13381 4.35276 0
M  V30 44420 C 4342.01 -2.92773 3.28591 0
M  V30 44421 H 4339.13 -0.374369 0.634836 0
M  V30 44422 H 4341.77 -0.30799 1.87487 0
M  V30 44423 H 4339.92 -2.55533 2.92635 0
M  V30 44424 H 4341.59 -0.537658 4.58156 0
M  V30 44425 H 4339.84 -0.436609 4.31597 0
M  V30 44426 H 4340.51 -1.79821 5.21889 0
M  V30 44427 H 4342.98 -2.41029 3.39181 0
M  V30 44428 H 4341.86 -3.53115 4.20239 0
M  V30 44429 H 4342.12 -3.66625 2.4706 0
M  V30 44430 N 4341.18 -1.47287 -0.560729 0
M  V30 44431 C 4342.46 -1.44212 -1.32145 0
M  V30 44432 C 4342.84 -0.137191 -2.10654 0
M  V30 44433 O 4342.18 0.881323 -2.1082 0
M  V30 44434 C 4342.39 -2.6855 -2.22894 0
M  V30 44435 C 4343.74 -3.15618 -2.84026 0
M  V30 44436 O 4344.77 -2.69253 -2.33198 0
M  V30 44437 O 4343.63 -3.96212 -3.76401 0
M  V30 44438 H 4340.72 -0.574536 -0.594843 0
M  V30 44439 H 4343.27 -1.59483 -0.579924 0
M  V30 44440 H 4342.04 -3.55062 -1.64458 0
M  V30 44441 H 4341.66 -2.55847 -3.04348 0
M  V30 44442 N 4342.66 0.807175 -1.3536 0
M  V30 44443 C 4343.62 1.90057 -1.28106 0
M  V30 44444 C 4344.62 1.59642 -0.192642 0
M  V30 44445 O 4345.81 1.68386 -0.446303 0
M  V30 44446 C 4342.94 3.26461 -0.981638 0
M  V30 44447 H 4344.14 1.97909 -2.25327 0
M  V30 44448 H 4341.69 1.00297 -1.19876 0
M  V30 44449 H 4342.42 3.24297 -0.013266 0
M  V30 44450 H 4342.21 3.49922 -1.76909 0
M  V30 44451 H 4343.7 4.06499 -0.956468 0
M  V30 44452 N 4344.14 1.19348 1.02926 0
M  V30 44453 C 4345.38 0.990188 1.75722 0
M  V30 44454 C 4345.7 -0.479852 1.89623 0
M  V30 44455 O 4346.9 -0.801956 2.59386 0
M  V30 44456 C 4345.36 1.72276 3.15989 0
M  V30 44457 C 4344.97 3.23288 3.10143 0
M  V30 44458 C 4346.71 1.60269 3.93083 0
M  V30 44459 C 4344.62 3.89136 4.4534 0
M  V30 44460 H 4343.55 0.366866 0.65873 0
M  V30 44461 H 4346.2 1.4284 1.15191 0
M  V30 44462 H 4344.58 1.21236 3.76985 0
M  V30 44463 H 4345.76 3.81443 2.5853 0
M  V30 44464 H 4344.07 3.35565 2.46546 0
M  V30 44465 H 4346.67 2.06816 4.93083 0
M  V30 44466 H 4347.01 0.55678 4.1256 0
M  V30 44467 H 4347.54 2.08653 3.38687 0
M  V30 44468 H 4344.28 4.93823 4.31067 0
M  V30 44469 H 4343.8 3.35769 4.9701 0
M  V30 44470 H 4345.48 3.92661 5.14224 0
M  V30 44471 N 4345.61 -1.22028 0.997341 0
M  V30 44472 C 4346.86 -1.90517 0.674365 0
M  V30 44473 C 4347.18 -1.77989 -0.796551 0
M  V30 44474 O 4346.45 -1.16991 -1.57131 0
M  V30 44475 H 4345.03 -0.705178 0.246439 0
M  V30 44476 H 4347.69 -1.48286 1.2648 0
M  V30 44477 H 4346.79 -2.97583 0.940797 0
M  V30 44478 N 4347.09 -0.771099 -1.37448 0
M  V30 44479 C 4348.02 -0.170908 -2.32874 0
M  V30 44480 C 4349 0.683865 -1.55748 0
M  V30 44481 O 4350.19 0.62146 -1.83988 0
M  V30 44482 C 4347.32 0.709506 -3.39975 0
M  V30 44483 C 4346.27 -0.0439105 -4.27977 0
M  V30 44484 C 4345.6 0.955905 -5.26086 0
M  V30 44485 C 4346.9 -1.22254 -5.07791 0
M  V30 44486 H 4348.59 -0.968088 -2.83317 0
M  V30 44487 H 4346.14 -0.466976 -1.36218 0
M  V30 44488 H 4348.09 1.13919 -4.0571 0
M  V30 44489 H 4346.82 1.5392 -2.88056 0
M  V30 44490 H 4345.47 -0.454364 -3.63773 0
M  V30 44491 H 4345.12 1.78013 -4.70447 0
M  V30 44492 H 4344.82 0.456342 -5.85825 0
M  V30 44493 H 4346.35 1.38454 -5.94696 0
M  V30 44494 H 4347.76 -0.869536 -5.66667 0
M  V30 44495 H 4346.16 -1.65414 -5.76852 0
M  V30 44496 H 4347.23 -2.02696 -4.40503 0
M  V30 44497 N 4348.57 1.48719 -0.521586 0
M  V30 44498 C 4349.48 2.33266 0.249806 0
M  V30 44499 C 4350.5 1.45955 0.947271 0
M  V30 44500 O 4351.67 1.78948 0.924094 0
M  V30 44501 C 4348.74 3.2188 1.28818 0
M  V30 44502 C 4347.8 4.25059 0.601966 0
M  V30 44503 C 4347.03 5.09438 1.59087 0
M  V30 44504 O 4347.25 4.95659 2.82273 0
M  V30 44505 O 4346.19 5.91104 1.13487 0
M  V30 44506 H 4350.01 3.00455 -0.442778 0
M  V30 44507 H 4347.6 1.46703 -0.282619 0
M  V30 44508 H 4349.48 3.76716 1.88846 0
M  V30 44509 H 4348.16 2.57362 1.96333 0
M  V30 44510 H 4347.06 3.7408 -0.0385913 0
M  V30 44511 H 4348.4 4.9219 -0.031087 0
M  V30 44512 N 4350.05 0.256331 1.55501 0
M  V30 44513 C 4350.98 -0.633225 2.2475 0
M  V30 44514 C 4351.96 -1.17386 1.23104 0
M  V30 44515 O 4353.14 -1.21147 1.5178 0
M  V30 44516 C 4350.27 -1.82602 2.95421 0
M  V30 44517 C 4349.23 -1.41775 4.03836 0
M  V30 44518 C 4348.55 -2.69213 4.61983 0
M  V30 44519 C 4349.85 -0.581821 5.19049 0
M  V30 44520 H 4351.55 -0.0557681 2.99348 0
M  V30 44521 H 4349.09 -0.0253826 1.43978 0
M  V30 44522 H 4351.05 -2.45406 3.42569 0
M  V30 44523 H 4349.77 -2.42901 2.18327 0
M  V30 44524 H 4348.43 -0.813003 3.57471 0
M  V30 44525 H 4348.08 -3.2773 3.81578 0
M  V30 44526 H 4347.78 -2.42616 5.35174 0
M  V30 44527 H 4349.3 -3.32899 5.1187 0
M  V30 44528 H 4350.72 -1.11439 5.62365 0
M  V30 44529 H 4349.11 -0.411512 5.98687 0
M  V30 44530 H 4350.18 0.403804 4.83216 0
M  V30 44531 N 4351.53 -1.57591 -0.0166602 0
M  V30 44532 C 4352.77 -1.90114 -0.706 0
M  V30 44533 C 4353.11 -0.855572 -1.74338 0
M  V30 44534 O 4352.38 0.12784 -1.94079 0
M  V30 44535 C 4352.66 -3.33255 -1.3643 0
M  V30 44536 C 4352.52 -4.48516 -0.339597 0
M  V30 44537 C 4353.84 -3.75524 -2.29498 0
M  V30 44538 H 4350.95 -0.691411 -0.255187 0
M  V30 44539 H 4353.6 -1.89974 0.031213 0
M  V30 44540 H 4351.75 -3.33505 -1.99266 0
M  V30 44541 H 4353.42 -4.60401 0.287796 0
M  V30 44542 H 4351.66 -4.32467 0.339875 0
M  V30 44543 H 4352.33 -5.45588 -0.83893 0
M  V30 44544 H 4354.81 -3.7672 -1.76695 0
M  V30 44545 H 4353.68 -4.76463 -2.72533 0
M  V30 44546 H 4353.95 -3.08467 -3.16703 0
M  V30 44547 N 4353 0.289148 -1.54925 0
M  V30 44548 C 4354.28 1.04316 -1.65461 0
M  V30 44549 C 4354.66 2.04833 -0.510564 0
M  V30 44550 O 4354.01 2.23155 0.491335 0
M  V30 44551 C 4354.22 1.71443 -3.03987 0
M  V30 44552 C 4355.57 2.23204 -3.612 0
M  V30 44553 O 4356.59 1.81457 -3.06516 0
M  V30 44554 O 4355.45 2.9973 -4.56973 0
M  V30 44555 H 4352.54 0.482879 -0.671384 0
M  V30 44556 H 4355.09 0.286291 -1.67268 0
M  V30 44557 H 4353.86 0.9852 -3.78694 0
M  V30 44558 H 4353.49 2.53858 -3.0601 0
M  V30 44559 N 4354.48 1.47583 0.55291 0
M  V30 44560 C 4355.73 1.54123 1.3073 0
M  V30 44561 C 4356.05 0.206968 1.93899 0
M  V30 44562 O 4355.32 -0.769474 1.80155 0
M  V30 44563 H 4353.9 0.567732 0.485479 0
M  V30 44564 H 4356.56 1.83907 0.645295 0
M  V30 44565 H 4355.66 2.3101 2.09859 0
M  V30 44566 N 4355.96 -0.799985 1.35787 0
M  V30 44567 C 4356.91 -1.91215 1.2925 0
M  V30 44568 C 4357.88 -1.65297 0.163169 0
M  V30 44569 O 4359.06 -1.876 0.347957 0
M  V30 44570 C 4356.2 -3.27863 1.07703 0
M  V30 44571 C 4355.32 -3.65924 2.29617 0
M  V30 44572 C 4354.45 -4.91635 2.01167 0
M  V30 44573 C 4353.49 -5.22343 3.19098 0
M  V30 44574 N 4352.63 -6.39236 2.90382 0
M  V30 44575 H 4357.47 -1.96138 2.24352 0
M  V30 44576 H 4355 -0.959296 1.11516 0
M  V30 44577 H 4356.96 -4.06647 0.932402 0
M  V30 44578 H 4355.59 -3.2239 0.162603 0
M  V30 44579 H 4354.64 -2.82347 2.5492 0
M  V30 44580 H 4355.96 -3.84572 3.17656 0
M  V30 44581 H 4355.11 -5.78261 1.83573 0
M  V30 44582 H 4353.85 -4.75035 1.10422 0
M  V30 44583 H 4352.85 -4.34205 3.37263 0
M  V30 44584 H 4354.08 -5.40869 4.10654 0
M  V30 44585 H 4352.02 -6.24048 2.02238 0
M  V30 44586 H 4351.94 -6.58167 3.71958 0
M  V30 44587 H 4353.21 -7.28872 2.76343 0
M  V30 44588 N 4357.44 -1.19892 -1.02292 0
M  V30 44589 C 4358.68 -1.00671 -1.76049 0
M  V30 44590 C 4359.02 0.460769 -1.88655 0
M  V30 44591 O 4358.29 1.34214 -1.40773 0
M  V30 44592 C 4358.58 -1.68343 -3.18328 0
M  V30 44593 C 4358.43 -3.22494 -3.13556 0
M  V30 44594 C 4359.75 -1.41132 -4.16857 0
M  V30 44595 H 4356.87 -0.367128 -0.639051 0
M  V30 44596 H 4359.51 -1.47817 -1.19374 0
M  V30 44597 H 4357.66 -1.28259 -3.66718 0
M  V30 44598 H 4359.33 -3.71832 -2.73018 0
M  V30 44599 H 4357.57 -3.53728 -2.51115 0
M  V30 44600 H 4358.24 -3.64996 -4.14104 0
M  V30 44601 H 4360.72 -1.75896 -3.77094 0
M  V30 44602 H 4359.6 -1.91024 -5.14588 0
M  V30 44603 H 4359.86 -0.337657 -4.40809 0
M  V30 44604 N 4358.92 1.21498 -1.0038 0
M  V30 44605 C 4359.85 2.26096 -0.583357 0
M  V30 44606 C 4360.83 1.65445 0.395228 0
M  V30 44607 O 4362.01 1.9212 0.283474 0
M  V30 44608 C 4359.14 3.47178 0.0920009 0
M  V30 44609 C 4358.1 4.20338 -0.806242 0
M  V30 44610 C 4357.42 5.347 0.00263832 0
M  V30 44611 C 4358.72 4.77859 -2.10828 0
M  V30 44612 H 4360.42 2.61518 -1.4577 0
M  V30 44613 H 4357.96 1.2571 -0.702355 0
M  V30 44614 H 4359.92 4.1952 0.397603 0
M  V30 44615 H 4358.64 3.10883 1.00097 0
M  V30 44616 H 4357.3 3.49844 -1.09565 0
M  V30 44617 H 4356.95 4.94647 0.912855 0
M  V30 44618 H 4356.65 5.84575 -0.595429 0
M  V30 44619 H 4358.17 6.09852 0.302083 0
M  V30 44620 H 4359.58 5.42086 -1.86591 0
M  V30 44621 H 4357.98 5.38118 -2.6561 0
M  V30 44622 H 4359.05 3.97307 -2.77985 0
M  V30 44623 N 4360.39 0.778378 1.37037 0
M  V30 44624 C 4361.64 0.345713 1.99527 0
M  V30 44625 C 4361.97 -1.07959 1.61787 0
M  V30 44626 O 4361.22 -1.75845 0.858901 0
M  V30 44627 C 4361.52 0.444037 3.54631 0
M  V30 44628 C 4361.19 1.82855 4.12159 0
M  V30 44629 C 4359.85 2.2074 4.27583 0
M  V30 44630 C 4362.2 2.73562 4.43636 0
M  V30 44631 C 4359.53 3.48755 4.71791 0
M  V30 44632 C 4361.88 4.00994 4.89271 0
M  V30 44633 C 4360.55 4.38915 5.02901 0
M  V30 44634 H 4359.82 0.126505 0.730121 0
M  V30 44635 H 4362.46 0.993692 1.63701 0
M  V30 44636 H 4360.77 -0.287468 3.90744 0
M  V30 44637 H 4362.47 0.0904696 4.00898 0
M  V30 44638 H 4359.06 1.52413 4.00585 0
M  V30 44639 H 4363.24 2.45551 4.31298 0
M  V30 44640 H 4358.5 3.78021 4.80531 0
M  V30 44641 H 4362.67 4.71403 5.12593 0
M  V30 44642 H 4360.3 5.38168 5.36916 0
M  V30 44643 N 4361.87 -1.4844 0.529465 0
M  V30 44644 C 4362.82 -2.26587 -0.253423 0
M  V30 44645 C 4363.81 -1.32671 -0.910342 0
M  V30 44646 O 4365 -1.57212 -0.813234 0
M  V30 44647 C 4362.13 -3.17732 -1.30004 0
M  V30 44648 C 4361.21 -4.19121 -0.64794 0
M  V30 44649 N 4361.61 -5.051 0.266025 0
M  V30 44650 C 4359.9 -4.36717 -0.905205 0
M  V30 44651 C 4360.6 -5.78145 0.642161 0
M  V30 44652 N 4359.58 -5.436 0.00336615 0
M  V30 44653 H 4363.38 -2.90439 0.449713 0
M  V30 44654 H 4360.9 -1.58639 0.347459 0
M  V30 44655 H 4362.89 -3.72376 -1.87462 0
M  V30 44656 H 4361.55 -2.55436 -2.00456 0
M  V30 44657 H 4362.56 -5.13948 0.638595 0
M  V30 44658 H 4359.24 -3.85611 -1.60033 0
M  V30 44659 H 4360.63 -6.57332 1.39157 0
M  V30 44660 N 4363.35 -0.264574 -1.55363 0
M  V30 44661 C 4364.6 0.355736 -1.99656 0
M  V30 44662 C 4364.93 1.56291 -1.15269 0
M  V30 44663 O 4364.21 1.93249 -0.22023 0
M  V30 44664 C 4364.49 0.748285 -3.5224 0
M  V30 44665 C 4364.34 -0.465498 -4.47385 0
M  V30 44666 C 4365.66 1.5887 -4.10425 0
M  V30 44667 H 4362.78 0.127827 -0.72583 0
M  V30 44668 H 4365.42 -0.369416 -1.86374 0
M  V30 44669 H 4363.57 1.36613 -3.63688 0
M  V30 44670 H 4365.24 -1.10403 -4.47894 0
M  V30 44671 H 4363.49 -1.10547 -4.19478 0
M  V30 44672 H 4364.16 -0.147232 -5.51804 0
M  V30 44673 H 4366.63 1.067 -4.02187 0
M  V30 44674 H 4365.51 1.83219 -5.17419 0
M  V30 44675 H 4365.77 2.56633 -3.59989 0
M  V30 44676 N 4364.83 1.57598 0.00830251 0
M  V30 44677 C 4365.78 2.0901 1.02066 0
M  V30 44678 C 4366.77 1.00829 1.36125 0
M  V30 44679 O 4367.98 1.19301 1.34786 0
M  V30 44680 H 4364.35 0.667274 0.34677 0
M  V30 44681 H 4366.32 2.93071 0.56141 0
M  V30 44682 C 4365.07 2.60191 2.30642 0
M  V30 44683 H 4364.4 3.43062 2.05301 0
M  V30 44684 H 4365.84 2.99852 2.99774 0
M  V30 44685 C 4364.29 1.51233 3.01049 0
M  V30 44686 O 4364.82 0.890454 3.91706 0
M  V30 44687 N 4363.03 1.2418 2.62731 0
M  V30 44688 H 4362.58 1.74935 1.89092 0
M  V30 44689 H 4362.54 0.514946 3.10154 0
M  V30 44690 N 4366.31 -0.280928 1.55076 0
M  V30 44691 C 4367.26 -1.36699 1.88192 0
M  V30 44692 C 4368.25 -1.51521 0.757484 0
M  V30 44693 O 4369.46 -1.53399 0.941734 0
M  V30 44694 H 4365.83 -0.457021 0.59719 0
M  V30 44695 H 4367.8 -1.06015 2.78933 0
M  V30 44696 C 4366.55 -2.72192 2.16348 0
M  V30 44697 H 4365.87 -2.61576 3.02355 0
M  V30 44698 H 4367.31 -3.47145 2.43446 0
M  V30 44699 C 4365.77 -3.22679 0.968487 0
M  V30 44700 O 4366.3 -4.01206 0.199099 0
M  V30 44701 N 4364.51 -2.80258 0.768354 0
M  V30 44702 H 4364.06 -2.16514 1.39569 0
M  V30 44703 H 4364.01 -3.14386 -0.0296018 0
M  V30 44704 N 4367.79 -1.47874 -0.545076 0
M  V30 44705 C 4369.03 -1.54814 -1.29911 0
M  V30 44706 C 4369.35 -0.217248 -1.93786 0
M  V30 44707 O 4368.62 0.759909 -1.80561 0
M  V30 44708 H 4367.2 -0.570299 -0.482461 0
M  V30 44709 H 4369.87 -1.84247 -0.635533 0
M  V30 44710 H 4368.96 -2.3212 -2.08631 0
M  V30 44711 N 4369.26 0.792773 -1.36209 0
M  V30 44712 C 4370.23 1.88687 -1.30115 0
M  V30 44713 C 4371.23 1.59429 -0.209563 0
M  V30 44714 O 4372.42 1.67903 -0.464138 0
M  V30 44715 C 4369.55 3.25401 -1.01621 0
M  V30 44716 H 4370.74 1.95507 -2.27413 0
M  V30 44717 H 4368.29 0.990198 -1.20933 0
M  V30 44718 H 4369.03 3.24265 -0.0476613 0
M  V30 44719 H 4368.81 3.48026 -1.8061 0
M  V30 44720 H 4370.3 4.05462 -0.999529 0
M  V30 44721 N 4370.74 1.20433 1.01654 0
M  V30 44722 C 4371.99 1.01252 1.74907 0
M  V30 44723 C 4372.31 -0.456407 1.89584 0
M  V30 44724 O 4371.58 -1.32994 1.43838 0
M  V30 44725 H 4370.16 0.371658 0.647981 0
M  V30 44726 H 4372.82 1.51544 1.22558 0
M  V30 44727 H 4371.92 1.4709 2.75265 0
M  V30 44728 N 4372.22 -1.20963 1.01023 0
M  V30 44729 C 4373.64 -1.42236 0.723959 0
M  V30 44730 C 4373.84 -1.88992 -0.698864 0
M  V30 44731 O 4372.89 -2.05476 -1.4675 0
M  V30 44732 C 4374.2 -2.44941 1.74426 0
M  V30 44733 C 4375.75 -2.58716 1.76167 0
M  V30 44734 C 4376.23 -3.64659 2.77106 0
M  V30 44735 N 4377.72 -3.72136 2.75807 0
M  V30 44736 C 4378.45 -4.5375 3.50568 0
M  V30 44737 N 4377.95 -5.3922 4.34986 0
M  V30 44738 N 4379.74 -4.48223 3.39194 0
M  V30 44739 H 4371.89 -0.889267 1.92888 0
M  V30 44740 H 4374.16 -0.452819 0.832862 0
M  V30 44741 H 4373.86 -2.17569 2.76327 0
M  V30 44742 H 4373.74 -3.43829 1.55118 0
M  V30 44743 H 4376.12 -2.85422 0.749543 0
M  V30 44744 H 4376.2 -1.60046 1.99547 0
M  V30 44745 H 4375.85 -3.38698 3.78479 0
M  V30 44746 H 4375.78 -4.62938 2.5099 0
M  V30 44747 H 4378.27 -3.11079 2.14565 0
M  V30 44748 H 4378.58 -5.98564 4.88816 0
M  V30 44749 H 4376.93 -5.38744 4.39067 0
M  V30 44750 H 4380.12 -3.80484 2.72672 0
M  V30 44751 H 4380.29 -5.11593 3.97714 0
M  V30 44752 N 4373.7 -0.785634 -1.36622 0
M  V30 44753 C 4374.95 -0.352896 -1.98589 0
M  V30 44754 C 4375.26 1.08032 -1.6306 0
M  V30 44755 O 4376.47 1.61514 -2.18233 0
M  V30 44756 C 4374.92 -0.580016 -3.55195 0
M  V30 44757 C 4374.53 -2.0244 -3.99652 0
M  V30 44758 C 4376.27 -0.211594 -4.23972 0
M  V30 44759 C 4374.18 -2.19838 -5.49022 0
M  V30 44760 H 4373.11 -0.128207 -0.74302 0
M  V30 44761 H 4375.76 -0.966732 -1.5597 0
M  V30 44762 H 4374.14 0.103478 -3.95865 0
M  V30 44763 H 4375.32 -2.74398 -3.70192 0
M  V30 44764 H 4373.63 -2.35071 -3.43701 0
M  V30 44765 H 4376.23 -0.319913 -5.33742 0
M  V30 44766 H 4376.57 0.839842 -4.07741 0
M  V30 44767 H 4377.11 -0.848176 -3.88653 0
M  V30 44768 H 4373.84 -3.23351 -5.70197 0
M  V30 44769 H 4373.36 -1.5238 -5.80121 0
M  V30 44770 H 4375.04 -2.00369 -6.15192 0
M  V30 44771 N 4375.18 1.48157 -0.53733 0
M  V30 44772 C 4376.4 2.06897 -0.0101846 0
M  V30 44773 C 4376.82 1.39286 1.27456 0
M  V30 44774 O 4376.18 0.482771 1.75999 0
M  V30 44775 C 4376.23 3.60891 0.209832 0
M  V30 44776 O 4375.95 4.25964 -1.02402 0
M  V30 44777 C 4377.45 4.36446 0.776525 0
M  V30 44778 H 4374.67 0.669988 -0.0368345 0
M  V30 44779 H 4377.21 1.90444 -0.745072 0
M  V30 44780 H 4375.37 3.76925 0.894789 0
M  V30 44781 H 4375.78 5.18218 -0.809322 0
M  V30 44782 H 4377.26 5.44943 0.879859 0
M  V30 44783 H 4377.73 4.01372 1.78317 0
M  V30 44784 H 4378.34 4.25108 0.1279 0
M  V30 44785 N 4376.65 0.272809 1.55221 0
M  V30 44786 C 4377.62 -0.602555 2.21138 0
M  V30 44787 C 4378.62 -1.08309 1.18852 0
M  V30 44788 O 4379.81 -0.983638 1.43771 0
M  V30 44789 C 4376.94 -1.83105 2.87551 0
M  V30 44790 H 4378.13 -0.0270541 2.99888 0
M  V30 44791 H 4375.69 0.023411 1.56282 0
M  V30 44792 H 4376.42 -2.44712 2.12806 0
M  V30 44793 H 4376.21 -1.49442 3.62504 0
M  V30 44794 H 4377.7 -2.45359 3.37918 0
M  V30 44795 N 4378.13 -1.576 5.54043e-05 0
M  V30 44796 C 4379.1 -2.07373 -0.97618 0
M  V30 44797 C 4380.1 -0.983135 -1.27244 0
M  V30 44798 O 4381.29 -1.24578 -1.21762 0
M  V30 44799 C 4378.42 -2.51522 -2.30108 0
M  V30 44800 H 4379.61 -2.94894 -0.545655 0
M  V30 44801 H 4377.16 -1.54329 -0.247417 0
M  V30 44802 H 4377.9 -1.67243 -2.77849 0
M  V30 44803 H 4377.68 -3.31171 -2.09925 0
M  V30 44804 H 4379.17 -2.90356 -3.00139 0
M  V30 44805 N 4379.61 0.2727 -1.55223 0
M  V30 44806 C 4380.84 1.02101 -1.79608 0
M  V30 44807 C 4381.25 1.80417 -0.569757 0
M  V30 44808 O 4380.59 1.77568 0.470681 0
M  V30 44809 C 4380.65 2.02665 -2.9693 0
M  V30 44810 C 4380.32 1.43283 -4.33957 0
M  V30 44811 C 4381.31 0.84835 -5.12932 0
M  V30 44812 C 4379 1.45995 -4.80615 0
M  V30 44813 C 4380.99 0.298885 -6.36699 0
M  V30 44814 C 4378.68 0.906621 -6.04337 0
M  V30 44815 C 4379.68 0.32709 -6.82216 0
M  V30 44816 O 4379.37 -0.217762 -8.03605 0
M  V30 44817 H 4379.1 0.307301 -0.602115 0
M  V30 44818 H 4381.65 0.308791 -2.03066 0
M  V30 44819 H 4379.88 2.77646 -2.69164 0
M  V30 44820 H 4381.57 2.63626 -3.08636 0
M  V30 44821 H 4382.34 0.820097 -4.78016 0
M  V30 44822 H 4378.22 1.90041 -4.20006 0
M  V30 44823 H 4381.76 -0.154098 -6.9743 0
M  V30 44824 H 4377.66 0.932114 -6.38735 0
M  V30 44825 H 4378.43 -0.107151 -8.1843 0
M  V30 44826 N 4381.09 1.48161 0.537226 0
M  V30 44827 C 4382 1.64813 1.66954 0
M  V30 44828 C 4383.01 0.530709 1.65709 0
M  V30 44829 O 4384.19 0.800848 1.84793 0
M  V30 44830 C 4381.26 1.67719 3.03432 0
M  V30 44831 C 4380.32 2.91036 3.15589 0
M  V30 44832 C 4379.55 2.93793 4.45557 0
M  V30 44833 O 4379.77 2.05172 5.32222 0
M  V30 44834 O 4378.71 3.85884 4.61927 0
M  V30 44835 H 4382.53 2.60665 1.55844 0
M  V30 44836 H 4380.12 1.31478 0.709503 0
M  V30 44837 H 4382 1.72193 3.84613 0
M  V30 44838 H 4380.67 0.750388 3.14882 0
M  V30 44839 H 4379.58 2.92097 2.33731 0
M  V30 44840 H 4380.91 3.83076 3.09052 0
M  V30 44841 N 4382.57 -0.785538 1.36627 0
M  V30 44842 C 4383.98 -1.36096 1.27807 0
M  V30 44843 C 4384.33 -1.96035 -0.0804186 0
M  V30 44844 O 4383.45 -1.92837 -0.981974 0
M  V30 44845 C 4384.05 -2.47434 2.31435 0
M  V30 44846 C 4382.61 -3.00781 2.26291 0
M  V30 44847 C 4381.75 -1.73889 2.16005 0
M  V30 44848 H 4384.71 -0.586876 1.4745 0
M  V30 44849 H 4384.73 -3.26554 1.95302 0
M  V30 44850 H 4384.24 -2.03779 3.30296 0
M  V30 44851 H 4382.34 -3.48846 1.30909 0
M  V30 44852 H 4382.45 -3.57332 3.1914 0
M  V30 44853 H 4380.82 -1.96274 1.62322 0
M  V30 44854 H 4381.6 -1.32357 3.16759 0
M  V30 44855 N 4384.04 -1.20971 -1.01014 0
M  V30 44856 C 4384.99 -0.964354 -2.09688 0
M  V30 44857 C 4385.96 0.107795 -1.6575 0
M  V30 44858 O 4387.15 -0.0382658 -1.90762 0
M  V30 44859 C 4384.29 -0.529549 -3.41013 0
M  V30 44860 C 4383.4 -1.67057 -3.98392 0
M  V30 44861 C 4382.53 -1.18544 -5.17804 0
M  V30 44862 C 4381.57 -2.29912 -5.6728 0
M  V30 44863 N 4380.71 -1.82569 -6.77947 0
M  V30 44864 H 4385.55 -1.89471 -2.3001 0
M  V30 44865 H 4383.09 -0.944329 -1.12787 0
M  V30 44866 H 4385.05 -0.258735 -4.16397 0
M  V30 44867 H 4383.68 0.363806 -3.20743 0
M  V30 44868 H 4382.73 -2.05614 -3.20042 0
M  V30 44869 H 4384.04 -2.50892 -4.31108 0
M  V30 44870 H 4383.19 -0.870973 -6.00416 0
M  V30 44871 H 4381.93 -0.317058 -4.86668 0
M  V30 44872 H 4380.94 -2.62167 -4.83269 0
M  V30 44873 H 4382.16 -3.17237 -6.00448 0
M  V30 44874 H 4380.11 -0.980682 -6.48628 0
M  V30 44875 H 4380.03 -2.59981 -7.09891 0
M  V30 44876 H 4381.29 -1.54142 -7.64108 0
M  V30 44877 N 4385.52 1.20426 -1.01663 0
M  V30 44878 C 4386.75 1.93774 -0.7252 0
M  V30 44879 C 4387.17 1.74774 0.714104 0
M  V30 44880 O 4386.52 1.06174 1.48436 0
M  V30 44881 C 4386.57 3.45872 -1.05142 0
M  V30 44882 O 4386.29 3.64251 -2.43419 0
M  V30 44883 C 4387.8 4.36365 -0.781044 0
M  V30 44884 H 4385.02 0.615892 -0.266305 0
M  V30 44885 H 4387.56 1.52917 -1.35781 0
M  V30 44886 H 4385.71 3.84609 -0.4642 0
M  V30 44887 H 4386.13 4.58237 -2.55185 0
M  V30 44888 H 4387.6 5.41739 -1.05937 0
M  V30 44889 H 4388.08 4.38276 0.284783 0
M  V30 44890 H 4388.69 4.03291 -1.35041 0
M  V30 44891 N 4387 0.792868 1.36203 0
M  V30 44892 C 4387.96 0.199539 2.2833 0
M  V30 44893 C 4388.96 -0.605137 1.48979 0
M  V30 44894 O 4390.15 -0.425626 1.6892 0
M  V30 44895 C 4387.29 -0.723406 3.33136 0
M  V30 44896 H 4388.48 1.01191 2.82313 0
M  V30 44897 H 4386.03 0.562536 1.45826 0
M  V30 44898 H 4386.77 -1.55998 2.84315 0
M  V30 44899 H 4386.55 -0.148298 3.91819 0
M  V30 44900 H 4388.04 -1.1333 4.01928 0
M  V30 44901 N 4388.48 -1.4787 0.54518 0
M  V30 44902 C 4389.71 -2.06889 0.0211567 0
M  V30 44903 C 4390.12 -1.3996 -1.26715 0
M  V30 44904 O 4389.48 -0.492098 -1.7574 0
M  V30 44905 C 4389.53 -3.60997 -0.19069 0
M  V30 44906 O 4389.25 -4.25415 1.04659 0
M  V30 44907 C 4390.75 -4.36852 -0.753368 0
M  V30 44908 H 4387.97 -0.669783 0.0403871 0
M  V30 44909 H 4390.52 -1.90046 0.755162 0
M  V30 44910 H 4388.67 -3.77394 -0.874787 0
M  V30 44911 H 4389.08 -5.17782 0.836793 0
M  V30 44912 H 4390.56 -5.45402 -0.850947 0
M  V30 44913 H 4391.04 -4.02312 -1.76186 0
M  V30 44914 H 4391.64 -4.25169 -0.105354 0
M  V30 44915 N 4389.96 -0.281037 -1.55074 0
M  V30 44916 C 4391.2 0.33454 -2.00022 0
M  V30 44917 C 4391.54 1.55059 -1.1692 0
M  V30 44918 O 4390.81 1.93005 -0.240714 0
M  V30 44919 C 4391.09 0.710883 -3.53013 0
M  V30 44920 C 4390.95 -0.512923 -4.46866 0
M  V30 44921 C 4392.27 1.54508 -4.12087 0
M  V30 44922 H 4389.38 0.120122 -0.727145 0
M  V30 44923 H 4392.03 -0.389162 -1.85972 0
M  V30 44924 H 4390.18 1.32748 -3.65117 0
M  V30 44925 H 4391.85 -1.15147 -4.46698 0
M  V30 44926 H 4390.09 -1.1499 -4.18282 0
M  V30 44927 H 4390.76 -0.205749 -5.51616 0
M  V30 44928 H 4393.24 1.02428 -4.03296 0
M  V30 44929 H 4392.11 1.77721 -5.19333 0
M  V30 44930 H 4392.38 2.528 -3.62691 0
M  V30 44931 N 4391.44 1.57598 -0.00841331 0
M  V30 44932 C 4392.37 2.11984 0.979039 0
M  V30 44933 C 4393.35 1.03096 1.35297 0
M  V30 44934 O 4394.53 1.30823 1.43524 0
M  V30 44935 C 4391.66 2.63003 2.26819 0
M  V30 44936 C 4390.62 3.76492 2.03563 0
M  V30 44937 C 4389.94 4.13858 3.38564 0
M  V30 44938 C 4391.24 5.03425 1.39143 0
M  V30 44939 H 4392.94 2.9474 0.526178 0
M  V30 44940 H 4390.48 1.41784 0.251654 0
M  V30 44941 H 4392.43 2.99679 2.96261 0
M  V30 44942 H 4391.16 1.77379 2.74234 0
M  V30 44943 H 4389.82 3.40222 1.36545 0
M  V30 44944 H 4389.47 3.25246 3.83698 0
M  V30 44945 H 4389.17 4.90323 3.23816 0
M  V30 44946 H 4390.69 4.531 4.09307 0
M  V30 44947 H 4392.1 5.37819 1.98554 0
M  V30 44948 H 4390.5 5.84751 1.34858 0
M  V30 44949 H 4391.57 4.83549 0.361698 0
M  V30 44950 N 4392.91 -0.264465 1.55365 0
M  V30 44951 C 4394.15 -1.00248 1.78128 0
M  V30 44952 C 4394.52 -1.83185 0.575081 0
M  V30 44953 O 4395.72 -2.60027 0.681133 0
M  V30 44954 C 4393.99 -1.85468 3.0551 0
M  V30 44955 S 4395.55 -2.65418 3.49426 0
M  V30 44956 H 4392.37 -0.3375 0.625791 0
M  V30 44957 H 4394.97 -0.272043 1.93598 0
M  V30 44958 H 4393.67 -1.23477 3.91384 0
M  V30 44959 H 4393.2 -2.62817 2.9273 0
M  V30 44960 H 4395.22 -3.87947 3.09373 0
M  V30 44961 N 4394.39 -1.48444 -0.529361 0
M  V30 44962 C 4395.67 -1.46982 -1.29056 0
M  V30 44963 C 4396.05 -0.181843 -2.10315 0
M  V30 44964 O 4395.4 0.836407 -2.12642 0
M  V30 44965 C 4395.61 -2.73218 -2.17148 0
M  V30 44966 C 4396.95 -3.21571 -2.77267 0
M  V30 44967 O 4397.98 -2.74139 -2.27434 0
M  V30 44968 O 4396.84 -4.04107 -3.67912 0
M  V30 44969 H 4393.93 -0.587024 -0.582522 0
M  V30 44970 H 4396.48 -1.60678 -0.545964 0
M  V30 44971 H 4395.25 -3.58471 -1.5689 0
M  V30 44972 H 4394.87 -2.62245 -2.98853 0
M  V30 44973 N 4395.87 0.778281 -1.37042 0
M  V30 44974 C 4397.12 1.53357 -1.31629 0
M  V30 44975 C 4397.44 1.94739 0.100763 0
M  V30 44976 O 4396.71 1.65801 1.04341 0
M  V30 44977 H 4395.29 0.568777 -0.484254 0
M  V30 44978 H 4397.95 0.926681 -1.7146 0
M  V30 44979 H 4397.05 2.43599 -1.95104 0
M  V30 44980 N 4397.35 1.21505 1.00371 0
M  V30 44981 C 4398.29 0.975461 2.09173 0
M  V30 44982 C 4399.26 -0.0990032 1.65805 0
M  V30 44983 O 4400.45 0.0483818 1.90739 0
M  V30 44984 C 4397.59 0.547627 3.40727 0
M  V30 44985 C 4396.7 1.69167 3.975 0
M  V30 44986 C 4395.84 1.21288 5.17168 0
M  V30 44987 C 4394.88 2.32917 5.66053 0
M  V30 44988 N 4394.01 1.86162 6.7697 0
M  V30 44989 H 4398.85 1.90688 2.29002 0
M  V30 44990 H 4396.39 0.950297 1.12284 0
M  V30 44991 H 4398.35 0.280814 4.16254 0
M  V30 44992 H 4396.98 -0.346791 3.20932 0
M  V30 44993 H 4396.03 2.07309 3.18947 0
M  V30 44994 H 4397.34 2.53175 4.29772 0
M  V30 44995 H 4396.5 0.902802 5.99945 0
M  V30 44996 H 4395.24 0.342863 4.86493 0
M  V30 44997 H 4394.24 2.64726 4.81871 0
M  V30 44998 H 4395.47 3.20417 5.98757 0
M  V30 44999 H 4393.41 1.01507 6.48099 0
M  V30 45000 H 4393.33 2.63742 7.08503 0
M  V30 45001 H 4394.6 1.58192 7.63279 0
M  V30 45002 N 4398.83 -1.19885 1.023 0
M  V30 45003 C 4400.07 -1.89971 0.726826 0
M  V30 45004 C 4400.43 -1.77763 -0.736078 0
M  V30 45005 O 4399.72 -1.15528 -1.52852 0
M  V30 45006 C 4399.91 -3.39879 1.1053 0
M  V30 45007 C 4399.74 -3.66675 2.60345 0
M  V30 45008 C 4398.51 -3.85033 3.27227 0
M  V30 45009 C 4400.71 -3.68714 3.58545 0
M  V30 45010 N 4398.69 -3.99406 4.66206 0
M  V30 45011 C 4400.06 -3.88587 4.83115 0
M  V30 45012 C 4402.12 -3.5171 3.52427 0
M  V30 45013 C 4400.82 -3.93218 6.02305 0
M  V30 45014 C 4402.85 -3.57615 4.71026 0
M  V30 45015 C 4402.21 -3.77968 5.94407 0
M  V30 45016 H 4398.31 -0.71454 0.317738 0
M  V30 45017 H 4400.89 -1.44119 1.30912 0
M  V30 45018 H 4399.06 -3.84468 0.551277 0
M  V30 45019 H 4400.8 -3.97462 0.761992 0
M  V30 45020 H 4397.55 -3.83679 2.77646 0
M  V30 45021 H 4397.97 -4.10455 5.38383 0
M  V30 45022 H 4402.62 -3.34936 2.58027 0
M  V30 45023 H 4400.33 -4.08786 6.97079 0
M  V30 45024 H 4403.92 -3.45757 4.67914 0
M  V30 45025 H 4402.8 -3.82404 6.84643 0
M  V30 45026 N 4400.3 -0.80008 -1.35781 0
M  V30 45027 C 4401.25 -0.178734 -2.27298 0
M  V30 45028 C 4402.24 0.643615 -1.47467 0
M  V30 45029 O 4403.43 0.50194 -1.69734 0
M  V30 45030 C 4400.56 0.677076 -3.36557 0
M  V30 45031 C 4399.64 -0.154646 -4.23818 0
M  V30 45032 N 4400.04 -1.21444 -4.91004 0
M  V30 45033 C 4398.33 0.0647894 -4.45953 0
M  V30 45034 C 4399.03 -1.72167 -5.55638 0
M  V30 45035 N 4398.01 -1.02916 -5.33769 0
M  V30 45036 H 4401.81 -0.989735 -2.76734 0
M  V30 45037 H 4399.33 -0.640592 -1.49232 0
M  V30 45038 H 4401.32 1.13821 -4.01062 0
M  V30 45039 H 4399.98 1.4865 -2.88675 0
M  V30 45040 H 4400.99 -1.59702 -4.92662 0
M  V30 45041 H 4397.67 0.843872 -4.08883 0
M  V30 45042 H 4399.06 -2.60705 -6.1926 0
M  V30 45043 N 4401.78 1.47579 -0.553014 0
M  V30 45044 C 4403.01 2.06875 -0.0321283 0
M  V30 45045 C 4403.42 1.4063 1.25971 0
M  V30 45046 O 4402.78 0.501411 1.75477 0
M  V30 45047 C 4402.83 3.61093 0.171543 0
M  V30 45048 O 4402.55 4.24854 -1.06914 0
M  V30 45049 C 4404.05 4.37245 0.73019 0
M  V30 45050 H 4401.27 0.66956 -0.0439385 0
M  V30 45051 H 4403.82 1.89643 -0.76523 0
M  V30 45052 H 4401.97 3.77853 0.854761 0
M  V30 45053 H 4402.39 5.17331 -0.86424 0
M  V30 45054 H 4403.86 5.45845 0.822011 0
M  V30 45055 H 4404.34 4.03241 1.7405 0
M  V30 45056 H 4404.94 4.25219 0.0828048 0
M  V30 45057 N 4403.26 0.289257 1.54923 0
M  V30 45058 C 4404.19 -0.58541 2.26042 0
M  V30 45059 C 4405.17 -1.14748 1.25566 0
M  V30 45060 O 4406.36 -1.179 1.54315 0
M  V30 45061 C 4403.49 -1.76295 2.99228 0
M  V30 45062 C 4402.44 -1.33177 4.06753 0
M  V30 45063 C 4401.77 -2.59354 4.67589 0
M  V30 45064 C 4403.07 -0.471593 5.20167 0
M  V30 45065 H 4404.76 0.00774057 2.99399 0
M  V30 45066 H 4402.31 0.00516291 1.43999 0
M  V30 45067 H 4404.26 -2.38085 3.47698 0
M  V30 45068 H 4402.98 -2.38215 2.2343 0
M  V30 45069 H 4401.64 -0.736995 3.59115 0
M  V30 45070 H 4401.29 -3.19563 3.88444 0
M  V30 45071 H 4400.99 -2.31209 5.402 0
M  V30 45072 H 4402.51 -3.21967 5.18816 0
M  V30 45073 H 4403.93 -0.994857 5.64602 0
M  V30 45074 H 4402.32 -0.284429 5.99426 0
M  V30 45075 H 4403.39 0.50621 4.8225 0
M  V30 45076 N 4404.74 -1.57591 0.016771 0
M  V30 45077 C 4405.67 -2.06347 -0.99768 0
M  V30 45078 C 4406.68 -0.984515 -1.29658 0
M  V30 45079 O 4407.87 -1.26097 -1.2634 0
M  V30 45080 C 4404.97 -2.46263 -2.32826 0
M  V30 45081 C 4404.14 -3.77091 -2.21633 0
M  V30 45082 C 4403.2 -4.03692 -3.37519 0
M  V30 45083 O 4402.23 -4.74122 -3.14956 0
M  V30 45084 N 4403.43 -3.52897 -4.60916 0
M  V30 45085 H 4406.2 -2.93999 -0.581772 0
M  V30 45086 H 4403.76 -1.61002 -0.17026 0
M  V30 45087 H 4405.75 -2.6116 -3.09156 0
M  V30 45088 H 4404.32 -1.64041 -2.661 0
M  V30 45089 H 4403.54 -3.7211 -1.30106 0
M  V30 45090 H 4404.83 -4.62829 -2.11344 0
M  V30 45091 H 4404.23 -2.95895 -4.82144 0
M  V30 45092 H 4402.78 -3.73095 -5.34456 0
M  V30 45093 N 4406.22 0.256222 -1.55503 0
M  V30 45094 C 4407.18 1.3004 -1.88739 0
M  V30 45095 C 4408.18 1.41538 -0.763135 0
M  V30 45096 O 4409.37 1.40399 -1.0312 0
M  V30 45097 C 4406.5 2.67945 -2.10756 0
M  V30 45098 H 4407.69 1.01793 -2.82096 0
M  V30 45099 H 4405.25 0.495082 -1.48252 0
M  V30 45100 H 4405.98 3.01347 -1.19836 0
M  V30 45101 H 4405.77 2.60983 -2.92626 0
M  V30 45102 H 4407.26 3.43359 -2.37685 0
M  V30 45103 N 4407.69 1.48722 0.521481 0
M  V30 45104 C 4408.64 1.64334 1.64612 0
M  V30 45105 C 4409.64 0.509586 1.61554 0
M  V30 45106 O 4410.84 0.688583 1.66309 0
M  V30 45107 H 4407.22 0.517824 0.545309 0
M  V30 45108 H 4409.19 2.58772 1.48591 0
M  V30 45109 C 4407.94 1.70816 3.02849 0
M  V30 45110 H 4407.26 2.57421 3.059 0
M  V30 45111 H 4408.7 1.8578 3.81132 0
M  V30 45112 C 4407.16 0.448596 3.339 0
M  V30 45113 O 4407.69 -0.434788 3.9934 0
M  V30 45114 N 4405.9 0.317718 2.88858 0
M  V30 45115 H 4405.44 1.03756 2.35781 0
M  V30 45116 H 4405.4 -0.524004 3.10003 0
M  V30 45117 N 4409.17 -0.771003 1.37453 0
M  V30 45118 C 4410.12 -1.8843 1.33276 0
M  V30 45119 C 4411.09 -1.64913 0.198194 0
M  V30 45120 O 4412.27 -1.8682 0.387672 0
M  V30 45121 C 4409.41 -3.25505 1.14633 0
M  V30 45122 C 4408.53 -3.60971 2.37327 0
M  V30 45123 C 4407.66 -4.87258 2.1155 0
M  V30 45124 C 4406.7 -5.15457 3.30106 0
M  V30 45125 N 4405.84 -6.32933 3.03876 0
M  V30 45126 H 4410.68 -1.91335 2.28462 0
M  V30 45127 H 4408.22 -0.935426 1.13526 0
M  V30 45128 H 4410.17 -4.04578 1.01845 0
M  V30 45129 H 4408.8 -3.21973 0.23095 0
M  V30 45130 H 4407.86 -2.76876 2.60852 0
M  V30 45131 H 4409.17 -3.77748 3.25742 0
M  V30 45132 H 4408.32 -5.74237 1.95797 0
M  V30 45133 H 4407.06 -4.72586 1.20473 0
M  V30 45134 H 4406.07 -4.26953 3.46397 0
M  V30 45135 H 4407.29 -5.32037 4.22035 0
M  V30 45136 H 4405.24 -6.19618 2.15429 0
M  V30 45137 H 4405.15 -6.50129 3.85835 0
M  V30 45138 H 4406.42 -7.22846 2.91742 0
M  V30 45139 N 4410.65 -1.22035 -0.997255 0
M  V30 45140 C 4411.88 -1.06928 -1.77711 0
M  V30 45141 C 4412.3 0.376161 -1.843 0
M  V30 45142 O 4411.66 1.27161 -1.29228 0
M  V30 45143 C 4411.71 -1.68007 -3.1907 0
M  V30 45144 O 4410.81 -0.930794 -4.01759 0
M  V30 45145 H 4410.15 -0.375834 -0.547398 0
M  V30 45146 H 4412.68 -1.61741 -1.25304 0
M  V30 45147 H 4412.69 -1.72551 -3.69716 0
M  V30 45148 H 4411.37 -2.73193 -3.13589 0
M  V30 45149 H 4409.94 -0.961044 -3.60303 0
M  V30 45150 N 4412.13 1.19341 -1.02934 0
M  V30 45151 C 4413.08 2.22578 -0.610542 0
M  V30 45152 C 4414.05 1.61791 0.375889 0
M  V30 45153 O 4415.23 1.88845 0.272444 0
M  V30 45154 C 4412.37 3.45085 0.032026 0
M  V30 45155 C 4411.48 4.20255 -1.0005 0
M  V30 45156 C 4410.62 5.30189 -0.327647 0
M  V30 45157 C 4409.66 5.97116 -1.34605 0
M  V30 45158 N 4408.79 6.98612 -0.698972 0
M  V30 45159 H 4413.63 2.57759 -1.49547 0
M  V30 45160 H 4411.17 1.26641 -0.748355 0
M  V30 45161 H 4413.13 4.15062 0.42182 0
M  V30 45162 H 4411.76 3.10558 0.88053 0
M  V30 45163 H 4410.81 3.49218 -1.50835 0
M  V30 45164 H 4412.12 4.66169 -1.7745 0
M  V30 45165 H 4411.28 6.06587 0.116967 0
M  V30 45166 H 4410.02 4.85347 0.478542 0
M  V30 45167 H 4409.02 5.19468 -1.80092 0
M  V30 45168 H 4410.25 6.44042 -2.15375 0
M  V30 45169 H 4408.19 6.55942 0.0871165 0
M  V30 45170 H 4408.11 7.42719 -1.41084 0
M  V30 45171 H 4409.38 7.79003 -0.278375 0
M  V30 45172 N 4413.61 0.80727 1.35355 0
M  V30 45173 C 4414.56 0.190786 2.272 0
M  V30 45174 C 4415.54 -0.635786 1.47806 0
M  V30 45175 O 4416.73 -0.492931 1.69998 0
M  V30 45176 C 4413.86 -0.659218 3.36911 0
M  V30 45177 C 4412.95 0.17712 4.2373 0
M  V30 45178 N 4413.34 1.24047 4.90353 0
M  V30 45179 C 4411.64 -0.0411386 4.45981 0
M  V30 45180 C 4412.34 1.75111 5.54717 0
M  V30 45181 N 4411.31 1.05745 5.33216 0
M  V30 45182 H 4415.12 1.0044 2.76205 0
M  V30 45183 H 4412.63 0.648497 1.4889 0
M  V30 45184 H 4414.63 -1.11692 4.0166 0
M  V30 45185 H 4413.29 -1.47117 2.89459 0
M  V30 45186 H 4414.3 1.62312 4.91808 0
M  V30 45187 H 4410.97 -0.822176 4.09324 0
M  V30 45188 H 4412.36 2.63985 6.17868 0
M  V30 45189 N 4415.08 -1.47283 0.560833 0
M  V30 45190 C 4416.5 -1.58064 0.220865 0
M  V30 45191 C 4416.7 -1.55896 -1.27666 0
M  V30 45192 O 4415.76 -1.46429 -2.05705 0
M  V30 45193 C 4417.07 -2.88415 0.850727 0
M  V30 45194 C 4418.62 -3.02006 0.82229 0
M  V30 45195 C 4419.09 -4.35061 1.43129 0
M  V30 45196 N 4420.58 -4.41706 1.39463 0
M  V30 45197 C 4421.32 -5.4323 1.83544 0
M  V30 45198 N 4420.81 -6.51547 2.35497 0
M  V30 45199 N 4422.61 -5.34298 1.74593 0
M  V30 45200 H 4414.76 -1.46936 1.53374 0
M  V30 45201 H 4417.02 -0.699536 0.639807 0
M  V30 45202 H 4416.73 -2.95748 1.90331 0
M  V30 45203 H 4416.6 -3.75611 0.345905 0
M  V30 45204 H 4418.99 -2.94267 -0.221611 0
M  V30 45205 H 4419.07 -2.16342 1.36491 0
M  V30 45206 H 4418.71 -4.43556 2.47427 0
M  V30 45207 H 4418.64 -5.19462 0.864082 0
M  V30 45208 H 4421.13 -3.64024 1.01465 0
M  V30 45209 H 4421.45 -7.25194 2.67046 0
M  V30 45210 H 4419.79 -6.52426 2.3951 0
M  V30 45211 H 4422.98 -4.48576 1.33779 0
M  V30 45212 H 4423.16 -6.1328 2.09264 0
M  V30 45213 N 4416.56 -0.297469 -1.54767 0
M  V30 45214 C 4417.81 0.313599 -1.99247 0
M  V30 45215 C 4418.12 1.55277 -1.18947 0
M  V30 45216 O 4419.33 2.2382 -1.53678 0
M  V30 45217 C 4417.79 0.609282 -3.54705 0
M  V30 45218 C 4417.39 -0.611348 -4.43809 0
M  V30 45219 C 4419.14 1.18174 -4.07719 0
M  V30 45220 C 4417.05 -0.289012 -5.90693 0
M  V30 45221 H 4415.98 0.120953 -0.744235 0
M  V30 45222 H 4418.63 -0.405623 -1.78961 0
M  V30 45223 H 4417.01 1.388 -3.70878 0
M  V30 45224 H 4418.18 -1.38766 -4.3941 0
M  V30 45225 H 4416.5 -1.10219 -4.01548 0
M  V30 45226 H 4419.09 1.43709 -5.15026 0
M  V30 45227 H 4419.44 2.12287 -3.58106 0
M  V30 45228 H 4419.97 0.464805 -3.95075 0
M  V30 45229 H 4416.71 -1.19861 -6.44448 0
M  V30 45230 H 4416.23 0.450094 -5.98109 0
M  V30 45231 H 4417.91 0.110705 -6.46905 0
M  V30 45232 N 4418.04 1.5758 -0.0251282 0
M  V30 45233 C 4419.27 1.95933 0.664678 0
M  V30 45234 C 4419.68 0.901411 1.65892 0
M  V30 45235 O 4419.04 -0.117191 1.82123 0
M  V30 45236 C 4419.09 3.34347 1.37457 0
M  V30 45237 O 4418.81 4.3608 0.42017 0
M  V30 45238 C 4420.31 3.87308 2.15656 0
M  V30 45239 H 4417.53 0.645411 0.183535 0
M  V30 45240 H 4420.08 2.04329 -0.083709 0
M  V30 45241 H 4418.23 3.27182 2.07438 0
M  V30 45242 H 4418.65 5.163 0.923809 0
M  V30 45243 H 4420.12 4.86513 2.60786 0
M  V30 45244 H 4420.6 3.21341 2.99393 0
M  V30 45245 H 4421.2 3.97728 1.5064 0
M  V30 45246 N 4419.52 -0.247971 1.55637 0
M  V30 45247 C 4420.45 -1.31072 1.93242 0
M  V30 45248 C 4421.43 -1.50261 0.797227 0
M  V30 45249 O 4422.61 -1.62887 1.05743 0
M  V30 45250 C 4419.74 -2.66568 2.22619 0
M  V30 45251 C 4418.7 -2.62075 3.38379 0
M  V30 45252 C 4418.02 -4.01356 3.53295 0
M  V30 45253 C 4419.32 -2.19154 4.74098 0
M  V30 45254 H 4421.02 -0.998457 2.82261 0
M  V30 45255 H 4418.56 -0.478862 1.35805 0
M  V30 45256 H 4420.52 -3.41049 2.47515 0
M  V30 45257 H 4419.24 -2.99428 1.30425 0
M  V30 45258 H 4417.9 -1.90052 3.1349 0
M  V30 45259 H 4417.55 -4.3148 2.58523 0
M  V30 45260 H 4417.25 -3.99239 4.31141 0
M  V30 45261 H 4418.77 -4.77539 3.80511 0
M  V30 45262 H 4420.19 -2.83367 4.98373 0
M  V30 45263 H 4418.58 -2.2815 5.55038 0
M  V30 45264 H 4419.65 -1.14319 4.71232 0
M  V30 45265 N 4421 -1.48997 -0.513587 0
M  V30 45266 C 4422.25 -1.57097 -1.26505 0
M  V30 45267 C 4422.56 -0.25716 -1.93902 0
M  V30 45268 O 4423.77 -0.216573 -2.70635 0
M  V30 45269 C 4422.22 -2.77126 -2.29628 0
M  V30 45270 C 4421.83 -4.15215 -1.68227 0
M  V30 45271 C 4423.57 -2.94549 -3.05681 0
M  V30 45272 C 4421.48 -5.26483 -2.69387 0
M  V30 45273 H 4420.41 -0.584892 -0.475833 0
M  V30 45274 H 4423.06 -1.75361 -0.540425 0
M  V30 45275 H 4421.44 -2.52329 -3.05198 0
M  V30 45276 H 4422.62 -4.50098 -0.987347 0
M  V30 45277 H 4420.93 -4.03046 -1.04609 0
M  V30 45278 H 4423.53 -3.74846 -3.81307 0
M  V30 45279 H 4423.87 -2.04627 -3.62538 0
M  V30 45280 H 4424.41 -3.19325 -2.37227 0
M  V30 45281 H 4421.14 -6.18424 -2.17329 0
M  V30 45282 H 4420.66 -4.9607 -3.37157 0
M  V30 45283 H 4422.34 -5.55289 -3.32059 0
M  V30 45284 N 4422.48 0.763702 -1.3786 0
M  V30 45285 C 4423.72 1.52478 -1.3371 0
M  V30 45286 C 4424.05 1.94052 0.0758929 0
M  V30 45287 O 4423.33 1.64678 1.03495 0
M  V30 45288 C 4423.61 2.78433 -2.28358 0
M  V30 45289 C 4423.47 2.43062 -3.78472 0
M  V30 45290 C 4424.78 3.80407 -2.21311 0
M  V30 45291 H 4421.9 0.553151 -0.487024 0
M  V30 45292 H 4424.55 0.875503 -1.68627 0
M  V30 45293 H 4422.7 3.33835 -1.98711 0
M  V30 45294 H 4424.37 1.93512 -4.18749 0
M  V30 45295 H 4422.61 1.75652 -3.96647 0
M  V30 45296 H 4423.28 3.33133 -4.40143 0
M  V30 45297 H 4425.76 3.34518 -2.47461 0
M  V30 45298 H 4424.63 4.66247 -2.89664 0
M  V30 45299 H 4424.89 4.25258 -1.20863 0
M  V30 45300 N 4423.95 1.22562 0.990769 0
M  V30 45301 C 4425.23 0.959935 1.70425 0
M  V30 45302 C 4425.61 -0.524383 2.04483 0
M  V30 45303 O 4424.96 -1.49296 1.72982 0
M  V30 45304 C 4425.17 1.85965 2.95327 0
M  V30 45305 C 4426.52 2.117 3.6806 0
M  V30 45306 O 4427.54 1.8343 3.05339 0
M  V30 45307 O 4426.4 2.59589 4.80912 0
M  V30 45308 H 4423.49 0.36118 0.743961 0
M  V30 45309 H 4426.04 1.33558 1.04692 0
M  V30 45310 H 4424.81 2.86355 2.66676 0
M  V30 45311 H 4424.43 1.48573 3.68798 0
M  V30 45312 N 4425.43 -1.18793 1.03566 0
M  V30 45313 C 4426.68 -1.88275 0.734635 0
M  V30 45314 C 4427 -1.80433 -0.739522 0
M  V30 45315 O 4426.27 -1.2193 -1.53329 0
M  V30 45316 H 4424.85 -0.696981 0.268749 0
M  V30 45317 H 4427.51 -1.44187 1.31134 0
M  V30 45318 H 4426.61 -2.94439 1.03499 0
M  V30 45319 N 4426.91 -0.814437 -1.34925 0
M  V30 45320 C 4427.86 -0.218506 -2.31571 0
M  V30 45321 C 4428.85 0.636073 -1.57005 0
M  V30 45322 O 4430.06 0.52836 -1.72071 0
M  V30 45323 H 4426.43 -0.0519063 -0.750206 0
M  V30 45324 H 4428.4 -1.04861 -2.79368 0
M  V30 45325 C 4427.15 0.611949 -3.42273 0
M  V30 45326 H 4426.48 -0.0362983 -3.99784 0
M  V30 45327 H 4427.92 0.995173 -4.12156 0
M  V30 45328 C 4426.37 1.78077 -2.8599 0
M  V30 45329 O 4426.9 2.8786 -2.80178 0
M  V30 45330 N 4425.11 1.5948 -2.42929 0
M  V30 45331 H 4424.66 0.701787 -2.47856 0
M  V30 45332 H 4424.62 2.37839 -2.05621 0
M  V30 45333 N 4428.39 1.46984 -0.568636 0
M  V30 45334 C 4429.35 2.28625 0.162285 0
M  V30 45335 C 4430.35 1.37599 0.832054 0
M  V30 45336 O 4431.54 1.60117 0.686164 0
M  V30 45337 C 4428.67 3.176 1.23867 0
M  V30 45338 H 4429.87 2.9472 -0.555003 0
M  V30 45339 H 4427.42 1.52862 -0.32603 0
M  V30 45340 H 4428.15 2.56221 1.98799 0
M  V30 45341 H 4427.94 3.84603 0.763083 0
M  V30 45342 H 4429.43 3.79084 1.75172 0
M  V30 45343 N 4429.87 0.305673 1.54607 0
M  V30 45344 C 4431.11 -0.302676 2.00529 0
M  V30 45345 C 4431.44 -1.53179 1.19372 0
M  V30 45346 O 4430.72 -1.92597 0.271389 0
M  V30 45347 C 4431 -0.654632 3.541 0
M  V30 45348 C 4430.86 0.58395 4.45993 0
M  V30 45349 C 4432.17 -1.47932 4.14493 0
M  V30 45350 H 4429.29 -0.108538 0.728964 0
M  V30 45351 H 4431.94 0.4187 1.85329 0
M  V30 45352 H 4430.09 -1.26922 3.67182 0
M  V30 45353 H 4431.76 1.22239 4.44809 0
M  V30 45354 H 4430 1.2163 4.164 0
M  V30 45355 H 4430.67 0.293481 5.51219 0
M  V30 45356 H 4433.15 -0.959988 4.04875 0
M  V30 45357 H 4432.02 -1.69436 5.22094 0
M  V30 45358 H 4432.28 -2.46998 3.66667 0
M  V30 45359 N 4431.34 -1.57564 0.0334847 0
M  V30 45360 C 4432.59 -1.91601 -0.642932 0
M  V30 45361 C 4432.91 -0.910908 -1.72417 0
M  V30 45362 O 4432.18 0.0469242 -1.95844 0
M  V30 45363 H 4430.76 -0.707236 -0.240471 0
M  V30 45364 H 4433.42 -1.94726 0.0823173 0
M  V30 45365 H 4432.52 -2.9234 -1.09288 0
M  V30 45366 N 4432.82 0.239714 -1.55766 0
M  V30 45367 C 4433.78 1.28031 -1.90107 0
M  V30 45368 C 4434.78 1.4072 -0.778104 0
M  V30 45369 O 4435.97 1.39297 -1.04604 0
M  V30 45370 C 4433.11 2.65695 -2.13586 0
M  V30 45371 H 4434.3 0.987948 -2.8316 0
M  V30 45372 H 4431.85 0.47933 -1.48769 0
M  V30 45373 H 4432.59 3.00059 -1.23025 0
M  V30 45374 H 4432.37 2.57865 -2.95378 0
M  V30 45375 H 4433.86 3.40819 -2.41313 0
M  V30 45376 N 4434.3 1.49267 0.505678 0
M  V30 45377 C 4435.21 1.68317 1.63421 0
M  V30 45378 C 4436.23 0.565739 1.64546 0
M  V30 45379 O 4437.4 0.839866 1.83053 0
M  V30 45380 C 4434.47 1.74118 2.99807 0
M  V30 45381 C 4433.53 2.97664 3.09345 0
M  V30 45382 C 4432.76 3.03178 4.39225 0
M  V30 45383 O 4432.98 2.16415 5.27751 0
M  V30 45384 O 4431.92 3.95596 4.53638 0
M  V30 45385 H 4435.74 2.63912 1.5028 0
M  V30 45386 H 4433.33 1.32953 0.681455 0
M  V30 45387 H 4435.21 1.80313 3.80874 0
M  V30 45388 H 4433.89 0.817011 3.1322 0
M  V30 45389 H 4432.79 2.96989 2.27483 0
M  V30 45390 H 4434.13 3.89546 3.00857 0
M  V30 45391 N 4435.78 -0.756381 1.38263 0
M  V30 45392 C 4437 -1.55072 1.37723 0
M  V30 45393 C 4437.43 -1.88073 -0.0315739 0
M  V30 45394 O 4436.79 -1.50368 -1.01288 0
M  V30 45395 C 4436.83 -2.82822 2.23705 0
M  V30 45396 O 4435.94 -3.77856 1.65223 0
M  V30 45397 H 4435.28 -0.469136 0.469902 0
M  V30 45398 H 4437.81 -0.934955 1.81988 0
M  V30 45399 H 4437.82 -3.31774 2.37465 0
M  V30 45400 H 4436.49 -2.58132 3.26099 0
M  V30 45401 H 4435.07 -3.36549 1.6059 0
M  V30 45402 N 4437.26 -1.23086 -0.984255 0
M  V30 45403 C 4438.67 -1.05614 -1.53956 0
M  V30 45404 C 4439.02 0.377725 -1.9253 0
M  V30 45405 O 4438.14 1.26392 -1.75653 0
M  V30 45406 C 4438.74 -1.91097 -2.79763 0
M  V30 45407 C 4437.3 -1.77897 -3.31707 0
M  V30 45408 C 4436.44 -1.87035 -2.04727 0
M  V30 45409 H 4439.4 -1.36805 -0.804371 0
M  V30 45410 H 4439.42 -1.43348 -3.52465 0
M  V30 45411 H 4438.93 -2.95449 -2.51658 0
M  V30 45412 H 4437.03 -0.763123 -3.64702 0
M  V30 45413 H 4437.14 -2.61062 -4.01726 0
M  V30 45414 H 4435.51 -1.30572 -2.18685 0
M  V30 45415 H 4436.29 -2.92936 -1.79007 0
M  V30 45416 N 4438.73 1.18243 -1.04194 0
M  V30 45417 C 4439.68 2.19841 -0.604469 0
M  V30 45418 C 4440.67 1.56963 0.353759 0
M  V30 45419 O 4441.86 1.76156 0.172608 0
M  V30 45420 C 4438.99 3.43287 0.0297768 0
M  V30 45421 C 4438.08 4.13284 -0.951676 0
M  V30 45422 N 4438.47 4.59263 -2.11922 0
M  V30 45423 C 4436.76 4.39163 -0.777955 0
M  V30 45424 C 4437.47 5.13164 -2.7393 0
M  V30 45425 N 4436.44 5.04756 -2.01797 0
M  V30 45426 H 4440.24 2.53083 -1.49419 0
M  V30 45427 H 4437.76 1.34462 -0.910705 0
M  V30 45428 H 4439.75 4.15335 0.360891 0
M  V30 45429 H 4438.41 3.11541 0.915018 0
M  V30 45430 H 4439.43 4.53672 -2.49805 0
M  V30 45431 H 4436.1 4.17461 0.0570864 0
M  V30 45432 H 4437.49 5.58934 -3.72884 0
M  V30 45433 N 4440.21 0.821581 1.34491 0
M  V30 45434 C 4441.44 0.421955 2.02552 0
M  V30 45435 C 4441.86 -0.971688 1.61875 0
M  V30 45436 O 4441.21 -1.62861 0.823553 0
M  V30 45437 C 4441.26 0.512975 3.57842 0
M  V30 45438 O 4440.98 1.85169 3.97044 0
M  V30 45439 C 4442.49 0.108077 4.43168 0
M  V30 45440 H 4439.71 0.169505 0.649237 0
M  V30 45441 H 4442.25 1.10936 1.71794 0
M  V30 45442 H 4440.4 -0.126338 3.87194 0
M  V30 45443 H 4440.82 1.82499 4.91726 0
M  V30 45444 H 4442.29 0.222851 5.5155 0
M  V30 45445 H 4442.77 -0.94825 4.28841 0
M  V30 45446 H 4443.38 0.721136 4.19142 0
M  V30 45447 N 4441.69 -1.4668 0.576422 0
M  V30 45448 C 4442.62 -2.28342 -0.198151 0
M  V30 45449 C 4443.64 -1.38144 -0.861405 0
M  V30 45450 O 4444.82 -1.62799 -0.732024 0
M  V30 45451 C 4441.92 -3.12991 -1.29961 0
M  V30 45452 C 4441.1 -4.31274 -0.729488 0
M  V30 45453 C 4440.16 -4.97369 -1.71786 0
M  V30 45454 O 4439.18 -5.55161 -1.25639 0
M  V30 45455 N 4440.38 -4.93807 -3.0518 0
M  V30 45456 H 4443.15 -2.95459 0.502428 0
M  V30 45457 H 4440.71 -1.56523 0.41377 0
M  V30 45458 H 4442.7 -3.54073 -1.95996 0
M  V30 45459 H 4441.27 -2.4799 -1.90314 0
M  V30 45460 H 4440.49 -3.94052 0.10815 0
M  V30 45461 H 4441.78 -5.0774 -0.328259 0
M  V30 45462 H 4441.18 -4.48089 -3.45301 0
M  V30 45463 H 4439.74 -5.3885 -3.66721 0
M  V30 45464 N 4443.17 -0.313868 -1.54443 0
M  V30 45465 C 4444.39 0.296609 -2.05268 0
M  V30 45466 C 4444.82 1.45753 -1.18903 0
M  V30 45467 O 4444.18 1.80238 -0.195949 0
M  V30 45468 C 4444.22 0.718186 -3.53376 0
M  V30 45469 O 4443.33 1.82162 -3.69988 0
M  V30 45470 H 4442.67 0.0553828 -0.661686 0
M  V30 45471 H 4445.2 -0.459457 -1.99374 0
M  V30 45472 H 4445.21 1.0035 -3.95467 0
M  V30 45473 H 4443.88 -0.130967 -4.15694 0
M  V30 45474 H 4442.46 1.53586 -3.39802 0
M  V30 45475 N 4444.65 1.57544 -0.0418402 0
M  V30 45476 C 4445.87 1.96627 0.643859 0
M  V30 45477 C 4446.29 0.918955 1.64926 0
M  V30 45478 O 4445.65 -0.0978683 1.82237 0
M  V30 45479 C 4445.7 3.35786 1.33903 0
M  V30 45480 O 4445.42 4.36502 0.373895 0
M  V30 45481 C 4446.92 3.89573 2.11536 0
M  V30 45482 H 4444.14 0.647322 0.176679 0
M  V30 45483 H 4446.68 2.04228 -0.105376 0
M  V30 45484 H 4444.84 3.29364 2.03956 0
M  V30 45485 H 4445.25 5.17251 0.868997 0
M  V30 45486 H 4446.73 4.89251 2.55611 0
M  V30 45487 H 4447.2 3.24499 2.95968 0
M  V30 45488 H 4447.81 3.99304 1.46413 0
M  V30 45489 N 4446.12 -0.23145 1.55891 0
M  V30 45490 C 4447.35 -0.978625 1.8286 0
M  V30 45491 C 4447.77 -1.77557 0.620909 0
M  V30 45492 O 4447.13 -1.76121 -0.430243 0
M  V30 45493 C 4447.18 -1.87986 3.07723 0
M  V30 45494 O 4446.28 -2.97383 2.85722 0
M  V30 45495 H 4445.63 -0.277642 0.603167 0
M  V30 45496 H 4448.16 -0.247759 2.03094 0
M  V30 45497 H 4448.17 -2.29158 3.37566 0
M  V30 45498 H 4446.84 -1.29403 3.95256 0
M  V30 45499 H 4445.42 -2.60228 2.67087 0
M  V30 45500 N 4447.6 -1.49533 -0.497755 0
M  V30 45501 C 4448.85 -1.59419 -1.25353 0
M  V30 45502 C 4449.18 -0.281489 -1.92149 0
M  V30 45503 O 4448.46 0.715186 -1.80874 0
M  V30 45504 C 4448.74 -2.75574 -2.318 0
M  V30 45505 C 4448.59 -4.16648 -1.69483 0
M  V30 45506 C 4449.91 -2.87359 -3.33336 0
M  V30 45507 H 4447.03 -0.58026 -0.454387 0
M  V30 45508 H 4449.67 -1.81829 -0.551198 0
M  V30 45509 H 4447.82 -2.56597 -2.91702 0
M  V30 45510 H 4449.49 -4.47149 -1.13383 0
M  V30 45511 H 4447.74 -4.22144 -0.99883 0
M  V30 45512 H 4448.41 -4.93801 -2.46708 0
M  V30 45513 H 4450.88 -3.04644 -2.83428 0
M  V30 45514 H 4449.76 -3.70303 -4.05175 0
M  V30 45515 H 4450.02 -1.96848 -3.95858 0
M  V30 45516 N 4449.08 0.749038 -1.38662 0
M  V30 45517 C 4450.36 1.49916 -1.25637 0
M  V30 45518 C 4450.74 2.10634 0.140243 0
M  V30 45519 O 4450.09 1.97442 1.15018 0
M  V30 45520 C 4450.3 2.56186 -2.37001 0
M  V30 45521 C 4451.64 3.22963 -2.75645 0
M  V30 45522 O 4452.67 2.66493 -2.36347 0
M  V30 45523 O 4451.53 4.25109 -3.4343 0
M  V30 45524 H 4448.62 0.665049 -0.491567 0
M  V30 45525 H 4451.17 0.78406 -1.50501 0
M  V30 45526 H 4449.94 2.09601 -3.30429 0
M  V30 45527 H 4449.56 3.35272 -2.13726 0
M  V30 45528 N 4450.56 1.23606 0.977714 0
M  V30 45529 C 4451.79 1.09652 1.75454 0
M  V30 45530 C 4452.2 -0.351794 1.85494 0
M  V30 45531 O 4451.56 -1.24323 1.33604 0
M  V30 45532 C 4451.61 1.71906 3.1801 0
M  V30 45533 O 4451.33 3.11074 3.08487 0
M  V30 45534 C 4452.83 1.63429 4.12075 0
M  V30 45535 H 4450.05 0.383609 0.550532 0
M  V30 45536 H 4452.6 1.63511 1.22818 0
M  V30 45537 H 4450.75 1.22074 3.67664 0
M  V30 45538 H 4451.17 3.41319 3.98248 0
M  V30 45539 H 4452.64 2.11687 5.09797 0
M  V30 45540 H 4453.12 0.593615 4.3517 0
M  V30 45541 H 4453.72 2.12641 3.68326 0
M  V30 45542 N 4452.04 -1.17688 1.0482 0
M  V30 45543 C 4452.99 -2.23629 0.639739 0
M  V30 45544 C 4453.98 -1.66011 -0.337161 0
M  V30 45545 O 4455.19 -1.78844 -0.20363 0
M  V30 45546 H 4451.56 -0.727942 0.188691 0
M  V30 45547 H 4453.53 -2.55382 1.54346 0
M  V30 45548 C 4452.28 -3.4769 0.0265274 0
M  V30 45549 H 4451.6 -3.92329 0.769302 0
M  V30 45550 H 4453.04 -4.23419 -0.22195 0
M  V30 45551 C 4451.5 -3.13811 -1.22572 0
M  V30 45552 O 4452.03 -3.28244 -2.31558 0
M  V30 45553 N 4450.24 -2.68069 -1.12193 0
M  V30 45554 H 4449.79 -2.56525 -0.235043 0
M  V30 45555 H 4449.74 -2.45774 -1.96067 0
M  V30 45556 N 4453.52 -0.828702 -1.34053 0
M  V30 45557 C 4454.46 -0.243055 -2.31327 0
M  V30 45558 C 4455.46 0.619385 -1.57671 0
M  V30 45559 O 4456.66 0.51008 -1.72622 0
M  V30 45560 H 4453.04 -0.0598603 -0.749614 0
M  V30 45561 H 4455.01 -1.07819 -2.7824 0
M  V30 45562 C 4453.76 0.575612 -3.42902 0
M  V30 45563 H 4453.08 -0.0786987 -3.99723 0
M  V30 45564 H 4454.52 0.951402 -4.13188 0
M  V30 45565 C 4452.98 1.75034 -2.87863 0
M  V30 45566 O 4453.51 2.84872 -2.83215 0
M  V30 45567 N 4451.72 1.56894 -2.44607 0
M  V30 45568 H 4451.26 0.675459 -2.48587 0
M  V30 45569 H 4451.22 2.35644 -2.08132 0
M  V30 45570 N 4454.99 1.46373 -0.584193 0
M  V30 45571 C 4456.4 1.8603 -0.158024 0
M  V30 45572 C 4456.76 1.48758 1.27928 0
M  V30 45573 O 4455.88 0.903167 1.96652 0
M  V30 45574 C 4456.48 3.37641 -0.280011 0
M  V30 45575 C 4455.03 3.76289 0.0912977 0
M  V30 45576 C 4454.18 2.70388 -0.615273 0
M  V30 45577 H 4457.13 1.37506 -0.792322 0
M  V30 45578 H 4457.15 3.77277 0.494231 0
M  V30 45579 H 4456.67 3.64738 -1.3262 0
M  V30 45580 H 4454.77 3.5481 1.13756 0
M  V30 45581 H 4454.88 4.78245 -0.286054 0
M  V30 45582 H 4453.24 2.5464 -0.0553728 0
M  V30 45583 H 4454.03 3.00324 -1.66314 0
M  V30 45584 N 4456.47 0.322054 1.54274 0
M  V30 45585 C 4457.72 -0.281861 1.99721 0
M  V30 45586 C 4458.03 -1.53365 1.21403 0
M  V30 45587 O 4459.24 -2.21347 1.57219 0
M  V30 45588 C 4457.7 -0.552775 3.5563 0
M  V30 45589 C 4457.3 0.681876 4.4278 0
M  V30 45590 C 4459.05 -1.11673 4.09548 0
M  V30 45591 C 4456.95 0.38295 5.90159 0
M  V30 45592 H 4455.88 -0.109098 0.746065 0
M  V30 45593 H 4458.54 0.434042 1.78293 0
M  V30 45594 H 4456.92 -1.32882 3.73039 0
M  V30 45595 H 4458.09 1.45739 4.37146 0
M  V30 45596 H 4456.41 1.16594 3.99743 0
M  V30 45597 H 4459 -1.35497 5.17247 0
M  V30 45598 H 4459.35 -2.06563 3.61438 0
M  V30 45599 H 4459.88 -0.401893 3.95765 0
M  V30 45600 H 4456.62 1.30098 6.4246 0
M  V30 45601 H 4456.14 -0.354884 5.98749 0
M  V30 45602 H 4457.82 -0.00777412 6.47 0
M  V30 45603 N 4457.95 -1.5752 0.0501946 0
M  V30 45604 C 4459.18 -1.9668 -0.632504 0
M  V30 45605 C 4459.59 -0.926356 -1.64971 0
M  V30 45606 O 4458.93 0.0979555 -1.83439 0
M  V30 45607 C 4458.99 -3.32073 -1.37723 0
M  V30 45608 C 4458.66 -4.54078 -0.515971 0
M  V30 45609 C 4459.65 -5.19445 0.217539 0
M  V30 45610 C 4457.34 -5.00305 -0.447184 0
M  V30 45611 C 4459.33 -6.29375 1.00829 0
M  V30 45612 C 4457.02 -6.10113 0.347252 0
M  V30 45613 C 4458.02 -6.74508 1.07368 0
M  V30 45614 O 4457.71 -7.82204 1.85505 0
M  V30 45615 H 4457.44 -0.652199 -0.177798 0
M  V30 45616 H 4459.99 -2.05091 0.112615 0
M  V30 45617 H 4458.22 -3.20214 -2.16795 0
M  V30 45618 H 4459.91 -3.55988 -1.95007 0
M  V30 45619 H 4460.68 -4.84688 0.173858 0
M  V30 45620 H 4456.56 -4.49975 -1.00219 0
M  V30 45621 H 4460.1 -6.79569 1.5758 0
M  V30 45622 H 4456 -6.44305 0.392575 0
M  V30 45623 H 4456.76 -7.98976 1.77706 0
M  V30 45624 N 4459.43 0.223179 -1.56012 0
M  V30 45625 C 4460.67 0.949216 -1.79214 0
M  V30 45626 C 4461.01 1.84052 -0.619559 0
M  V30 45627 O 4460.28 1.90727 0.381249 0
M  V30 45628 C 4460.56 1.78954 -3.12486 0
M  V30 45629 C 4460.42 0.924842 -4.40189 0
M  V30 45630 C 4461.74 2.76762 -3.42185 0
M  V30 45631 H 4458.86 0.343654 -0.651975 0
M  V30 45632 H 4461.5 0.218187 -1.88743 0
M  V30 45633 H 4459.65 2.4128 -3.04493 0
M  V30 45634 H 4461.32 0.318454 -4.60199 0
M  V30 45635 H 4459.56 0.230192 -4.33189 0
M  V30 45636 H 4460.23 1.54716 -5.29874 0
M  V30 45637 H 4462.71 2.24572 -3.50295 0
M  V30 45638 H 4461.59 3.32662 -4.36608 0
M  V30 45639 H 4461.85 3.5442 -2.64271 0
M  V30 45640 N 4460.91 1.49795 0.489818 0
M  V30 45641 C 4462.15 1.59529 1.24076 0
M  V30 45642 C 4462.47 0.289021 1.92846 0
M  V30 45643 O 4461.74 -0.692371 1.83257 0
M  V30 45644 H 4460.32 0.587812 0.460962 0
M  V30 45645 H 4462.99 1.86479 0.566713 0
M  V30 45646 H 4462.08 2.39703 1.99872 0
M  V30 45647 N 4462.38 -0.741673 1.39057 0
M  V30 45648 C 4463.63 -1.49813 1.35649 0
M  V30 45649 C 4463.95 -1.94938 -0.0490957 0
M  V30 45650 O 4463.22 -1.68509 -0.999082 0
M  V30 45651 H 4461.8 -0.555738 0.499164 0
M  V30 45652 H 4464.46 -0.880896 1.73857 0
M  V30 45653 H 4463.56 -2.38341 2.01494 0
M  V30 45654 N 4463.86 -1.24123 -0.971145 0
M  V30 45655 C 4465.09 -1.10421 -1.74616 0
M  V30 45656 C 4465.5 0.346397 -1.86002 0
M  V30 45657 O 4464.84 1.25099 -1.34521 0
M  V30 45658 C 4464.9 -1.66608 -3.18563 0
M  V30 45659 C 4464.57 -3.15458 -3.30659 0
M  V30 45660 C 4465.57 -4.12647 -3.16256 0
M  V30 45661 C 4463.25 -3.5535 -3.5501 0
M  V30 45662 C 4465.24 -5.4771 -3.26025 0
M  V30 45663 C 4462.93 -4.90555 -3.64417 0
M  V30 45664 C 4463.93 -5.86544 -3.49936 0
M  V30 45665 O 4463.62 -7.19291 -3.58992 0
M  V30 45666 H 4463.35 -0.386636 -0.554517 0
M  V30 45667 H 4465.9 -1.64638 -1.22815 0
M  V30 45668 H 4464.13 -1.06821 -3.71653 0
M  V30 45669 H 4465.82 -1.48246 -3.7786 0
M  V30 45670 H 4466.59 -3.8317 -2.97331 0
M  V30 45671 H 4462.47 -2.81143 -3.65349 0
M  V30 45672 H 4466.01 -6.22614 -3.14639 0
M  V30 45673 H 4461.91 -5.19704 -3.82854 0
M  V30 45674 H 4462.68 -7.27166 -3.75728 0
M  V30 45675 N 4465.34 1.17131 -1.05443 0
M  V30 45676 C 4466.75 1.69081 -0.791735 0
M  V30 45677 C 4467.1 1.83825 0.685774 0
M  V30 45678 O 4466.23 1.52762 1.53273 0
M  V30 45679 C 4466.82 3.07114 -1.4306 0
M  V30 45680 C 4465.38 3.5622 -1.2159 0
M  V30 45681 C 4464.53 2.32416 -1.51255 0
M  V30 45682 H 4467.48 1.01613 -1.21904 0
M  V30 45683 H 4467.5 3.71084 -0.84125 0
M  V30 45684 H 4467.01 2.96351 -2.50594 0
M  V30 45685 H 4465.11 3.72257 -0.159918 0
M  V30 45686 H 4465.23 4.38831 -1.92262 0
M  V30 45687 H 4463.59 2.37007 -0.932737 0
M  V30 45688 H 4464.37 2.24259 -2.59928 0
M  V30 45689 N 4466.82 0.835799 1.33612 0
M  V30 45690 C 4467.78 0.27208 2.27579 0
M  V30 45691 C 4468.78 -0.557434 1.50829 0
M  V30 45692 O 4469.97 -0.37167 1.70189 0
M  V30 45693 C 4467.1 -0.617055 3.35269 0
M  V30 45694 H 4468.3 1.10121 2.7895 0
M  V30 45695 H 4465.85 0.608645 1.43962 0
M  V30 45696 H 4466.58 -1.46874 2.89134 0
M  V30 45697 H 4466.37 -0.0235688 3.92093 0
M  V30 45698 H 4467.86 -1.00485 4.0533 0
M  V30 45699 N 4468.3 -1.46061 0.591947 0
M  V30 45700 C 4469.54 -2.01938 0.0809101 0
M  V30 45701 C 4469.87 -1.46479 -1.2872 0
M  V30 45702 O 4469.14 -0.653009 -1.84696 0
M  V30 45703 H 4467.72 -0.746515 0.0269201 0
M  V30 45704 H 4470.38 -1.79053 0.769815 0
M  V30 45705 H 4469.47 -3.12094 0.0188675 0
M  V30 45706 N 4469.77 -0.330231 -1.54101 0
M  V30 45707 C 4471.02 0.270735 -2.00985 0
M  V30 45708 C 4471.35 1.51261 -1.21794 0
M  V30 45709 O 4470.63 1.92141 -0.301995 0
M  V30 45710 C 4470.91 0.598214 -3.55096 0
M  V30 45711 C 4470.76 -0.65483 -4.45008 0
M  V30 45712 C 4472.08 1.41319 -4.16794 0
M  V30 45713 H 4469.2 0.0969274 -0.730598 0
M  V30 45714 H 4471.84 -0.448131 -1.8464 0
M  V30 45715 H 4469.99 1.21065 -3.69155 0
M  V30 45716 H 4471.67 -1.293 -4.42808 0
M  V30 45717 H 4469.91 -1.28239 -4.14412 0
M  V30 45718 H 4470.58 -0.381138 -5.50683 0
M  V30 45719 H 4473.06 0.895454 -4.06351 0
M  V30 45720 H 4471.93 1.61109 -5.24724 0
M  V30 45721 H 4472.19 2.41133 -3.7055 0
M  V30 45722 N 4471.25 1.57491 -0.0585476 0
M  V30 45723 C 4472.2 2.11961 0.913301 0
M  V30 45724 C 4473.17 1.02879 1.30404 0
M  V30 45725 O 4474.35 1.30469 1.39221 0
M  V30 45726 C 4471.49 2.67505 2.18026 0
M  V30 45727 C 4470.61 3.90698 1.84335 0
M  V30 45728 C 4469.74 4.3453 3.05543 0
M  V30 45729 C 4468.78 5.50405 2.67808 0
M  V30 45730 N 4467.92 5.89257 3.81733 0
M  V30 45731 H 4472.76 2.94705 0.441913 0
M  V30 45732 H 4470.3 1.45643 0.206494 0
M  V30 45733 H 4472.25 2.97811 2.92172 0
M  V30 45734 H 4470.88 1.87546 2.62729 0
M  V30 45735 H 4469.94 3.66937 1.00306 0
M  V30 45736 H 4471.25 4.74896 1.52563 0
M  V30 45737 H 4470.4 4.66428 3.87982 0
M  V30 45738 H 4469.14 3.49159 3.40499 0
M  V30 45739 H 4468.15 5.18172 1.83788 0
M  V30 45740 H 4469.37 6.37498 2.34037 0
M  V30 45741 H 4467.32 5.06837 4.16476 0
M  V30 45742 H 4467.23 6.68164 3.53685 0
M  V30 45743 H 4468.5 6.25772 4.64789 0
M  V30 45744 N 4472.73 -0.214903 1.56128 0
M  V30 45745 C 4473.66 -1.28997 1.89453 0
M  V30 45746 C 4474.68 -1.42713 0.783376 0
M  V30 45747 O 4475.86 -1.43492 1.06171 0
M  V30 45748 C 4472.96 -2.66475 2.09391 0
M  V30 45749 C 4472.14 -2.74621 3.40444 0
M  V30 45750 C 4471.2 -3.93158 3.49733 0
M  V30 45751 O 4470.22 -3.81185 4.22713 0
M  V30 45752 N 4471.42 -5.07755 2.81364 0
M  V30 45753 H 4474.19 -1.00733 2.82264 0
M  V30 45754 H 4471.75 -0.404915 1.56755 0
M  V30 45755 H 4473.74 -3.44166 2.12914 0
M  V30 45756 H 4472.31 -2.8731 1.23173 0
M  V30 45757 H 4471.53 -1.83356 3.48962 0
M  V30 45758 H 4472.82 -2.77039 4.26764 0
M  V30 45759 H 4472.22 -5.20379 2.21862 0
M  V30 45760 H 4470.78 -5.83464 2.90539 0
M  V30 45761 N 4474.21 -1.50053 -0.481867 0
M  V30 45762 C 4475.16 -1.68128 -1.58119 0
M  V30 45763 C 4476.13 -0.522601 -1.57665 0
M  V30 45764 O 4477.31 -0.751905 -1.7536 0
M  V30 45765 C 4474.45 -1.77152 -2.96161 0
M  V30 45766 C 4473.56 -3.04451 -3.06486 0
M  V30 45767 C 4472.7 -3.04336 -4.35377 0
M  V30 45768 C 4471.74 -4.26134 -4.39405 0
M  V30 45769 N 4470.87 -4.2382 -5.59751 0
M  V30 45770 H 4475.71 -2.61985 -1.42013 0
M  V30 45771 H 4473.25 -1.29879 -0.690641 0
M  V30 45772 H 4475.21 -1.80365 -3.76197 0
M  V30 45773 H 4473.84 -0.867438 -3.10927 0
M  V30 45774 H 4472.89 -3.1076 -2.19391 0
M  V30 45775 H 4474.2 -3.94436 -3.05322 0
M  V30 45776 H 4473.36 -3.06219 -5.23751 0
M  V30 45777 H 4472.1 -2.12162 -4.39134 0
M  V30 45778 H 4471.1 -4.24475 -3.49429 0
M  V30 45779 H 4472.33 -5.19523 -4.37348 0
M  V30 45780 H 4470.27 -3.34494 -5.64314 0
M  V30 45781 H 4470.19 -5.07562 -5.60283 0
M  V30 45782 H 4471.46 -4.29833 -6.5028 0
M  V30 45783 N 4475.69 0.734288 -1.39449 0
M  V30 45784 C 4476.93 1.5065 -1.38145 0
M  V30 45785 C 4477.29 1.91986 0.0228027 0
M  V30 45786 O 4478.49 2.68318 0.160852 0
M  V30 45787 C 4476.76 2.71243 -2.32728 0
M  V30 45788 S 4478.32 3.60883 -2.49617 0
M  V30 45789 H 4475.14 0.515298 -0.489887 0
M  V30 45790 H 4477.74 0.86033 -1.75552 0
M  V30 45791 H 4476.45 2.39015 -3.33616 0
M  V30 45792 H 4475.98 3.40788 -1.96538 0
M  V30 45793 H 4477.99 4.64893 -1.73462 0
M  V30 45794 N 4477.16 1.24636 0.964549 0
M  V30 45795 C 4478.09 1.06618 2.07737 0
M  V30 45796 C 4479.08 -0.0218068 1.70086 0
M  V30 45797 O 4480.26 0.145861 1.93651 0
M  V30 45798 C 4477.39 0.673563 3.40706 0
M  V30 45799 C 4476.34 1.71068 3.92326 0
M  V30 45800 C 4475.67 1.17303 5.21674 0
M  V30 45801 C 4476.97 3.10732 4.19813 0
M  V30 45802 H 4478.66 1.99701 2.23069 0
M  V30 45803 H 4476.21 0.961557 1.07192 0
M  V30 45804 H 4478.16 0.534492 4.17997 0
M  V30 45805 H 4476.89 -0.292959 3.25283 0
M  V30 45806 H 4475.55 1.83802 3.17195 0
M  V30 45807 H 4475.19 0.197023 5.02614 0
M  V30 45808 H 4474.89 1.86612 5.5718 0
M  V30 45809 H 4476.42 1.04614 6.01571 0
M  V30 45810 H 4477.83 3.01209 4.87797 0
M  V30 45811 H 4476.23 3.77423 4.66554 0
M  V30 45812 H 4477.3 3.58535 3.26467 0
M  V30 45813 N 4478.64 -1.1657 1.06062 0
M  V30 45814 C 4480.06 -1.39037 0.783634 0
M  V30 45815 C 4480.26 -1.91786 -0.618077 0
M  V30 45816 O 4479.31 -2.11516 -1.37903 0
M  V30 45817 C 4480.63 -2.37323 1.84658 0
M  V30 45818 C 4482.18 -2.51012 1.86981 0
M  V30 45819 C 4482.65 -3.52578 2.92323 0
M  V30 45820 N 4484.14 -3.60103 2.91342 0
M  V30 45821 C 4484.88 -4.38473 3.69498 0
M  V30 45822 N 4484.37 -5.20286 4.57465 0
M  V30 45823 N 4486.17 -4.33433 3.579 0
M  V30 45824 H 4478.32 -0.806656 1.96486 0
M  V30 45825 H 4480.58 -0.417087 0.851318 0
M  V30 45826 H 4480.29 -2.05653 2.85306 0
M  V30 45827 H 4480.16 -3.3694 1.69562 0
M  V30 45828 H 4482.55 -2.81986 0.869926 0
M  V30 45829 H 4482.63 -1.51438 2.06156 0
M  V30 45830 H 4482.27 -3.22341 3.92503 0
M  V30 45831 H 4482.2 -4.51876 2.70399 0
M  V30 45832 H 4484.69 -3.01699 2.27566 0
M  V30 45833 H 4485.01 -5.77293 5.13763 0
M  V30 45834 H 4483.35 -5.19637 4.61522 0
M  V30 45835 H 4486.54 -3.68576 2.88564 0
M  V30 45836 H 4486.71 -4.94264 4.19055 0
M  V30 45837 N 4480.12 -0.842873 -1.33167 0
M  V30 45838 C 4481.35 -0.4532 -2.02388 0
M  V30 45839 C 4481.77 0.939048 -1.62983 0
M  V30 45840 O 4481.13 1.61469 -0.824457 0
M  V30 45841 C 4481.18 -0.586219 -3.55803 0
M  V30 45842 O 4480.28 0.385885 -4.10591 0
M  V30 45843 H 4479.62 -0.183687 -0.638087 0
M  V30 45844 H 4482.15 -1.13881 -1.69977 0
M  V30 45845 H 4482.16 -0.469351 -4.05291 0
M  V30 45846 H 4480.84 -1.60154 -3.83827 0
M  V30 45847 H 4479.41 0.22624 -3.72213 0
M  V30 45848 N 4481.6 1.45745 -0.599685 0
M  V30 45849 C 4482.53 2.28628 0.161798 0
M  V30 45850 C 4483.54 1.39497 0.839318 0
M  V30 45851 O 4484.73 1.63943 0.706032 0
M  V30 45852 C 4481.83 3.15019 1.24965 0
M  V30 45853 C 4481.01 4.3238 0.660783 0
M  V30 45854 C 4480.07 5.00039 1.63851 0
M  V30 45855 O 4479.09 5.57089 1.16791 0
M  V30 45856 N 4480.29 4.98599 2.97286 0
M  V30 45857 H 4483.06 2.94622 -0.549369 0
M  V30 45858 H 4480.62 1.55845 -0.438619 0
M  V30 45859 H 4482.61 3.57146 1.90338 0
M  V30 45860 H 4481.18 2.50987 1.86345 0
M  V30 45861 H 4480.4 3.9383 -0.170827 0
M  V30 45862 H 4481.69 5.08198 0.24744 0
M  V30 45863 H 4481.09 4.53525 3.38129 0
M  V30 45864 H 4479.64 5.44616 3.58102 0
M  V30 45865 N 4483.08 0.338398 1.53924 0
M  V30 45866 C 4484.31 -0.261226 2.05244 0
M  V30 45867 C 4484.72 -1.44621 1.21368 0
M  V30 45868 O 4484.08 -1.8081 0.2478 0
M  V30 45869 C 4484.13 -0.681287 3.55022 0
M  V30 45870 O 4483.85 0.456568 4.35714 0
M  V30 45871 C 4485.35 -1.34217 4.22493 0
M  V30 45872 H 4482.57 -0.051345 0.669033 0
M  V30 45873 H 4485.11 0.488892 1.9857 0
M  V30 45874 H 4483.27 -1.38136 3.61936 0
M  V30 45875 H 4483.68 0.122748 5.24356 0
M  V30 45876 H 4485.16 -1.58689 5.28698 0
M  V30 45877 H 4485.63 -2.29413 3.74522 0
M  V30 45878 H 4486.24 -0.684276 4.19759 0
M  V30 45879 N 4484.56 -1.57458 0.0668989 0
M  V30 45880 C 4485.78 -1.98042 -0.615957 0
M  V30 45881 C 4486.21 -0.944828 -1.62649 0
M  V30 45882 O 4485.56 0.0901457 -1.81076 0
M  V30 45883 C 4485.61 -3.3767 -1.26537 0
M  V30 45884 O 4484.72 -3.36709 -2.38119 0
M  V30 45885 H 4484.06 -0.644725 -0.158827 0
M  V30 45886 H 4486.59 -2.04121 0.139962 0
M  V30 45887 H 4486.6 -3.74746 -1.61336 0
M  V30 45888 H 4485.27 -4.12575 -0.524871 0
M  V30 45889 H 4483.85 -3.11397 -2.05149 0
M  V30 45890 N 4486.03 0.20662 -1.5624 0
M  V30 45891 C 4487.28 0.928779 -1.79944 0
M  V30 45892 C 4487.61 1.83732 -0.638196 0
M  V30 45893 O 4486.86 1.92041 0.376678 0
M  V30 45894 C 4487.16 1.78664 -3.09538 0
M  V30 45895 C 4486.83 1.03007 -4.38977 0
M  V30 45896 C 4485.49 0.821135 -4.74142 0
M  V30 45897 C 4487.84 0.496898 -5.18826 0
M  V30 45898 C 4485.17 0.0673656 -5.86661 0
M  V30 45899 C 4487.52 -0.243602 -6.32131 0
M  V30 45900 C 4486.19 -0.463656 -6.65888 0
M  V30 45901 H 4485.46 0.339864 -0.658463 0
M  V30 45902 H 4488.1 0.19591 -1.90495 0
M  V30 45903 H 4486.41 2.58783 -2.94174 0
M  V30 45904 H 4488.11 2.34781 -3.25083 0
M  V30 45905 H 4484.7 1.20291 -4.11373 0
M  V30 45906 H 4488.88 0.645748 -4.92081 0
M  V30 45907 H 4484.14 -0.11321 -6.11295 0
M  V30 45908 H 4488.31 -0.664174 -6.93226 0
M  V30 45909 H 4485.94 -1.04965 -7.52919 0
M  V30 45910 N 4487.51 1.50306 0.473902 0
M  V30 45911 C 4488.93 1.3767 0.807418 0
M  V30 45912 C 4489.13 0.430624 1.96845 0
M  V30 45913 O 4488.18 -0.127785 2.52176 0
M  V30 45914 C 4489.5 2.78978 1.12213 0
M  V30 45915 C 4491.04 2.87873 1.22875 0
M  V30 45916 C 4491.52 4.30008 1.57661 0
M  V30 45917 N 4493.01 4.32946 1.64658 0
M  V30 45918 C 4493.75 5.39917 1.93072 0
M  V30 45919 N 4493.24 6.571 2.19527 0
M  V30 45920 N 4495.03 5.27358 1.94551 0
M  V30 45921 H 4487.19 2.10393 -0.291286 0
M  V30 45922 H 4489.45 0.945573 -0.0677942 0
M  V30 45923 H 4489.15 3.50032 0.342106 0
M  V30 45924 H 4489.03 3.16045 2.05902 0
M  V30 45925 H 4491.42 2.17039 1.99945 0
M  V30 45926 H 4491.5 2.54353 0.271724 0
M  V30 45927 H 4491.14 5.01378 0.811313 0
M  V30 45928 H 4491.07 4.61013 2.54508 0
M  V30 45929 H 4493.56 3.48447 1.46265 0
M  V30 45930 H 4493.87 7.34433 2.40474 0
M  V30 45931 H 4492.22 6.60279 2.16925 0
M  V30 45932 H 4495.41 4.34807 1.73378 0
M  V30 45933 H 4495.58 6.10813 2.1636 0
M  V30 45934 N 4488.99 -0.726883 1.39836 0
M  V30 45935 C 4490.24 -1.48366 1.3723 0
M  V30 45936 C 4490.56 -1.94979 -0.0284171 0
M  V30 45937 O 4489.83 -1.69559 -0.981153 0
M  V30 45938 H 4488.41 -0.550412 0.50503 0
M  V30 45939 H 4491.07 -0.862407 1.74781 0
M  V30 45940 H 4490.17 -2.3619 2.04011 0
M  V30 45941 N 4490.47 -1.25146 -0.957926 0
M  V30 45942 C 4491.71 -1.10899 -1.71699 0
M  V30 45943 C 4492.07 0.344713 -1.8888 0
M  V30 45944 O 4493.27 0.608922 -2.61812 0
M  V30 45945 C 4491.54 -1.839 -3.06456 0
M  V30 45946 S 4493.1 -1.85505 -3.9766 0
M  V30 45947 H 4489.92 -0.396448 -0.590212 0
M  V30 45948 H 4492.52 -1.58622 -1.14278 0
M  V30 45949 H 4491.23 -2.88767 -2.91619 0
M  V30 45950 H 4490.76 -1.36551 -3.68941 0
M  V30 45951 H 4492.77 -0.929725 -4.87412 0
M  V30 45952 N 4491.95 1.16006 -1.06679 0
M  V30 45953 C 4492.88 2.22685 -0.702386 0
M  V30 45954 C 4493.86 1.67307 0.306974 0
M  V30 45955 O 4495.04 1.93352 0.181237 0
M  V30 45956 C 4492.17 3.47178 -0.09216 0
M  V30 45957 C 4491.13 4.15473 -1.02792 0
M  V30 45958 C 4490.45 5.33962 -0.280798 0
M  V30 45959 C 4491.75 4.66011 -2.35862 0
M  V30 45960 H 4493.45 2.53423 -1.59427 0
M  V30 45961 H 4490.99 1.2181 -0.768004 0
M  V30 45962 H 4492.94 4.21038 0.174666 0
M  V30 45963 H 4491.67 3.15752 0.834766 0
M  V30 45964 H 4490.33 3.43545 -1.27956 0
M  V30 45965 H 4489.98 4.98791 0.64937 0
M  V30 45966 H 4489.68 5.80597 -0.904463 0
M  V30 45967 H 4491.2 6.10596 -0.0216107 0
M  V30 45968 H 4492.61 5.31433 -2.15063 0
M  V30 45969 H 4491.01 5.23282 -2.93761 0
M  V30 45970 H 4492.08 3.82013 -2.98654 0
M  V30 45971 N 4493.42 0.849923 1.32718 0
M  V30 45972 C 4494.84 0.539154 1.50217 0
M  V30 45973 C 4495.04 -0.931208 1.78692 0
M  V30 45974 O 4494.1 -1.71448 1.85369 0
M  V30 45975 C 4495.41 1.42205 2.64949 0
M  V30 45976 C 4496.96 1.42198 2.78834 0
M  V30 45977 C 4497.43 2.28999 3.9664 0
M  V30 45978 N 4498.92 2.26768 4.03894 0
M  V30 45979 C 4499.66 2.90662 4.9427 0
M  V30 45980 N 4499.15 3.6365 5.89687 0
M  V30 45981 N 4500.95 2.80074 4.87355 0
M  V30 45982 H 4493.1 1.8016 1.125 0
M  V30 45983 H 4495.36 0.769236 0.554058 0
M  V30 45984 H 4495.07 2.46741 2.50622 0
M  V30 45985 H 4494.94 1.10603 3.6062 0
M  V30 45986 H 4497.33 0.384293 2.92587 0
M  V30 45987 H 4497.41 1.77813 1.83891 0
M  V30 45988 H 4497.05 3.32833 3.83646 0
M  V30 45989 H 4496.98 1.90719 4.9085 0
M  V30 45990 H 4499.47 1.737 3.35614 0
M  V30 45991 H 4499.79 4.09581 6.55335 0
M  V30 45992 H 4498.13 3.67758 5.89728 0
M  V30 45993 H 4501.32 2.22608 4.11781 0
M  V30 45994 H 4501.5 3.30152 5.57588 0
M  V30 45995 N 4494.9 -1.45425 0.607406 0
M  V30 45996 C 4495.85 -2.3053 -0.111544 0
M  V30 45997 C 4496.82 -1.42093 -0.860166 0
M  V30 45998 O 4498 -1.71022 -0.845938 0
M  V30 45999 C 4495.14 -3.26996 -1.10307 0
M  V30 46000 C 4494.26 -4.30536 -0.355342 0
M  V30 46001 C 4493.39 -5.1411 -1.33658 0
M  V30 46002 C 4492.43 -6.09378 -0.576648 0
M  V30 46003 N 4491.57 -6.85733 -1.50716 0
M  V30 46004 H 4496.41 -2.91475 0.620196 0
M  V30 46005 H 4493.95 -1.43629 0.317644 0
M  V30 46006 H 4495.9 -3.81391 -1.69107 0
M  V30 46007 H 4494.53 -2.67805 -1.80223 0
M  V30 46008 H 4493.59 -3.78803 0.348156 0
M  V30 46009 H 4494.9 -4.98234 0.237598 0
M  V30 46010 H 4494.05 -5.72904 -1.99664 0
M  V30 46011 H 4492.79 -4.4643 -1.96345 0
M  V30 46012 H 4491.8 -5.49714 0.0970452 0
M  V30 46013 H 4493.02 -6.79085 0.0451728 0
M  V30 46014 H 4490.97 -6.20742 -2.12168 0
M  V30 46015 H 4490.88 -7.49782 -0.96765 0
M  V30 46016 H 4492.15 -7.49068 -2.1568 0
M  V30 46017 N 4496.38 -0.346557 -1.53742 0
M  V30 46018 C 4497.31 0.501113 -2.28059 0
M  V30 46019 C 4498.29 1.10009 -1.29738 0
M  V30 46020 O 4499.48 1.12092 -1.58585 0
M  V30 46021 C 4496.61 1.65068 -3.05565 0
M  V30 46022 C 4495.56 1.17989 -4.11415 0
M  V30 46023 C 4494.89 2.41821 -4.76893 0
M  V30 46024 C 4496.19 0.278211 -5.21559 0
M  V30 46025 H 4497.88 -0.118855 -2.99164 0
M  V30 46026 H 4495.43 -0.0586037 -1.43881 0
M  V30 46027 H 4497.38 2.25016 -3.56295 0
M  V30 46028 H 4496.1 2.29759 -2.32117 0
M  V30 46029 H 4494.76 0.603204 -3.61603 0
M  V30 46030 H 4494.41 3.04926 -4.00037 0
M  V30 46031 H 4494.11 2.11001 -5.48409 0
M  V30 46032 H 4495.63 3.02489 -5.30408 0
M  V30 46033 H 4497.05 0.784623 -5.67905 0
M  V30 46034 H 4495.45 0.0617598 -6.00068 0
M  V30 46035 H 4496.52 -0.684846 -4.80039 0
M  V30 46036 N 4497.86 1.5742 -0.0752483 0
M  V30 46037 C 4498.82 2.11794 0.876129 0
M  V30 46038 C 4499.82 1.04273 1.22409 0
M  V30 46039 O 4501.01 1.30246 1.15679 0
M  V30 46040 C 4498.14 2.62214 2.17845 0
M  V30 46041 H 4499.34 2.97162 0.404336 0
M  V30 46042 H 4496.89 1.55334 0.173503 0
M  V30 46043 H 4497.62 1.8031 2.69553 0
M  V30 46044 H 4497.41 3.40809 1.93885 0
M  V30 46045 H 4498.9 3.04345 2.85944 0
M  V30 46046 N 4499.34 -0.198331 1.56347 0
M  V30 46047 C 4500.27 -1.24858 1.97314 0
M  V30 46048 C 4501.25 -1.47648 0.844628 0
M  V30 46049 O 4502.43 -1.5944 1.10871 0
M  V30 46050 C 4499.56 -2.5935 2.30987 0
M  V30 46051 C 4498.52 -2.51177 3.46546 0
M  V30 46052 C 4497.84 -3.89913 3.65885 0
M  V30 46053 C 4499.14 -2.0396 4.8083 0
M  V30 46054 H 4500.84 -0.908152 2.85295 0
M  V30 46055 H 4498.38 -0.435414 1.37259 0
M  V30 46056 H 4500.34 -3.33002 2.5824 0
M  V30 46057 H 4499.06 -2.95127 1.39885 0
M  V30 46058 H 4497.72 -1.79982 3.19378 0
M  V30 46059 H 4497.37 -4.23037 2.72119 0
M  V30 46060 H 4497.07 -3.8532 4.43624 0
M  V30 46061 H 4498.59 -4.65191 3.95511 0
M  V30 46062 H 4500 -2.67368 5.07136 0
M  V30 46063 H 4498.4 -2.10377 5.62016 0
M  V30 46064 H 4499.47 -0.992694 4.7463 0
M  V30 46065 N 4500.81 -1.50555 -0.465925 0
M  V30 46066 C 4502.06 -1.61042 -1.21443 0
M  V30 46067 C 4502.38 -0.318718 -1.92986 0
M  V30 46068 O 4503.58 -0.302564 -2.69809 0
M  V30 46069 C 4502.04 -2.84291 -2.20696 0
M  V30 46070 C 4501.65 -4.20357 -1.54932 0
M  V30 46071 C 4503.39 -3.04125 -2.96156 0
M  V30 46072 C 4501.3 -5.34787 -2.52501 0
M  V30 46073 H 4500.23 -0.599734 -0.456984 0
M  V30 46074 H 4502.88 -1.76992 -0.484362 0
M  V30 46075 H 4501.26 -2.61911 -2.97016 0
M  V30 46076 H 4502.43 -4.53011 -0.843652 0
M  V30 46077 H 4500.75 -4.0617 -0.917332 0
M  V30 46078 H 4503.35 -3.86787 -3.69188 0
M  V30 46079 H 4503.69 -2.16057 -3.55844 0
M  V30 46080 H 4504.22 -3.2671 -2.26948 0
M  V30 46081 H 4500.96 -6.25025 -1.97544 0
M  V30 46082 H 4500.48 -5.06545 -3.21205 0
M  V30 46083 H 4502.16 -5.65572 -3.14225 0
M  V30 46084 N 4502.29 0.719457 -1.4022 0
M  V30 46085 C 4503.24 1.83354 -1.40178 0
M  V30 46086 C 4504.21 1.64064 -0.259264 0
M  V30 46087 O 4505.39 1.85253 -0.456742 0
M  V30 46088 C 4502.53 3.21026 -1.26635 0
M  V30 46089 C 4501.65 3.51914 -2.5056 0
M  V30 46090 C 4500.78 4.79071 -2.29488 0
M  V30 46091 C 4499.82 5.02851 -3.4901 0
M  V30 46092 N 4498.96 6.21219 -3.27157 0
M  V30 46093 H 4503.8 1.82724 -2.35406 0
M  V30 46094 H 4501.34 0.892647 -1.1692 0
M  V30 46095 H 4503.29 4.0052 -1.1679 0
M  V30 46096 H 4501.92 3.20894 -0.350289 0
M  V30 46097 H 4500.98 2.67004 -2.70948 0
M  V30 46098 H 4502.29 3.65398 -3.39538 0
M  V30 46099 H 4501.44 5.66575 -2.16975 0
M  V30 46100 H 4500.18 4.67789 -1.3793 0
M  V30 46101 H 4499.19 4.13803 -3.62004 0
M  V30 46102 H 4500.41 5.16007 -4.4149 0
M  V30 46103 H 4498.36 6.11195 -2.38277 0
M  V30 46104 H 4498.27 6.35361 -4.09698 0
M  V30 46105 H 4499.54 7.11521 -3.18369 0
M  V30 46106 N 4503.77 1.25652 0.951275 0
M  V30 46107 C 4505 1.1345 1.7362 0
M  V30 46108 C 4505.42 -0.3075 1.8557 0
M  V30 46109 O 4504.78 -1.22277 1.33858 0
M  V30 46110 C 4504.83 1.79734 3.12615 0
M  V30 46111 O 4503.93 1.07926 3.98027 0
M  V30 46112 H 4503.27 0.395891 0.533073 0
M  V30 46113 H 4505.8 1.6628 1.19214 0
M  V30 46114 H 4505.81 1.86154 3.63058 0
M  V30 46115 H 4504.49 2.84644 3.03234 0
M  V30 46116 H 4503.06 1.09411 3.56488 0
M  V30 46117 N 4505.25 -1.15438 1.07293 0
M  V30 46118 C 4506.66 -1.678 0.818534 0
M  V30 46119 C 4507.01 -1.84893 -0.656442 0
M  V30 46120 O 4506.14 -1.55181 -1.50823 0
M  V30 46121 C 4506.73 -3.04799 1.47928 0
M  V30 46122 C 4505.29 -3.54241 1.27241 0
M  V30 46123 C 4504.44 -2.2998 1.54933 0
M  V30 46124 H 4507.39 -0.996603 1.23505 0
M  V30 46125 H 4507.41 -3.69699 0.90018 0
M  V30 46126 H 4506.92 -2.92327 2.55277 0
M  V30 46127 H 4505.02 -3.71955 0.219121 0
M  V30 46128 H 4505.13 -4.35716 1.99219 0
M  V30 46129 H 4503.5 -2.35493 0.970324 0
M  V30 46130 H 4504.28 -2.20096 2.63463 0
M  V30 46131 N 4506.73 -0.85695 -1.32265 0
M  V30 46132 C 4507.66 -0.260492 -2.27715 0
M  V30 46133 C 4508.67 0.569083 -1.5253 0
M  V30 46134 O 4509.86 0.393199 -1.74115 0
M  V30 46135 C 4506.96 0.65036 -3.32601 0
M  V30 46136 C 4506.13 -0.143874 -4.37163 0
M  V30 46137 C 4505.19 0.693096 -5.21615 0
M  V30 46138 O 4504.22 0.125789 -5.69061 0
M  V30 46139 N 4505.42 2.00742 -5.44686 0
M  V30 46140 H 4508.19 -1.08068 -2.79538 0
M  V30 46141 H 4505.75 -0.717154 -1.4515 0
M  V30 46142 H 4507.74 1.21568 -3.8601 0
M  V30 46143 H 4506.31 1.37123 -2.8092 0
M  V30 46144 H 4505.53 -0.890621 -3.84007 0
M  V30 46145 H 4506.82 -0.689327 -5.04109 0
M  V30 46146 H 4506.21 2.49163 -5.07872 0
M  V30 46147 H 4504.77 2.52081 -6.01081 0
M  V30 46148 N 4508.2 1.45101 -0.61511 0
M  V30 46149 C 4509.45 2.02483 -0.113418 0
M  V30 46150 C 4509.78 1.48151 1.25559 0
M  V30 46151 O 4509.06 0.659168 1.8299 0
M  V30 46152 C 4509.34 3.60005 -0.0826543 0
M  V30 46153 C 4509.19 4.24654 -1.48286 0
M  V30 46154 C 4510.51 4.35974 0.601248 0
M  V30 46155 H 4507.63 0.735763 -0.0426891 0
M  V30 46156 H 4510.27 1.72865 -0.788521 0
M  V30 46157 H 4508.42 3.85369 0.492242 0
M  V30 46158 H 4510.1 4.10451 -2.10541 0
M  V30 46159 H 4508.34 3.82765 -2.0414 0
M  V30 46160 H 4509.01 5.33595 -1.41351 0
M  V30 46161 H 4511.49 4.15948 0.11252 0
M  V30 46162 H 4510.36 5.45699 0.591905 0
M  V30 46163 H 4510.62 4.09397 1.66872 0
M  V30 46164 N 4509.68 0.354705 1.53557 0
M  V30 46165 C 4510.62 -0.531421 2.22954 0
M  V30 46166 C 4511.63 -1.05498 1.23992 0
M  V30 46167 O 4512.82 -0.963226 1.5028 0
M  V30 46168 C 4509.92 -1.74528 2.90505 0
M  V30 46169 C 4509.09 -1.35509 4.1588 0
M  V30 46170 C 4508.15 -2.42983 4.6674 0
M  V30 46171 O 4507.18 -2.05825 5.30683 0
M  V30 46172 N 4508.38 -3.74407 4.43621 0
M  V30 46173 H 4511.14 0.0629669 2.99634 0
M  V30 46174 H 4508.7 0.179359 1.60903 0
M  V30 46175 H 4510.7 -2.45881 3.21442 0
M  V30 46176 H 4509.27 -2.24678 2.17344 0
M  V30 46177 H 4508.49 -0.47186 3.91366 0
M  V30 46178 H 4509.77 -1.07054 4.9741 0
M  V30 46179 H 4509.17 -4.07377 3.92505 0
M  V30 46180 H 4507.73 -4.41897 4.79135 0
M  V30 46181 N 4511.16 -1.57378 0.0835957 0
M  V30 46182 C 4512.39 -1.98684 -0.594917 0
M  V30 46183 C 4512.81 -0.962026 -1.61637 0
M  V30 46184 O 4512.17 0.0709352 -1.81161 0
M  V30 46185 C 4512.22 -3.38993 -1.22948 0
M  V30 46186 O 4511.32 -3.39216 -2.34534 0
M  V30 46187 H 4510.66 -0.646373 -0.15198 0
M  V30 46188 H 4513.19 -2.03961 0.161604 0
M  V30 46189 H 4513.2 -3.76436 -1.57353 0
M  V30 46190 H 4511.88 -4.13108 -0.481083 0
M  V30 46191 H 4510.45 -3.13555 -2.01835 0
M  V30 46192 N 4512.64 0.190037 -1.5645 0
M  V30 46193 C 4513.89 0.909641 -1.80919 0
M  V30 46194 C 4514.21 1.83044 -0.657647 0
M  V30 46195 O 4513.47 1.92429 0.356288 0
M  V30 46196 C 4513.77 1.75371 -3.11416 0
M  V30 46197 C 4513.43 0.983451 -4.40044 0
M  V30 46198 C 4512.1 0.7708 -4.74986 0
M  V30 46199 C 4514.45 0.441842 -5.19324 0
M  V30 46200 C 4511.78 0.00513855 -5.867 0
M  V30 46201 C 4514.13 -0.310634 -6.31837 0
M  V30 46202 C 4512.79 -0.534257 -6.65359 0
M  V30 46203 H 4512.06 0.332861 -0.662031 0
M  V30 46204 H 4514.71 0.175695 -1.90692 0
M  V30 46205 H 4513.01 2.55649 -2.96902 0
M  V30 46206 H 4514.71 2.3132 -3.27555 0
M  V30 46207 H 4511.3 1.15921 -4.12626 0
M  V30 46208 H 4515.49 0.59352 -4.92738 0
M  V30 46209 H 4510.74 -0.17804 -6.11141 0
M  V30 46210 H 4514.92 -0.737662 -6.92482 0
M  V30 46211 H 4512.54 -1.12944 -7.51763 0
M  V30 46212 N 4514.12 1.508 0.457934 0
M  V30 46213 C 4515.39 1.52972 1.21897 0
M  V30 46214 C 4515.77 0.28198 2.09208 0
M  V30 46215 O 4515.12 -0.734 2.1639 0
M  V30 46216 C 4515.33 2.83267 2.03865 0
M  V30 46217 C 4516.68 3.34434 2.61609 0
M  V30 46218 O 4517.7 2.84678 2.14096 0
M  V30 46219 O 4516.56 4.21201 3.48213 0
M  V30 46220 H 4513.66 0.614148 0.553851 0
M  V30 46221 H 4516.2 1.631 0.468681 0
M  V30 46222 H 4514.98 3.65548 1.39608 0
M  V30 46223 H 4514.6 2.76205 2.86001 0
M  V30 46224 N 4515.6 -0.71201 1.40599 0
M  V30 46225 C 4516.84 -1.47193 1.39071 0
M  V30 46226 C 4517.17 -1.94499 -0.00577053 0
M  V30 46227 O 4516.43 -1.68756 -0.990961 0
M  V30 46228 C 4516.72 -2.71031 2.32974 0
M  V30 46229 C 4516.39 -2.4247 3.80156 0
M  V30 46230 C 4515.05 -2.34391 4.20255 0
M  V30 46231 C 4517.4 -2.18581 4.73151 0
M  V30 46232 C 4514.73 -2.00496 5.51378 0
M  V30 46233 C 4517.08 -1.86198 6.04577 0
M  V30 46234 C 4515.75 -1.76604 6.43714 0
M  V30 46235 H 4515.02 -0.538616 0.508895 0
M  V30 46236 H 4517.67 -0.815264 1.73279 0
M  V30 46237 H 4515.97 -3.41552 1.91963 0
M  V30 46238 H 4517.67 -3.2913 2.29073 0
M  V30 46239 H 4514.26 -2.49646 3.48389 0
M  V30 46240 H 4518.44 -2.23777 4.42987 0
M  V30 46241 H 4513.7 -1.91608 5.806 0
M  V30 46242 H 4517.87 -1.66729 6.76147 0
M  V30 46243 H 4515.5 -1.50107 7.45233 0
M  V30 46244 N 4517.07 -1.26155 -0.944598 0
M  V30 46245 C 4518.3 -1.14369 -1.73016 0
M  V30 46246 C 4518.72 0.297654 -1.8573 0
M  V30 46247 O 4518.08 1.21565 -1.34505 0
M  V30 46248 C 4518.13 -1.81389 -3.11657 0
M  V30 46249 O 4517.23 -1.10036 -3.97449 0
M  V30 46250 H 4516.57 -0.398712 -0.530966 0
M  V30 46251 H 4519.1 -1.6691 -1.18331 0
M  V30 46252 H 4519.11 -1.88076 -3.62065 0
M  V30 46253 H 4517.79 -2.86248 -3.0172 0
M  V30 46254 H 4516.37 -1.113 -3.55903 0
M  V30 46255 N 4518.55 1.14868 -1.07903 0
M  V30 46256 C 4519.97 1.37773 -0.805655 0
M  V30 46257 C 4520.17 1.92746 0.587487 0
M  V30 46258 O 4519.22 2.13683 1.34521 0
M  V30 46259 C 4520.54 2.34355 -1.8841 0
M  V30 46260 C 4522.08 2.48005 -1.90951 0
M  V30 46261 C 4522.56 3.47883 -2.97895 0
M  V30 46262 N 4524.05 3.55422 -2.97034 0
M  V30 46263 C 4524.79 4.32539 -3.76427 0
M  V30 46264 N 4524.28 5.12942 -4.65685 0
M  V30 46265 N 4526.07 4.27684 -3.6475 0
M  V30 46266 H 4518.23 0.775295 -1.97745 0
M  V30 46267 H 4520.49 0.403491 -0.857846 0
M  V30 46268 H 4520.19 2.01088 -2.88542 0
M  V30 46269 H 4520.07 3.342 -1.74901 0
M  V30 46270 H 4522.46 2.80567 -0.914677 0
M  V30 46271 H 4522.54 1.48139 -2.08539 0
M  V30 46272 H 4522.18 3.16055 -3.97582 0
M  V30 46273 H 4522.11 4.47517 -2.77554 0
M  V30 46274 H 4524.6 2.9804 -2.32337 0
M  V30 46275 H 4524.91 5.69046 -5.22882 0
M  V30 46276 H 4523.26 5.12229 -4.6973 0
M  V30 46277 H 4526.45 3.63939 -2.94391 0
M  V30 46278 H 4526.62 4.87535 -4.26865 0
M  V30 46279 N 4520.03 0.863952 1.31809 0
M  V30 46280 C 4520.99 0.320292 2.26951 0
M  V30 46281 C 4521.99 -0.525315 1.51977 0
M  V30 46282 O 4523.18 -0.335487 1.70939 0
M  V30 46283 C 4520.31 -0.545801 3.36502 0
M  V30 46284 H 4521.51 1.16013 2.76552 0
M  V30 46285 H 4519.06 0.639045 1.42639 0
M  V30 46286 H 4519.8 -1.40708 2.92184 0
M  V30 46287 H 4519.58 0.0596052 3.92055 0
M  V30 46288 H 4521.07 -0.918652 4.0737 0
M  V30 46289 N 4521.51 -1.44772 0.622796 0
M  V30 46290 C 4522.75 -2.0212 0.123971 0
M  V30 46291 C 4523.08 -1.48919 -1.25113 0
M  V30 46292 O 4522.34 -0.66011 -1.84231 0
M  V30 46293 C 4522.64 -3.57364 0.050958 0
M  V30 46294 C 4522.3 -4.29783 1.36373 0
M  V30 46295 C 4520.96 -4.49284 1.7233 0
M  V30 46296 C 4523.32 -4.71054 2.23064 0
M  V30 46297 C 4520.64 -5.07315 2.947 0
M  V30 46298 C 4523 -5.3044 3.44698 0
M  V30 46299 C 4521.66 -5.48161 3.80888 0
M  V30 46300 H 4520.93 -0.73961 0.0453641 0
M  V30 46301 H 4523.58 -1.73645 0.80745 0
M  V30 46302 H 4521.88 -3.85205 -0.715855 0
M  V30 46303 H 4523.58 -3.99457 -0.351392 0
M  V30 46304 H 4520.17 -4.14928 1.0739 0
M  V30 46305 H 4524.35 -4.55708 1.96581 0
M  V30 46306 H 4519.61 -5.19223 3.22827 0
M  V30 46307 H 4523.78 -5.6137 4.12112 0
M  V30 46308 H 4521.41 -5.92895 4.75793 0
M  V30 46309 N 4522.99 -0.362844 -1.53366 0
M  V30 46310 C 4523.9 0.492913 -2.29363 0
M  V30 46311 C 4524.91 1.09503 -1.35223 0
M  V30 46312 O 4526.09 1.10656 -1.68277 0
M  V30 46313 C 4523.15 1.61845 -3.06606 0
M  V30 46314 C 4522.21 1.04415 -4.16409 0
M  V30 46315 C 4521.45 2.11604 -4.89959 0
M  V30 46316 O 4521.67 3.32668 -4.63345 0
M  V30 46317 O 4520.6 1.74815 -5.75954 0
M  V30 46318 H 4524.43 -0.125437 -3.03441 0
M  V30 46319 H 4522.01 -0.127306 -1.48857 0
M  V30 46320 H 4523.9 2.27289 -3.54849 0
M  V30 46321 H 4522.57 2.22225 -2.35367 0
M  V30 46322 H 4521.48 0.353688 -3.72424 0
M  V30 46323 H 4522.81 0.484941 -4.89805 0
M  V30 46324 N 4524.46 1.57332 -0.0919406 0
M  V30 46325 C 4525.39 2.16875 0.865295 0
M  V30 46326 C 4526.38 1.10123 1.29642 0
M  V30 46327 O 4527.56 1.38247 1.36387 0
M  V30 46328 C 4524.69 2.74656 2.12559 0
M  V30 46329 C 4523.64 3.86753 1.83319 0
M  V30 46330 C 4522.97 4.31223 3.1615 0
M  V30 46331 C 4524.27 5.10093 1.12262 0
M  V30 46332 H 4525.96 2.97115 0.369203 0
M  V30 46333 H 4523.51 1.42919 0.176143 0
M  V30 46334 H 4525.46 3.14962 2.79959 0
M  V30 46335 H 4524.19 1.91666 2.64446 0
M  V30 46336 H 4522.85 3.46982 1.18319 0
M  V30 46337 H 4522.49 3.45128 3.65918 0
M  V30 46338 H 4522.19 5.06799 2.9737 0
M  V30 46339 H 4523.72 4.7416 3.84714 0
M  V30 46340 H 4525.13 5.47588 1.69766 0
M  V30 46341 H 4523.53 5.91077 1.03672 0
M  V30 46342 H 4524.6 4.84787 0.10487 0
M  V30 46343 N 4525.94 -0.181737 1.56549 0
M  V30 46344 C 4526.89 -1.22954 1.92006 0
M  V30 46345 C 4527.88 -1.40328 0.787195 0
M  V30 46346 O 4529.07 -1.42474 1.05024 0
M  V30 46347 C 4526.2 -2.57136 2.27455 0
M  V30 46348 C 4525.28 -2.43499 3.4723 0
M  V30 46349 N 4525.67 -1.99561 4.64768 0
M  V30 46350 C 4523.97 -2.74356 3.51632 0
M  V30 46351 C 4524.67 -1.98137 5.46916 0
M  V30 46352 N 4523.65 -2.40147 4.87679 0
M  V30 46353 H 4527.45 -0.881363 2.80373 0
M  V30 46354 H 4524.97 -0.390086 1.57645 0
M  V30 46355 H 4526.96 -3.32838 2.51047 0
M  V30 46356 H 4525.62 -2.92766 1.40421 0
M  V30 46357 H 4526.63 -1.7006 4.89183 0
M  V30 46358 H 4523.31 -3.14092 2.75049 0
M  V30 46359 H 4524.7 -1.65952 6.51083 0
M  V30 46360 N 4527.42 -1.51041 -0.44993 0
M  V30 46361 C 4528.67 -1.62763 -1.19802 0
M  V30 46362 C 4528.99 -0.340049 -1.92012 0
M  V30 46363 O 4528.26 0.643541 -1.85028 0
M  V30 46364 H 4526.84 -0.599827 -0.445215 0
M  V30 46365 H 4529.5 -1.87916 -0.517072 0
M  V30 46366 H 4528.6 -2.44918 -1.93447 0
M  V30 46367 N 4528.9 0.704544 -1.40975 0
M  V30 46368 C 4530.14 1.4667 -1.40056 0
M  V30 46369 C 4530.48 1.94199 -0.0064793 0
M  V30 46370 O 4529.75 1.6892 0.964175 0
M  V30 46371 C 4530.04 2.68497 -2.39962 0
M  V30 46372 C 4529.89 2.26791 -3.8844 0
M  V30 46373 C 4531.21 3.70678 -2.37246 0
M  V30 46374 H 4528.33 0.531997 -0.510047 0
M  V30 46375 H 4530.97 0.803194 -1.72188 0
M  V30 46376 H 4529.12 3.25107 -2.12692 0
M  V30 46377 H 4530.79 1.75577 -4.2658 0
M  V30 46378 H 4529.03 1.58671 -4.0374 0
M  V30 46379 H 4529.7 3.14165 -4.53877 0
M  V30 46380 H 4532.18 3.23722 -2.61426 0
M  V30 46381 H 4531.06 4.53542 -3.09178 0
M  V30 46382 H 4531.32 4.19749 -1.38791 0
M  V30 46383 N 4530.38 1.26654 0.937895 0
M  V30 46384 C 4531.62 1.12393 1.68446 0
M  V30 46385 C 4531.95 -0.33214 1.91643 0
M  V30 46386 O 4531.21 -1.26015 1.49729 0
M  V30 46387 C 4531.51 1.84179 3.06289 0
M  V30 46388 C 4531.17 3.34067 3.02837 0
M  V30 46389 C 4529.83 3.74952 3.01603 0
M  V30 46390 C 4532.19 4.29751 2.94895 0
M  V30 46391 C 4529.51 5.09905 2.90197 0
M  V30 46392 C 4531.87 5.64748 2.85031 0
M  V30 46393 C 4530.53 6.0494 2.82141 0
M  V30 46394 H 4529.8 0.411273 0.616389 0
M  V30 46395 H 4532.45 1.57138 1.09453 0
M  V30 46396 H 4530.75 1.31913 3.68926 0
M  V30 46397 H 4532.45 1.70581 3.62909 0
M  V30 46398 H 4529.04 3.01545 3.04579 0
M  V30 46399 H 4533.22 3.99143 2.94955 0
M  V30 46400 H 4528.48 5.40204 2.86339 0
M  V30 46401 H 4532.65 6.38571 2.77849 0
M  V30 46402 H 4530.28 7.09467 2.73059 0
M  V30 46403 N 4531.85 -1.14294 1.08511 0
M  V30 46404 C 4532.78 -2.2154 0.737724 0
M  V30 46405 C 4533.77 -1.67774 -0.280318 0
M  V30 46406 O 4534.95 -1.93616 -0.150453 0
M  V30 46407 C 4532.08 -3.46987 0.147381 0
M  V30 46408 C 4531.03 -4.13785 1.09389 0
M  V30 46409 C 4530.36 -5.33448 0.365711 0
M  V30 46410 C 4531.66 -4.622 2.43246 0
M  V30 46411 H 4533.35 -2.50855 1.63439 0
M  V30 46412 H 4530.9 -1.20573 0.787285 0
M  V30 46413 H 4532.85 -4.21262 -0.10766 0
M  V30 46414 H 4531.58 -3.1704 -0.784427 0
M  V30 46415 H 4530.24 -3.41466 1.33405 0
M  V30 46416 H 4529.88 -4.99761 -0.569935 0
M  V30 46417 H 4529.58 -5.79085 0.996716 0
M  V30 46418 H 4531.11 -6.10485 0.118748 0
M  V30 46419 H 4532.52 -5.27944 2.23491 0
M  V30 46420 H 4530.92 -5.18543 3.02049 0
M  V30 46421 H 4531.99 -3.77213 3.04694 0
M  V30 46422 N 4533.33 -0.87093 -1.31349 0
M  V30 46423 C 4534.28 -0.298969 -2.26031 0
M  V30 46424 C 4535.27 0.564542 -1.50671 0
M  V30 46425 O 4536.46 0.411262 -1.72156 0
M  V30 46426 C 4533.59 0.497723 -3.39673 0
M  V30 46427 C 4532.67 -0.379086 -4.22402 0
M  V30 46428 N 4533.06 -1.47301 -4.83876 0
M  V30 46429 C 4531.36 -0.171692 -4.45669 0
M  V30 46430 C 4532.06 -2.01378 -5.45731 0
M  V30 46431 N 4531.04 -1.31065 -5.27563 0
M  V30 46432 H 4534.84 -1.13503 -2.71098 0
M  V30 46433 H 4532.36 -0.718796 -1.45627 0
M  V30 46434 H 4534.35 0.924012 -4.06531 0
M  V30 46435 H 4533.01 1.33139 -2.96149 0
M  V30 46436 H 4534.02 -1.85592 -4.83504 0
M  V30 46437 H 4530.7 0.625946 -4.12781 0
M  V30 46438 H 4532.09 -2.93164 -6.0457 0
M  V30 46439 N 4534.81 1.4444 -0.630465 0
M  V30 46440 C 4536.04 2.06927 -0.140016 0
M  V30 46441 C 4536.46 1.46799 1.17608 0
M  V30 46442 O 4535.82 0.569204 1.72133 0
M  V30 46443 C 4535.87 3.6058 -0.0380848 0
M  V30 46444 O 4534.97 3.9994 1.00606 0
M  V30 46445 H 4534.31 0.658605 -0.0844715 0
M  V30 46446 H 4536.84 1.85324 -0.866956 0
M  V30 46447 H 4536.85 4.07714 0.152713 0
M  V30 46448 H 4535.53 4.03725 -0.998951 0
M  V30 46449 H 4534.1 3.64438 0.789882 0
M  V30 46450 N 4536.29 0.370972 1.53172 0
M  V30 46451 C 4537.53 -0.217035 2.03244 0
M  V30 46452 C 4537.89 -1.45554 1.25212 0
M  V30 46453 O 4539.09 -2.11951 1.65318 0
M  V30 46454 C 4537.36 -0.49654 3.53934 0
M  V30 46455 S 4538.92 -1.05745 4.25868 0
M  V30 46456 H 4535.74 -0.0627578 0.708225 0
M  V30 46457 H 4538.34 0.515085 1.88592 0
M  V30 46458 H 4537.05 0.41224 4.08324 0
M  V30 46459 H 4536.58 -1.25758 3.72758 0
M  V30 46460 H 4538.59 -2.34129 4.3749 0
M  V30 46461 N 4537.77 -1.57281 0.100283 0
M  V30 46462 C 4539.18 -1.81727 -0.428043 0
M  V30 46463 C 4539.53 -1.01625 -1.6783 0
M  V30 46464 O 4538.65 -0.247174 -2.14984 0
M  V30 46465 C 4539.25 -3.29619 -0.783354 0
M  V30 46466 C 4537.81 -3.54812 -1.2564 0
M  V30 46467 C 4536.95 -2.76119 -0.255655 0
M  V30 46468 H 4539.91 -1.55323 0.325662 0
M  V30 46469 H 4539.93 -3.43226 -1.64244 0
M  V30 46470 H 4539.44 -3.87893 0.126787 0
M  V30 46471 H 4537.54 -3.01876 -2.18408 0
M  V30 46472 H 4537.65 -4.63447 -1.21465 0
M  V30 46473 H 4536.02 -2.43747 -0.738871 0
M  V30 46474 H 4536.8 -3.37143 0.647255 0
M  V30 46475 N 4539.25 0.173432 -1.56643 0
M  V30 46476 C 4540.49 0.888642 -1.81515 0
M  V30 46477 C 4540.81 1.82873 -0.676936 0
M  V30 46478 O 4540.08 1.93537 0.303346 0
M  V30 46479 H 4538.66 0.33114 -0.669593 0
M  V30 46480 H 4541.33 0.173755 -1.94124 0
M  V30 46481 H 4540.42 1.46681 -2.75483 0
M  V30 46482 N 4540.72 1.51278 0.441914 0
M  V30 46483 C 4541.95 1.6752 1.21428 0
M  V30 46484 C 4542.37 0.370615 1.85127 0
M  V30 46485 O 4541.72 -0.650438 1.70516 0
M  V30 46486 C 4541.77 2.78756 2.30168 0
M  V30 46487 O 4541.5 4.0416 1.69075 0
M  V30 46488 C 4543 3.06228 3.2053 0
M  V30 46489 H 4540.22 0.562289 0.366158 0
M  V30 46490 H 4542.76 1.97668 0.524174 0
M  V30 46491 H 4540.92 2.5122 2.94902 0
M  V30 46492 H 4541.33 4.65902 2.40906 0
M  V30 46493 H 4542.8 3.87654 3.92974 0
M  V30 46494 H 4543.28 2.18452 3.81019 0
M  V30 46495 H 4543.89 3.35406 2.61501 0
M  V30 46496 N 4542.2 -0.697058 1.41347 0
M  V30 46497 C 4543.11 -1.84083 1.45433 0
M  V30 46498 C 4544.13 -1.70544 0.34507 0
M  V30 46499 O 4545.3 -1.92486 0.59256 0
M  V30 46500 C 4542.37 -3.20051 1.33298 0
M  V30 46501 C 4541.43 -3.45709 2.54527 0
M  V30 46502 C 4540.66 -4.7519 2.42961 0
M  V30 46503 O 4540.89 -5.51573 1.45337 0
M  V30 46504 O 4539.82 -5.01599 3.3269 0
M  V30 46505 H 4543.65 -1.83591 2.41926 0
M  V30 46506 H 4541.23 -0.849923 1.22869 0
M  V30 46507 H 4543.11 -4.01231 1.28808 0
M  V30 46508 H 4541.79 -3.21229 0.399203 0
M  V30 46509 H 4540.69 -2.64465 2.64593 0
M  V30 46510 H 4542.03 -3.49344 3.46727 0
M  V30 46511 N 4543.68 -1.2715 -0.931165 0
M  V30 46512 C 4544.9 -1.16197 -1.71793 0
M  V30 46513 C 4545.33 0.277938 -1.86035 0
M  V30 46514 O 4544.69 1.20132 -1.35787 0
M  V30 46515 C 4544.74 -1.84684 -3.09716 0
M  V30 46516 O 4543.84 -1.14245 -3.9626 0
M  V30 46517 H 4543.18 -0.404322 -0.526707 0
M  V30 46518 H 4545.71 -1.68156 -1.16554 0
M  V30 46519 H 4545.72 -1.91906 -3.6005 0
M  V30 46520 H 4544.4 -2.89432 -2.98667 0
M  V30 46521 H 4542.97 -1.15068 -3.54702 0
M  V30 46522 O 4545.2 1.06528 -1.21384 0
M  V30 46523 H 4545.89 1.67468 -0.97335 0
M  V30 END ATOM
M  V30 BEGIN BOND
M  V30 END BOND
M  V30 END CTAB
M  END
$$$$
