drugbank_target|P25553 Lactaldehyde dehydrogenase (DB03619)
 OpenBabel12092120463D

  0  0  0     0  0            999 V3000
M  V30 BEGIN CTAB
M  V30 COUNTS 7346 7416 0 0 0
M  V30 BEGIN ATOM
M  V30 1 H -0.908 1.98254 -0.117106 0
M  V30 2 N 0 1.576 0 0
M  V30 3 C 0.933 2.03868 1.02534 0
M  V30 4 C 1.911 0.928543 1.3348 0
M  V30 5 O 3.095 1.19667 1.45644 0
M  V30 6 C 0.222 2.43627 2.35294 0
M  V30 7 C -0.732 3.65373 2.2001 0
M  V30 8 S 0.101 5.13292 1.52614 0
M  V30 9 C 1.257 5.56322 2.86805 0
M  V30 10 H 1.49 2.90518 0.631377 0
M  V30 11 H -0.977 1.52953 0.210867 0
M  V30 12 H 0.981 2.67203 3.11629 0
M  V30 13 H -0.358 1.57376 2.7183 0
M  V30 14 H -1.165 3.90944 3.18086 0
M  V30 15 H -1.563 3.418 1.51819 0
M  V30 16 H 0.729 5.58782 3.83104 0
M  V30 17 H 1.672 6.56266 2.65933 0
M  V30 18 H 2.08 4.83886 2.90714 0
M  V30 19 N 1.4781 -0.272755 1.55222 0
M  V30 20 C 2.7031 -1.02683 1.80197 0
M  V30 21 C 3.1281 -1.79142 0.573551 0
M  V30 22 O 2.4861 -1.74917 -0.476849 0
M  V30 23 C 2.5341 -1.9609 3.02624 0
M  V30 24 O 1.6381 -3.04863 2.77727 0
M  V30 25 H 0.9791 -0.293557 0.595584 0
M  V30 26 H 3.5091 -0.30159 2.02365 0
M  V30 27 H 3.5191 -2.38039 3.31363 0
M  V30 28 H 2.1941 -1.39851 3.91682 0
M  V30 29 H 0.7711 -2.67228 2.60084 0
M  V30 30 N 2.9562 -1.48159 -0.537278 0
M  V30 31 C 4.2022 -1.56035 -1.29541 0
M  V30 32 C 4.5352 -0.230377 -1.92829 0
M  V30 33 O 3.8102 0.762952 -1.78911 0
M  V30 34 C 4.0932 -2.69323 -2.39034 0
M  V30 35 C 3.9462 -4.12002 -1.80485 0
M  V30 36 C 5.2652 -2.78408 -3.40847 0
M  V30 37 H 2.3842 -0.567992 -0.469632 0
M  V30 38 H 5.0262 -1.80302 -0.599277 0
M  V30 39 H 3.1762 -2.48763 -2.98412 0
M  V30 40 H 4.8482 -4.43981 -1.25215 0
M  V30 41 H 3.0912 -4.19344 -1.11055 0
M  V30 42 H 3.7622 -4.87077 -2.59731 0
M  V30 43 H 6.2382 -2.97012 -2.91416 0
M  V30 44 H 5.1142 -3.59416 -4.14863 0
M  V30 45 H 5.3752 -1.86269 -4.00944 0
M  V30 46 N 4.4343 0.785586 -1.36625 0
M  V30 47 C 5.8453 1.36101 -1.27803 0
M  V30 48 C 6.1963 1.96035 0.0804875 0
M  V30 49 O 5.3213 1.92834 0.982042 0
M  V30 50 C 5.9163 2.47442 -2.31426 0
M  V30 51 C 4.4753 3.00789 -2.26281 0
M  V30 52 C 3.6223 1.73896 -2.15999 0
M  V30 53 H 6.5733 0.586928 -1.47448 0
M  V30 54 H 6.5943 3.2656 -1.95291 0
M  V30 55 H 6.1063 2.03791 -3.30289 0
M  V30 56 H 4.2073 3.48851 -1.30896 0
M  V30 57 H 4.3203 3.57343 -3.19128 0
M  V30 58 H 2.6843 1.9628 -1.62316 0
M  V30 59 H 3.4673 1.32368 -3.16755 0
M  V30 60 N 5.9124 1.20967 1.01018 0
M  V30 61 C 7.1584 1.02526 1.74975 0
M  V30 62 C 7.4914 -0.4408 1.89131 0
M  V30 63 O 6.7664 -1.32718 1.42184 0
M  V30 64 C 7.0494 1.71699 3.1653 0
M  V30 65 C 6.9024 3.25791 3.10129 0
M  V30 66 C 8.2214 1.45531 4.15342 0
M  V30 67 H 5.3404 0.373863 0.635134 0
M  V30 68 H 7.9824 1.49071 1.17805 0
M  V30 69 H 6.1324 1.32128 3.65341 0
M  V30 70 H 7.8044 3.74697 2.69072 0
M  V30 71 H 6.0474 3.56363 2.47362 0
M  V30 72 H 6.7184 3.69353 4.10222 0
M  V30 73 H 9.1944 1.79872 3.75213 0
M  V30 74 H 8.0704 1.96453 5.1254 0
M  V30 75 H 8.3314 0.384237 4.40427 0
M  V30 76 N 7.3905 -1.2043 1.01659 0
M  V30 77 C 8.3225 -2.22626 0.544988 0
M  V30 78 C 9.3355 -1.58479 -0.372609 0
M  V30 79 O 10.5245 -1.77679 -0.170958 0
M  V30 80 C 7.6245 -3.38141 -0.22663 0
M  V30 81 C 6.7975 -4.31877 0.692876 0
M  V30 82 C 5.8565 -5.26191 -0.0311616 0
M  V30 83 O 4.8825 -5.6612 0.591343 0
M  V30 84 N 6.0845 -5.65618 -1.30601 0
M  V30 85 H 8.8495 -2.63716 1.42388 0
M  V30 86 H 6.4105 -1.34971 0.894116 0
M  V30 87 H 8.4025 -3.98239 -0.72024 0
M  V30 88 H 6.9725 -2.95943 -1.00681 0
M  V30 89 H 6.1925 -3.69746 1.36679 0
M  V30 90 H 7.4805 -4.91426 1.31824 0
M  V30 91 H 6.8785 -5.3519 -1.83269 0
M  V30 92 H 5.4355 -6.28025 -1.74435 0
M  V30 93 N 8.8686 -0.792821 -1.36206 0
M  V30 94 C 9.8186 -0.166598 -2.27391 0
M  V30 95 C 10.8026 0.651479 -1.47121 0
M  V30 96 O 11.9946 0.510994 -1.69463 0
M  V30 97 C 9.1236 0.695033 -3.36191 0
M  V30 98 C 8.2096 -0.132019 -4.23894 0
M  V30 99 N 8.6006 -1.18822 -4.91645 0
M  V30 100 C 6.8986 0.0885952 -4.45912 0
M  V30 101 C 7.5996 -1.69198 -5.56549 0
M  V30 102 N 6.5756 -1.00065 -5.34311 0
M  V30 103 H 10.3776 -0.974947 -2.77258 0
M  V30 104 H 7.8916 -0.632616 -1.49572 0
M  V30 105 H 9.8886 1.1596 -4.00448 0
M  V30 106 H 8.5486 1.50189 -2.87877 0
M  V30 107 H 9.5596 -1.57069 -4.93507 0
M  V30 108 H 6.2366 0.865688 -4.08426 0
M  V30 109 H 7.6266 -2.57395 -6.20643 0
M  V30 110 N 10.3467 1.47872 -0.545128 0
M  V30 111 C 11.7577 1.86384 -0.108581 0
M  V30 112 C 12.1087 1.45309 1.31832 0
M  V30 113 O 11.2337 0.850641 1.9898 0
M  V30 114 C 11.8287 3.38265 -0.190274 0
M  V30 115 C 10.3877 3.75914 0.191164 0
M  V30 116 C 9.5347 2.71926 -0.543273 0
M  V30 117 H 12.4857 1.39561 -0.755537 0
M  V30 118 H 12.5067 3.75831 0.594217 0
M  V30 119 H 12.0187 3.6813 -1.2289 0
M  V30 120 H 10.1197 3.51665 1.23136 0
M  V30 121 H 10.2327 4.78836 -0.158987 0
M  V30 122 H 8.5967 2.54697 0.0122495 0
M  V30 123 H 9.3797 3.04634 -1.58282 0
M  V30 124 N 11.8248 0.280983 1.55075 0
M  V30 125 C 12.7578 -0.645439 2.18882 0
M  V30 126 C 13.7358 -1.14786 1.15165 0
M  V30 127 O 14.9198 -1.21975 1.43716 0
M  V30 128 C 12.0468 -1.88088 2.81674 0
M  V30 129 C 11.0928 -1.51343 3.98745 0
M  V30 130 S 11.9258 -0.586548 5.32278 0
M  V30 131 C 13.0818 -1.83024 5.98543 0
M  V30 132 H 13.3148 -0.1033 2.9712 0
M  V30 133 H 10.8478 0.0652099 1.54262 0
M  V30 134 H 12.8058 -2.58997 3.18482 0
M  V30 135 H 11.4668 -2.39417 2.03318 0
M  V30 136 H 10.6598 -2.43289 4.41392 0
M  V30 137 H 10.2618 -0.884477 3.63391 0
M  V30 138 H 12.5538 -2.77342 6.18133 0
M  V30 139 H 13.4968 -1.44668 6.93164 0
M  V30 140 H 13.9048 -1.99785 5.27964 0
M  V30 141 N 13.3029 -1.57598 0.00835791 0
M  V30 142 C 14.5329 -1.94931 -0.684496 0
M  V30 143 C 14.9409 -0.882233 -1.67372 0
M  V30 144 O 14.2839 0.146621 -1.83114 0
M  V30 145 C 14.3459 -3.283 -1.4649 0
M  V30 146 C 14.0099 -4.52548 -0.63634 0
M  V30 147 C 15.0069 -5.19839 0.0795586 0
M  V30 148 C 12.6919 -4.98942 -0.579849 0
M  V30 149 C 14.6859 -6.3183 0.840843 0
M  V30 150 C 12.3729 -6.10819 0.185155 0
M  V30 151 C 13.3709 -6.77121 0.894227 0
M  V30 152 O 13.0589 -7.86853 1.64673 0
M  V30 153 H 12.7909 -0.647249 -0.19505 0
M  V30 154 H 15.3449 -2.05318 0.0581272 0
M  V30 155 H 13.5749 -3.14345 -2.2522 0
M  V30 156 H 15.2639 -3.50685 -2.04389 0
M  V30 157 H 16.0299 -4.84979 0.0451202 0
M  V30 158 H 11.9089 -4.47155 -1.1213 0
M  V30 159 H 15.4529 -6.83513 1.39483 0
M  V30 160 H 11.3499 -6.4512 0.221384 0
M  V30 161 H 12.1179 -8.03412 1.56432 0
M  V30 162 N 14.781 0.264519 -1.55364 0
M  V30 163 C 16.03 0.992812 -1.75574 0
M  V30 164 C 16.343 1.87142 -0.568979 0
M  V30 165 O 17.549 2.63513 -0.653682 0
M  V30 166 C 16.005 1.81519 -3.10771 0
M  V30 167 C 15.613 0.984839 -4.37041 0
M  V30 168 C 17.357 2.53727 -3.40327 0
M  V30 169 C 15.264 1.80209 -5.63275 0
M  V30 170 H 14.194 0.374412 -0.65447 0
M  V30 171 H 16.845 0.248138 -1.81815 0
M  V30 172 H 15.227 2.60115 -2.98591 0
M  V30 173 H 16.401 0.242455 -4.60162 0
M  V30 174 H 14.716 0.37691 -4.14691 0
M  V30 175 H 17.313 3.15292 -4.3185 0
M  V30 176 H 17.656 3.24447 -2.60845 0
M  V30 177 H 18.189 1.82156 -3.53644 0
M  V30 178 H 14.928 1.13896 -6.45529 0
M  V30 179 H 14.448 2.52022 -5.44284 0
M  V30 180 H 16.127 2.37364 -6.01887 0
M  V30 181 N 16.2591 1.48442 0.529413 0
M  V30 182 C 17.5361 1.46978 1.29062 0
M  V30 183 C 17.9161 0.181769 2.10316 0
M  V30 184 O 17.2641 -0.836481 2.12639 0
M  V30 185 C 17.4741 2.7321 2.17157 0
M  V30 186 C 18.8221 3.21562 2.77278 0
M  V30 187 O 19.8461 2.74131 2.27444 0
M  V30 188 O 18.7051 4.04094 3.67927 0
M  V30 189 H 15.7991 0.587003 0.582543 0
M  V30 190 H 18.3451 1.60676 0.546021 0
M  V30 191 H 17.1171 3.58465 1.56903 0
M  V30 192 H 16.7401 2.62235 2.98862 0
M  V30 193 N 17.7372 -0.778329 1.37039 0
M  V30 194 C 18.9852 -1.53361 1.31623 0
M  V30 195 C 19.3062 -1.94739 -0.100831 0
M  V30 196 O 18.5762 -1.65797 -1.04347 0
M  V30 197 H 17.1562 -0.568794 0.484234 0
M  V30 198 H 19.8182 -0.926742 1.71457 0
M  V30 199 H 18.9142 -2.43606 1.95096 0
M  V30 200 N 19.2153 -1.21501 -1.00376 0
M  V30 201 C 20.1473 -0.933174 -2.09343 0
M  V30 202 C 21.1603 0.0840896 -1.62583 0
M  V30 203 O 22.3493 -0.148563 -1.77881 0
M  V30 204 C 19.4493 -0.379869 -3.36764 0
M  V30 205 C 18.6223 -1.45176 -4.12605 0
M  V30 206 C 17.6813 -0.907476 -5.18316 0
M  V30 207 O 16.7073 -1.5912 -5.46507 0
M  V30 208 N 17.9093 0.276649 -5.7984 0
M  V30 209 H 20.6743 -1.87124 -2.34104 0
M  V30 210 H 18.2353 -1.12043 -1.16867 0
M  V30 211 H 20.2273 -0.00131488 -4.047 0
M  V30 212 H 18.7973 0.463048 -3.09151 0
M  V30 213 H 18.0173 -2.00411 -3.39454 0
M  V30 214 H 19.3053 -2.17328 -4.6005 0
M  V30 215 H 18.7033 0.849147 -5.59291 0
M  V30 216 H 17.2603 0.596702 -6.49063 0
M  V30 217 N 20.6934 1.19889 -1.02296 0
M  V30 218 C 21.9404 1.8942 -0.715972 0
M  V30 219 C 22.2684 1.79251 0.754944 0
M  V30 220 O 21.5234 1.17526 1.56481 0
M  V30 221 C 21.8224 3.39883 -1.10518 0
M  V30 222 C 21.4884 3.70254 -2.57337 0
M  V30 223 C 20.1504 3.78254 -2.97452 0
M  V30 224 C 22.5024 3.84052 -3.52354 0
M  V30 225 C 19.8304 3.97514 -4.31509 0
M  V30 226 C 22.1824 4.04824 -4.86108 0
M  V30 227 C 20.8464 4.11054 -5.25919 0
M  V30 228 H 20.1164 0.693138 -0.261993 0
M  V30 229 H 22.7634 1.42012 -1.28472 0
M  V30 230 H 21.0684 3.8915 -0.454953 0
M  V30 231 H 22.7654 3.9199 -0.845261 0
M  V30 232 H 19.3554 3.64632 -2.25258 0
M  V30 233 H 23.5394 3.77221 -3.22518 0
M  V30 234 H 18.7954 4.00574 -4.61898 0
M  V30 235 H 22.9694 4.14442 -5.59653 0
M  V30 236 H 20.5964 4.2573 -6.29808 0
M  V30 237 N 22.1715 0.800033 1.35784 0
M  V30 238 C 23.4175 0.377901 1.99248 0
M  V30 239 C 23.7505 -1.05052 1.63333 0
M  V30 240 O 23.0255 -1.72768 0.893385 0
M  V30 241 C 23.3085 0.553922 3.55814 0
M  V30 242 C 23.1615 2.0268 4.01548 0
M  V30 243 C 24.4805 -0.0244802 4.40093 0
M  V30 244 H 21.5995 0.138782 0.723815 0
M  V30 245 H 24.2415 1.00835 1.61035 0
M  V30 246 H 22.3915 0.0172398 3.88496 0
M  V30 247 H 24.0635 2.62536 3.79305 0
M  V30 248 H 22.3065 2.5256 3.52698 0
M  V30 249 H 22.9775 2.10087 5.10458 0
M  V30 250 H 25.4535 0.433775 4.13833 0
M  V30 251 H 24.3295 0.128637 5.48749 0
M  V30 252 H 24.5905 -1.11758 4.27741 0
M  V30 253 N 23.6496 -1.47581 0.552962 0
M  V30 254 C 24.8776 -2.06875 0.0320556 0
M  V30 255 C 25.2926 -1.40625 -1.25976 0
M  V30 256 O 24.6496 -0.501349 -1.75479 0
M  V30 257 C 24.7006 -3.61092 -0.17167 0
M  V30 258 O 24.4216 -4.24858 1.06899 0
M  V30 259 C 25.9226 -4.37242 -0.730344 0
M  V30 260 H 23.1426 -0.669561 0.043915 0
M  V30 261 H 25.6866 -1.89646 0.765163 0
M  V30 262 H 23.8416 -3.7785 -0.854894 0
M  V30 263 H 24.2556 -5.17334 0.864059 0
M  V30 264 H 25.7296 -5.45842 -0.822203 0
M  V30 265 H 26.2066 -4.03235 -1.74064 0
M  V30 266 H 26.8126 -4.25219 -0.0829543 0
M  V30 267 N 25.1277 -0.289203 -1.54924 0
M  V30 268 C 26.3737 0.316922 -2.00916 0
M  V30 269 C 26.7287 1.52424 -1.17408 0
M  V30 270 O 26.0217 1.90097 -0.239536 0
M  V30 271 C 26.2157 0.736119 -3.49737 0
M  V30 272 C 26.0447 -0.429036 -4.47649 0
M  V30 273 C 24.8147 -0.917311 -4.96904 0
M  V30 274 C 27.0127 -1.27016 -4.98369 0
M  V30 275 N 24.9947 -2.05046 -5.78644 0
M  V30 276 C 26.3657 -2.25097 -5.77695 0
M  V30 277 C 28.4207 -1.30188 -4.80578 0
M  V30 278 C 27.1237 -3.26114 -6.41126 0
M  V30 279 C 29.1497 -2.30057 -5.44819 0
M  V30 280 C 28.5117 -3.2687 -6.23968 0
M  V30 281 H 24.6107 0.0807535 -0.777819 0
M  V30 282 H 27.1947 -0.416434 -1.90194 0
M  V30 283 H 25.3657 1.43867 -3.60773 0
M  V30 284 H 27.0977 1.32078 -3.82541 0
M  V30 285 H 23.8527 -0.494248 -4.71014 0
M  V30 286 H 24.2767 -2.62108 -6.24202 0
M  V30 287 H 28.9187 -0.567163 -4.18979 0
M  V30 288 H 26.6367 -4.00512 -7.01866 0
M  V30 289 H 30.2227 -2.33271 -5.32988 0
M  V30 290 H 29.1027 -4.02883 -6.72796 0
M  V30 291 N 26.6058 1.57591 -0.0167156 0
M  V30 292 C 28.0218 1.55946 0.339557 0
M  V30 293 C 28.2218 1.02109 1.73713 0
M  V30 294 O 27.2778 0.662303 2.43659 0
M  V30 295 C 28.5908 3.00037 0.199499 0
M  V30 296 C 30.1388 3.11805 0.273193 0
M  V30 297 C 30.6138 4.57713 0.162068 0
M  V30 298 N 32.1048 4.6268 0.219444 0
M  V30 299 C 32.8398 5.73185 0.157054 0
M  V30 300 N 32.3358 6.92786 0.0442936 0
M  V30 301 N 34.1288 5.61707 0.21014 0
M  V30 302 H 26.2798 1.90921 -0.930758 0
M  V30 303 H 28.5428 0.877674 -0.358319 0
M  V30 304 H 28.2488 3.4333 -0.76273 0
M  V30 305 H 28.1228 3.64387 0.974786 0
M  V30 306 H 30.5098 2.68433 1.22587 0
M  V30 307 H 30.5908 2.50201 -0.532256 0
M  V30 308 H 30.2348 5.01763 -0.78714 0
M  V30 309 H 30.1648 5.17283 0.986222 0
M  V30 310 H 32.6558 3.76649 0.307246 0
M  V30 311 H 32.9688 7.728 0.00304069 0
M  V30 312 H 31.3138 6.94999 0.00968457 0
M  V30 313 H 34.5048 4.6716 0.296546 0
M  V30 314 H 34.6778 6.47807 0.158054 0
M  V30 315 N 28.0839 -0.256276 1.55502 0
M  V30 316 C 29.3319 -0.983672 1.76545 0
M  V30 317 C 29.6529 -1.86206 0.578982 0
M  V30 318 O 28.9229 -1.91656 -0.405577 0
M  V30 319 H 27.5029 -0.366191 0.651086 0
M  V30 320 H 30.1649 -0.276479 1.92929 0
M  V30 321 H 29.2609 -1.61087 2.67315 0
M  V30 322 N 29.562 -1.4872 -0.521534 0
M  V30 323 C 30.839 -1.4766 -1.2828 0
M  V30 324 C 31.219 -0.19292 -2.10217 0
M  V30 325 O 30.567 0.825193 -2.13079 0
M  V30 326 C 30.777 -2.74358 -2.15705 0
M  V30 327 C 32.125 -3.23028 -2.75569 0
M  V30 328 O 33.149 -2.75333 -2.25987 0
M  V30 329 O 32.008 -4.0604 -3.65778 0
M  V30 330 H 29.102 -0.590085 -0.579421 0
M  V30 331 H 31.648 -1.60963 -0.537492 0
M  V30 332 H 30.42 -3.59292 -1.54999 0
M  V30 333 H 30.043 -2.63816 -2.97467 0
M  V30 334 N 31.0401 0.771051 -1.3745 0
M  V30 335 C 32.0031 1.86598 -1.33093 0
M  V30 336 C 33.0031 1.59076 -0.234845 0
M  V30 337 O 34.1931 1.67145 -0.490732 0
M  V30 338 C 31.3251 3.23747 -1.06773 0
M  V30 339 H 32.5181 1.91873 -2.30488 0
M  V30 340 H 30.0711 0.970876 -1.2249 0
M  V30 341 H 30.8061 3.24148 -0.099129 0
M  V30 342 H 30.5911 3.45115 -1.86112 0
M  V30 343 H 32.0811 4.03824 -1.06377 0
M  V30 344 N 32.5182 1.22032 0.997298 0
M  V30 345 C 33.7642 1.05382 1.73972 0
M  V30 346 C 34.1192 -0.407419 1.88037 0
M  V30 347 O 33.4122 -1.29811 1.40924 0
M  V30 348 C 33.6062 1.69345 3.14733 0
M  V30 349 C 33.4352 3.21537 3.14395 0
M  V30 350 C 32.2052 3.9062 3.20537 0
M  V30 351 C 34.4032 4.18527 2.98897 0
M  V30 352 N 32.3852 5.29935 3.09906 0
M  V30 353 C 33.7562 5.44645 2.96247 0
M  V30 354 C 35.8112 4.09476 2.83255 0
M  V30 355 C 34.5142 6.62752 2.79557 0
M  V30 356 C 36.5402 5.27228 2.67926 0
M  V30 357 C 35.9022 6.52262 2.65959 0
M  V30 358 H 32.0012 0.440018 0.646458 0
M  V30 359 H 34.5852 1.54505 1.18475 0
M  V30 360 H 32.7562 1.22778 3.68484 0
M  V30 361 H 34.4882 1.45828 3.77513 0
M  V30 362 H 31.2432 3.41592 3.28043 0
M  V30 363 H 31.6672 6.02926 3.07912 0
M  V30 364 H 36.3092 3.13598 2.83577 0
M  V30 365 H 34.0272 7.58783 2.77982 0
M  V30 366 H 37.6132 5.22053 2.56812 0
M  V30 367 H 36.4932 7.41844 2.54239 0
M  V30 368 N 33.9963 -1.19345 1.0293 0
M  V30 369 C 35.2453 -1.88363 0.721256 0
M  V30 370 C 35.5583 -1.80514 -0.753254 0
M  V30 371 O 36.7643 -2.44788 -1.17436 0
M  V30 372 C 35.2203 -3.37872 1.23978 0
M  V30 373 C 34.8283 -3.54278 2.74211 0
M  V30 374 C 36.5723 -4.12365 1.00775 0
M  V30 375 C 34.4793 -4.97682 3.19479 0
M  V30 376 H 33.4093 -0.705484 0.266098 0
M  V30 377 H 36.0603 -1.34928 1.24365 0
M  V30 378 H 34.4423 -3.90707 0.6453 0
M  V30 379 H 35.6163 -3.11769 3.39318 0
M  V30 380 H 33.9313 -2.93174 2.95699 0
M  V30 381 H 36.5283 -5.18119 1.32123 0
M  V30 382 H 36.8713 -4.16263 -0.0554308 0
M  V30 383 H 37.4043 -3.65668 1.56625 0
M  V30 384 H 34.1433 -4.98945 4.25128 0
M  V30 385 H 33.6633 -5.4095 2.591 0
M  V30 386 H 35.3423 -5.66337 3.12845 0
M  V30 387 N 35.4744 -0.807222 -1.35358 0
M  V30 388 C 36.7514 -0.311126 -1.9311 0
M  V30 389 C 37.1314 1.19937 -1.73719 0
M  V30 390 O 36.4794 1.99918 -1.10657 0
M  V30 391 C 36.6894 -0.723226 -3.41424 0
M  V30 392 C 38.0374 -0.713078 -4.18569 0
M  V30 393 O 39.0614 -0.664811 -3.49941 0
M  V30 394 O 37.9204 -0.772022 -5.41019 0
M  V30 395 H 35.0144 -0.081526 -0.822972 0
M  V30 396 H 37.5604 -0.890962 -1.4443 0
M  V30 397 H 36.3324 -1.76426 -3.4927 0
M  V30 398 H 35.9554 -0.118232 -3.97424 0
M  V30 399 N 36.9525 1.47285 -0.560781 0
M  V30 400 C 38.1985 2.02764 -0.0381184 0
M  V30 401 C 38.5315 1.43384 1.30976 0
M  V30 402 O 37.8065 0.590733 1.85312 0
M  V30 403 C 38.0895 3.60064 0.0511427 0
M  V30 404 C 37.9425 4.2987 -1.32408 0
M  V30 405 C 39.2615 4.33439 0.762795 0
M  V30 406 H 36.3805 0.736841 -0.0153264 0
M  V30 407 H 39.0225 1.75675 -0.723759 0
M  V30 408 H 37.1725 3.83274 0.635065 0
M  V30 409 H 38.8445 4.17989 -1.95148 0
M  V30 410 H 37.0875 3.90085 -1.8978 0
M  V30 411 H 37.7585 5.38478 -1.21431 0
M  V30 412 H 40.2345 4.15243 0.266965 0
M  V30 413 H 39.1105 5.43124 0.794221 0
M  V30 414 H 39.3715 4.02915 1.81966 0
M  V30 415 N 38.4306 0.297415 1.54768 0
M  V30 416 C 39.6766 -0.313376 2.00364 0
M  V30 417 C 40.0096 -1.53815 1.18553 0
M  V30 418 O 39.2846 -1.92739 0.261103 0
M  V30 419 C 39.5676 -0.673525 3.53745 0
M  V30 420 C 39.4206 0.560133 4.46299 0
M  V30 421 C 40.7396 -1.50143 4.13697 0
M  V30 422 H 37.8586 -0.112428 0.728374 0
M  V30 423 H 40.5006 0.4088 1.8555 0
M  V30 424 H 38.6506 -1.28881 3.665 0
M  V30 425 H 40.3226 1.19863 4.45455 0
M  V30 426 H 38.5656 1.19405 4.17043 0
M  V30 427 H 39.2366 0.26405 5.51368 0
M  V30 428 H 41.7126 -0.981588 4.04356 0
M  V30 429 H 40.5886 -1.72221 5.21182 0
M  V30 430 H 40.8496 -2.48952 3.65343 0
M  V30 431 N 39.9087 -1.5758 0.0250728 0
M  V30 432 C 40.8567 -2.11125 -0.97617 0
M  V30 433 C 41.8507 -1.03689 -1.33959 0
M  V30 434 O 43.0567 -1.22128 -1.3223 0
M  V30 435 H 39.4317 -0.674468 -0.332561 0
M  V30 436 H 41.4027 -2.94194 -0.499223 0
M  V30 437 C 40.1517 -2.65017 -2.2508 0
M  V30 438 H 39.4747 -3.47333 -1.9799 0
M  V30 439 H 40.9147 -3.06133 -2.93357 0
M  V30 440 C 39.3737 -1.57574 -2.97779 0
M  V30 441 O 39.9037 -0.973203 -3.89733 0
M  V30 442 N 38.1097 -1.29716 -2.60043 0
M  V30 443 H 37.6567 -1.789 -1.85345 0
M  V30 444 H 37.6147 -0.58051 -3.08994 0
M  V30 445 N 41.3868 0.248026 -1.55636 0
M  V30 446 C 42.7978 0.817177 -1.67866 0
M  V30 447 C 43.1488 1.86069 -0.622322 0
M  V30 448 O 42.2738 2.15157 0.231618 0
M  V30 449 C 42.8688 1.489 -3.04326 0
M  V30 450 C 41.4278 2.00587 -3.185 0
M  V30 451 C 40.5748 0.856573 -2.63739 0
M  V30 452 H 43.5258 0.0238579 -1.58682 0
M  V30 453 H 43.5468 2.35698 -2.98708 0
M  V30 454 H 43.0588 0.729279 -3.81186 0
M  V30 455 H 41.1598 2.79443 -2.4646 0
M  V30 456 H 41.2728 2.20402 -4.25393 0
M  V30 457 H 39.6368 1.25678 -2.21534 0
M  V30 458 H 40.4198 0.109953 -3.43124 0
M  V30 459 N 42.8649 1.48995 0.513639 0
M  V30 460 C 43.8279 1.64229 1.59879 0
M  V30 461 C 44.8279 0.514696 1.5234 0
M  V30 462 O 46.0179 0.78087 1.55718 0
M  V30 463 C 43.1499 1.62783 2.99524 0
M  V30 464 H 44.3429 2.61004 1.47705 0
M  V30 465 H 41.8959 1.37837 0.736936 0
M  V30 466 H 42.6309 0.675461 3.17188 0
M  V30 467 H 42.4159 2.4466 3.06404 0
M  V30 468 H 43.9059 1.76669 3.78388 0
M  V30 469 N 44.343 -0.763751 1.37857 0
M  V30 470 C 45.571 -1.55293 1.36718 0
M  V30 471 C 45.986 -1.88745 -0.0455434 0
M  V30 472 O 45.343 -1.52039 -1.00947 0
M  V30 473 C 45.394 -2.85831 2.2132 0
M  V30 474 O 45.115 -2.5381 3.57089 0
M  V30 475 C 46.616 -3.80023 2.28249 0
M  V30 476 H 43.836 -0.480841 0.468009 0
M  V30 477 H 46.38 -0.946009 1.81303 0
M  V30 478 H 44.535 -3.42926 1.80223 0
M  V30 479 H 44.949 -3.37459 4.01524 0
M  V30 480 H 46.423 -4.68599 2.91752 0
M  V30 481 H 46.9 -4.1973 1.2932 0
M  V30 482 H 47.506 -3.28855 2.69693 0
M  V30 483 N 45.8211 -1.22559 -0.990812 0
M  V30 484 C 46.7311 -1.01394 -2.11557 0
M  V30 485 C 47.7471 0.0383962 -1.73958 0
M  V30 486 O 48.9231 -0.154787 -2.00804 0
M  V30 487 C 45.9881 -0.596569 -3.41529 0
M  V30 488 C 45.0491 -1.72276 -3.93217 0
M  V30 489 C 44.2821 -1.32521 -5.16985 0
M  V30 490 O 44.5051 -0.204909 -5.70032 0
M  V30 491 O 43.4391 -2.14247 -5.62478 0
M  V30 492 H 47.2651 -1.95633 -2.32296 0
M  V30 493 H 44.8501 -1.01172 -1.0993 0
M  V30 494 H 46.7321 -0.374263 -4.19735 0
M  V30 495 H 45.4071 0.316939 -3.22145 0
M  V30 496 H 44.3141 -1.99961 -3.16174 0
M  V30 497 H 45.6471 -2.61421 -4.17037 0
M  V30 498 N 47.2992 1.18797 -1.03562 0
M  V30 499 C 48.2622 2.20464 -0.626769 0
M  V30 500 C 49.2622 1.57721 0.313173 0
M  V30 501 O 50.4522 1.73917 0.0992615 0
M  V30 502 C 47.5842 3.40802 0.0818498 0
M  V30 503 H 48.7772 2.58149 -1.5264 0
M  V30 504 H 46.3302 1.32593 -0.827578 0
M  V30 505 H 47.0652 3.08642 0.995518 0
M  V30 506 H 46.8502 3.8758 -0.593652 0
M  V30 507 H 48.3402 4.16092 0.354584 0
M  V30 508 N 48.7773 0.814389 1.34928 0
M  V30 509 C 50.0233 0.399013 1.98836 0
M  V30 510 C 50.3563 -1.03314 1.64438 0
M  V30 511 O 49.6313 -1.71811 0.911659 0
M  V30 512 C 49.9143 0.591629 3.55207 0
M  V30 513 C 49.7673 2.06928 3.99376 0
M  V30 514 C 51.0863 0.022199 4.40094 0
M  V30 515 H 48.2053 0.146451 0.722303 0
M  V30 516 H 50.8473 1.02537 1.59957 0
M  V30 517 H 48.9973 0.0584441 3.88456 0
M  V30 518 H 50.6693 2.66544 3.76499 0
M  V30 519 H 48.9123 2.56287 3.49999 0
M  V30 520 H 49.5833 2.1549 5.08201 0
M  V30 521 H 52.0593 0.477643 4.13349 0
M  V30 522 H 50.9353 0.186832 5.48582 0
M  V30 523 H 51.1963 -1.07215 4.28902 0
M  V30 524 N 50.2554 -1.46986 0.568584 0
M  V30 525 C 51.5044 -2.01646 0.0465894 0
M  V30 526 C 51.8174 -1.44721 -1.31587 0
M  V30 527 O 53.0234 -1.91113 -1.92842 0
M  V30 528 C 51.4794 -3.59885 0.032752 0
M  V30 529 C 51.0874 -4.25804 1.39266 0
M  V30 530 C 52.8314 -4.22255 -0.436038 0
M  V30 531 C 50.7384 -5.76081 1.33732 0
M  V30 532 H 49.6684 -0.753876 0.013647 0
M  V30 533 H 52.3194 -1.68864 0.718131 0
M  V30 534 H 50.7014 -3.8968 -0.704669 0
M  V30 535 H 51.8754 -4.07637 2.1487 0
M  V30 536 H 50.1904 -3.7547 1.80032 0
M  V30 537 H 52.7874 -5.32394 -0.49602 0
M  V30 538 H 53.1304 -3.90212 -1.45053 0
M  V30 539 H 53.6634 -3.97033 0.246877 0
M  V30 540 H 50.4024 -6.12761 2.32817 0
M  V30 541 H 49.9224 -5.96553 0.623267 0
M  V30 542 H 51.6014 -6.38518 1.0442 0
M  V30 543 N 51.7335 -0.305618 -1.54608 0
M  V30 544 C 52.9585 0.307562 -2.05107 0
M  V30 545 C 53.3835 1.46385 -1.18123 0
M  V30 546 O 52.7415 1.8034 -0.186324 0
M  V30 547 C 52.7895 0.73704 -3.52987 0
M  V30 548 O 51.8935 1.84134 -3.6901 0
M  V30 549 H 51.2345 0.0589143 -0.661381 0
M  V30 550 H 53.7645 -0.448807 -1.99617 0
M  V30 551 H 53.7745 1.02459 -3.94925 0
M  V30 552 H 52.4495 -0.108773 -4.15758 0
M  V30 553 H 51.0265 1.55398 -3.38978 0
M  V30 554 N 53.2116 1.57565 -0.0334293 0
M  V30 555 C 54.6276 1.56297 0.322997 0
M  V30 556 C 54.8276 1.03945 1.7262 0
M  V30 557 O 53.8836 0.688109 2.42943 0
M  V30 558 C 55.1966 3.00232 0.167664 0
M  V30 559 C 56.7446 3.12078 0.240107 0
M  V30 560 C 57.2196 4.57859 0.113513 0
M  V30 561 N 58.7106 4.62887 0.170359 0
M  V30 562 C 59.4456 5.73319 0.0962517 0
M  V30 563 N 58.9416 6.92794 -0.0291881 0
M  V30 564 N 60.7346 5.61898 0.150551 0
M  V30 565 H 52.8856 1.89923 -0.950956 0
M  V30 566 H 55.1486 0.873824 -0.367608 0
M  V30 567 H 54.8546 3.42501 -0.799102 0
M  V30 568 H 54.7286 3.654 0.936083 0
M  V30 569 H 57.1156 2.69718 1.19733 0
M  V30 570 H 57.1966 2.49623 -0.558763 0
M  V30 571 H 56.8406 5.009 -0.840314 0
M  V30 572 H 56.7706 5.18299 0.931302 0
M  V30 573 H 59.2616 3.76954 0.26728 0
M  V30 574 H 59.5746 7.7276 -0.0789252 0
M  V30 575 H 57.9196 6.94971 -0.0640299 0
M  V30 576 H 61.1106 4.67448 0.246981 0
M  V30 577 H 61.2836 6.47938 0.0893365 0
M  V30 578 N 54.6897 -0.239769 1.55765 0
M  V30 579 C 55.9387 -0.964754 1.77131 0
M  V30 580 C 56.2517 -1.86213 0.59868 0
M  V30 581 O 57.4577 -2.6244 0.695522 0
M  V30 582 C 55.9137 -1.76552 3.1362 0
M  V30 583 C 55.5217 -0.915185 4.38553 0
M  V30 584 C 57.2657 -2.48281 3.44321 0
M  V30 585 C 55.1727 -1.71225 5.66071 0
M  V30 586 H 54.1027 -0.363953 0.660344 0
M  V30 587 H 56.7537 -0.219181 1.82186 0
M  V30 588 H 55.1357 -2.55331 3.02691 0
M  V30 589 H 56.3097 -0.169217 4.60489 0
M  V30 590 H 54.6247 -0.310889 4.15238 0
M  V30 591 H 57.2217 -3.08382 4.36812 0
M  V30 592 H 57.5647 -3.20256 2.65973 0
M  V30 593 H 58.0977 -1.76507 3.56497 0
M  V30 594 H 54.8367 -1.03612 6.4726 0
M  V30 595 H 54.3567 -2.43331 5.48224 0
M  V30 596 H 56.0357 -2.27758 6.05587 0
M  V30 597 N 56.1678 -1.49265 -0.50573 0
M  V30 598 C 57.5788 -1.51769 -1.08734 0
M  V30 599 C 57.9298 -0.301192 -1.93874 0
M  V30 600 O 57.0548 0.589456 -2.08217 0
M  V30 601 C 57.6498 -2.75017 -1.97867 0
M  V30 602 C 56.2088 -2.80314 -2.51199 0
M  V30 603 C 55.3558 -2.4562 -1.28709 0
M  V30 604 H 58.3068 -1.56031 -0.289855 0
M  V30 605 H 58.3278 -2.5491 -2.82491 0
M  V30 606 H 57.8398 -3.63539 -1.35873 0
M  V30 607 H 55.9408 -1.96061 -3.16845 0
M  V30 608 H 56.0538 -3.82366 -2.88675 0
M  V30 609 H 54.4178 -1.97297 -1.61078 0
M  V30 610 H 55.2008 -3.36411 -0.6843 0
M  V30 611 N 57.6459 0.756429 -1.3826 0
M  V30 612 C 58.9229 1.50584 -1.24835 0
M  V30 613 C 59.3029 2.10556 0.151485 0
M  V30 614 O 58.6509 1.96825 1.1607 0
M  V30 615 C 58.8609 2.57448 -2.3563 0
M  V30 616 C 60.2089 3.24429 -2.73917 0
M  V30 617 O 61.2329 2.67751 -2.34921 0
M  V30 618 O 60.0919 4.26937 -3.41156 0
M  V30 619 H 57.1859 0.667664 -0.48801 0
M  V30 620 H 59.7319 0.792083 -1.5008 0
M  V30 621 H 58.5039 2.11362 -3.29305 0
M  V30 622 H 58.1269 3.36408 -2.11933 0
M  V30 623 N 59.124 1.23083 0.984299 0
M  V30 624 C 60.372 1.05848 1.72165 0
M  V30 625 C 60.693 -0.406049 1.90726 0
M  V30 626 O 59.963 -1.29139 1.47309 0
M  V30 627 H 58.543 0.388685 0.637913 0
M  V30 628 H 61.205 1.54736 1.18503 0
M  V30 629 H 60.301 1.54327 2.71274 0
M  V30 630 N 60.6021 -1.18246 1.0419 0
M  V30 631 C 61.5341 -2.2142 0.592088 0
M  V30 632 C 62.5471 -1.59233 -0.338909 0
M  V30 633 O 63.7361 -1.78002 -0.133231 0
M  V30 634 C 60.8361 -3.38546 -0.154854 0
M  V30 635 C 60.0091 -4.3031 0.784328 0
M  V30 636 C 59.0681 -5.26138 0.0804583 0
M  V30 637 O 58.0941 -5.64738 0.711292 0
M  V30 638 N 59.2961 -5.68261 -1.18574 0
M  V30 639 H 62.0611 -2.60636 1.47949 0
M  V30 640 H 59.6221 -1.33044 0.922544 0
M  V30 641 H 61.6141 -3.99678 -0.635606 0
M  V30 642 H 60.1841 -2.98012 -0.943811 0
M  V30 643 H 59.4041 -3.66764 1.44491 0
M  V30 644 H 60.6921 -4.8852 1.42218 0
M  V30 645 H 60.0901 -5.38957 -1.71876 0
M  V30 646 H 58.6471 -6.31584 -1.61074 0
M  V30 647 N 62.0802 -0.821533 -1.34494 0
M  V30 648 C 63.0432 -0.247847 -2.27856 0
M  V30 649 C 64.0432 0.573453 -1.50227 0
M  V30 650 O 65.2332 0.389759 -1.69784 0
M  V30 651 C 62.3652 0.652698 -3.34593 0
M  V30 652 H 63.5582 -1.07146 -2.80107 0
M  V30 653 H 61.1112 -0.593291 -1.44602 0
M  V30 654 H 61.8462 1.49943 -2.87555 0
M  V30 655 H 61.6312 0.065292 -3.92046 0
M  V30 656 H 63.1212 1.04793 -4.04238 0
M  V30 657 N 63.5583 1.46682 -0.576371 0
M  V30 658 C 64.4683 2.34032 0.163141 0
M  V30 659 C 65.4843 1.49367 0.892501 0
M  V30 660 O 66.6603 1.82252 0.857106 0
M  V30 661 C 63.7253 3.26435 1.16795 0
M  V30 662 C 62.7863 4.26998 0.443944 0
M  V30 663 C 62.0193 5.14986 1.40088 0
M  V30 664 O 62.2423 5.05785 2.637 0
M  V30 665 O 61.1763 5.94906 0.914917 0
M  V30 666 H 65.0023 2.98607 -0.55388 0
M  V30 667 H 62.5873 1.45554 -0.336821 0
M  V30 668 H 64.4693 3.83459 1.74748 0
M  V30 669 H 63.1443 2.64465 1.86655 0
M  V30 670 H 62.0513 3.7368 -0.177271 0
M  V30 671 H 63.3843 4.91736 -0.213566 0
M  V30 672 N 65.0364 0.313813 1.54444 0
M  V30 673 C 66.3134 -0.345447 1.92525 0
M  V30 674 C 66.6934 -1.70667 1.24242 0
M  V30 675 O 66.0414 -2.25273 0.382654 0
M  V30 676 C 66.2514 -0.44737 3.46121 0
M  V30 677 C 67.5994 -0.712238 4.18584 0
M  V30 678 O 68.6234 -0.530678 3.52225 0
M  V30 679 O 67.4824 -1.06183 5.36085 0
M  V30 680 H 64.5764 -0.195407 0.803583 0
M  V30 681 H 67.1224 0.362813 1.65776 0
M  V30 682 H 65.8944 0.509043 3.87975 0
M  V30 683 H 65.5174 -1.20359 3.78945 0
M  V30 684 N 66.5145 -1.57545 0.0417849 0
M  V30 685 C 67.4775 -2.09885 -0.92093 0
M  V30 686 C 68.4775 -1.01648 -1.24596 0
M  V30 687 O 69.6675 -1.27759 -1.1842 0
M  V30 688 C 66.7995 -2.57527 -2.23367 0
M  V30 689 H 67.9925 -2.96236 -0.467382 0
M  V30 690 H 65.5455 -1.5493 -0.206467 0
M  V30 691 H 66.2805 -1.74542 -2.73323 0
M  V30 692 H 66.0655 -3.36613 -2.01083 0
M  V30 693 H 67.5555 -2.98201 -2.92346 0
M  V30 694 N 67.9926 0.231505 -1.5589 0
M  V30 695 C 69.4086 0.580748 -1.48659 0
M  V30 696 C 69.6086 1.87617 -0.73498 0
M  V30 697 O 68.6646 2.51046 -0.270586 0
M  V30 698 C 69.9776 0.669202 -2.93159 0
M  V30 699 C 71.5256 0.760499 -3.03621 0
M  V30 700 C 72.0006 0.880383 -4.49459 0
M  V30 701 N 73.4916 0.944861 -4.53461 0
M  V30 702 C 74.2266 1.05716 -5.63571 0
M  V30 703 N 73.7226 1.13403 -6.83456 0
M  V30 704 N 75.5156 1.09152 -5.514 0
M  V30 705 H 67.6666 -0.618695 -2.03189 0
M  V30 706 H 69.9296 -0.215728 -0.923128 0
M  V30 707 H 69.6356 -0.212904 -3.51055 0
M  V30 708 H 69.5096 1.5361 -3.44505 0
M  V30 709 H 71.8966 1.63305 -2.45796 0
M  V30 710 H 71.9776 -0.131864 -2.5546 0
M  V30 711 H 71.6216 0.0123284 -5.07899 0
M  V30 712 H 71.5516 1.78802 -4.95316 0
M  V30 713 H 74.0426 0.896176 -3.6712 0
M  V30 714 H 74.3556 1.21921 -7.63122 0
M  V30 715 H 72.7006 1.10333 -6.86186 0
M  V30 716 H 75.8916 1.02805 -4.56671 0
M  V30 717 H 76.0646 1.17558 -6.37247 0
M  V30 718 N 69.4707 1.49531 0.497807 0
M  V30 719 C 70.4177 1.66436 1.59899 0
M  V30 720 C 71.3877 0.505793 1.58212 0
M  V30 721 O 72.5727 0.733202 1.7615 0
M  V30 722 C 69.7127 1.7399 2.98029 0
M  V30 723 C 68.8257 3.01172 3.09708 0
M  V30 724 C 67.9607 2.99686 4.38591 0
M  V30 725 C 66.9997 4.21434 4.43914 0
M  V30 726 N 66.1367 4.1784 5.64229 0
M  V30 727 H 70.9767 2.60459 1.44793 0
M  V30 728 H 68.5137 1.29137 0.704423 0
M  V30 729 H 70.4717 1.76352 3.78095 0
M  V30 730 H 69.1017 0.834301 3.11832 0
M  V30 731 H 68.1537 3.08408 2.22685 0
M  V30 732 H 69.4657 3.91165 3.09502 0
M  V30 733 H 68.6197 3.00628 5.2698 0
M  V30 734 H 67.3587 2.07477 4.41367 0
M  V30 735 H 66.3637 4.20733 3.53926 0
M  V30 736 H 67.5887 5.14839 4.42851 0
M  V30 737 H 65.5347 3.28469 5.67841 0
M  V30 738 H 65.4517 5.01571 5.65652 0
M  V30 739 H 66.7197 4.22889 6.54817 0
M  V30 740 N 70.9488 -0.749086 1.3866 0
M  V30 741 C 71.9118 -1.84457 1.36045 0
M  V30 742 C 72.9118 -1.58682 0.260122 0
M  V30 743 O 74.1018 -1.66343 0.517261 0
M  V30 744 C 71.2338 -3.22008 1.11911 0
M  V30 745 H 72.4268 -1.88182 2.33512 0
M  V30 746 H 69.9798 -0.951266 1.24019 0
M  V30 747 H 70.7148 -3.2395 0.150686 0
M  V30 748 H 70.4998 -3.42111 1.91579 0
M  V30 749 H 71.9898 -4.0208 1.12788 0
M  V30 750 N 72.4269 -1.23603 -0.977757 0
M  V30 751 C 73.6759 -1.06377 -1.71368 0
M  V30 752 C 73.9889 0.399062 -1.91486 0
M  V30 753 O 75.1949 0.691312 -2.62551 0
M  V30 754 C 73.6509 -1.85512 -3.08404 0
M  V30 755 C 73.2589 -3.36141 -2.96164 0
M  V30 756 C 75.0029 -1.76783 -3.85938 0
M  V30 757 C 72.9099 -4.07659 -4.28449 0
M  V30 758 H 71.8399 -0.394452 -0.642591 0
M  V30 759 H 74.4909 -1.47594 -1.09034 0
M  V30 760 H 72.8729 -1.37103 -3.71509 0
M  V30 761 H 74.0469 -3.92056 -2.42133 0
M  V30 762 H 72.3619 -3.45712 -2.32104 0
M  V30 763 H 74.9589 -2.27526 -4.83876 0
M  V30 764 H 75.3019 -0.731116 -4.0983 0
M  V30 765 H 75.8349 -2.22818 -3.2954 0
M  V30 766 H 72.5739 -5.11648 -4.09752 0
M  V30 767 H 72.0939 -3.5653 -4.82334 0
M  V30 768 H 73.7729 -4.141 -4.97122 0
M  V30 769 N 73.905 1.17692 -1.04816 0
M  V30 770 C 75.182 1.83768 -0.669963 0
M  V30 771 C 75.562 1.93232 0.849986 0
M  V30 772 O 74.91 1.46397 1.75443 0
M  V30 773 C 75.12 3.21641 -1.35455 0
M  V30 774 C 76.468 3.97592 -1.49017 0
M  V30 775 O 77.492 3.31107 -1.31326 0
M  V30 776 O 76.351 5.16729 -1.77914 0
M  V30 777 H 73.445 0.792799 -0.235368 0
M  V30 778 H 75.991 1.25021 -1.14751 0
M  V30 779 H 74.763 3.097 -2.39168 0
M  V30 780 H 74.386 3.88052 -0.866107 0
M  V30 781 N 75.3831 0.828654 1.34056 0
M  V30 782 C 76.3461 0.259927 2.27721 0
M  V30 783 C 77.3461 -0.565478 1.50529 0
M  V30 784 O 78.5361 -0.38075 1.69988 0
M  V30 785 C 75.6681 -0.634944 3.34935 0
M  V30 786 H 76.8611 1.0863 2.79534 0
M  V30 787 H 74.4141 0.600951 1.44285 0
M  V30 788 H 75.1491 -1.48416 2.88346 0
M  V30 789 H 74.9341 -0.0444999 3.92075 0
M  V30 790 H 76.4241 -1.02648 4.04788 0
M  V30 791 N 76.8612 -1.46375 0.584142 0
M  V30 792 C 77.8242 -2.28784 -0.138108 0
M  V30 793 C 78.8242 -1.38471 -0.817462 0
M  V30 794 O 80.0142 -1.60833 -0.669199 0
M  V30 795 C 77.1462 -3.18892 -1.20503 0
M  V30 796 H 78.3392 -2.94117 0.586127 0
M  V30 797 H 75.8922 -1.52509 0.342171 0
M  V30 798 H 76.6272 -2.58309 -1.96079 0
M  V30 799 H 76.4122 -3.85388 -0.722384 0
M  V30 800 H 77.9022 -3.80914 -1.71155 0
M  V30 801 N 78.3393 -0.321999 -1.54275 0
M  V30 802 C 79.2493 0.553631 -2.27974 0
M  V30 803 C 80.2653 1.13054 -1.32268 0
M  V30 804 O 81.4413 1.15084 -1.6528 0
M  V30 805 C 78.5063 1.69927 -3.02201 0
M  V30 806 C 77.5673 1.15433 -4.1349 0
M  V30 807 C 76.8003 2.24537 -4.84168 0
M  V30 808 O 77.0233 3.44852 -4.5435 0
M  V30 809 O 75.9573 1.90044 -5.7111 0
M  V30 810 H 79.7833 -0.0448345 -3.03667 0
M  V30 811 H 77.3683 -0.0877418 -1.49142 0
M  V30 812 H 79.2503 2.3663 -3.48689 0
M  V30 813 H 77.9253 2.28395 -2.29385 0
M  V30 814 H 76.8323 0.452436 -3.71354 0
M  V30 815 H 78.1653 0.614805 -4.88345 0
M  V30 816 N 79.8174 1.5752 -0.0501392 0
M  V30 817 C 81.2334 1.56631 0.306402 0
M  V30 818 C 81.4334 1.0577 1.71508 0
M  V30 819 O 80.4894 0.713837 2.422 0
M  V30 820 C 81.8024 3.00393 0.135811 0
M  V30 821 C 83.3504 3.12315 0.206993 0
M  V30 822 C 83.8254 4.57954 0.064944 0
M  V30 823 N 85.3164 4.63041 0.121254 0
M  V30 824 C 86.0514 5.73389 0.0354381 0
M  V30 825 N 85.5474 6.92724 -0.102666 0
M  V30 826 N 87.3404 5.62026 0.090946 0
M  V30 827 H 79.4914 1.88903 -0.971046 0
M  V30 828 H 81.7544 0.869876 -0.376855 0
M  V30 829 H 81.4604 3.41635 -0.835384 0
M  V30 830 H 81.3344 3.66373 0.897275 0
M  V30 831 H 83.7214 2.70973 1.16866 0
M  V30 832 H 83.8024 2.49016 -0.585208 0
M  V30 833 H 83.4464 4.99981 -0.893394 0
M  V30 834 H 83.3764 5.19258 0.876277 0
M  V30 835 H 85.8674 3.77216 0.227284 0
M  V30 836 H 86.1804 7.72633 -0.160882 0
M  V30 837 H 84.5254 6.94864 -0.137737 0
M  V30 838 H 87.7164 4.67684 0.197388 0
M  V30 839 H 87.8894 6.47997 0.0206089 0
M  V30 840 N 81.2955 -0.223234 1.56011 0
M  V30 841 C 82.2585 -1.26014 1.9145 0
M  V30 842 C 83.2585 -1.3989 0.792937 0
M  V30 843 O 84.4485 -1.38184 1.0607 0
M  V30 844 C 81.5805 -2.63422 2.16383 0
M  V30 845 H 82.7735 -0.95796 2.84189 0
M  V30 846 H 80.3265 -0.463576 1.49267 0
M  V30 847 H 81.0615 -2.98741 1.2619 0
M  V30 848 H 80.8465 -2.54728 2.98088 0
M  V30 849 H 82.3365 -3.38249 2.44903 0
M  V30 850 N 82.7736 -1.49793 -0.48987 0
M  V30 851 C 83.7056 -1.63413 -1.60713 0
M  V30 852 C 84.7186 -0.516329 -1.54395 0
M  V30 853 O 85.9076 -0.788812 -1.60125 0
M  V30 854 C 83.0076 -1.58516 -2.99543 0
M  V30 855 C 82.1806 -2.86016 -3.30928 0
M  V30 856 C 81.2396 -2.74018 -4.49222 0
M  V30 857 O 80.2656 -3.47964 -4.50455 0
M  V30 858 N 81.4676 -1.86309 -5.4979 0
M  V30 859 H 84.2326 -2.59777 -1.49452 0
M  V30 860 H 81.7936 -1.47022 -0.677955 0
M  V30 861 H 83.7856 -1.48128 -3.76617 0
M  V30 862 H 82.3556 -0.69965 -3.0467 0
M  V30 863 H 81.5756 -3.10672 -2.42645 0
M  V30 864 H 82.8636 -3.70521 -3.487 0
M  V30 865 H 82.2616 -1.2551 -5.51601 0
M  V30 866 H 80.8186 -1.81837 -6.25922 0
M  V30 867 N 84.2517 0.741722 -1.39055 0
M  V30 868 C 85.6627 1.31966 -1.32068 0
M  V30 869 C 86.0137 1.96192 0.0180797 0
M  V30 870 O 85.1387 1.95861 0.920196 0
M  V30 871 C 85.7337 2.39954 -2.39181 0
M  V30 872 C 84.2927 2.93438 -2.35735 0
M  V30 873 C 83.4397 1.66936 -2.21422 0
M  V30 874 H 86.3907 0.539721 -1.4924 0
M  V30 875 H 86.4117 3.20182 -2.05581 0
M  V30 876 H 85.9237 1.9318 -3.36605 0
M  V30 877 H 84.0247 3.4451 -1.41929 0
M  V30 878 H 84.1377 3.4701 -3.30335 0
M  V30 879 H 82.5017 1.91016 -1.68478 0
M  V30 880 H 83.2847 1.22224 -3.20806 0
M  V30 881 N 85.7298 1.2412 0.971189 0
M  V30 882 C 86.6398 1.04747 2.09917 0
M  V30 883 C 87.6558 -0.0107162 1.73997 0
M  V30 884 O 88.8318 0.186714 2.00533 0
M  V30 885 C 85.8968 0.650828 3.40537 0
M  V30 886 C 84.9578 1.7851 3.90426 0
M  V30 887 C 84.1908 1.40729 5.14812 0
M  V30 888 O 84.4138 0.29557 5.69634 0
M  V30 889 O 83.3478 2.23168 5.58999 0
M  V30 890 H 87.1738 1.99304 2.29154 0
M  V30 891 H 84.7588 1.02908 1.08307 0
M  V30 892 H 86.6408 0.440992 4.19086 0
M  V30 893 H 85.3158 -0.265649 3.22608 0
M  V30 894 H 84.2228 2.04966 3.12953 0
M  V30 895 H 85.5558 2.68023 4.12825 0
M  V30 896 N 87.2079 -1.17134 1.05439 0
M  V30 897 C 88.4539 -1.87979 0.776872 0
M  V30 898 C 88.8089 -1.7965 -0.688751 0
M  V30 899 O 88.1019 -1.19535 -1.4974 0
M  V30 900 C 88.2959 -3.36833 1.19491 0
M  V30 901 C 88.1249 -3.59653 2.69963 0
M  V30 902 C 86.8949 -3.76234 3.37307 0
M  V30 903 C 89.0929 -3.59091 3.68182 0
M  V30 904 N 87.0749 -3.86922 4.76618 0
M  V30 905 C 88.4459 -3.75659 4.93235 0
M  V30 906 C 90.5009 -3.42255 3.61616 0
M  V30 907 C 89.2039 -3.77133 6.12506 0
M  V30 908 C 91.2299 -3.45018 4.8033 0
M  V30 909 C 90.5919 -3.62096 6.04207 0
M  V30 910 H 86.6909 -0.705876 0.336546 0
M  V30 911 H 89.2749 -1.40602 1.34682 0
M  V30 912 H 87.4459 -3.82873 0.652884 0
M  V30 913 H 89.1779 -3.95305 0.866966 0
M  V30 914 H 85.9329 -3.76193 2.87708 0
M  V30 915 H 86.3569 -3.96055 5.49062 0
M  V30 916 H 90.9989 -3.27986 2.66805 0
M  V30 917 H 88.7169 -3.90186 7.07659 0
M  V30 918 H 92.3029 -3.33246 4.76905 0
M  V30 919 H 91.1829 -3.64142 6.94529 0
M  V30 920 N 88.686 -0.835752 -1.33615 0
M  V30 921 C 89.596 -0.269088 -2.33052 0
M  V30 922 C 90.612 0.603251 -1.63208 0
M  V30 923 O 91.788 0.508112 -1.94885 0
M  V30 924 C 88.853 0.549091 -3.42324 0
M  V30 925 C 87.914 -0.347156 -4.27894 0
M  V30 926 C 87.147 0.43207 -5.31948 0
M  V30 927 O 87.37 1.66409 -5.45586 0
M  V30 928 O 86.304 -0.192298 -6.01593 0
M  V30 929 H 90.13 -1.09243 -2.83372 0
M  V30 930 H 87.715 -0.598198 -1.36901 0
M  V30 931 H 89.597 1.01414 -4.09015 0
M  V30 932 H 88.272 1.34955 -2.94226 0
M  V30 933 H 87.179 -0.859979 -3.64081 0
M  V30 934 H 88.512 -1.1123 -4.79467 0
M  V30 935 N 90.1641 1.46063 -0.591896 0
M  V30 936 C 91.1271 2.28854 0.125973 0
M  V30 937 C 92.1271 1.38903 0.810107 0
M  V30 938 O 93.3171 1.61186 0.66066 0
M  V30 939 C 90.4491 3.19526 1.1881 0
M  V30 940 H 91.6421 2.93802 -0.601717 0
M  V30 941 H 89.1951 1.52325 -0.350254 0
M  V30 942 H 89.9301 2.59345 1.94707 0
M  V30 943 H 89.7151 3.85766 0.701936 0
M  V30 944 H 91.2051 3.81817 1.69132 0
M  V30 945 N 91.6422 0.330177 1.54103 0
M  V30 946 C 92.5722 -0.525353 2.27513 0
M  V30 947 C 93.5532 -1.11383 1.2856 0
M  V30 948 O 94.7382 -1.13773 1.57383 0
M  V30 949 C 91.8682 -1.6831 3.03791 0
M  V30 950 C 90.8222 -1.2236 4.10137 0
M  V30 951 C 90.1482 -2.46882 4.74293 0
M  V30 952 C 91.4482 -0.333697 5.21233 0
M  V30 953 H 93.1422 0.087013 2.99274 0
M  V30 954 H 90.6882 0.0432893 1.43935 0
M  V30 955 H 92.6412 -2.28795 3.5388 0
M  V30 956 H 91.3652 -2.32216 2.29659 0
M  V30 957 H 90.0242 -0.64165 3.60941 0
M  V30 958 H 89.6722 -3.09165 3.96769 0
M  V30 959 H 89.3722 -2.16825 5.46133 0
M  V30 960 H 90.8962 -3.08117 5.27159 0
M  V30 961 H 92.3102 -0.845013 5.67038 0
M  V30 962 H 90.7072 -0.125612 5.99969 0
M  V30 963 H 91.7772 0.633724 4.80741 0
M  V30 964 N 93.1203 -1.57491 0.0584922 0
M  V30 965 C 94.5313 -1.80526 -0.476138 0
M  V30 966 C 94.8823 -0.971334 -1.70469 0
M  V30 967 O 94.0073 -0.190012 -2.15564 0
M  V30 968 C 94.6023 -3.27424 -0.870587 0
M  V30 969 C 93.1613 -3.51351 -1.35015 0
M  V30 970 C 92.3083 -2.75343 -0.32887 0
M  V30 971 H 95.2593 -1.56133 0.284312 0
M  V30 972 H 95.2803 -3.38745 -1.73299 0
M  V30 973 H 94.7923 -3.88093 0.0237627 0
M  V30 974 H 92.8933 -2.95971 -2.26345 0
M  V30 975 H 93.0063 -4.60059 -1.33726 0
M  V30 976 H 91.3703 -2.417 -0.803321 0
M  V30 977 H 92.1533 -3.38743 0.557521 0
M  V30 978 N 94.5984 0.214957 -1.56127 0
M  V30 979 C 95.5614 1.24997 -1.92116 0
M  V30 980 C 96.5614 1.39467 -0.800344 0
M  V30 981 O 97.7514 1.37619 -1.06802 0
M  V30 982 C 94.8834 2.62271 -2.17777 0
M  V30 983 H 96.0764 0.942875 -2.84693 0
M  V30 984 H 93.6294 0.455654 -1.49511 0
M  V30 985 H 94.3644 2.98068 -1.27773 0
M  V30 986 H 94.1494 2.53143 -2.99434 0
M  V30 987 H 95.6394 3.36946 -2.46693 0
M  V30 988 N 96.0765 1.50051 0.48192 0
M  V30 989 C 97.3255 1.59741 1.23149 0
M  V30 990 C 97.6385 0.298163 1.93314 0
M  V30 991 O 98.8445 0.273835 2.70116 0
M  V30 992 C 97.3005 2.81926 2.23708 0
M  V30 993 C 96.9085 4.18685 1.59396 0
M  V30 994 C 98.6525 3.00956 2.99375 0
M  V30 995 C 96.5595 5.3207 2.58178 0
M  V30 996 H 95.4895 0.594838 0.46334 0
M  V30 997 H 98.1405 1.76467 0.503169 0
M  V30 998 H 96.5225 2.58736 2.99786 0
M  V30 999 H 97.6965 4.52088 0.891811 0
M  V30 1000 H 96.0115 4.05171 0.960503 0
M  V30 1001 H 98.6085 3.82836 3.73283 0
M  V30 1002 H 98.9515 2.12258 3.58123 0
M  V30 1003 H 99.4845 3.24277 2.30411 0
M  V30 1004 H 96.2235 6.22888 2.04184 0
M  V30 1005 H 95.7435 5.03098 3.26577 0
M  V30 1006 H 97.4225 5.62196 3.20225 0
M  V30 1007 N 97.5546 -0.734337 1.39446 0
M  V30 1008 C 98.4646 -1.87879 1.40495 0
M  V30 1009 C 99.4806 -1.714 0.299672 0
M  V30 1010 O 100.657 -1.93991 0.541249 0
M  V30 1011 C 97.7216 -3.23477 1.24754 0
M  V30 1012 C 96.7826 -3.52344 2.45259 0
M  V30 1013 C 96.0156 -4.81473 2.30259 0
M  V30 1014 O 96.2386 -5.55237 1.30643 0
M  V30 1015 O 95.1726 -5.10254 3.19256 0
M  V30 1016 H 98.9986 -1.89949 2.36966 0
M  V30 1017 H 96.5836 -0.882243 1.20569 0
M  V30 1018 H 98.4656 -4.04509 1.18111 0
M  V30 1019 H 97.1406 -3.22176 0.313781 0
M  V30 1020 H 96.0476 -2.71396 2.57478 0
M  V30 1021 H 97.3806 -3.58426 3.37331 0
M  V30 1022 N 99.0327 -1.24633 -0.964593 0
M  V30 1023 C 100.449 -1.01239 -1.2338 0
M  V30 1024 C 100.649 0.2769 -1.99588 0
M  V30 1025 O 99.7047 0.992241 -2.32187 0
M  V30 1026 C 101.018 -2.22937 -2.01791 0
M  V30 1027 C 102.566 -2.27594 -2.14872 0
M  V30 1028 C 103.041 -3.48921 -2.96678 0
M  V30 1029 N 104.532 -3.49257 -3.04259 0
M  V30 1030 C 105.267 -4.39795 -3.67924 0
M  V30 1031 N 104.763 -5.40591 -4.33281 0
M  V30 1032 N 106.556 -4.275 -3.64966 0
M  V30 1033 H 98.7067 -2.0748 -0.454502 0
M  V30 1034 H 100.97 -0.910647 -0.26349 0
M  V30 1035 H 100.676 -3.16587 -1.53184 0
M  V30 1036 H 100.55 -2.25306 -3.02518 0
M  V30 1037 H 102.937 -1.34473 -2.6268 0
M  V30 1038 H 103.018 -2.2925 -1.13482 0
M  V30 1039 H 102.662 -4.42359 -2.49562 0
M  V30 1040 H 102.592 -3.4451 -3.98272 0
M  V30 1041 H 105.083 -2.76337 -2.57771 0
M  V30 1042 H 105.396 -6.05904 -4.79687 0
M  V30 1043 H 103.741 -5.44475 -4.3194 0
M  V30 1044 H 106.932 -3.47987 -3.13086 0
M  V30 1045 H 107.105 -4.98258 -4.14298 0
M  V30 1046 N 100.511 1.16574 -1.06058 0
M  V30 1047 C 101.474 2.19085 -0.673392 0
M  V30 1048 C 102.474 1.5835 0.279648 0
M  V30 1049 O 103.664 1.74088 0.0623488 0
M  V30 1050 C 100.796 3.40899 0.00954234 0
M  V30 1051 H 101.989 2.54853 -1.58081 0
M  V30 1052 H 99.5418 1.30808 -0.855516 0
M  V30 1053 H 100.277 3.10684 0.929826 0
M  V30 1054 H 100.062 3.86233 -0.67573 0
M  V30 1055 H 101.552 4.1675 0.266245 0
M  V30 1056 N 101.989 0.842826 1.3317 0
M  V30 1057 C 103.214 0.453129 2.02389 0
M  V30 1058 C 103.639 -0.939105 1.6298 0
M  V30 1059 O 102.997 -1.61472 0.8244 0
M  V30 1060 C 103.045 0.586094 3.55805 0
M  V30 1061 O 102.149 -0.386029 4.10589 0
M  V30 1062 H 101.49 0.183664 0.638094 0
M  V30 1063 H 104.02 1.13875 1.69981 0
M  V30 1064 H 104.03 0.469209 4.05293 0
M  V30 1065 H 102.705 1.6014 3.83833 0
M  V30 1066 H 101.282 -0.226371 3.72212 0
M  V30 1067 N 103.467 -1.45747 0.599634 0
M  V30 1068 C 104.713 -2.03153 0.100263 0
M  V30 1069 C 105.068 -1.46073 -1.25221 0
M  V30 1070 O 104.361 -0.622878 -1.81193 0
M  V30 1071 C 104.555 -3.57399 -0.00602758 0
M  V30 1072 C 104.384 -4.2944 1.3346 0
M  V30 1073 C 103.154 -4.6768 1.91321 0
M  V30 1074 C 105.352 -4.61905 2.2616 0
M  V30 1075 N 103.334 -5.24544 3.18946 0
M  V30 1076 C 104.705 -5.19518 3.3838 0
M  V30 1077 C 106.76 -4.43841 2.25631 0
M  V30 1078 C 105.463 -5.60972 4.50226 0
M  V30 1079 C 107.489 -4.86322 3.36518 0
M  V30 1080 C 106.851 -5.44021 4.4746 0
M  V30 1081 H 102.95 -0.777911 0.0798696 0
M  V30 1082 H 105.534 -1.77674 0.796244 0
M  V30 1083 H 103.705 -3.82556 -0.671212 0
M  V30 1084 H 105.437 -4.01457 -0.51133 0
M  V30 1085 H 102.192 -4.5098 1.44617 0
M  V30 1086 H 102.616 -5.57483 3.84112 0
M  V30 1087 H 107.258 -3.98552 1.41123 0
M  V30 1088 H 104.976 -6.0523 5.35464 0
M  V30 1089 H 108.562 -4.74084 3.37247 0
M  V30 1090 H 107.442 -5.76289 5.31846 0
M  V30 1091 N 104.945 -0.338344 -1.53925 0
M  V30 1092 C 105.875 0.51328 -2.27789 0
M  V30 1093 C 106.856 1.107 -1.29149 0
M  V30 1094 O 108.041 1.12937 -1.57984 0
M  V30 1095 C 105.171 1.66697 -3.04679 0
M  V30 1096 C 104.125 1.20183 -4.1078 0
M  V30 1097 C 103.451 2.44363 -4.75595 0
M  V30 1098 C 104.751 0.30605 -5.21403 0
M  V30 1099 H 106.445 -0.102883 -2.99223 0
M  V30 1100 H 103.991 -0.0509219 -1.4391 0
M  V30 1101 H 105.944 2.26915 -3.55088 0
M  V30 1102 H 104.668 2.30995 -2.30887 0
M  V30 1103 H 103.327 0.622499 -3.61276 0
M  V30 1104 H 102.975 3.07057 -3.98403 0
M  V30 1105 H 102.675 2.13925 -5.47275 0
M  V30 1106 H 104.199 3.05317 -5.28786 0
M  V30 1107 H 105.613 0.814929 -5.67478 0
M  V30 1108 H 104.01 0.0937929 -6.00027 0
M  V30 1109 H 105.08 -0.65921 -4.80398 0
M  V30 1110 N 106.423 1.57458 -0.0668435 0
M  V30 1111 C 107.839 1.56947 0.289772 0
M  V30 1112 C 108.039 1.07584 1.70376 0
M  V30 1113 O 107.095 0.739486 2.41429 0
M  V30 1114 C 108.408 3.0052 0.103943 0
M  V30 1115 C 109.956 3.12517 0.173857 0
M  V30 1116 C 110.431 4.57997 0.0163682 0
M  V30 1117 N 111.922 4.63144 0.0721352 0
M  V30 1118 C 112.657 5.73394 -0.0253794 0
M  V30 1119 N 112.153 6.92576 -0.176133 0
M  V30 1120 N 113.946 5.62091 0.0313305 0
M  V30 1121 H 106.097 1.87863 -0.991027 0
M  V30 1122 H 108.36 0.86583 -0.38606 0
M  V30 1123 H 108.066 3.40729 -0.871572 0
M  V30 1124 H 107.94 3.67304 0.858366 0
M  V30 1125 H 110.327 2.72197 1.13985 0
M  V30 1126 H 110.408 2.48381 -0.611586 0
M  V30 1127 H 110.052 4.99005 -0.946374 0
M  V30 1128 H 109.982 5.20158 0.821153 0
M  V30 1129 H 112.473 3.77436 0.187263 0
M  V30 1130 H 112.786 7.72418 -0.242821 0
M  V30 1131 H 111.131 6.94678 -0.211429 0
M  V30 1132 H 114.322 4.67867 0.147773 0
M  V30 1133 H 114.495 6.47982 -0.048121 0
M  V30 1134 N 107.901 -0.206675 1.56239 0
M  V30 1135 C 108.848 -1.25617 1.93621 0
M  V30 1136 C 109.818 -1.45824 0.795274 0
M  V30 1137 O 111.003 -1.59148 1.05245 0
M  V30 1138 C 108.143 -2.59839 2.27107 0
M  V30 1139 C 107.256 -2.47308 3.54207 0
M  V30 1140 C 106.391 -3.74155 3.7707 0
M  V30 1141 C 105.43 -3.56407 4.97635 0
M  V30 1142 N 104.567 -4.75238 5.1681 0
M  V30 1143 H 109.407 -0.930383 2.83104 0
M  V30 1144 H 106.944 -0.448065 1.4011 0
M  V30 1145 H 108.902 -3.38021 2.44535 0
M  V30 1146 H 107.532 -2.90485 1.40778 0
M  V30 1147 H 106.584 -1.60483 3.4489 0
M  V30 1148 H 107.896 -2.30122 4.42544 0
M  V30 1149 H 107.05 -4.60778 3.94675 0
M  V30 1150 H 105.789 -3.94282 2.87042 0
M  V30 1151 H 104.794 -2.68168 4.79964 0
M  V30 1152 H 106.019 -3.37736 5.89161 0
M  V30 1153 H 103.965 -4.95651 4.29728 0
M  V30 1154 H 103.882 -4.60835 5.99306 0
M  V30 1155 H 105.15 -5.63246 5.38864 0
M  V30 1156 N 109.379 -1.50304 -0.473955 0
M  V30 1157 C 110.628 -1.60392 -1.22301 0
M  V30 1158 C 110.941 -0.308411 -1.93153 0
M  V30 1159 O 112.147 -0.288156 -2.69966 0
M  V30 1160 C 110.603 -2.83109 -2.2221 0
M  V30 1161 C 110.211 -4.19524 -1.57173 0
M  V30 1162 C 111.955 -3.0254 -2.97775 0
M  V30 1163 C 109.862 -5.33431 -2.55353 0
M  V30 1164 H 108.792 -0.597286 -0.460179 0
M  V30 1165 H 111.443 -1.76731 -0.493803 0
M  V30 1166 H 109.825 -2.60322 -2.9841 0
M  V30 1167 H 110.999 -4.52554 -0.867824 0
M  V30 1168 H 109.314 -4.05674 -0.939002 0
M  V30 1169 H 111.911 -3.84811 -3.71248 0
M  V30 1170 H 112.254 -2.14154 -3.56992 0
M  V30 1171 H 112.787 -3.25494 -2.28688 0
M  V30 1172 H 109.526 -6.23962 -2.00878 0
M  V30 1173 H 109.046 -5.04823 -3.23904 0
M  V30 1174 H 110.725 -5.63887 -3.17239 0
M  V30 1175 N 110.857 0.726932 -1.39834 0
M  V30 1176 C 112.082 1.52121 -1.40976 0
M  V30 1177 C 112.507 1.88098 -0.00826029 0
M  V30 1178 O 111.865 1.52479 0.980807 0
M  V30 1179 C 111.913 2.78021 -2.29644 0
M  V30 1180 O 111.017 3.74272 -1.73188 0
M  V30 1181 H 110.358 0.45908 -0.479731 0
M  V30 1182 H 112.888 0.896207 -1.83927 0
M  V30 1183 H 112.898 3.26671 -2.44438 0
M  V30 1184 H 111.573 2.51169 -3.31492 0
M  V30 1185 H 110.15 3.33073 -1.6768 0
M  V30 1186 N 112.336 1.25143 0.95797 0
M  V30 1187 C 113.299 1.05321 2.03569 0
M  V30 1188 C 114.299 0.007152 1.60798 0
M  V30 1189 O 115.489 0.24903 1.72411 0
M  V30 1190 C 112.621 0.598394 3.35607 0
M  V30 1191 H 113.814 2.00986 2.22586 0
M  V30 1192 H 111.367 1.07502 1.13459 0
M  V30 1193 H 112.102 -0.361014 3.22284 0
M  V30 1194 H 111.887 1.35351 3.67998 0
M  V30 1195 H 113.377 0.48104 4.1482 0
M  V30 1196 N 113.814 -1.1601 1.06675 0
M  V30 1197 C 115.062 -1.86264 0.784229 0
M  V30 1198 C 115.383 -1.82328 -0.691488 0
M  V30 1199 O 114.653 -1.25947 -1.50047 0
M  V30 1200 H 113.233 -0.689621 0.28711 0
M  V30 1201 H 115.895 -1.40664 1.34906 0
M  V30 1202 H 114.991 -2.91595 1.11259 0
M  V30 1203 N 115.292 -0.849877 -1.32721 0
M  V30 1204 C 116.541 -0.447175 -1.96681 0
M  V30 1205 C 116.854 1.00135 -1.68025 0
M  V30 1206 O 118.06 1.50926 -2.25685 0
M  V30 1207 C 116.516 -0.7487 -3.52026 0
M  V30 1208 C 116.124 -2.21264 -3.89546 0
M  V30 1209 C 117.868 -0.413487 -4.22481 0
M  V30 1210 C 115.775 -2.45763 -5.37917 0
M  V30 1211 H 114.705 -0.163486 -0.736063 0
M  V30 1212 H 117.356 -1.03999 -1.51183 0
M  V30 1213 H 115.738 -0.0853727 -3.95908 0
M  V30 1214 H 116.912 -2.91736 -3.56689 0
M  V30 1215 H 115.227 -2.5119 -3.32103 0
M  V30 1216 H 117.824 -0.574017 -5.3161 0
M  V30 1217 H 118.167 0.644492 -4.11281 0
M  V30 1218 H 118.7 -1.03251 -3.84167 0
M  V30 1219 H 115.439 -3.50168 -5.54132 0
M  V30 1220 H 114.959 -1.79864 -5.72197 0
M  V30 1221 H 116.638 -2.29471 -6.0494 0
M  V30 1222 N 116.77 1.45427 -0.607355 0
M  V30 1223 C 118.186 1.57283 -0.270985 0
M  V30 1224 C 118.386 1.59875 1.22647 0
M  V30 1225 O 117.442 1.52893 2.00948 0
M  V30 1226 C 118.755 2.85566 -0.941952 0
M  V30 1227 C 120.303 2.9924 -0.917849 0
M  V30 1228 C 120.778 4.30293 -1.56882 0
M  V30 1229 N 122.269 4.37051 -1.5343 0
M  V30 1230 C 123.004 5.37123 -2.00715 0
M  V30 1231 N 122.5 6.43734 -2.56084 0
M  V30 1232 N 124.293 5.28479 -1.91484 0
M  V30 1233 H 116.444 1.41988 -1.57966 0
M  V30 1234 H 118.707 0.67885 -0.661715 0
M  V30 1235 H 118.413 2.8955 -1.99633 0
M  V30 1236 H 118.287 3.74322 -0.465096 0
M  V30 1237 H 120.674 2.94822 0.127984 0
M  V30 1238 H 120.755 2.11895 -1.43297 0
M  V30 1239 H 120.399 4.35469 -2.61398 0
M  V30 1240 H 120.329 5.16454 -1.02873 0
M  V30 1241 H 122.82 3.60615 -1.12982 0
M  V30 1242 H 123.133 7.16341 -2.89958 0
M  V30 1243 H 121.478 6.44485 -2.60122 0
M  V30 1244 H 124.669 4.44098 -1.47967 0
M  V30 1245 H 124.842 6.0632 -2.28648 0
M  V30 1246 N 118.248 0.346503 1.53744 0
M  V30 1247 C 119.158 -0.517293 2.28826 0
M  V30 1248 C 120.174 -1.10935 1.3405 0
M  V30 1249 O 121.35 -1.1244 1.6709 0
M  V30 1250 C 118.415 -1.65098 3.04866 0
M  V30 1251 C 117.476 -1.0884 4.15274 0
M  V30 1252 C 116.709 -2.16806 4.87679 0
M  V30 1253 O 116.932 -3.3758 4.59778 0
M  V30 1254 O 115.866 -1.80934 5.74061 0
M  V30 1255 H 119.692 0.0931396 3.03557 0
M  V30 1256 H 117.277 0.111458 1.48984 0
M  V30 1257 H 119.159 -2.31053 3.5241 0
M  V30 1258 H 117.834 -2.24717 2.32989 0
M  V30 1259 H 116.741 -0.3933 3.72027 0
M  V30 1260 H 118.074 -0.537036 4.89261 0
M  V30 1261 N 119.726 -1.57421 0.075193 0
M  V30 1262 C 121.142 -1.57099 -0.281444 0
M  V30 1263 C 121.342 -1.08486 -1.69803 0
M  V30 1264 O 120.398 -0.752279 -2.41033 0
M  V30 1265 C 121.711 -3.00571 -0.0880041 0
M  V30 1266 C 123.259 -3.12605 -0.157281 0
M  V30 1267 C 123.734 -4.57999 0.0079207 0
M  V30 1268 N 125.225 -4.63176 -0.0475725 0
M  V30 1269 C 125.96 -5.73373 0.0557876 0
M  V30 1270 N 125.456 -6.92473 0.21286 0
M  V30 1271 N 127.249 -5.621 -0.00152098 0
M  V30 1272 H 119.4 -1.87335 1.00098 0
M  V30 1273 H 121.663 -0.86377 0.390646 0
M  V30 1274 H 121.369 -3.40262 0.889629 0
M  V30 1275 H 121.243 -3.67754 -0.838875 0
M  V30 1276 H 123.63 -2.72798 -1.1254 0
M  V30 1277 H 123.711 -2.48053 0.62475 0
M  V30 1278 H 123.355 -4.98496 0.972824 0
M  V30 1279 H 123.285 -5.20586 -0.793556 0
M  V30 1280 H 125.776 -3.7753 -0.167244 0
M  V30 1281 H 126.089 -7.72279 0.283781 0
M  V30 1282 H 124.434 -6.94556 0.248267 0
M  V30 1283 H 127.625 -4.67938 -0.122958 0
M  V30 1284 H 127.798 -6.47948 0.0824844 0
M  V30 1285 N 121.204 0.198386 -1.56346 0
M  V30 1286 C 122.167 1.22952 -1.93431 0
M  V30 1287 C 123.167 1.38611 -0.815092 0
M  V30 1288 O 124.357 1.36479 -1.08255 0
M  V30 1289 C 121.489 2.59946 -2.20546 0
M  V30 1290 H 122.682 0.912626 -2.85677 0
M  V30 1291 H 120.235 0.43977 -1.49986 0
M  V30 1292 H 120.97 2.96696 -1.30927 0
M  V30 1293 H 120.755 2.49953 -3.02102 0
M  V30 1294 H 122.245 3.3431 -2.50253 0
M  V30 1295 N 122.682 1.50554 0.465978 0
M  V30 1296 C 123.907 1.65838 1.24549 0
M  V30 1297 C 124.332 0.343486 1.84937 0
M  V30 1298 O 123.69 -0.69324 1.67523 0
M  V30 1299 C 123.738 2.75533 2.32624 0
M  V30 1300 O 122.842 2.37142 3.37398 0
M  V30 1301 H 122.183 0.553893 0.366194 0
M  V30 1302 H 124.713 1.96959 0.553927 0
M  V30 1303 H 124.723 2.98763 2.77857 0
M  V30 1304 H 123.398 3.70962 1.88043 0
M  V30 1305 H 121.975 2.24377 2.97841 0
M  V30 1306 N 124.16 -0.719506 1.40217 0
M  V30 1307 C 125.07 -1.86378 1.42479 0
M  V30 1308 C 126.086 -1.71073 0.317834 0
M  V30 1309 O 127.262 -1.93406 0.561794 0
M  V30 1310 C 124.327 -3.22136 1.28178 0
M  V30 1311 C 123.388 -3.49723 2.48982 0
M  V30 1312 C 122.621 -4.79004 2.35353 0
M  V30 1313 O 122.844 -5.53821 1.36524 0
M  V30 1314 O 121.778 -5.06839 3.2465 0
M  V30 1315 H 125.604 -1.87425 2.38968 0
M  V30 1316 H 123.189 -0.869405 1.21498 0
M  V30 1317 H 125.071 -4.03234 1.22395 0
M  V30 1318 H 123.746 -3.21825 0.347934 0
M  V30 1319 H 122.653 -2.6865 2.60342 0
M  V30 1320 H 123.986 -3.54828 3.41113 0
M  V30 1321 N 125.638 -1.25649 -0.95132 0
M  V30 1322 C 126.887 -1.09988 -1.69073 0
M  V30 1323 C 127.2 0.358355 -1.92289 0
M  V30 1324 O 128.406 0.635466 -2.63958 0
M  V30 1325 C 126.862 -1.92012 -3.044 0
M  V30 1326 C 126.47 -3.42347 -2.88968 0
M  V30 1327 C 128.214 -1.8493 -3.82101 0
M  V30 1328 C 126.121 -4.16655 -4.19705 0
M  V30 1329 H 125.051 -0.407993 -0.63408 0
M  V30 1330 H 127.702 -1.49873 -1.05879 0
M  V30 1331 H 126.084 -1.44952 -3.68517 0
M  V30 1332 H 127.258 -3.97104 -2.33762 0
M  V30 1333 H 125.573 -3.50557 -2.24719 0
M  V30 1334 H 128.17 -2.37739 -4.78941 0
M  V30 1335 H 128.513 -0.817883 -4.08187 0
M  V30 1336 H 129.046 -2.29758 -3.2474 0
M  V30 1337 H 125.785 -5.20224 -3.98807 0
M  V30 1338 H 125.305 -3.66681 -4.74663 0
M  V30 1339 H 126.984 -4.24551 -4.88227 0
M  V30 1340 N 127.117 1.15442 -1.07289 0
M  V30 1341 C 128.342 1.90638 -0.816828 0
M  V30 1342 C 128.767 1.77445 0.624083 0
M  V30 1343 O 128.125 1.10671 1.43602 0
M  V30 1344 C 128.173 3.39008 -1.22906 0
M  V30 1345 O 127.277 4.10701 -0.373975 0
M  V30 1346 H 126.618 0.593555 -0.297638 0
M  V30 1347 H 129.148 1.46198 -1.43134 0
M  V30 1348 H 129.158 3.89801 -1.20497 0
M  V30 1349 H 127.833 3.47929 -2.27856 0
M  V30 1350 H 126.41 3.70046 -0.460499 0
M  V30 1351 N 128.595 0.856903 1.32268 0
M  V30 1352 C 129.558 0.308171 2.27119 0
M  V30 1353 C 130.558 -0.533421 1.51695 0
M  V30 1354 O 131.748 -0.344607 1.70757 0
M  V30 1355 C 128.88 -0.563757 3.36206 0
M  V30 1356 H 130.073 1.14535 2.77167 0
M  V30 1357 H 127.626 0.631421 1.42978 0
M  V30 1358 H 128.361 -1.42266 2.91429 0
M  V30 1359 H 128.146 0.0386749 3.92081 0
M  V30 1360 H 129.636 -0.940386 4.06874 0
M  V30 1361 N 130.073 -1.45103 0.615059 0
M  V30 1362 C 131.003 -2.33339 -0.0865619 0
M  V30 1363 C 131.984 -1.4727 -0.851209 0
M  V30 1364 O 133.169 -1.76026 -0.820281 0
M  V30 1365 C 130.299 -3.30095 -1.07956 0
M  V30 1366 C 129.253 -4.25858 -0.427628 0
M  V30 1367 C 128.579 -5.12361 -1.5294 0
M  V30 1368 C 129.879 -5.18165 0.655944 0
M  V30 1369 H 131.573 -2.92254 0.650224 0
M  V30 1370 H 129.119 -1.40532 0.314138 0
M  V30 1371 H 131.072 -3.90698 -1.57901 0
M  V30 1372 H 129.796 -2.69355 -1.84703 0
M  V30 1373 H 128.455 -3.66564 0.0510292 0
M  V30 1374 H 128.103 -4.47984 -2.28734 0
M  V30 1375 H 127.803 -5.77238 -1.09865 0
M  V30 1376 H 129.327 -5.75833 -2.03098 0
M  V30 1377 H 130.741 -5.72796 0.240257 0
M  V30 1378 H 129.138 -5.91559 1.00888 0
M  V30 1379 H 130.208 -4.60144 1.52957 0
M  V30 1380 N 131.551 -0.354651 -1.53558 0
M  V30 1381 C 132.8 0.239504 -2.00273 0
M  V30 1382 C 133.113 1.50759 -1.24623 0
M  V30 1383 O 134.319 2.17968 -1.61871 0
M  V30 1384 C 132.775 0.477341 -3.5672 0
M  V30 1385 C 132.383 -0.775488 -4.41237 0
M  V30 1386 C 134.127 1.02975 -4.11821 0
M  V30 1387 C 132.034 -0.507838 -5.89216 0
M  V30 1388 H 130.964 0.0932743 -0.748208 0
M  V30 1389 H 133.615 -0.471701 -1.77334 0
M  V30 1390 H 131.997 1.24953 -3.7577 0
M  V30 1391 H 133.171 -1.54963 -4.33962 0
M  V30 1392 H 131.486 -1.25033 -3.97185 0
M  V30 1393 H 134.083 1.24513 -5.2 0
M  V30 1394 H 134.426 1.98862 -3.65731 0
M  V30 1395 H 134.959 0.317994 -3.96527 0
M  V30 1396 H 131.698 -1.43674 -6.39561 0
M  V30 1397 H 131.218 0.228011 -5.99366 0
M  V30 1398 H 132.897 -0.129238 -6.46871 0
M  V30 1399 N 133.029 1.57378 -0.0835403 0
M  V30 1400 C 134.275 1.94217 0.583733 0
M  V30 1401 C 134.608 0.964653 1.68547 0
M  V30 1402 O 133.883 -0.00422258 1.945 0
M  V30 1403 C 134.166 3.41253 1.14972 0
M  V30 1404 C 134.019 4.49768 0.0538277 0
M  V30 1405 C 135.338 3.89352 2.05166 0
M  V30 1406 H 132.457 0.706233 0.210724 0
M  V30 1407 H 135.099 1.89392 -0.1519 0
M  V30 1408 H 133.249 3.45496 1.77665 0
M  V30 1409 H 134.921 4.57641 -0.579851 0
M  V30 1410 H 133.164 4.29432 -0.614068 0
M  V30 1411 H 133.835 5.49817 0.490452 0
M  V30 1412 H 136.311 3.87189 1.52393 0
M  V30 1413 H 135.187 4.92822 2.41698 0
M  V30 1414 H 135.448 3.27973 2.96456 0
M  V30 1415 N 134.507 -0.190092 1.56449 0
M  V30 1416 C 135.417 -1.25591 1.98152 0
M  V30 1417 C 136.433 -1.49519 0.889944 0
M  V30 1418 O 137.609 -1.62036 1.19609 0
M  V30 1419 C 134.674 -2.57916 2.3169 0
M  V30 1420 C 133.735 -2.42015 3.5458 0
M  V30 1421 C 132.968 -3.6803 3.8651 0
M  V30 1422 O 133.191 -4.72413 3.1966 0
M  V30 1423 O 132.125 -3.6326 4.79923 0
M  V30 1424 H 135.951 -0.931988 2.89046 0
M  V30 1425 H 133.536 -0.395488 1.4407 0
M  V30 1426 H 135.418 -3.36008 2.54316 0
M  V30 1427 H 134.093 -2.89925 1.43963 0
M  V30 1428 H 133 -1.62017 3.37196 0
M  V30 1429 H 134.333 -2.14937 4.4279 0
M  V30 1430 N 135.985 -1.50799 -0.457987 0
M  V30 1431 C 136.895 -1.73426 -1.57989 0
M  V30 1432 C 137.911 -0.617745 -1.62665 0
M  V30 1433 O 139.087 -0.897614 -1.80291 0
M  V30 1434 C 136.152 -1.83557 -2.94122 0
M  V30 1435 C 135.213 -3.07345 -2.99729 0
M  V30 1436 C 134.446 -3.16983 -4.29368 0
M  V30 1437 O 134.669 -2.33077 -5.20607 0
M  V30 1438 O 133.603 -4.09812 -4.40837 0
M  V30 1439 H 137.429 -2.68555 -1.41817 0
M  V30 1440 H 135.014 -1.35052 -0.638859 0
M  V30 1441 H 136.896 -1.92326 -3.74952 0
M  V30 1442 H 135.571 -0.916137 -3.10465 0
M  V30 1443 H 134.478 -3.04068 -2.1793 0
M  V30 1444 H 135.811 -3.9891 -2.88326 0
M  V30 1445 N 137.463 0.71206 -1.40597 0
M  V30 1446 C 138.711 1.46907 -1.38791 0
M  V30 1447 C 139.032 1.94998 0.00780391 0
M  V30 1448 O 138.302 1.70587 0.963174 0
M  V30 1449 H 136.882 0.545043 -0.51082 0
M  V30 1450 H 139.544 0.843882 -1.75683 0
M  V30 1451 H 138.64 2.34021 -2.06496 0
M  V30 1452 N 138.941 1.26152 0.944643 0
M  V30 1453 C 140.189 1.11271 1.6871 0
M  V30 1454 C 140.51 -0.345166 1.91921 0
M  V30 1455 O 139.78 -1.24387 1.51343 0
M  V30 1456 H 138.36 0.408783 0.625224 0
M  V30 1457 H 141.022 1.58427 1.1352 0
M  V30 1458 H 140.118 1.62879 2.66227 0
M  V30 1459 N 140.419 -1.14872 1.07899 0
M  V30 1460 C 141.366 -2.19791 0.704319 0
M  V30 1461 C 142.336 -1.63238 -0.306987 0
M  V30 1462 O 143.521 -1.8983 -0.192171 0
M  V30 1463 C 140.661 -3.44911 0.114244 0
M  V30 1464 C 139.774 -4.15637 1.1777 0
M  V30 1465 C 138.909 -5.28324 0.552037 0
M  V30 1466 C 137.948 -5.90875 1.59789 0
M  V30 1467 N 137.085 -6.95022 0.994404 0
M  V30 1468 H 141.925 -2.5119 1.60336 0
M  V30 1469 H 139.462 -1.23356 0.801352 0
M  V30 1470 H 141.42 -4.16477 -0.245544 0
M  V30 1471 H 140.05 -3.14011 -0.74813 0
M  V30 1472 H 139.102 -3.42512 1.65499 0
M  V30 1473 H 140.414 -4.5823 1.97046 0
M  V30 1474 H 139.568 -6.06538 0.1402 0
M  V30 1475 H 138.307 -4.86939 -0.272431 0
M  V30 1476 H 137.312 -5.11369 2.01945 0
M  V30 1477 H 138.537 -6.34337 2.42474 0
M  V30 1478 H 136.483 -6.55722 0.190939 0
M  V30 1479 H 136.4 -7.36073 1.72432 0
M  V30 1480 H 137.668 -7.77123 0.608253 0
M  V30 1481 N 141.898 -0.863906 -1.31812 0
M  V30 1482 C 143.147 -0.46801 -1.96195 0
M  V30 1483 C 143.46 0.983474 -1.69077 0
M  V30 1484 O 144.666 1.48523 -2.27273 0
M  V30 1485 C 143.122 -0.785995 -3.51212 0
M  V30 1486 C 142.73 -2.25383 -3.87178 0
M  V30 1487 C 144.474 -0.458274 -4.22019 0
M  V30 1488 C 142.381 -2.51455 -5.3528 0
M  V30 1489 H 141.311 -0.171283 -0.734287 0
M  V30 1490 H 143.962 -1.05597 -1.50072 0
M  V30 1491 H 142.344 -0.127359 -3.95795 0
M  V30 1492 H 143.518 -2.95502 -3.53575 0
M  V30 1493 H 141.833 -2.54698 -3.2942 0
M  V30 1494 H 144.43 -0.630369 -5.30971 0
M  V30 1495 H 144.773 0.600834 -4.11941 0
M  V30 1496 H 145.306 -1.07319 -3.8305 0
M  V30 1497 H 142.045 -3.56025 -5.50387 0
M  V30 1498 H 141.565 -1.85923 -5.70257 0
M  V30 1499 H 143.244 -2.35874 -6.02472 0
M  V30 1500 N 143.376 1.44774 -0.622745 0
M  V30 1501 C 144.308 2.28856 0.125485 0
M  V30 1502 C 145.321 1.40811 0.817069 0
M  V30 1503 O 146.51 1.65044 0.679918 0
M  V30 1504 C 143.61 3.16963 1.19949 0
M  V30 1505 C 142.783 4.33374 0.592064 0
M  V30 1506 C 141.842 5.02577 1.55893 0
M  V30 1507 O 140.868 5.58873 1.07933 0
M  V30 1508 N 142.07 5.03256 2.89334 0
M  V30 1509 H 144.835 2.93713 -0.596068 0
M  V30 1510 H 142.396 1.55129 -0.463303 0
M  V30 1511 H 144.388 3.60123 1.84644 0
M  V30 1512 H 142.958 2.53913 1.82337 0
M  V30 1513 H 142.178 3.93509 -0.233322 0
M  V30 1514 H 143.466 5.08527 0.166738 0
M  V30 1515 H 142.864 4.58836 3.30887 0
M  V30 1516 H 141.421 5.50232 3.49412 0
M  V30 1517 N 144.854 0.36279 1.53368 0
M  V30 1518 C 145.786 -0.519668 2.23231 0
M  V30 1519 C 146.799 -1.04844 1.24546 0
M  V30 1520 O 147.988 -0.955296 1.50786 0
M  V30 1521 C 145.088 -1.72995 2.9142 0
M  V30 1522 C 144.261 -1.33316 4.16588 0
M  V30 1523 C 143.32 -2.40521 4.68013 0
M  V30 1524 O 142.346 -2.03027 5.3176 0
M  V30 1525 N 143.548 -3.72065 4.45587 0
M  V30 1526 H 146.313 0.078751 2.99597 0
M  V30 1527 H 143.874 0.187833 1.60807 0
M  V30 1528 H 145.866 -2.44184 3.22733 0
M  V30 1529 H 144.436 -2.2353 2.18525 0
M  V30 1530 H 143.656 -0.451236 3.91609 0
M  V30 1531 H 144.944 -1.04432 4.97967 0
M  V30 1532 H 144.342 -4.05304 3.94646 0
M  V30 1533 H 142.899 -4.39366 4.81457 0
M  V30 1534 N 146.332 -1.57332 0.0918853 0
M  V30 1535 C 147.262 -2.16872 -0.865371 0
M  V30 1536 C 148.243 -1.10118 -1.29646 0
M  V30 1537 O 149.428 -1.38242 -1.36392 0
M  V30 1538 C 146.558 -2.74649 -2.12569 0
M  V30 1539 C 145.512 -3.86747 -1.83333 0
M  V30 1540 C 144.838 -4.31212 -3.16166 0
M  V30 1541 C 146.138 -5.10089 -1.1228 0
M  V30 1542 H 147.832 -2.97114 -0.369307 0
M  V30 1543 H 145.378 -1.42918 -0.176194 0
M  V30 1544 H 147.331 -3.14952 -2.7997 0
M  V30 1545 H 146.055 -1.91657 -2.64452 0
M  V30 1546 H 144.714 -3.46978 -1.18331 0
M  V30 1547 H 144.362 -3.45115 -3.6593 0
M  V30 1548 H 144.062 -5.06788 -2.97388 0
M  V30 1549 H 145.586 -4.74146 -3.84731 0
M  V30 1550 H 147 -5.47582 -1.69785 0
M  V30 1551 H 145.397 -5.91073 -1.03693 0
M  V30 1552 H 146.467 -4.84786 -0.105041 0
M  V30 1553 N 147.81 0.181792 -1.56548 0
M  V30 1554 C 148.773 1.20894 -1.94724 0
M  V30 1555 C 149.773 1.37738 -0.829747 0
M  V30 1556 O 150.963 1.35323 -1.09697 0
M  V30 1557 C 148.095 2.57593 -2.23291 0
M  V30 1558 H 149.288 0.882275 -2.86629 0
M  V30 1559 H 146.841 0.423838 -1.50444 0
M  V30 1560 H 147.576 2.95291 -1.34067 0
M  V30 1561 H 147.361 2.46735 -3.04736 0
M  V30 1562 H 148.851 3.31637 -2.53785 0
M  V30 1563 N 149.288 1.51039 0.449983 0
M  V30 1564 C 150.198 1.74261 1.57067 0
M  V30 1565 C 151.214 0.626363 1.62335 0
M  V30 1566 O 152.39 0.907162 1.79812 0
M  V30 1567 C 149.455 1.85114 2.93144 0
M  V30 1568 C 148.516 3.0893 2.98095 0
M  V30 1569 C 147.749 3.19256 4.27681 0
M  V30 1570 O 147.972 2.35835 5.19363 0
M  V30 1571 O 146.906 4.12144 4.38658 0
M  V30 1572 H 150.732 2.69303 1.40391 0
M  V30 1573 H 148.317 1.35389 0.631688 0
M  V30 1574 H 150.199 1.94311 3.73926 0
M  V30 1575 H 148.874 0.932588 3.09975 0
M  V30 1576 H 147.781 3.0522 2.16314 0
M  V30 1577 H 149.114 4.00433 2.86206 0
M  V30 1578 N 150.766 -0.704594 1.40972 0
M  V30 1579 C 152.012 -1.46675 1.40051 0
M  V30 1580 C 152.345 -1.94199 0.00641102 0
M  V30 1581 O 151.62 -1.68916 -0.964235 0
M  V30 1582 C 151.903 -2.68505 2.39952 0
M  V30 1583 C 151.756 -2.26805 3.88432 0
M  V30 1584 C 153.075 -3.70686 2.37233 0
M  V30 1585 H 150.194 -0.532015 0.510028 0
M  V30 1586 H 152.836 -0.803255 1.72185 0
M  V30 1587 H 150.986 -3.25114 2.1268 0
M  V30 1588 H 152.658 -1.75592 4.26574 0
M  V30 1589 H 150.901 -1.58685 4.03734 0
M  V30 1590 H 151.572 -3.14181 4.53866 0
M  V30 1591 H 154.048 -3.23731 2.61415 0
M  V30 1592 H 152.924 -4.53553 3.09162 0
M  V30 1593 H 153.185 -4.19754 1.38777 0
M  V30 1594 N 152.244 -1.26651 -0.937939 0
M  V30 1595 C 153.154 -1.10276 -2.07066 0
M  V30 1596 C 154.17 -0.0354197 -1.73964 0
M  V30 1597 O 155.346 -0.239816 -1.99967 0
M  V30 1598 C 152.411 -0.740887 -3.38691 0
M  V30 1599 C 151.472 -1.88799 -3.85556 0
M  V30 1600 C 150.705 -1.54329 -5.10899 0
M  V30 1601 O 150.928 -0.446494 -5.6865 0
M  V30 1602 O 149.862 -2.37911 -5.52885 0
M  V30 1603 H 153.688 -2.05309 -2.23789 0
M  V30 1604 H 151.273 -1.05743 -1.0554 0
M  V30 1605 H 153.155 -0.55195 -4.1777 0
M  V30 1606 H 151.83 0.180022 -3.23199 0
M  V30 1607 H 150.737 -2.13191 -3.07409 0
M  V30 1608 H 152.07 -2.78874 -4.05574 0
M  V30 1609 N 153.722 1.14298 -1.08507 0
M  V30 1610 C 154.968 1.85633 -0.816581 0
M  V30 1611 C 155.301 1.82784 0.656021 0
M  V30 1612 O 154.576 1.25926 1.48233 0
M  V30 1613 C 154.859 3.34223 -1.34041 0
M  V30 1614 C 154.712 3.45639 -2.87843 0
M  V30 1615 C 156.031 4.29356 -0.9665 0
M  V30 1616 H 153.15 0.67402 -0.298104 0
M  V30 1617 H 155.792 1.34214 -1.34487 0
M  V30 1618 H 153.942 3.78144 -0.89104 0
M  V30 1619 H 155.614 3.10498 -3.41158 0
M  V30 1620 H 153.857 2.86817 -3.25451 0
M  V30 1621 H 154.528 4.50089 -3.19569 0
M  V30 1622 H 157.004 3.93457 -1.35391 0
M  V30 1623 H 155.88 5.3178 -1.3602 0
M  V30 1624 H 156.141 4.41919 0.126362 0
M  V30 1625 N 155.201 0.870884 1.31352 0
M  V30 1626 C 156.164 0.332243 2.26779 0
M  V30 1627 C 157.164 -0.517302 1.52252 0
M  V30 1628 O 158.354 -0.326477 1.71113 0
M  V30 1629 C 155.486 -0.528066 3.36785 0
M  V30 1630 H 156.679 1.17469 2.75937 0
M  V30 1631 H 154.232 0.64655 1.423 0
M  V30 1632 H 154.967 -1.39167 2.92922 0
M  V30 1633 H 154.752 0.0802582 3.92018 0
M  V30 1634 H 156.242 -0.897179 4.07849 0
M  V30 1635 N 156.679 -1.44442 0.630414 0
M  V30 1636 C 157.926 -2.02052 0.134617 0
M  V30 1637 C 158.254 -1.49576 -1.24327 0
M  V30 1638 O 157.509 -0.669806 -1.83881 0
M  V30 1639 C 157.808 -3.57332 0.0697835 0
M  V30 1640 C 157.474 -4.29058 1.38635 0
M  V30 1641 C 156.136 -4.4837 1.74694 0
M  V30 1642 C 158.488 -4.69872 2.25543 0
M  V30 1643 C 155.816 -5.05756 2.97369 0
M  V30 1644 C 158.168 -5.28616 3.47487 0
M  V30 1645 C 156.832 -5.46147 3.8377 0
M  V30 1646 H 156.102 -0.739361 0.0492598 0
M  V30 1647 H 158.749 -1.73217 0.816586 0
M  V30 1648 H 157.054 -3.85577 -0.695553 0
M  V30 1649 H 158.751 -3.99637 -0.330344 0
M  V30 1650 H 155.341 -4.14357 1.09574 0
M  V30 1651 H 159.525 -4.54666 1.98979 0
M  V30 1652 H 154.781 -5.17515 3.25558 0
M  V30 1653 H 158.955 -5.59192 4.15063 0
M  V30 1654 H 156.582 -5.9038 4.7891 0
M  V30 1655 N 158.157 -0.370918 -1.53173 0
M  V30 1656 C 159.385 0.217704 -2.05751 0
M  V30 1657 C 159.8 1.42018 -1.24404 0
M  V30 1658 O 159.157 1.80245 -0.286033 0
M  V30 1659 C 159.208 0.605954 -3.56385 0
M  V30 1660 O 158.929 -0.548734 -4.3465 0
M  V30 1661 C 160.43 1.2524 -4.25241 0
M  V30 1662 H 157.65 0.0371659 -0.66997 0
M  V30 1663 H 160.194 -0.530832 -1.9749 0
M  V30 1664 H 158.349 1.3044 -3.6478 0
M  V30 1665 H 158.763 -0.23376 -5.23979 0
M  V30 1666 H 160.237 1.47458 -5.3194 0
M  V30 1667 H 160.714 2.2143 -3.79296 0
M  V30 1668 H 161.32 0.595233 -4.21114 0
M  V30 1669 N 159.635 1.57281 -0.100228 0
M  V30 1670 C 160.598 2.13158 0.842398 0
M  V30 1671 C 161.598 1.06202 1.20738 0
M  V30 1672 O 162.788 1.32066 1.13597 0
M  V30 1673 C 159.92 2.65639 2.13655 0
M  V30 1674 H 161.113 2.97766 0.357114 0
M  V30 1675 H 158.666 1.5559 0.148823 0
M  V30 1676 H 159.401 1.84566 2.66657 0
M  V30 1677 H 159.186 3.43844 1.88451 0
M  V30 1678 H 160.676 3.08846 2.81077 0
M  V30 1679 N 161.113 -0.173488 1.56642 0
M  V30 1680 C 162.39 -0.917617 1.7274 0
M  V30 1681 C 162.77 -2.00484 0.661027 0
M  V30 1682 O 162.118 -2.26184 -0.32453 0
M  V30 1683 C 162.328 -1.48433 3.15862 0
M  V30 1684 C 163.676 -1.95809 3.76754 0
M  V30 1685 O 164.7 -1.58231 3.19126 0
M  V30 1686 O 163.559 -2.65024 4.77938 0
M  V30 1687 H 160.653 -0.431772 0.705338 0
M  V30 1688 H 163.199 -0.161487 1.6893 0
M  V30 1689 H 161.971 -0.701715 3.84957 0
M  V30 1690 H 161.594 -2.30471 3.23989 0
M  V30 1691 N 162.591 -1.51276 -0.441967 0
M  V30 1692 C 163.821 -1.67273 -1.21257 0
M  V30 1693 C 164.229 -0.367624 -1.85594 0
M  V30 1694 O 163.572 0.663349 -1.71305 0
M  V30 1695 C 163.634 -2.72807 -2.34129 0
M  V30 1696 C 163.298 -4.1554 -1.90198 0
M  V30 1697 C 164.295 -5.00471 -1.40801 0
M  V30 1698 C 161.98 -4.61616 -1.9803 0
M  V30 1699 C 163.974 -6.29536 -0.998174 0
M  V30 1700 C 161.661 -5.90679 -1.56658 0
M  V30 1701 C 162.659 -6.74466 -1.07633 0
M  V30 1702 O 162.347 -8.01116 -0.668459 0
M  V30 1703 H 162.079 -0.564614 -0.371734 0
M  V30 1704 H 164.633 -1.9843 -0.530521 0
M  V30 1705 H 162.863 -2.36954 -3.05597 0
M  V30 1706 H 164.552 -2.77729 -2.96009 0
M  V30 1707 H 165.318 -4.66079 -1.34148 0
M  V30 1708 H 161.197 -3.96526 -2.35135 0
M  V30 1709 H 164.741 -6.94885 -0.61482 0
M  V30 1710 H 160.638 -6.24586 -1.62979 0
M  V30 1711 H 161.406 -8.14633 -0.794722 0
M  V30 1712 N 164.069 0.697108 -1.41344 0
M  V30 1713 C 165.318 1.45279 -1.39918 0
M  V30 1714 C 165.631 1.95597 -0.0109624 0
M  V30 1715 O 166.837 2.71208 0.125919 0
M  V30 1716 C 165.293 2.62695 -2.46007 0
M  V30 1717 C 164.901 2.19169 -3.90729 0
M  V30 1718 C 166.645 3.40336 -2.53715 0
M  V30 1719 C 164.552 3.33535 -4.88373 0
M  V30 1720 H 163.482 0.545692 -0.520323 0
M  V30 1721 H 166.133 0.756929 -1.67161 0
M  V30 1722 H 164.515 3.34541 -2.11892 0
M  V30 1723 H 165.689 1.54623 -4.34083 0
M  V30 1724 H 164.004 1.54525 -3.86666 0
M  V30 1725 H 166.601 4.2547 -3.2385 0
M  V30 1726 H 166.944 3.85418 -1.5735 0
M  V30 1727 H 167.477 2.75546 -2.86913 0
M  V30 1728 H 164.216 2.93468 -5.86137 0
M  V30 1729 H 163.736 3.96936 -4.49668 0
M  V30 1730 H 165.415 3.99335 -5.09059 0
M  V30 1731 N 165.547 1.27147 0.931209 0
M  V30 1732 C 166.824 1.0401 1.65654 0
M  V30 1733 C 167.204 -0.426297 2.06751 0
M  V30 1734 O 166.552 -1.40879 1.79904 0
M  V30 1735 C 166.762 1.99834 2.86125 0
M  V30 1736 C 168.11 2.29007 3.57549 0
M  V30 1737 O 169.134 1.97779 2.96246 0
M  V30 1738 O 167.993 2.82222 4.67989 0
M  V30 1739 H 165.087 0.396239 0.725895 0
M  V30 1740 H 167.633 1.38397 0.982056 0
M  V30 1741 H 166.405 2.98744 2.52721 0
M  V30 1742 H 166.028 1.65987 3.61295 0
M  V30 1743 N 167.025 -1.13721 1.09112 0
M  V30 1744 C 168.255 -1.88499 0.845671 0
M  V30 1745 C 168.663 -1.79218 -0.606432 0
M  V30 1746 O 168.006 -1.1544 -1.42896 0
M  V30 1747 C 168.068 -3.38954 1.19793 0
M  V30 1748 C 167.732 -3.72018 2.65428 0
M  V30 1749 C 168.729 -3.7153 3.63677 0
M  V30 1750 C 166.414 -4.01775 3.01467 0
M  V30 1751 C 168.408 -4.00336 4.95994 0
M  V30 1752 C 166.095 -4.30243 4.33975 0
M  V30 1753 C 167.093 -4.29508 5.31048 0
M  V30 1754 O 166.781 -4.5728 6.61173 0
M  V30 1755 H 166.513 -0.603702 0.304171 0
M  V30 1756 H 169.067 -1.44903 1.45576 0
M  V30 1757 H 167.297 -3.83039 0.530871 0
M  V30 1758 H 168.986 -3.95052 0.932146 0
M  V30 1759 H 169.752 -3.4862 3.37179 0
M  V30 1760 H 165.631 -4.01496 2.26544 0
M  V30 1761 H 169.175 -3.99678 5.71755 0
M  V30 1762 H 165.072 -4.52625 4.60219 0
M  V30 1763 H 165.84 -4.74964 6.66597 0
M  V30 1764 N 168.503 -0.877838 -1.30888 0
M  V30 1765 C 169.436 -0.283995 -2.26426 0
M  V30 1766 C 170.414 0.591361 -1.51465 0
M  V30 1767 O 171.598 0.54304 -1.80509 0
M  V30 1768 C 168.725 0.597129 -3.33395 0
M  V30 1769 C 167.771 -0.207937 -4.25993 0
M  V30 1770 S 168.604 -1.59158 -5.11301 0
M  V30 1771 C 169.76 -0.716791 -6.21782 0
M  V30 1772 H 169.993 -1.09383 -2.76446 0
M  V30 1773 H 167.526 -0.676828 -1.38775 0
M  V30 1774 H 169.484 1.09978 -3.95493 0
M  V30 1775 H 168.145 1.38099 -2.82113 0
M  V30 1776 H 167.338 0.464163 -5.01858 0
M  V30 1777 H 166.94 -0.642963 -3.68432 0
M  V30 1778 H 169.232 0.0692833 -6.77465 0
M  V30 1779 H 170.175 -1.44682 -6.93161 0
M  V30 1780 H 170.583 -0.280855 -5.63801 0
M  V30 1781 N 169.982 1.44106 -0.638065 0
M  V30 1782 C 170.945 2.29138 0.0531013 0
M  V30 1783 C 171.945 1.41409 0.765506 0
M  V30 1784 O 173.135 1.63206 0.609046 0
M  V30 1785 C 170.267 3.23144 1.08584 0
M  V30 1786 H 171.46 2.91739 -0.694883 0
M  V30 1787 H 169.013 1.51134 -0.398538 0
M  V30 1788 H 169.748 2.65408 1.86357 0
M  V30 1789 H 169.533 3.87804 0.578852 0
M  V30 1790 H 171.023 3.87004 1.56899 0
M  V30 1791 N 171.46 0.379036 1.52974 0
M  V30 1792 C 172.37 -0.468639 2.29872 0
M  V30 1793 C 173.386 -1.08067 1.36373 0
M  V30 1794 O 174.562 -1.08871 1.69438 0
M  V30 1795 C 171.627 -1.58594 3.083 0
M  V30 1796 C 170.688 -1.00007 4.17489 0
M  V30 1797 C 169.921 -2.06413 4.92168 0
M  V30 1798 O 170.144 -3.27751 4.66835 0
M  V30 1799 O 169.078 -1.68717 5.7777 0
M  V30 1800 H 172.904 0.157508 3.03291 0
M  V30 1801 H 170.489 0.143035 1.48714 0
M  V30 1802 H 172.371 -2.23525 3.57232 0
M  V30 1803 H 171.046 -2.19724 2.37703 0
M  V30 1804 H 169.953 -0.314299 3.72777 0
M  V30 1805 H 171.286 -0.433135 4.90291 0
M  V30 1806 N 172.938 -1.57226 0.108567 0
M  V30 1807 C 174.184 -1.95919 -0.546564 0
M  V30 1808 C 174.539 -0.990417 -1.6495 0
M  V30 1809 O 173.832 -0.0186593 -1.91591 0
M  V30 1810 C 174.026 -3.38911 -1.13463 0
M  V30 1811 C 173.855 -4.4961 -0.0901926 0
M  V30 1812 C 172.625 -5.04168 0.338008 0
M  V30 1813 C 174.823 -5.09693 0.686808 0
M  V30 1814 N 172.805 -5.98434 1.36931 0
M  V30 1815 C 174.176 -5.99804 1.56958 0
M  V30 1816 C 176.231 -4.92388 0.738846 0
M  V30 1817 C 174.934 -6.74463 2.49983 0
M  V30 1818 C 176.96 -5.67719 1.65676 0
M  V30 1819 C 176.322 -6.57507 2.52713 0
M  V30 1820 H 172.421 -0.763312 -0.169936 0
M  V30 1821 H 175.005 -1.93728 0.194264 0
M  V30 1822 H 173.176 -3.41769 -1.84522 0
M  V30 1823 H 174.908 -3.64752 -1.75322 0
M  V30 1824 H 171.663 -4.73571 -0.0523673 0
M  V30 1825 H 172.087 -6.5027 1.88356 0
M  V30 1826 H 176.729 -4.22724 0.080084 0
M  V30 1827 H 174.447 -7.4338 3.16878 0
M  V30 1828 H 178.033 -5.56338 1.70233 0
M  V30 1829 H 176.913 -7.14778 3.22586 0
M  V30 1830 N 174.416 0.165178 -1.56732 0
M  V30 1831 C 175.379 1.18822 -1.95995 0
M  V30 1832 C 176.379 1.3685 -0.84431 0
M  V30 1833 O 177.569 1.34152 -1.11126 0
M  V30 1834 C 174.701 2.5521 -2.26011 0
M  V30 1835 H 175.894 0.851825 -2.87548 0
M  V30 1836 H 173.447 0.407857 -1.50885 0
M  V30 1837 H 174.182 2.93852 -1.37191 0
M  V30 1838 H 173.967 2.43489 -3.07336 0
M  V30 1839 H 175.457 3.28927 -2.57288 0
M  V30 1840 N 175.894 1.51508 0.433938 0
M  V30 1841 C 177.31 1.39759 0.770682 0
M  V30 1842 C 177.51 0.482594 1.95636 0
M  V30 1843 O 176.566 -0.0609691 2.52426 0
M  V30 1844 C 177.879 2.81851 1.04787 0
M  V30 1845 C 179.427 2.91025 1.1521 0
M  V30 1846 C 179.902 4.34032 1.46219 0
M  V30 1847 N 181.393 4.37154 1.53136 0
M  V30 1848 C 182.128 5.4484 1.78709 0
M  V30 1849 N 181.624 6.62682 2.02051 0
M  V30 1850 N 183.417 5.32324 1.80519 0
M  V30 1851 H 175.568 2.09548 -0.346892 0
M  V30 1852 H 177.831 0.943446 -0.0928074 0
M  V30 1853 H 177.537 3.50815 0.249304 0
M  V30 1854 H 177.411 3.21386 1.97461 0
M  V30 1855 H 179.798 2.22257 1.94128 0
M  V30 1856 H 179.879 2.54983 0.204281 0
M  V30 1857 H 179.523 5.03351 0.678274 0
M  V30 1858 H 179.453 4.6759 2.42212 0
M  V30 1859 H 181.944 3.52197 1.36987 0
M  V30 1860 H 182.257 7.40543 2.20943 0
M  V30 1861 H 180.602 6.65791 1.99366 0
M  V30 1862 H 183.793 4.39246 1.61805 0
M  V30 1863 H 183.966 6.16328 2.00111 0
M  V30 1864 N 177.372 -0.689602 1.41712 0
M  V30 1865 C 178.788 -1.00093 1.24312 0
M  V30 1866 C 178.988 -2.01036 0.136729 0
M  V30 1867 O 178.044 -2.47562 -0.496918 0
M  V30 1868 C 179.357 -1.51985 2.59463 0
M  V30 1869 C 180.905 -1.63838 2.66695 0
M  V30 1870 C 181.38 -2.1913 4.02177 0
M  V30 1871 N 182.871 -2.26483 4.04054 0
M  V30 1872 C 183.606 -2.70306 5.0569 0
M  V30 1873 N 183.102 -3.13691 6.17713 0
M  V30 1874 N 184.895 -2.69923 4.9305 0
M  V30 1875 H 177.046 -0.0210029 2.1239 0
M  V30 1876 H 179.309 -0.0718733 0.945272 0
M  V30 1877 H 179.015 -0.85269 3.41207 0
M  V30 1878 H 178.889 -2.50103 2.82362 0
M  V30 1879 H 181.276 -2.29664 1.85306 0
M  V30 1880 H 181.357 -0.642492 2.476 0
M  V30 1881 H 181.001 -1.53918 4.84016 0
M  V30 1882 H 180.931 -3.19482 4.18615 0
M  V30 1883 H 183.422 -1.95874 3.23174 0
M  V30 1884 H 183.735 -3.45773 6.9113 0
M  V30 1885 H 182.08 -3.11585 6.21241 0
M  V30 1886 H 185.271 -2.35382 4.04614 0
M  V30 1887 H 185.444 -3.03758 5.72394 0
M  V30 1888 N 178.85 -1.27639 -0.924453 0
M  V30 1889 C 180.08 -1.16819 -1.70402 0
M  V30 1890 C 180.488 0.277191 -1.87158 0
M  V30 1891 O 179.831 1.20025 -1.39067 0
M  V30 1892 C 179.893 -1.78305 -3.12166 0
M  V30 1893 C 179.557 -3.27502 -3.18734 0
M  V30 1894 C 180.554 -4.2409 -3.00738 0
M  V30 1895 C 178.239 -3.68269 -3.4159 0
M  V30 1896 C 180.233 -5.59422 -3.05492 0
M  V30 1897 C 177.92 -5.0373 -3.45977 0
M  V30 1898 C 178.918 -5.99116 -3.27946 0
M  V30 1899 O 178.606 -7.32108 -3.32074 0
M  V30 1900 H 178.338 -0.406931 -0.539799 0
M  V30 1901 H 180.892 -1.69078 -1.16626 0
M  V30 1902 H 179.122 -1.20528 -3.67437 0
M  V30 1903 H 180.811 -1.62154 -3.72103 0
M  V30 1904 H 181.577 -3.93931 -2.82919 0
M  V30 1905 H 177.456 -2.94496 -3.54673 0
M  V30 1906 H 181 -6.33852 -2.91337 0
M  V30 1907 H 176.897 -5.33543 -3.63321 0
M  V30 1908 H 177.665 -7.40598 -3.48507 0
M  V30 1909 N 180.328 1.1314 -1.09713 0
M  V30 1910 C 181.238 2.22242 -0.751367 0
M  V30 1911 C 182.254 1.72224 0.247938 0
M  V30 1912 O 183.43 2.01205 0.0885463 0
M  V30 1913 C 180.495 3.46231 -0.180274 0
M  V30 1914 C 179.556 4.11125 -1.2359 0
M  V30 1915 C 178.789 5.29195 -0.691966 0
M  V30 1916 O 179.012 5.68342 0.48414 0
M  V30 1917 O 177.946 5.84214 -1.44838 0
M  V30 1918 H 181.772 2.54197 -1.66186 0
M  V30 1919 H 179.357 1.21331 -0.871735 0
M  V30 1920 H 181.239 4.21185 0.134739 0
M  V30 1921 H 179.914 3.1597 0.703185 0
M  V30 1922 H 178.821 3.37985 -1.60366 0
M  V30 1923 H 180.154 4.45524 -2.09211 0
M  V30 1924 N 181.806 0.884767 1.30421 0
M  V30 1925 C 183.054 0.502112 1.95763 0
M  V30 1926 C 183.375 -0.951815 1.70192 0
M  V30 1927 O 182.645 -1.6692 1.0254 0
M  V30 1928 H 181.225 0.182694 0.724315 0
M  V30 1929 H 183.887 1.1278 1.58955 0
M  V30 1930 H 182.983 0.672188 3.04775 0
M  V30 1931 N 183.284 -1.43765 0.645699 0
M  V30 1932 C 184.194 -2.34544 -0.0512957 0
M  V30 1933 C 185.21 -1.53455 -0.82022 0
M  V30 1934 O 186.386 -1.86133 -0.769176 0
M  V30 1935 C 183.451 -3.31636 -1.01087 0
M  V30 1936 C 182.512 -4.2863 -0.239712 0
M  V30 1937 C 181.745 -5.21084 -1.15358 0
M  V30 1938 O 181.968 -5.1779 -2.39269 0
M  V30 1939 O 180.902 -5.98593 -0.630038 0
M  V30 1940 H 184.728 -2.95624 0.695718 0
M  V30 1941 H 182.313 -1.43781 0.405882 0
M  V30 1942 H 184.195 -3.9136 -1.56254 0
M  V30 1943 H 182.87 -2.73069 -1.73824 0
M  V30 1944 H 181.777 -3.72408 0.355356 0
M  V30 1945 H 183.11 -4.90157 0.447936 0
M  V30 1946 N 184.763 -0.387143 -1.52771 0
M  V30 1947 C 186.012 0.19697 -2.00736 0
M  V30 1948 C 186.325 1.48082 -1.27793 0
M  V30 1949 O 187.531 2.14485 -1.66458 0
M  V30 1950 C 185.987 0.401568 -3.57653 0
M  V30 1951 C 185.595 -0.868907 -4.39493 0
M  V30 1952 C 187.339 0.942164 -4.13912 0
M  V30 1953 C 185.246 -0.632705 -5.88006 0
M  V30 1954 H 184.176 0.0773827 -0.750019 0
M  V30 1955 H 186.827 -0.50921 -1.76293 0
M  V30 1956 H 185.209 1.16954 -3.78335 0
M  V30 1957 H 186.383 -1.64133 -4.30577 0
M  V30 1958 H 184.698 -1.33429 -3.94443 0
M  V30 1959 H 187.295 1.13455 -5.22525 0
M  V30 1960 H 187.638 1.9106 -3.69867 0
M  V30 1961 H 188.171 0.233814 -3.97112 0
M  V30 1962 H 184.91 -1.57208 -6.36369 0
M  V30 1963 H 184.43 0.100825 -5.99715 0
M  V30 1964 H 186.109 -0.26642 -6.46451 0
M  V30 1965 N 186.241 1.57166 -0.116904 0
M  V30 1966 C 187.49 1.94298 0.541407 0
M  V30 1967 C 187.803 1.00236 1.67964 0
M  V30 1968 O 189.009 1.26826 2.40057 0
M  V30 1969 C 187.465 3.45306 1.01449 0
M  V30 1970 C 187.073 4.47899 -0.0951738 0
M  V30 1971 C 188.817 3.91361 1.6443 0
M  V30 1972 C 186.724 5.90083 0.394491 0
M  V30 1973 H 185.654 0.725308 0.206019 0
M  V30 1974 H 188.305 1.82446 -0.196419 0
M  V30 1975 H 186.687 3.52385 1.80667 0
M  V30 1976 H 187.861 4.52486 -0.871374 0
M  V30 1977 H 186.176 4.11583 -0.631505 0
M  V30 1978 H 188.773 4.95004 2.02176 0
M  V30 1979 H 189.116 3.3122 2.52189 0
M  V30 1980 H 189.649 3.87073 0.917559 0
M  V30 1981 H 186.388 6.53974 -0.447004 0
M  V30 1982 H 185.908 5.88921 1.13722 0
M  V30 1983 H 187.587 6.41307 0.856399 0
M  V30 1984 N 187.719 -0.156864 1.56817 0
M  V30 1985 C 188.651 -1.21883 1.94106 0
M  V30 1986 C 189.664 -1.3971 0.835754 0
M  V30 1987 O 190.853 -1.39457 1.11418 0
M  V30 1988 C 187.953 -2.58527 2.19127 0
M  V30 1989 C 187.126 -2.61809 3.50393 0
M  V30 1990 C 186.185 -3.7992 3.64071 0
M  V30 1991 O 185.211 -3.65249 4.36557 0
M  V30 1992 N 186.413 -4.96973 2.99997 0
M  V30 1993 H 189.178 -0.901974 2.85805 0
M  V30 1994 H 186.739 -0.346513 1.58148 0
M  V30 1995 H 188.731 -3.36034 2.25529 0
M  V30 1996 H 187.301 -2.82545 1.33742 0
M  V30 1997 H 186.521 -1.7029 3.5552 0
M  V30 1998 H 187.809 -2.61024 4.36742 0
M  V30 1999 H 187.207 -5.11794 2.41004 0
M  V30 2000 H 185.764 -5.7229 3.11974 0
M  V30 2001 N 189.197 -1.51736 -0.425897 0
M  V30 2002 C 190.422 -1.69082 -1.20108 0
M  V30 2003 C 190.847 -0.392398 -1.83962 0
M  V30 2004 O 190.205 0.64858 -1.69302 0
M  V30 2005 C 190.253 -2.81604 -2.25237 0
M  V30 2006 O 189.357 -2.46004 -3.30992 0
M  V30 2007 H 188.698 -0.563408 -0.35138 0
M  V30 2008 H 191.228 -1.98358 -0.501512 0
M  V30 2009 H 191.238 -3.06025 -2.69838 0
M  V30 2010 H 189.913 -3.75817 -1.78142 0
M  V30 2011 H 188.49 -2.32195 -2.91787 0
M  V30 2012 N 190.675 0.682077 -1.42076 0
M  V30 2013 C 191.952 1.43755 -1.32642 0
M  V30 2014 C 192.332 2.11063 0.0396611 0
M  V30 2015 O 191.68 2.02701 1.05474 0
M  V30 2016 C 191.89 2.44596 -2.48946 0
M  V30 2017 C 193.238 3.09454 -2.9073 0
M  V30 2018 O 194.262 2.54922 -2.48783 0
M  V30 2019 O 193.121 4.08253 -3.63307 0
M  V30 2020 H 190.215 0.640857 -0.522715 0
M  V30 2021 H 192.761 0.711415 -1.54068 0
M  V30 2022 H 191.533 1.93609 -3.40046 0
M  V30 2023 H 191.156 3.24701 -2.29467 0
M  V30 2024 N 192.153 1.28127 0.917671 0
M  V30 2025 C 193.569 1.05749 1.19538 0
M  V30 2026 C 193.769 -0.202633 2.00479 0
M  V30 2027 O 192.825 -0.905382 2.3571 0
M  V30 2028 C 194.138 2.30273 1.93378 0
M  V30 2029 C 195.686 2.35412 2.06277 0
M  V30 2030 C 196.161 3.59692 2.83524 0
M  V30 2031 N 197.652 3.60309 2.91087 0
M  V30 2032 C 198.387 4.53147 3.51348 0
M  V30 2033 N 197.883 5.563 4.12919 0
M  V30 2034 N 199.676 4.40751 3.48849 0
M  V30 2035 H 191.827 2.09024 0.377184 0
M  V30 2036 H 194.09 0.919798 0.22951 0
M  V30 2037 H 193.796 3.22055 1.41328 0
M  V30 2038 H 193.67 2.36378 2.93947 0
M  V30 2039 H 196.057 1.4413 2.57508 0
M  V30 2040 H 196.138 2.33304 1.04895 0
M  V30 2041 H 195.782 4.51316 2.32973 0
M  V30 2042 H 195.712 3.59054 3.85211 0
M  V30 2043 H 198.203 2.85714 2.47338 0
M  V30 2044 H 198.516 6.2329 4.56869 0
M  V30 2045 H 196.861 5.60131 4.11435 0
M  V30 2046 H 200.052 3.59367 2.99955 0
M  V30 2047 H 200.225 5.13291 3.9552 0
M  V30 2048 N 193.631 -1.12557 1.10312 0
M  V30 2049 C 195.042 -1.65574 0.862678 0
M  V30 2050 C 195.393 -1.86566 -0.607256 0
M  V30 2051 O 194.518 -1.59121 -1.46662 0
M  V30 2052 C 195.113 -3.00776 1.55947 0
M  V30 2053 C 193.672 -3.50748 1.36576 0
M  V30 2054 C 192.819 -2.25797 1.60968 0
M  V30 2055 H 195.77 -0.963552 1.26101 0
M  V30 2056 H 195.791 -3.67185 0.997753 0
M  V30 2057 H 195.303 -2.85465 2.62928 0
M  V30 2058 H 193.404 -3.71245 0.317531 0
M  V30 2059 H 193.517 -4.30289 2.10686 0
M  V30 2060 H 191.881 -2.32841 1.03234 0
M  V30 2061 H 192.664 -2.13043 2.69198 0
M  V30 2062 N 195.109 -0.891671 -1.2995 0
M  V30 2063 C 196.357 -0.512486 -1.95494 0
M  V30 2064 C 196.678 0.942776 -1.70695 0
M  V30 2065 O 195.948 1.66374 -1.03424 0
M  V30 2066 H 194.528 -0.186533 -0.723336 0
M  V30 2067 H 197.19 -1.13621 -1.58355 0
M  V30 2068 H 196.286 -0.688342 -3.04415 0
M  V30 2069 N 196.587 1.43421 -0.653314 0
M  V30 2070 C 197.497 2.34568 0.0388565 0
M  V30 2071 C 198.513 1.53888 0.81207 0
M  V30 2072 O 199.689 1.86539 0.759294 0
M  V30 2073 C 196.754 3.32167 0.993269 0
M  V30 2074 C 195.815 4.28751 0.216977 0
M  V30 2075 C 195.048 5.21688 1.12593 0
M  V30 2076 O 195.271 5.19052 2.36519 0
M  V30 2077 O 194.205 5.98919 0.598284 0
M  V30 2078 H 198.031 2.95251 -0.711386 0
M  V30 2079 H 195.616 1.43564 -0.413502 0
M  V30 2080 H 197.498 3.92183 1.54176 0
M  V30 2081 H 196.173 2.73987 1.72374 0
M  V30 2082 H 195.08 3.72215 -0.375101 0
M  V30 2083 H 196.413 4.89913 -0.473924 0
M  V30 2084 N 198.065 0.39524 1.52563 0
M  V30 2085 C 199.013 -0.451859 2.28169 0
M  V30 2086 C 200.007 -1.05792 1.32304 0
M  V30 2087 O 201.213 -0.997718 1.49818 0
M  V30 2088 H 197.588 -0.164481 0.733792 0
M  V30 2089 H 199.559 0.207199 2.9768 0
M  V30 2090 C 198.308 -1.56385 3.10546 0
M  V30 2091 H 197.631 -1.10682 3.84174 0
M  V30 2092 H 199.071 -2.13067 3.66577 0
M  V30 2093 C 197.53 -2.52328 2.23231 0
M  V30 2094 O 198.06 -3.5588 1.86312 0
M  V30 2095 N 196.266 -2.22209 1.87274 0
M  V30 2096 H 195.813 -1.38033 2.17496 0
M  V30 2097 H 195.771 -2.86652 1.29143 0
M  V30 2098 N 199.544 -1.57102 0.125237 0
M  V30 2099 C 200.793 -1.94582 -0.531095 0
M  V30 2100 C 201.106 -1.01126 -1.6743 0
M  V30 2101 O 202.312 -1.28097 -2.39381 0
M  V30 2102 C 200.768 -3.45839 -0.996164 0
M  V30 2103 C 200.376 -4.47842 0.118926 0
M  V30 2104 C 202.12 -3.92227 -1.62352 0
M  V30 2105 C 200.027 -5.90284 -0.363192 0
M  V30 2106 H 198.957 -0.726391 -0.20217 0
M  V30 2107 H 201.608 -1.82339 0.206092 0
M  V30 2108 H 199.99 -3.53338 -1.78796 0
M  V30 2109 H 201.164 -4.52018 0.895358 0
M  V30 2110 H 199.479 -4.11243 0.653324 0
M  V30 2111 H 202.076 -4.96069 -1.99548 0
M  V30 2112 H 202.419 -3.32552 -2.50429 0
M  V30 2113 H 202.952 -3.87554 -0.897019 0
M  V30 2114 H 199.691 -6.53728 0.481679 0
M  V30 2115 H 199.211 -5.89515 -1.10597 0
M  V30 2116 H 200.89 -6.41752 -0.822377 0
M  V30 2117 N 201.022 0.148545 -1.56898 0
M  V30 2118 C 201.952 1.18524 -2.01182 0
M  V30 2119 C 202.933 1.4489 -0.891123 0
M  V30 2120 O 204.118 1.55836 -1.15882 0
M  V30 2121 C 201.248 2.51879 -2.39112 0
M  V30 2122 C 200.202 2.40038 -3.54353 0
M  V30 2123 C 199.528 3.78089 -3.78091 0
M  V30 2124 C 200.828 1.88577 -4.87069 0
M  V30 2125 H 202.522 0.817029 -2.88036 0
M  V30 2126 H 200.068 0.391575 -1.38574 0
M  V30 2127 H 202.021 3.24627 -2.68692 0
M  V30 2128 H 200.745 2.90532 -1.49193 0
M  V30 2129 H 199.404 1.69742 -3.24936 0
M  V30 2130 H 199.052 4.14175 -2.85426 0
M  V30 2131 H 198.752 3.71028 -4.55645 0
M  V30 2132 H 200.276 4.52387 -4.10095 0
M  V30 2133 H 201.69 2.51117 -5.15377 0
M  V30 2134 H 200.087 1.9241 -5.68417 0
M  V30 2135 H 201.157 0.84136 -4.77545 0
M  V30 2136 N 202.5 1.5196 0.417844 0
M  V30 2137 C 203.43 1.77634 1.51554 0
M  V30 2138 C 204.411 0.626918 1.58126 0
M  V30 2139 O 205.596 0.871632 1.7354 0
M  V30 2140 C 202.726 1.91911 2.8946 0
M  V30 2141 C 201.68 3.07463 2.97743 0
M  V30 2142 C 201.006 3.06951 4.37819 0
M  V30 2143 C 202.306 4.47082 2.70027 0
M  V30 2144 H 204 2.6955 1.3032 0
M  V30 2145 H 201.546 1.29706 0.625492 0
M  V30 2146 H 203.499 2.08455 3.6623 0
M  V30 2147 H 202.223 0.966598 3.11969 0
M  V30 2148 H 200.882 2.90656 2.23416 0
M  V30 2149 H 200.53 2.09438 4.57323 0
M  V30 2150 H 200.23 3.84556 4.44286 0
M  V30 2151 H 201.754 3.25613 5.16535 0
M  V30 2152 H 203.168 4.6414 3.36522 0
M  V30 2153 H 201.565 5.2654 2.87881 0
M  V30 2154 H 202.635 4.55777 1.65514 0
M  V30 2155 N 203.978 -0.674533 1.42435 0
M  V30 2156 C 205.225 -1.43459 1.42919 0
M  V30 2157 C 205.553 -1.94446 0.0457312 0
M  V30 2158 O 204.808 -1.7132 -0.94593 0
M  V30 2159 C 205.107 -2.64767 2.40069 0
M  V30 2160 C 204.773 -2.3232 3.86443 0
M  V30 2161 C 203.435 -2.23182 4.26314 0
M  V30 2162 C 205.787 -2.05977 4.78773 0
M  V30 2163 C 203.115 -1.85827 5.56494 0
M  V30 2164 C 205.467 -1.70125 6.09295 0
M  V30 2165 C 204.131 -1.59498 6.48164 0
M  V30 2166 H 203.401 -0.524952 0.522978 0
M  V30 2167 H 206.048 -0.769097 1.75377 0
M  V30 2168 H 204.353 -3.36349 2.00939 0
M  V30 2169 H 206.05 -3.22949 2.37707 0
M  V30 2170 H 202.64 -2.40334 3.54877 0
M  V30 2171 H 206.824 -2.11969 4.48757 0
M  V30 2172 H 202.08 -1.76168 5.8547 0
M  V30 2173 H 206.254 -1.48767 6.80324 0
M  V30 2174 H 203.881 -1.30322 7.48946 0
M  V30 2175 N 205.456 -1.28612 -0.910864 0
M  V30 2176 C 206.403 -1.12786 -2.01365 0
M  V30 2177 C 207.373 -0.024201 -1.66082 0
M  V30 2178 O 208.558 -0.189667 -1.89855 0
M  V30 2179 C 205.698 -0.798743 -3.35729 0
M  V30 2180 C 204.811 -1.98173 -3.83864 0
M  V30 2181 C 203.946 -1.59298 -5.06752 0
M  V30 2182 C 202.985 -2.74245 -5.47226 0
M  V30 2183 N 202.122 -2.35842 -6.61304 0
M  V30 2184 H 206.962 -2.07142 -2.14234 0
M  V30 2185 H 204.499 -1.03093 -1.0493 0
M  V30 2186 H 206.457 -0.588662 -4.13026 0
M  V30 2187 H 205.087 0.10789 -3.2262 0
M  V30 2188 H 204.139 -2.30386 -3.02699 0
M  V30 2189 H 205.451 -2.84343 -4.09818 0
M  V30 2190 H 204.605 -1.34513 -5.916 0
M  V30 2191 H 203.344 -0.702618 -4.82612 0
M  V30 2192 H 202.349 -2.99725 -4.60918 0
M  V30 2193 H 203.574 -3.63928 -5.73353 0
M  V30 2194 H 201.52 -1.49279 -6.38789 0
M  V30 2195 H 201.437 -3.15546 -6.86998 0
M  V30 2196 H 202.705 -2.14348 -7.4945 0
M  V30 2197 N 206.934 1.1197 -1.10907 0
M  V30 2198 C 208.35 1.35591 -0.841852 0
M  V30 2199 C 208.55 1.94233 0.536246 0
M  V30 2200 O 207.606 2.1717 1.28816 0
M  V30 2201 C 208.919 2.29284 -1.94549 0
M  V30 2202 C 210.467 2.42862 -1.97451 0
M  V30 2203 C 210.942 3.39873 -3.07002 0
M  V30 2204 N 212.433 3.47433 -3.06341 0
M  V30 2205 C 213.168 4.22421 -3.87748 0
M  V30 2206 N 212.664 5.00432 -4.79103 0
M  V30 2207 N 214.457 4.17876 -3.75946 0
M  V30 2208 H 206.608 0.722664 -1.99728 0
M  V30 2209 H 208.871 0.380635 -0.868229 0
M  V30 2210 H 208.577 1.93378 -2.93765 0
M  V30 2211 H 208.451 3.29452 -1.83688 0
M  V30 2212 H 210.838 2.78046 -0.988645 0
M  V30 2213 H 210.919 1.42566 -2.12388 0
M  V30 2214 H 210.563 3.05417 -4.05811 0
M  V30 2215 H 210.493 4.40011 -2.89306 0
M  V30 2216 H 212.984 2.91784 -2.40147 0
M  V30 2217 H 213.297 5.55002 -5.37766 0
M  V30 2218 H 211.642 4.99612 -4.83128 0
M  V30 2219 H 214.833 3.56016 -3.03924 0
M  V30 2220 H 215.006 4.76061 -4.39624 0
M  V30 2221 N 208.412 0.89855 1.29475 0
M  V30 2222 C 209.375 0.380272 2.26023 0
M  V30 2223 C 210.375 -0.484891 1.53315 0
M  V30 2224 O 211.565 -0.290108 1.71767 0
M  V30 2225 C 208.697 -0.45651 3.3783 0
M  V30 2226 H 209.89 1.23295 2.73383 0
M  V30 2227 H 207.443 0.676589 1.40897 0
M  V30 2228 H 208.178 -1.32922 2.95808 0
M  V30 2229 H 207.963 0.163393 3.91759 0
M  V30 2230 H 209.453 -0.810466 4.0966 0
M  V30 2231 N 209.89 -1.43072 0.660911 0
M  V30 2232 C 210.82 -2.33497 -0.0122829 0
M  V30 2233 C 211.801 -1.49903 -0.803925 0
M  V30 2234 O 212.986 -1.78546 -0.763864 0
M  V30 2235 C 210.116 -3.33363 -0.973994 0
M  V30 2236 C 209.07 -4.27003 -0.291928 0
M  V30 2237 C 208.396 -5.16967 -1.36562 0
M  V30 2238 C 209.696 -5.15816 0.820462 0
M  V30 2239 H 211.39 -2.90038 0.742873 0
M  V30 2240 H 208.936 -1.39461 0.358688 0
M  V30 2241 H 210.889 -3.95524 -1.45392 0
M  V30 2242 H 209.613 -2.75095 -1.7604 0
M  V30 2243 H 208.272 -3.66217 0.167623 0
M  V30 2244 H 207.92 -4.55034 -2.14366 0
M  V30 2245 H 207.62 -5.80441 -0.914454 0
M  V30 2246 H 209.144 -5.82003 -1.84675 0
M  V30 2247 H 210.558 -5.71742 0.422366 0
M  V30 2248 H 208.955 -5.8805 1.19656 0
M  V30 2249 H 210.025 -4.55045 1.67518 0
M  V30 2250 N 211.368 -0.403325 -1.52352 0
M  V30 2251 C 212.616 0.174003 -2.0135 0
M  V30 2252 C 212.937 1.46139 -1.29106 0
M  V30 2253 O 212.207 1.91448 -0.415253 0
M  V30 2254 H 210.787 0.0672911 -0.743963 0
M  V30 2255 H 213.449 -0.538235 -1.87321 0
M  V30 2256 H 212.545 0.374254 -3.09848 0
M  V30 2257 N 212.846 1.57033 -0.133567 0
M  V30 2258 C 214.092 1.95976 0.521649 0
M  V30 2259 C 214.425 1.01779 1.65393 0
M  V30 2260 O 213.7 0.0576581 1.94415 0
M  V30 2261 C 213.983 3.44738 1.04057 0
M  V30 2262 C 213.836 4.49711 -0.0892897 0
M  V30 2263 C 215.155 3.95682 1.92675 0
M  V30 2264 H 212.274 0.712579 0.188149 0
M  V30 2265 H 214.916 1.88813 -0.212076 0
M  V30 2266 H 213.066 3.50973 1.66583 0
M  V30 2267 H 214.738 4.55565 -0.725152 0
M  V30 2268 H 212.981 4.27261 -0.750378 0
M  V30 2269 H 213.652 5.51099 0.315284 0
M  V30 2270 H 216.128 3.91841 1.39998 0
M  V30 2271 H 215.004 5.00262 2.25897 0
M  V30 2272 H 215.265 3.37239 2.85872 0
M  V30 2273 N 214.325 -0.140222 1.56975 0
M  V30 2274 C 215.553 -0.866437 1.87884 0
M  V30 2275 C 215.968 -1.74428 0.722517 0
M  V30 2276 O 215.325 -1.79891 -0.30749 0
M  V30 2277 C 215.376 -1.71753 3.18093 0
M  V30 2278 O 215.097 -0.875056 4.29272 0
M  V30 2279 C 216.598 -2.55074 3.62563 0
M  V30 2280 H 213.818 -0.25019 0.622612 0
M  V30 2281 H 216.362 -0.130977 2.0408 0
M  V30 2282 H 214.517 -2.40598 3.03631 0
M  V30 2283 H 214.931 -1.46002 5.03769 0
M  V30 2284 H 216.405 -3.10356 4.5649 0
M  V30 2285 H 216.882 -3.31434 2.88181 0
M  V30 2286 H 217.488 -1.91509 3.79743 0
M  V30 2287 N 215.803 -1.52179 -0.40978 0
M  V30 2288 C 217.031 -1.70054 -1.17853 0
M  V30 2289 C 217.446 -0.409735 -1.843 0
M  V30 2290 O 216.803 0.614183 -1.71855 0
M  V30 2291 C 216.854 -2.83568 -2.24213 0
M  V30 2292 O 216.575 -4.0765 -1.60478 0
M  V30 2293 C 218.076 -3.12947 -3.13973 0
M  V30 2294 H 215.296 -0.569917 -0.354169 0
M  V30 2295 H 217.84 -1.98734 -0.482198 0
M  V30 2296 H 215.995 -2.57409 -2.89516 0
M  V30 2297 H 216.409 -4.70899 -2.30986 0
M  V30 2298 H 217.883 -3.95889 -3.84677 0
M  V30 2299 H 218.36 -2.26472 -3.76307 0
M  V30 2300 H 218.966 -3.40868 -2.5434 0
M  V30 2301 N 217.281 0.66697 -1.42791 0
M  V30 2302 C 218.529 1.42417 -1.43394 0
M  V30 2303 C 218.85 1.94925 -0.0542373 0
M  V30 2304 O 218.12 1.73564 0.908415 0
M  V30 2305 H 216.7 0.528515 -0.527902 0
M  V30 2306 H 219.362 0.787562 -1.78279 0
M  V30 2307 H 218.458 2.27333 -2.13837 0
M  V30 2308 N 218.759 1.29093 0.90403 0
M  V30 2309 C 220.008 1.16187 1.64874 0
M  V30 2310 C 220.321 -0.286742 1.93487 0
M  V30 2311 O 221.527 -0.537062 2.66135 0
M  V30 2312 C 219.983 2.03177 2.97064 0
M  V30 2313 C 219.591 3.52836 2.76062 0
M  V30 2314 C 221.335 1.98984 3.74974 0
M  V30 2315 C 219.242 4.31945 4.03952 0
M  V30 2316 H 218.172 0.431246 0.618501 0
M  V30 2317 H 220.823 1.53699 1.00243 0
M  V30 2318 H 219.205 1.5853 3.62883 0
M  V30 2319 H 220.379 4.05507 2.18863 0
M  V30 2320 H 218.694 3.58656 2.11553 0
M  V30 2321 H 221.291 2.55351 4.69787 0
M  V30 2322 H 221.634 0.968815 4.0487 0
M  V30 2323 H 222.167 2.41652 3.15989 0
M  V30 2324 H 218.906 5.34667 3.79225 0
M  V30 2325 H 218.426 3.84045 4.60727 0
M  V30 2326 H 220.105 4.42379 4.72133 0
M  V30 2327 N 220.237 -1.11381 1.11499 0
M  V30 2328 C 221.167 -2.19509 0.796125 0
M  V30 2329 C 222.148 -1.68458 -0.235796 0
M  V30 2330 O 223.333 -1.93947 -0.0991344 0
M  V30 2331 C 220.463 -3.46475 0.239205 0
M  V30 2332 C 219.417 -4.10744 1.20307 0
M  V30 2333 C 218.743 -5.32293 0.50683 0
M  V30 2334 C 220.043 -4.55597 2.55399 0
M  V30 2335 H 221.737 -2.46439 1.70024 0
M  V30 2336 H 219.283 -1.18446 0.818935 0
M  V30 2337 H 221.236 -4.214 0.00392006 0
M  V30 2338 H 219.96 -3.19006 -0.700206 0
M  V30 2339 H 218.619 -3.37813 1.42399 0
M  V30 2340 H 218.267 -5.01095 -0.437408 0
M  V30 2341 H 217.967 -5.76243 1.1497 0
M  V30 2342 H 219.491 -6.09956 0.280351 0
M  V30 2343 H 220.905 -5.21841 2.37391 0
M  V30 2344 H 219.302 -5.10363 3.15673 0
M  V30 2345 H 220.372 -3.69013 3.14575 0
M  V30 2346 N 221.715 -0.905404 -1.28997 0
M  V30 2347 C 223.126 -0.581953 -1.77398 0
M  V30 2348 C 223.477 0.902552 -1.74208 0
M  V30 2349 O 222.602 1.70584 -1.33154 0
M  V30 2350 C 223.197 -1.04961 -3.22131 0
M  V30 2351 C 221.756 -0.777229 -3.68288 0
M  V30 2352 C 220.903 -1.22109 -2.48967 0
M  V30 2353 H 223.854 -1.08754 -1.15578 0
M  V30 2354 H 223.875 -0.387387 -3.78523 0
M  V30 2355 H 223.387 -2.13008 -3.24421 0
M  V30 2356 H 221.488 0.290383 -3.71467 0
M  V30 2357 H 221.601 -1.37911 -4.58822 0
M  V30 2358 H 219.965 -0.639971 -2.46529 0
M  V30 2359 H 220.748 -2.30972 -2.53982 0
M  V30 2360 N 223.193 1.4272 -0.668489 0
M  V30 2361 C 224.439 2.02443 -0.197076 0
M  V30 2362 C 224.794 1.51882 1.18109 0
M  V30 2363 O 224.087 0.708618 1.78015 0
M  V30 2364 C 224.281 3.57021 -0.164499 0
M  V30 2365 C 224.11 4.22583 -1.53797 0
M  V30 2366 C 222.88 4.58019 -2.13416 0
M  V30 2367 C 225.078 4.50588 -2.47941 0
M  V30 2368 N 223.06 5.08729 -3.4361 0
M  V30 2369 C 224.431 5.02782 -3.62782 0
M  V30 2370 C 226.486 4.32571 -2.46551 0
M  V30 2371 C 225.189 5.38852 -4.76478 0
M  V30 2372 C 227.215 4.69713 -3.59338 0
M  V30 2373 C 226.577 5.22053 -4.72906 0
M  V30 2374 H 222.676 0.773214 -0.116894 0
M  V30 2375 H 225.26 1.73673 -0.880108 0
M  V30 2376 H 223.431 3.85323 0.487925 0
M  V30 2377 H 225.163 4.03439 0.319207 0
M  V30 2378 H 221.918 4.43566 -1.65969 0
M  V30 2379 H 222.342 5.38521 -4.10273 0
M  V30 2380 H 226.984 3.91365 -1.59978 0
M  V30 2381 H 224.702 5.78993 -5.63731 0
M  V30 2382 H 228.288 4.57454 -3.59482 0
M  V30 2383 H 227.168 5.50258 -5.58736 0
M  V30 2384 N 224.671 0.411399 1.52136 0
M  V30 2385 C 225.619 -0.427633 2.28635 0
M  V30 2386 C 226.613 -1.04383 1.33419 0
M  V30 2387 O 227.819 -0.981772 1.50868 0
M  V30 2388 H 224.194 -0.156689 0.735495 0
M  V30 2389 H 226.165 0.238761 2.97443 0
M  V30 2390 C 224.914 -1.53082 3.12188 0
M  V30 2391 H 224.237 -1.06601 3.85326 0
M  V30 2392 H 225.677 -2.09167 3.68816 0
M  V30 2393 C 224.136 -2.49946 2.25895 0
M  V30 2394 O 224.666 -3.53884 1.90076 0
M  V30 2395 N 222.872 -2.2021 1.8962 0
M  V30 2396 H 222.419 -1.35719 2.18948 0
M  V30 2397 H 222.377 -2.85266 1.32176 0
M  V30 2398 N 226.149 -1.5696 0.141893 0
M  V30 2399 C 227.396 -1.9596 -0.510492 0
M  V30 2400 C 227.724 -1.02648 -1.65208 0
M  V30 2401 O 226.979 -0.0546947 -1.95624 0
M  V30 2402 C 227.278 -3.41242 -1.06249 0
M  V30 2403 C 226.944 -4.50882 -0.0398791 0
M  V30 2404 C 225.606 -4.80595 0.241247 0
M  V30 2405 C 227.958 -5.17058 0.65578 0
M  V30 2406 C 225.286 -5.73792 1.22393 0
M  V30 2407 C 227.638 -6.11313 1.62724 0
M  V30 2408 C 226.302 -6.39407 1.91612 0
M  V30 2409 H 225.572 -0.717068 -0.186802 0
M  V30 2410 H 228.219 -1.90142 0.227643 0
M  V30 2411 H 226.524 -3.43866 -1.87785 0
M  V30 2412 H 228.221 -3.68742 -1.57576 0
M  V30 2413 H 224.811 -4.27754 -0.269174 0
M  V30 2414 H 228.995 -4.94239 0.451779 0
M  V30 2415 H 224.251 -5.93853 1.45424 0
M  V30 2416 H 228.425 -6.61668 2.17183 0
M  V30 2417 H 226.052 -7.11427 2.6791 0
M  V30 2418 N 227.627 0.131896 -1.57047 0
M  V30 2419 C 229.038 0.690407 -1.73465 0
M  V30 2420 C 229.389 1.8094 -0.758629 0
M  V30 2421 O 228.514 2.16282 0.0713813 0
M  V30 2422 C 229.109 1.25916 -3.14532 0
M  V30 2423 C 227.668 1.76409 -3.32501 0
M  V30 2424 C 226.815 0.658579 -2.69366 0
M  V30 2425 H 229.766 -0.0939144 -1.58422 0
M  V30 2426 H 229.787 2.12892 -3.15369 0
M  V30 2427 H 229.299 0.444515 -3.85546 0
M  V30 2428 H 227.4 2.60391 -2.66509 0
M  V30 2429 H 227.513 1.88241 -4.4057 0
M  V30 2430 H 225.877 1.08899 -2.30246 0
M  V30 2431 H 226.66 -0.14487 -3.42994 0
M  V30 2432 N 229.106 1.52395 0.401703 0
M  V30 2433 C 230.353 1.66817 1.14796 0
M  V30 2434 C 230.681 0.401772 1.90305 0
M  V30 2435 O 229.936 -0.615487 1.85769 0
M  V30 2436 C 230.235 2.84578 2.16217 0
M  V30 2437 C 229.901 4.22513 1.5746 0
M  V30 2438 C 228.563 4.60029 1.41161 0
M  V30 2439 C 230.915 5.0844 1.14622 0
M  V30 2440 C 228.243 5.81144 0.80552 0
M  V30 2441 C 230.595 6.30167 0.55428 0
M  V30 2442 C 229.259 6.66426 0.378482 0
M  V30 2443 H 228.529 0.610428 0.420069 0
M  V30 2444 H 231.176 1.86512 0.434212 0
M  V30 2445 H 229.481 2.59248 2.93764 0
M  V30 2446 H 231.178 2.92933 2.73845 0
M  V30 2447 H 227.768 3.92953 1.71132 0
M  V30 2448 H 231.952 4.80034 1.26021 0
M  V30 2449 H 227.208 6.07855 0.657399 0
M  V30 2450 H 231.382 6.96071 0.213983 0
M  V30 2451 H 229.009 7.60143 -0.0932606 0
M  V30 2452 N 230.584 -0.659388 1.43143 0
M  V30 2453 C 231.831 -1.41935 1.44433 0
M  V30 2454 C 232.159 -1.94387 0.0663522 0
M  V30 2455 O 231.414 -1.72314 -0.927706 0
M  V30 2456 C 231.713 -2.62206 2.42864 0
M  V30 2457 C 231.379 -2.28208 3.88886 0
M  V30 2458 C 230.041 -2.18647 4.28657 0
M  V30 2459 C 232.393 -2.00887 4.8093 0
M  V30 2460 C 229.721 -1.79914 5.58433 0
M  V30 2461 C 232.073 -1.63653 6.11065 0
M  V30 2462 C 230.737 -1.52614 6.49819 0
M  V30 2463 H 230.007 -0.519376 0.528517 0
M  V30 2464 H 232.654 -0.750453 1.76183 0
M  V30 2465 H 230.959 -3.34199 2.04495 0
M  V30 2466 H 232.656 -3.2041 2.41119 0
M  V30 2467 H 229.246 -2.36557 3.57406 0
M  V30 2468 H 233.43 -2.07198 4.5098 0
M  V30 2469 H 228.686 -1.69948 5.87305 0
M  V30 2470 H 232.86 -1.41543 6.81864 0
M  V30 2471 H 230.487 -1.22371 7.50286 0
M  V30 2472 N 232.062 -1.29571 -0.897171 0
M  V30 2473 C 232.992 -1.17473 -2.01798 0
M  V30 2474 C 233.973 -0.068323 -1.69963 0
M  V30 2475 O 235.158 -0.248239 -1.92607 0
M  V30 2476 C 232.288 -0.853099 -3.36659 0
M  V30 2477 C 231.242 -1.9161 -3.82713 0
M  V30 2478 C 230.568 -1.44773 -5.14728 0
M  V30 2479 C 231.868 -3.32535 -4.02763 0
M  V30 2480 H 233.562 -2.11237 -2.12177 0
M  V30 2481 H 231.108 -1.01699 -1.01948 0
M  V30 2482 H 233.061 -0.755165 -4.14578 0
M  V30 2483 H 231.785 0.120236 -3.26379 0
M  V30 2484 H 230.444 -2.00346 -3.07013 0
M  V30 2485 H 230.092 -0.462995 -5.00865 0
M  V30 2486 H 229.792 -2.15865 -5.46513 0
M  V30 2487 H 231.316 -1.36334 -5.95185 0
M  V30 2488 H 232.73 -3.26626 -4.71156 0
M  V30 2489 H 231.127 -4.01607 -4.45905 0
M  V30 2490 H 232.197 -3.75326 -3.07016 0
M  V30 2491 N 233.54 1.10788 -1.12088 0
M  V30 2492 C 234.789 1.82036 -0.868659 0
M  V30 2493 C 235.102 1.85929 0.607426 0
M  V30 2494 O 236.308 2.53346 0.97613 0
M  V30 2495 C 234.764 3.26951 -1.50435 0
M  V30 2496 C 234.372 3.31367 -3.01496 0
M  V30 2497 C 236.116 4.03053 -1.33225 0
M  V30 2498 C 234.023 4.7072 -3.58017 0
M  V30 2499 H 232.953 0.682108 -0.321318 0
M  V30 2500 H 235.604 1.24618 -1.34694 0
M  V30 2501 H 233.986 3.84343 -0.953735 0
M  V30 2502 H 235.16 2.83819 -3.6302 0
M  V30 2503 H 233.475 2.6875 -3.18061 0
M  V30 2504 H 236.072 5.05981 -1.72878 0
M  V30 2505 H 236.415 4.15387 -0.275529 0
M  V30 2506 H 236.948 3.52066 -1.85188 0
M  V30 2507 H 233.687 4.63585 -4.63432 0
M  V30 2508 H 233.207 5.1865 -3.01268 0
M  V30 2509 H 234.886 5.39685 -3.56859 0
M  V30 2510 N 235.018 0.912232 1.28515 0
M  V30 2511 C 235.981 0.404223 2.25607 0
M  V30 2512 C 236.981 -0.468602 1.53821 0
M  V30 2513 O 238.171 -0.271873 1.72065 0
M  V30 2514 C 235.303 -0.420653 3.38295 0
M  V30 2515 H 236.496 1.26188 2.7206 0
M  V30 2516 H 234.049 0.691495 1.40171 0
M  V30 2517 H 234.784 -1.29777 2.97201 0
M  V30 2518 H 234.569 0.204935 3.91564 0
M  V30 2519 H 236.059 -0.766971 4.10496 0
M  V30 2520 N 236.496 -1.42363 0.676048 0
M  V30 2521 C 237.912 -1.55811 0.345718 0
M  V30 2522 C 238.112 -1.65544 -1.14879 0
M  V30 2523 O 237.168 -1.62306 -1.93424 0
M  V30 2524 C 238.481 -2.80746 1.07713 0
M  V30 2525 C 240.029 -2.9452 1.05958 0
M  V30 2526 C 240.504 -4.22318 1.77233 0
M  V30 2527 N 241.995 -4.29233 1.74108 0
M  V30 2528 C 242.73 -5.26935 2.26113 0
M  V30 2529 N 242.226 -6.30783 2.86505 0
M  V30 2530 N 244.019 -5.18741 2.1648 0
M  V30 2531 H 236.17 -1.34289 1.6456 0
M  V30 2532 H 238.433 -0.646506 0.69335 0
M  V30 2533 H 238.139 -2.79696 2.13221 0
M  V30 2534 H 238.013 -3.71676 0.64316 0
M  V30 2535 H 240.4 -2.95097 0.0128255 0
M  V30 2536 H 240.481 -2.04817 1.53244 0
M  V30 2537 H 240.125 -4.22502 2.81877 0
M  V30 2538 H 240.055 -5.10958 1.27396 0
M  V30 2539 H 242.546 -3.54814 1.30059 0
M  V30 2540 H 242.859 -7.01691 3.23805 0
M  V30 2541 H 241.204 -6.31341 2.90575 0
M  V30 2542 H 244.395 -4.36533 1.68987 0
M  V30 2543 H 244.568 -5.94721 2.57316 0
M  V30 2544 N 237.974 -0.419461 -1.51915 0
M  V30 2545 C 238.921 0.400927 -2.27291 0
M  V30 2546 C 239.891 1.03224 -1.30131 0
M  V30 2547 O 241.076 1.05455 -1.59009 0
M  V30 2548 C 238.216 1.50603 -3.10504 0
M  V30 2549 C 237.329 0.89462 -4.22635 0
M  V30 2550 C 236.464 1.97328 -4.93189 0
M  V30 2551 C 235.503 1.33935 -5.97267 0
M  V30 2552 N 234.64 2.3586 -6.61298 0
M  V30 2553 H 239.48 -0.248251 -2.96964 0
M  V30 2554 H 237.017 -0.134266 -1.46486 0
M  V30 2555 H 238.975 2.15783 -3.57062 0
M  V30 2556 H 237.605 2.12509 -2.42981 0
M  V30 2557 H 236.657 0.131583 -3.80172 0
M  V30 2558 H 237.969 0.391641 -4.9726 0
M  V30 2559 H 237.123 2.70211 -5.43204 0
M  V30 2560 H 235.862 2.50994 -4.18155 0
M  V30 2561 H 234.867 0.595896 -5.46561 0
M  V30 2562 H 236.092 0.810252 -6.74249 0
M  V30 2563 H 234.038 2.88639 -5.89087 0
M  V30 2564 H 233.955 1.90403 -7.3163 0
M  V30 2565 H 235.223 3.08282 -7.15949 0
M  V30 2566 N 239.452 1.56882 -0.150215 0
M  V30 2567 C 240.385 2.12712 0.826358 0
M  V30 2568 C 241.363 1.05154 1.24022 0
M  V30 2569 O 242.547 1.33004 1.33575 0
M  V30 2570 C 239.674 2.64945 2.11002 0
M  V30 2571 C 238.72 3.8468 1.84183 0
M  V30 2572 S 239.553 5.25502 1.02995 0
M  V30 2573 C 240.709 5.81125 2.32474 0
M  V30 2574 H 240.942 2.95214 0.351598 0
M  V30 2575 H 238.475 1.54267 0.0641211 0
M  V30 2576 H 240.433 2.95689 2.84742 0
M  V30 2577 H 239.094 1.82568 2.55593 0
M  V30 2578 H 238.287 4.19482 2.79375 0
M  V30 2579 H 237.889 3.54714 1.1855 0
M  V30 2580 H 240.181 5.92753 3.281 0
M  V30 2581 H 241.124 6.78625 2.02171 0
M  V30 2582 H 241.532 5.09392 2.43269 0
M  V30 2583 N 240.93 -0.123565 1.57115 0
M  V30 2584 C 241.893 -1.13583 1.99076 0
M  V30 2585 C 242.893 -1.34564 0.880296 0
M  V30 2586 O 244.083 -1.31158 1.14644 0
M  V30 2587 C 241.215 -2.49128 2.32698 0
M  V30 2588 H 242.408 -0.775287 2.89706 0
M  V30 2589 H 239.961 -0.36771 1.51913 0
M  V30 2590 H 240.696 -2.90111 1.44934 0
M  V30 2591 H 240.481 -2.35255 3.13684 0
M  V30 2592 H 241.971 -3.2199 2.65918 0
M  V30 2593 N 242.408 -1.52605 -0.393616 0
M  V30 2594 C 243.819 -1.59417 -0.971761 0
M  V30 2595 C 244.17 -0.444173 -1.91106 0
M  V30 2596 O 243.295 0.433382 -2.12016 0
M  V30 2597 C 243.89 -2.88936 -1.76921 0
M  V30 2598 C 242.449 -2.98175 -2.29714 0
M  V30 2599 C 241.596 -2.54491 -1.10135 0
M  V30 2600 H 244.547 -1.57751 -0.173317 0
M  V30 2601 H 244.568 -2.75163 -2.62804 0
M  V30 2602 H 244.08 -3.72616 -1.08532 0
M  V30 2603 H 242.181 -2.19024 -3.01429 0
M  V30 2604 H 242.294 -4.02726 -2.59517 0
M  V30 2605 H 240.658 -2.08702 -1.45999 0
M  V30 2606 H 241.441 -3.4056 -0.432874 0
M  V30 2607 N 243.887 0.651787 -1.4349 0
M  V30 2608 C 244.85 1.74647 -1.48429 0
M  V30 2609 C 245.85 1.56513 -0.368817 0
M  V30 2610 O 247.04 1.62385 -0.630623 0
M  V30 2611 C 244.172 3.13533 -1.33827 0
M  V30 2612 H 245.365 1.71649 -2.4592 0
M  V30 2613 H 242.918 0.863573 -1.30277 0
M  V30 2614 H 243.653 3.22142 -0.37349 0
M  V30 2615 H 243.438 3.28101 -2.14691 0
M  V30 2616 H 244.928 3.93356 -1.40218 0
M  V30 2617 N 245.365 1.30045 0.890287 0
M  V30 2618 C 246.295 1.18541 2.01172 0
M  V30 2619 C 247.276 0.0773356 1.69924 0
M  V30 2620 O 248.461 0.25845 1.92473 0
M  V30 2621 C 245.591 0.870941 3.36202 0
M  V30 2622 C 244.545 1.93637 3.81692 0
M  V30 2623 C 243.871 1.475 5.13953 0
M  V30 2624 C 245.171 3.34666 4.00994 0
M  V30 2625 H 246.865 2.12359 2.11054 0
M  V30 2626 H 244.411 1.02238 1.01407 0
M  V30 2627 H 246.364 0.777141 4.14172 0
M  V30 2628 H 245.088 -0.102926 3.26438 0
M  V30 2629 H 243.747 2.01972 3.05946 0
M  V30 2630 H 243.395 0.489551 5.00612 0
M  V30 2631 H 243.095 2.1876 5.4536 0
M  V30 2632 H 244.619 1.39489 5.94454 0
M  V30 2633 H 246.033 3.2912 4.69417 0
M  V30 2634 H 244.43 4.03966 4.43769 0
M  V30 2635 H 245.5 3.76949 3.05021 0
M  V30 2636 N 246.843 -1.10192 1.12674 0
M  V30 2637 C 247.773 -2.18652 0.819362 0
M  V30 2638 C 248.754 -1.68698 -0.217915 0
M  V30 2639 O 249.939 -1.94041 -0.0785581 0
M  V30 2640 C 247.069 -3.46202 0.27594 0
M  V30 2641 C 246.023 -4.09444 1.24656 0
M  V30 2642 C 245.349 -5.31725 0.563258 0
M  V30 2643 C 246.649 -4.52863 2.60217 0
M  V30 2644 H 248.343 -2.44622 1.72628 0
M  V30 2645 H 245.889 -1.17571 0.831451 0
M  V30 2646 H 247.842 -4.21372 0.0486149 0
M  V30 2647 H 246.566 -3.1973 -0.666331 0
M  V30 2648 H 245.225 -3.36284 1.45974 0
M  V30 2649 H 244.873 -5.0153 -0.384235 0
M  V30 2650 H 244.573 -5.74991 1.21075 0
M  V30 2651 H 246.097 -6.09624 0.34503 0
M  V30 2652 H 247.511 -5.19294 2.42913 0
M  V30 2653 H 245.908 -5.06986 3.21068 0
M  V30 2654 H 246.978 -3.65656 3.18471 0
M  V30 2655 N 248.321 -0.919034 -1.28029 0
M  V30 2656 C 249.549 -0.570971 -1.98866 0
M  V30 2657 C 249.964 0.848996 -1.68634 0
M  V30 2658 O 249.321 1.56307 -0.942036 0
M  V30 2659 C 249.372 -0.776876 -3.53054 0
M  V30 2660 O 249.093 -2.14097 -3.82222 0
M  V30 2661 C 250.594 -0.436356 -4.41147 0
M  V30 2662 H 247.814 -0.217175 -0.634883 0
M  V30 2663 H 250.358 -1.23368 -1.63097 0
M  V30 2664 H 248.513 -0.161085 -3.87065 0
M  V30 2665 H 248.927 -2.18455 -4.76841 0
M  V30 2666 H 250.401 -0.63117 -5.4838 0
M  V30 2667 H 250.878 0.627686 -4.34692 0
M  V30 2668 H 251.484 -1.02991 -4.12641 0
M  V30 2669 N 249.799 1.42003 -0.683588 0
M  V30 2670 C 251.047 2.01015 -0.209101 0
M  V30 2671 C 251.368 1.54365 1.19149 0
M  V30 2672 O 250.638 0.769083 1.80172 0
M  V30 2673 H 249.218 0.743294 -0.074315 0
M  V30 2674 H 251.88 1.73798 -0.882066 0
M  V30 2675 H 250.976 3.11343 -0.2172 0
M  V30 2676 N 251.277 0.427512 1.51691 0
M  V30 2677 C 252.225 -0.403359 2.29076 0
M  V30 2678 C 253.219 -1.02962 1.34518 0
M  V30 2679 O 254.425 -0.965715 1.51901 0
M  V30 2680 H 250.8 -0.148879 0.737115 0
M  V30 2681 H 252.771 0.270295 2.97173 0
M  V30 2682 C 251.52 -1.49763 3.13794 0
M  V30 2683 H 250.843 -1.02508 3.86435 0
M  V30 2684 H 252.283 -2.05244 3.71014 0
M  V30 2685 C 250.742 -2.47536 2.28533 0
M  V30 2686 O 251.272 -3.51848 1.93819 0
M  V30 2687 N 249.478 -2.18187 1.91945 0
M  V30 2688 H 249.025 -1.33389 2.20375 0
M  V30 2689 H 248.983 -2.83848 1.35195 0
M  V30 2690 N 252.755 -1.56801 0.158532 0
M  V30 2691 C 253.983 -2.00859 -0.496303 0
M  V30 2692 C 254.398 -1.03871 -1.57659 0
M  V30 2693 O 253.755 -0.0375165 -1.82461 0
M  V30 2694 C 253.806 -3.4479 -1.08638 0
M  V30 2695 O 253.527 -4.38072 -0.0492322 0
M  V30 2696 C 255.028 -4.04185 -1.8207 0
M  V30 2697 H 252.248 -0.65864 -0.128199 0
M  V30 2698 H 254.792 -2.02885 0.256506 0
M  V30 2699 H 252.947 -3.43579 -1.78975 0
M  V30 2700 H 253.361 -5.2227 -0.483102 0
M  V30 2701 H 254.835 -5.06857 -2.18633 0
M  V30 2702 H 255.312 -3.45549 -2.71095 0
M  V30 2703 H 255.918 -4.0906 -1.16405 0
M  V30 2704 N 254.233 0.115231 -1.57178 0
M  V30 2705 C 255.482 0.820945 -1.84237 0
M  V30 2706 C 255.795 1.80866 -0.744761 0
M  V30 2707 O 257.001 2.56083 -0.901871 0
M  V30 2708 C 255.457 1.51072 -3.26658 0
M  V30 2709 C 255.065 0.563795 -4.44438 0
M  V30 2710 C 256.809 2.20134 -3.62962 0
M  V30 2711 C 254.716 1.25701 -5.77887 0
M  V30 2712 H 253.646 0.310328 -0.687177 0
M  V30 2713 H 256.297 0.0737134 -1.83352 0
M  V30 2714 H 254.679 2.30471 -3.22024 0
M  V30 2715 H 255.853 -0.197247 -4.60378 0
M  V30 2716 H 254.168 -0.0200638 -4.16395 0
M  V30 2717 H 256.765 2.72696 -4.59936 0
M  V30 2718 H 257.108 2.98107 -2.90582 0
M  V30 2719 H 257.641 1.47619 -3.69396 0
M  V30 2720 H 254.38 0.518493 -6.53446 0
M  V30 2721 H 253.9 1.98997 -5.65827 0
M  V30 2722 H 255.579 1.78915 -6.2177 0
M  V30 2723 N 255.711 1.52812 0.385517 0
M  V30 2724 C 256.957 1.68275 1.13188 0
M  V30 2725 C 257.29 0.423179 1.89533 0
M  V30 2726 O 256.565 -0.579113 1.85679 0
M  V30 2727 C 256.848 2.92001 2.1073 0
M  V30 2728 C 256.701 4.28067 1.38125 0
M  V30 2729 C 258.02 3.11283 3.11113 0
M  V30 2730 H 255.139 0.612352 0.410115 0
M  V30 2731 H 257.781 1.85415 0.414869 0
M  V30 2732 H 255.931 2.77519 2.71874 0
M  V30 2733 H 257.603 4.54324 0.799187 0
M  V30 2734 H 255.846 4.28388 0.683092 0
M  V30 2735 H 256.517 5.10733 2.09417 0
M  V30 2736 H 258.993 3.2482 2.6006 0
M  V30 2737 H 257.869 3.99325 3.76605 0
M  V30 2738 H 258.13 2.25656 3.80173 0
M  V30 2739 N 257.189 -0.644168 1.43834 0
M  V30 2740 C 258.438 -1.39985 1.45214 0
M  V30 2741 C 258.751 -1.95421 0.0835494 0
M  V30 2742 O 259.957 -2.71488 -0.0251748 0
M  V30 2743 C 258.413 -2.53384 2.55587 0
M  V30 2744 C 258.021 -2.04517 3.98594 0
M  V30 2745 C 259.765 -3.30685 2.66172 0
M  V30 2746 C 257.672 -3.1518 5.00416 0
M  V30 2747 H 256.602 -0.526005 0.540218 0
M  V30 2748 H 259.253 -0.694367 1.69855 0
M  V30 2749 H 257.635 -3.26446 2.24163 0
M  V30 2750 H 258.809 -1.38405 4.39523 0
M  V30 2751 H 257.124 -1.40068 3.92135 0
M  V30 2752 H 259.721 -4.13158 3.39418 0
M  V30 2753 H 260.064 -3.79312 1.71546 0
M  V30 2754 H 260.597 -2.64708 2.96942 0
M  V30 2755 H 257.336 -2.71511 5.96625 0
M  V30 2756 H 256.856 -3.79974 4.64091 0
M  V30 2757 H 258.535 -3.80166 5.23529 0
M  V30 2758 N 258.668 -1.30515 -0.883378 0
M  V30 2759 C 259.615 -1.17032 -1.98927 0
M  V30 2760 C 260.585 -0.0594241 -1.65994 0
M  V30 2761 O 261.77 -0.229895 -1.8941 0
M  V30 2762 C 258.91 -0.869777 -3.33959 0
M  V30 2763 C 258.023 -2.06271 -3.79574 0
M  V30 2764 C 257.158 -1.70011 -5.03259 0
M  V30 2765 C 256.197 -2.8579 -5.41286 0
M  V30 2766 N 255.334 -2.49816 -6.56153 0
M  V30 2767 H 260.174 -2.1164 -2.09792 0
M  V30 2768 H 257.711 -1.05296 -1.02719 0
M  V30 2769 H 259.669 -0.676138 -4.11685 0
M  V30 2770 H 258.299 0.0394332 -3.22776 0
M  V30 2771 H 257.351 -2.36755 -2.97744 0
M  V30 2772 H 258.663 -2.92971 -4.03694 0
M  V30 2773 H 257.817 -1.47032 -5.88614 0
M  V30 2774 H 256.556 -0.804829 -4.81013 0
M  V30 2775 H 255.561 -3.09434 -4.54456 0
M  V30 2776 H 256.786 -3.76008 -5.65504 0
M  V30 2777 H 254.732 -1.62795 -6.35479 0
M  V30 2778 H 254.649 -3.30048 -6.8015 0
M  V30 2779 H 255.917 -2.30197 -7.44735 0
M  V30 2780 N 260.146 1.09593 -1.13257 0
M  V30 2781 C 261.557 1.63229 -0.906274 0
M  V30 2782 C 261.908 1.8811 0.557578 0
M  V30 2783 O 261.033 1.62953 1.42391 0
M  V30 2784 C 261.628 2.96535 -1.63867 0
M  V30 2785 C 260.187 3.47003 -1.45828 0
M  V30 2786 C 259.334 2.2145 -1.66898 0
M  V30 2787 H 262.285 0.92978 -1.28611 0
M  V30 2788 H 262.306 3.64411 -1.09476 0
M  V30 2789 H 261.818 2.78394 -2.70404 0
M  V30 2790 H 259.919 3.70272 -0.415848 0
M  V30 2791 H 260.032 4.24551 -2.2202 0
M  V30 2792 H 258.396 2.30022 -1.09371 0
M  V30 2793 H 259.179 2.0583 -2.74752 0
M  V30 2794 N 261.624 0.925811 1.2754 0
M  V30 2795 C 262.849 0.580924 1.99098 0
M  V30 2796 C 263.274 -0.833555 1.68622 0
M  V30 2797 O 262.632 -1.55903 0.925422 0
M  V30 2798 C 262.68 0.811186 3.51358 0
M  V30 2799 O 261.784 -0.124129 4.12213 0
M  V30 2800 H 261.125 0.223873 0.625122 0
M  V30 2801 H 263.655 1.24455 1.62395 0
M  V30 2802 H 263.665 0.72601 4.01489 0
M  V30 2803 H 262.34 1.84227 3.72872 0
M  V30 2804 H 260.917 0.0108006 3.72898 0
M  V30 2805 N 263.102 -1.41638 0.69111 0
M  V30 2806 C 264.012 -2.34588 0.0233487 0
M  V30 2807 C 265.028 -1.55987 -0.770984 0
M  V30 2808 O 266.204 -1.88486 -0.709569 0
M  V30 2809 C 263.269 -3.34684 -0.904851 0
M  V30 2810 C 262.33 -4.29176 -0.103225 0
M  V30 2811 C 261.563 -5.2449 -0.987216 0
M  V30 2812 O 261.786 -5.2514 -2.22674 0
M  V30 2813 O 260.72 -6.00295 -0.439281 0
M  V30 2814 H 264.546 -2.93261 0.789416 0
M  V30 2815 H 262.131 -1.42417 0.45142 0
M  V30 2816 H 264.013 -3.96133 -1.43724 0
M  V30 2817 H 262.688 -2.78461 -1.65049 0
M  V30 2818 H 261.595 -3.71089 0.473655 0
M  V30 2819 H 262.928 -4.88484 0.60365 0
M  V30 2820 N 264.58 -0.43555 -1.51462 0
M  V30 2821 C 265.827 0.131514 -2.02072 0
M  V30 2822 C 266.155 1.42868 -1.31981 0
M  V30 2823 O 265.41 1.91076 -0.422883 0
M  V30 2824 C 265.709 0.39942 -3.55161 0
M  V30 2825 C 265.375 -0.81172 -4.43533 0
M  V30 2826 C 264.037 -1.14387 -4.67407 0
M  V30 2827 C 266.389 -1.61976 -4.95392 0
M  V30 2828 C 263.717 -2.28477 -5.40384 0
M  V30 2829 C 266.069 -2.75164 -5.6962 0
M  V30 2830 C 264.733 -3.08835 -5.91758 0
M  V30 2831 H 264.003 0.0481244 -0.739436 0
M  V30 2832 H 266.65 -0.58238 -1.8243 0
M  V30 2833 H 264.955 1.19519 -3.73125 0
M  V30 2834 H 266.652 0.85157 -3.91854 0
M  V30 2835 H 263.242 -0.542898 -4.25148 0
M  V30 2836 H 267.426 -1.37637 -4.76833 0
M  V30 2837 H 262.682 -2.5488 -5.55739 0
M  V30 2838 H 266.856 -3.38147 -6.08793 0
M  V30 2839 H 264.483 -3.97353 -6.48086 0
M  V30 2840 N 266.058 1.56714 -0.166846 0
M  V30 2841 C 267.286 2.0112 0.485644 0
M  V30 2842 C 267.701 1.04705 1.57106 0
M  V30 2843 O 267.058 0.0471923 1.82439 0
M  V30 2844 C 267.109 3.45361 1.06808 0
M  V30 2845 O 266.83 4.38092 0.0259995 0
M  V30 2846 C 268.331 4.05145 1.79924 0
M  V30 2847 H 265.551 0.65931 0.124704 0
M  V30 2848 H 268.095 2.02746 -0.267262 0
M  V30 2849 H 266.25 3.44524 1.7715 0
M  V30 2850 H 266.664 5.22519 0.455398 0
M  V30 2851 H 268.138 5.08009 2.15942 0
M  V30 2852 H 268.615 3.46982 2.69258 0
M  V30 2853 H 269.221 4.09672 1.14234 0
M  V30 2854 N 267.536 -0.106894 1.57237 0
M  V30 2855 C 268.947 -0.662723 1.74542 0
M  V30 2856 C 269.298 -1.7971 0.787319 0
M  V30 2857 O 268.423 -2.16368 -0.0369636 0
M  V30 2858 C 269.018 -1.20896 3.16496 0
M  V30 2859 C 267.577 -1.71096 3.35266 0
M  V30 2860 C 266.724 -0.615642 2.7038 0
M  V30 2861 H 269.675 0.119106 1.58252 0
M  V30 2862 H 269.696 -2.07847 3.18716 0
M  V30 2863 H 269.208 -0.383122 3.86204 0
M  V30 2864 H 267.309 -2.56119 2.70618 0
M  V30 2865 H 267.422 -1.81208 4.43509 0
M  V30 2866 H 265.786 -1.05222 2.31949 0
M  V30 2867 H 266.569 0.199419 3.4272 0
M  V30 2868 N 269.014 -1.53014 -0.377408 0
M  V30 2869 C 269.962 -1.7927 -1.48206 0
M  V30 2870 C 270.956 -0.661195 -1.55963 0
M  V30 2871 O 272.162 -0.843908 -1.58991 0
M  V30 2872 H 268.537 -0.567425 -0.493491 0
M  V30 2873 H 270.508 -2.71753 -1.2326 0
M  V30 2874 C 269.257 -1.98894 -2.85196 0
M  V30 2875 H 268.58 -2.85395 -2.79981 0
M  V30 2876 H 270.02 -2.21249 -3.61698 0
M  V30 2877 C 268.479 -0.764691 -3.28107 0
M  V30 2878 O 269.009 0.0523226 -4.01666 0
M  V30 2879 N 267.215 -0.591493 -2.84517 0
M  V30 2880 H 266.762 -1.25749 -2.24822 0
M  V30 2881 H 266.72 0.226253 -3.13585 0
M  V30 2882 N 270.492 0.636531 -1.44174 0
M  V30 2883 C 271.44 1.76995 -1.50915 0
M  V30 2884 C 272.434 1.65053 -0.381295 0
M  V30 2885 O 273.64 1.71197 -0.55601 0
M  V30 2886 H 270.015 0.584247 -0.473455 0
M  V30 2887 H 271.986 1.68432 -2.4632 0
M  V30 2888 C 270.735 3.15314 -1.46534 0
M  V30 2889 H 270.058 3.25149 -2.32633 0
M  V30 2890 H 271.498 3.9453 -1.55312 0
M  V30 2891 C 269.957 3.3639 -0.185305 0
M  V30 2892 O 270.487 3.94699 0.746688 0
M  V30 2893 N 268.693 2.9046 -0.0901606 0
M  V30 2894 H 268.24 2.43193 -0.849416 0
M  V30 2895 H 268.198 3.04937 0.765553 0
M  V30 2896 N 271.97 1.30982 0.876444 0
M  V30 2897 C 272.933 1.18054 1.96459 0
M  V30 2898 C 273.933 0.109399 1.60427 0
M  V30 2899 O 275.123 0.358173 1.70478 0
M  V30 2900 C 272.255 0.810616 3.31122 0
M  V30 2901 H 273.448 2.14735 2.09354 0
M  V30 2902 H 271.001 1.145 1.06392 0
M  V30 2903 H 271.736 -0.155322 3.23928 0
M  V30 2904 H 271.521 1.58481 3.58645 0
M  V30 2905 H 273.011 0.743876 4.10921 0
M  V30 2906 N 273.449 -1.08991 1.13837 0
M  V30 2907 C 274.698 -1.80631 0.897509 0
M  V30 2908 C 275.011 -1.86872 -0.57777 0
M  V30 2909 O 276.217 -2.54866 -0.935701 0
M  V30 2910 C 274.673 -3.24517 1.55618 0
M  V30 2911 C 274.281 -3.26529 3.0673 0
M  V30 2912 C 276.025 -4.00882 1.3962 0
M  V30 2913 C 273.932 -4.64965 3.65461 0
M  V30 2914 H 272.862 -0.67691 0.332129 0
M  V30 2915 H 275.513 -1.2246 1.3666 0
M  V30 2916 H 273.895 -3.82778 1.01476 0
M  V30 2917 H 275.069 -2.78008 3.67489 0
M  V30 2918 H 273.384 -2.63656 3.22296 0
M  V30 2919 H 275.981 -5.03167 1.80906 0
M  V30 2920 H 276.324 -4.14896 0.341578 0
M  V30 2921 H 276.857 -3.49075 1.90766 0
M  V30 2922 H 273.596 -4.56153 4.70749 0
M  V30 2923 H 273.116 -5.13792 3.09481 0
M  V30 2924 H 274.795 -5.3394 3.654 0
M  V30 2925 N 274.927 -0.932562 -1.27047 0
M  V30 2926 C 275.89 -0.440064 -2.24936 0
M  V30 2927 C 276.89 0.444071 -1.54547 0
M  V30 2928 O 278.08 0.244465 -1.72476 0
M  V30 2929 C 275.212 0.36678 -3.38921 0
M  V30 2930 H 276.405 -1.305 -2.70018 0
M  V30 2931 H 273.958 -0.713707 -1.39054 0
M  V30 2932 H 274.693 1.25033 -2.99228 0
M  V30 2933 H 274.478 -0.267204 -3.91188 0
M  V30 2934 H 275.968 0.701567 -4.11665 0
M  V30 2935 N 276.405 1.4127 -0.698611 0
M  V30 2936 C 277.652 2.0118 -0.230865 0
M  V30 2937 C 277.98 1.55338 1.17049 0
M  V30 2938 O 277.235 0.756775 1.80475 0
M  V30 2939 C 277.534 3.56592 -0.240192 0
M  V30 2940 C 277.2 4.21955 -1.58948 0
M  V30 2941 C 275.862 4.39524 -1.95887 0
M  V30 2942 C 278.214 4.58576 -2.47704 0
M  V30 2943 C 275.542 4.90992 -3.2116 0
M  V30 2944 C 277.894 5.11435 -3.72313 0
M  V30 2945 C 276.558 5.27215 -4.0939 0
M  V30 2946 H 275.828 0.736169 -0.0844796 0
M  V30 2947 H 278.475 1.69124 -0.8983 0
M  V30 2948 H 276.78 3.88456 0.510797 0
M  V30 2949 H 278.477 4.00758 0.139296 0
M  V30 2950 H 275.067 4.08657 -1.29219 0
M  V30 2951 H 279.251 4.44654 -2.20445 0
M  V30 2952 H 274.507 5.01393 -3.49878 0
M  V30 2953 H 278.681 5.38752 -4.4127 0
M  V30 2954 H 276.308 5.66859 -5.06533 0
M  V30 2955 N 277.883 0.443576 1.51229 0
M  V30 2956 C 278.846 -0.353132 2.26463 0
M  V30 2957 C 279.846 -0.944338 1.3015 0
M  V30 2958 O 281.036 -0.817813 1.5381 0
M  V30 2959 C 278.168 -1.50023 3.06114 0
M  V30 2960 H 279.361 0.3063 2.98332 0
M  V30 2961 H 276.914 0.196902 1.55055 0
M  V30 2962 H 277.649 -2.19553 2.38677 0
M  V30 2963 H 277.434 -1.08241 3.76864 0
M  V30 2964 H 278.924 -2.06296 3.63087 0
M  V30 2965 N 279.361 -1.56624 0.175154 0
M  V30 2966 C 280.308 -2.18149 -0.753634 0
M  V30 2967 C 281.278 -1.12265 -1.22417 0
M  V30 2968 O 282.463 -1.40432 -1.29165 0
M  V30 2969 C 279.603 -2.82933 -1.97592 0
M  V30 2970 C 278.716 -4.03289 -1.5486 0
M  V30 2971 C 277.851 -4.55988 -2.72485 0
M  V30 2972 C 276.89 -5.68746 -2.26262 0
M  V30 2973 N 276.027 -6.15938 -3.36994 0
M  V30 2974 H 280.867 -2.9717 -0.222195 0
M  V30 2975 H 278.404 -1.46774 -0.0979422 0
M  V30 2976 H 280.362 -3.18653 -2.69288 0
M  V30 2977 H 278.992 -2.06509 -2.481 0
M  V30 2978 H 278.044 -3.73364 -0.728246 0
M  V30 2979 H 279.356 -4.849 -1.16933 0
M  V30 2980 H 278.51 -4.9391 -3.52332 0
M  V30 2981 H 277.249 -3.73443 -3.13674 0
M  V30 2982 H 276.254 -5.30372 -1.44863 0
M  V30 2983 H 277.479 -6.53095 -1.86127 0
M  V30 2984 H 275.425 -5.36321 -3.77751 0
M  V30 2985 H 275.342 -6.92548 -3.03172 0
M  V30 2986 H 276.61 -6.58511 -4.17114 0
M  V30 2987 N 280.839 0.0985539 -1.57292 0
M  V30 2988 C 282.088 0.801358 -1.85098 0
M  V30 2989 C 282.401 1.80066 -0.763902 0
M  V30 2990 O 283.607 2.55112 -0.928981 0
M  V30 2991 C 282.063 1.47599 -3.28242 0
M  V30 2992 C 281.671 0.516624 -4.45011 0
M  V30 2993 C 283.415 2.16272 -3.65276 0
M  V30 2994 C 281.322 1.19564 -5.79188 0
M  V30 2995 H 280.252 0.303022 -0.69043 0
M  V30 2996 H 282.903 0.0542623 -1.8342 0
M  V30 2997 H 281.285 2.27042 -3.2445 0
M  V30 2998 H 282.459 -0.246065 -4.60143 0
M  V30 2999 H 280.774 -0.064227 -4.1635 0
M  V30 3000 H 283.371 2.67802 -4.62803 0
M  V30 3001 H 283.714 2.95009 -2.93727 0
M  V30 3002 H 284.247 1.43693 -3.70941 0
M  V30 3003 H 280.986 0.449157 -6.53959 0
M  V30 3004 H 280.506 1.92984 -5.67906 0
M  V30 3005 H 282.185 1.7231 -6.23633 0
M  V30 3006 N 282.317 1.53212 0.369288 0
M  V30 3007 C 283.563 1.69466 1.11397 0
M  V30 3008 C 283.896 0.443257 1.89074 0
M  V30 3009 O 283.171 -0.559386 1.86282 0
M  V30 3010 C 283.454 2.9422 2.07621 0
M  V30 3011 C 283.307 4.29508 1.33577 0
M  V30 3012 C 284.626 3.14565 3.07794 0
M  V30 3013 H 281.745 0.616667 0.403597 0
M  V30 3014 H 284.387 1.85845 0.395179 0
M  V30 3015 H 282.537 2.80387 2.68916 0
M  V30 3016 H 284.209 4.55147 0.750955 0
M  V30 3017 H 282.452 4.29088 0.637618 0
M  V30 3018 H 283.123 5.12926 2.03989 0
M  V30 3019 H 285.599 3.2756 2.56601 0
M  V30 3020 H 284.475 4.03297 3.72348 0
M  V30 3021 H 284.736 2.29675 3.77759 0
M  V30 3022 N 283.795 -0.628877 1.44509 0
M  V30 3023 C 285.072 -1.38733 1.37886 0
M  V30 3024 C 285.452 -2.11065 0.0387008 0
M  V30 3025 O 284.8 -2.06476 -0.97878 0
M  V30 3026 C 285.01 -2.35188 2.57852 0
M  V30 3027 C 286.358 -2.9845 3.02014 0
M  V30 3028 O 287.382 -2.45513 2.58073 0
M  V30 3029 O 286.241 -3.94487 3.78209 0
M  V30 3030 H 283.335 -0.621015 0.54614 0
M  V30 3031 H 285.881 -0.653744 1.56602 0
M  V30 3032 H 284.653 -1.80855 3.46998 0
M  V30 3033 H 284.276 -3.1596 2.4136 0
M  V30 3034 N 285.273 -1.31445 -0.869486 0
M  V30 3035 C 286.183 -1.21097 -2.0093 0
M  V30 3036 C 287.199 -0.127584 -1.73532 0
M  V30 3037 O 288.375 -0.345477 -1.98415 0
M  V30 3038 C 285.44 -0.919378 -3.34288 0
M  V30 3039 C 284.501 -2.08971 -3.75006 0
M  V30 3040 C 283.734 -1.81194 -5.02001 0
M  V30 3041 O 283.957 -0.747296 -5.65484 0
M  V30 3042 O 282.891 -2.66883 -5.39497 0
M  V30 3043 H 286.717 -2.16883 -2.12592 0
M  V30 3044 H 284.302 -1.11189 -0.997868 0
M  V30 3045 H 286.184 -0.772625 -4.14257 0
M  V30 3046 H 284.859 0.00844772 -3.23699 0
M  V30 3047 H 283.766 -2.29187 -2.95676 0
M  V30 3048 H 285.099 -2.9998 -3.90221 0
M  V30 3049 N 286.751 1.08385 -1.14413 0
M  V30 3050 C 288 1.80153 -0.907076 0
M  V30 3051 C 288.313 1.87176 0.567851 0
M  V30 3052 O 289.519 2.55359 0.922172 0
M  V30 3053 C 287.975 3.23687 -1.57336 0
M  V30 3054 C 287.583 3.24897 -3.08457 0
M  V30 3055 C 289.327 4.00136 -1.41744 0
M  V30 3056 C 287.234 4.6302 -3.67921 0
M  V30 3057 H 286.164 0.675139 -0.335714 0
M  V30 3058 H 288.815 1.21733 -1.37307 0
M  V30 3059 H 287.197 3.82234 -1.03505 0
M  V30 3060 H 288.371 2.76055 -3.68958 0
M  V30 3061 H 286.686 2.61943 -3.2369 0
M  V30 3062 H 289.283 5.02201 -1.83572 0
M  V30 3063 H 289.626 4.14709 -0.363576 0
M  V30 3064 H 290.159 3.48058 -1.92614 0
M  V30 3065 H 286.898 4.5365 -4.73161 0
M  V30 3066 H 286.418 5.12143 -3.12201 0
M  V30 3067 H 288.097 5.31994 -3.68227 0
M  V30 3068 N 288.23 0.939286 1.26551 0
M  V30 3069 C 289.478 0.58469 1.93457 0
M  V30 3070 C 289.799 -0.878774 1.74076 0
M  V30 3071 O 289.069 -1.62421 1.09528 0
M  V30 3072 H 287.649 0.21325 0.715914 0
M  V30 3073 H 290.311 1.1942 1.54029 0
M  V30 3074 H 289.407 0.800849 3.0165 0
M  V30 3075 N 289.708 -1.40897 0.706093 0
M  V30 3076 C 290.638 -2.33418 0.0620085 0
M  V30 3077 C 291.619 -1.52385 -0.755827 0
M  V30 3078 O 292.804 -1.80886 -0.706674 0
M  V30 3079 C 289.934 -3.36293 -0.867445 0
M  V30 3080 C 288.888 -4.27716 -0.155932 0
M  V30 3081 C 288.214 -5.2105 -1.20046 0
M  V30 3082 C 289.514 -5.12944 0.984149 0
M  V30 3083 H 291.208 -2.87527 0.83477 0
M  V30 3084 H 288.754 -1.38249 0.402875 0
M  V30 3085 H 290.707 -3.99949 -1.32735 0
M  V30 3086 H 289.431 -2.80556 -1.67199 0
M  V30 3087 H 288.09 -3.65498 0.284047 0
M  V30 3088 H 287.738 -4.61624 -1.99781 0
M  V30 3089 H 287.438 -5.83056 -0.729328 0
M  V30 3090 H 288.962 -5.87584 -1.66066 0
M  V30 3091 H 290.376 -5.70109 0.604048 0
M  V30 3092 H 288.773 -5.83945 1.38304 0
M  V30 3093 H 289.843 -4.49485 1.81911 0
M  V30 3094 N 291.186 -0.45159 -1.50991 0
M  V30 3095 C 292.597 0.00818571 -1.86698 0
M  V30 3096 C 292.948 1.40661 -1.3678 0
M  V30 3097 O 292.073 2.0391 -0.724546 0
M  V30 3098 C 292.668 0.0216303 -3.38793 0
M  V30 3099 C 291.227 0.425865 -3.73983 0
M  V30 3100 C 290.374 -0.372163 -2.74791 0
M  V30 3101 H 293.325 -0.666785 -1.44013 0
M  V30 3102 H 293.346 0.828078 -3.7138 0
M  V30 3103 H 292.858 -0.996288 -3.75094 0
M  V30 3104 H 290.959 1.44886 -3.43277 0
M  V30 3105 H 291.072 0.140761 -4.78893 0
M  V30 3106 H 289.436 0.171498 -2.54122 0
M  V30 3107 H 290.219 -1.38922 -3.13935 0
M  V30 3108 N 292.664 1.56529 -0.183458 0
M  V30 3109 C 294.08 1.58664 0.172554 0
M  V30 3110 C 294.28 1.19925 1.61926 0
M  V30 3111 O 293.336 0.916534 2.35278 0
M  V30 3112 C 294.649 3.00463 -0.119262 0
M  V30 3113 C 296.197 3.12945 -0.0584396 0
M  V30 3114 C 296.672 4.56857 -0.323408 0
M  V30 3115 N 298.163 4.62403 -0.271612 0
M  V30 3116 C 298.898 5.71626 -0.450639 0
M  V30 3117 N 298.394 6.89362 -0.689384 0
M  V30 3118 N 300.187 5.60775 -0.385701 0
M  V30 3119 H 292.338 1.79994 -1.12765 0
M  V30 3120 H 294.601 0.834808 -0.449222 0
M  V30 3121 H 294.307 3.33326 -1.12192 0
M  V30 3122 H 294.181 3.72659 0.583544 0
M  V30 3123 H 296.568 2.79902 0.934805 0
M  V30 3124 H 296.649 2.4316 -0.794144 0
M  V30 3125 H 296.293 4.9061 -1.31392 0
M  V30 3126 H 296.223 5.24816 0.43305 0
M  V30 3127 H 298.714 3.77785 -0.0932256 0
M  V30 3128 H 299.027 7.68489 -0.815113 0
M  V30 3129 H 297.372 6.91196 -0.726142 0
M  V30 3130 H 300.563 4.67674 -0.199687 0
M  V30 3131 H 300.736 6.4584 -0.528646 0
M  V30 3132 N 294.142 -0.090211 1.57342 0
M  V30 3133 C 295.39 -0.791241 1.85967 0
M  V30 3134 C 295.711 -1.7903 0.772859 0
M  V30 3135 O 294.981 -1.94872 -0.200398 0
M  V30 3136 H 293.561 -0.295205 0.686195 0
M  V30 3137 H 296.223 -0.0706782 1.94772 0
M  V30 3138 H 295.319 -1.31882 2.82867 0
M  V30 3139 N 295.62 -1.53406 -0.361157 0
M  V30 3140 C 296.866 -1.70054 -1.10496 0
M  V30 3141 C 297.199 -0.453278 -1.88836 0
M  V30 3142 O 296.474 0.5495 -1.86576 0
M  V30 3143 C 296.757 -2.95317 -2.06058 0
M  V30 3144 C 296.61 -4.3021 -1.31298 0
M  V30 3145 C 297.929 -3.16193 -3.06121 0
M  V30 3146 H 295.048 -0.618799 -0.400321 0
M  V30 3147 H 297.69 -1.86052 -0.385318 0
M  V30 3148 H 295.84 -2.81809 -2.67425 0
M  V30 3149 H 297.512 -4.55538 -0.726807 0
M  V30 3150 H 295.755 -4.29421 -0.614853 0
M  V30 3151 H 296.426 -5.14 -2.01265 0
M  V30 3152 H 298.902 -3.28916 -2.5486 0
M  V30 3153 H 297.778 -4.05266 -3.70204 0
M  V30 3154 H 298.039 -2.31676 -3.76535 0
M  V30 3155 N 297.098 0.621204 -1.44841 0
M  V30 3156 C 298.345 1.38055 -1.48145 0
M  V30 3157 C 298.673 1.94143 -0.117867 0
M  V30 3158 O 297.928 1.74713 0.881694 0
M  V30 3159 C 298.227 2.55675 -2.4973 0
M  V30 3160 C 297.893 2.17817 -3.94799 0
M  V30 3161 C 296.555 2.07205 -4.34303 0
M  V30 3162 C 298.907 1.88065 -4.86087 0
M  V30 3163 C 296.235 1.65045 -5.63007 0
M  V30 3164 C 298.587 1.47394 -6.15189 0
M  V30 3165 C 297.251 1.35331 -6.53637 0
M  V30 3166 H 296.521 0.505181 -0.542101 0
M  V30 3167 H 299.168 0.703477 -1.78111 0
M  V30 3168 H 297.473 3.2866 -2.13284 0
M  V30 3169 H 299.17 3.13904 -2.4953 0
M  V30 3170 H 295.76 2.26998 -3.63552 0
M  V30 3171 H 299.944 1.95168 -4.56315 0
M  V30 3172 H 295.2 1.54317 -5.91605 0
M  V30 3173 H 299.374 1.23415 -6.85377 0
M  V30 3174 H 297.001 1.02435 -7.53267 0
M  V30 3175 N 298.576 1.31904 0.862503 0
M  V30 3176 C 299.524 1.20125 1.9918 0
M  V30 3177 C 300.518 0.107824 1.69056 0
M  V30 3178 O 301.724 0.270223 1.7796 0
M  V30 3179 H 298.099 0.372148 0.65346 0
M  V30 3180 H 300.07 2.15652 2.06244 0
M  V30 3181 C 298.819 0.933099 3.34946 0
M  V30 3182 H 298.142 1.76664 3.5865 0
M  V30 3183 H 299.582 0.890892 4.14535 0
M  V30 3184 C 298.041 -0.364172 3.34926 0
M  V30 3185 O 298.571 -1.37858 3.77304 0
M  V30 3186 N 296.777 -0.383362 2.8806 0
M  V30 3187 H 296.324 0.442651 2.53768 0
M  V30 3188 H 296.282 -1.25123 2.8843 0
M  V30 3189 N 300.054 -1.07777 1.14986 0
M  V30 3190 C 300.984 -2.16865 0.865557 0
M  V30 3191 C 301.965 -1.69123 -0.182083 0
M  V30 3192 O 303.15 -1.94164 -0.0373815 0
M  V30 3193 C 300.28 -3.45539 0.349313 0
M  V30 3194 C 299.234 -4.06708 1.33313 0
M  V30 3195 C 298.56 -5.30411 0.675918 0
M  V30 3196 C 299.86 -4.47241 2.69764 0
M  V30 3197 H 301.554 -2.40905 1.77778 0
M  V30 3198 H 299.1 -1.15781 0.856203 0
M  V30 3199 H 301.053 -4.21174 0.137983 0
M  V30 3200 H 299.777 -3.21072 -0.598362 0
M  V30 3201 H 298.436 -3.33112 1.53075 0
M  V30 3202 H 298.084 -5.02232 -0.277767 0
M  V30 3203 H 297.784 -5.72293 1.33244 0
M  V30 3204 H 299.308 -6.08755 0.474262 0
M  V30 3205 H 300.722 -5.14025 2.53873 0
M  V30 3206 H 299.119 -5.00062 3.3175 0
M  V30 3207 H 300.189 -3.58818 3.26156 0
M  V30 3208 N 301.532 -0.945985 -1.26051 0
M  V30 3209 C 302.778 -0.597002 -1.93814 0
M  V30 3210 C 303.111 0.862484 -1.73997 0
M  V30 3211 O 302.386 1.61769 -1.07986 0
M  V30 3212 C 302.669 -0.945937 -3.47454 0
M  V30 3213 C 302.522 -2.46052 -3.76535 0
M  V30 3214 C 303.841 -0.464785 -4.37639 0
M  V30 3215 H 300.96 -0.218366 -0.703907 0
M  V30 3216 H 303.602 -1.18107 -1.48831 0
M  V30 3217 H 301.752 -0.448902 -3.85898 0
M  V30 3218 H 303.424 -3.03065 -3.47778 0
M  V30 3219 H 301.667 -2.90194 -3.22444 0
M  V30 3220 H 302.338 -2.65517 -4.83947 0
M  V30 3221 H 304.814 -0.891016 -4.06448 0
M  V30 3222 H 303.69 -0.737712 -5.4392 0
M  V30 3223 H 303.951 0.635274 -4.37512 0
M  V30 3224 N 303.011 1.40521 -0.713556 0
M  V30 3225 C 303.941 2.33381 -0.0743864 0
M  V30 3226 C 304.922 1.52784 0.747735 0
M  V30 3227 O 306.107 1.81258 0.697071 0
M  V30 3228 C 303.237 3.36748 0.849598 0
M  V30 3229 C 302.191 4.27793 0.133247 0
M  V30 3230 C 301.517 5.21679 1.17281 0
M  V30 3231 C 302.817 5.12415 -1.01134 0
M  V30 3232 H 304.511 2.87081 -0.850007 0
M  V30 3233 H 302.057 1.38034 -0.410201 0
M  V30 3234 H 304.01 4.00648 1.30612 0
M  V30 3235 H 302.734 2.81439 1.65709 0
M  V30 3236 H 301.393 3.65342 -0.303426 0
M  V30 3237 H 301.041 4.62677 1.9733 0
M  V30 3238 H 300.741 5.83435 0.698397 0
M  V30 3239 H 302.265 5.88456 1.62947 0
M  V30 3240 H 303.679 5.69781 -0.634274 0
M  V30 3241 H 302.076 5.83203 -1.41399 0
M  V30 3242 H 303.146 4.48514 -1.84292 0
M  V30 3243 N 304.489 0.459591 1.5075 0
M  V30 3244 C 305.737 -0.0991532 2.01857 0
M  V30 3245 C 306.058 -1.41247 1.34441 0
M  V30 3246 O 305.328 -1.89775 0.486022 0
M  V30 3247 H 303.908 -0.039633 0.745948 0
M  V30 3248 H 306.57 0.607387 1.85194 0
M  V30 3249 H 305.666 -0.258998 3.11023 0
M  V30 3250 N 305.967 -1.56429 0.191757 0
M  V30 3251 C 307.383 -1.58754 -0.164137 0
M  V30 3252 C 307.583 -1.20782 -1.61288 0
M  V30 3253 O 306.639 -0.928999 -2.34789 0
M  V30 3254 C 307.952 -3.00396 0.135195 0
M  V30 3255 C 309.5 -3.1291 0.0750351 0
M  V30 3256 C 309.975 -4.56679 0.347632 0
M  V30 3257 N 311.466 -4.62252 0.296131 0
M  V30 3258 C 312.201 -5.71379 0.480948 0
M  V30 3259 N 311.697 -6.88986 0.725933 0
M  V30 3260 N 313.49 -5.60563 0.415435 0
M  V30 3261 H 305.641 -1.79393 1.13718 0
M  V30 3262 H 307.904 -0.832414 0.453643 0
M  V30 3263 H 307.61 -3.32726 1.13958 0
M  V30 3264 H 307.484 -3.72963 -0.563773 0
M  V30 3265 H 309.871 -2.80394 -0.919948 0
M  V30 3266 H 309.952 -2.42736 0.807029 0
M  V30 3267 H 309.596 -4.89907 1.33992 0
M  V30 3268 H 309.526 -5.25039 -0.405212 0
M  V30 3269 H 312.017 -3.7773 0.113259 0
M  V30 3270 H 312.33 -7.68046 0.855857 0
M  V30 3271 H 310.675 -6.90801 0.762788 0
M  V30 3272 H 313.866 -4.67561 0.224486 0
M  V30 3273 H 314.039 -6.45551 0.562889 0
M  V30 3274 N 307.445 0.0818655 -1.57387 0
M  V30 3275 C 308.693 0.781368 -1.86384 0
M  V30 3276 C 309.014 1.78618 -0.782342 0
M  V30 3277 O 308.284 1.94976 0.190061 0
M  V30 3278 H 306.864 0.291562 -0.687751 0
M  V30 3279 H 309.526 0.060348 -1.94807 0
M  V30 3280 H 308.622 1.3038 -2.83562 0
M  V30 3281 N 308.923 1.53595 0.353017 0
M  V30 3282 C 309.833 1.83897 1.45667 0
M  V30 3283 C 310.849 0.728334 1.58023 0
M  V30 3284 O 312.025 1.01968 1.73679 0
M  V30 3285 C 309.09 2.03383 2.80778 0
M  V30 3286 C 308.151 3.27262 2.77845 0
M  V30 3287 C 307.384 3.45809 4.06512 0
M  V30 3288 O 307.607 2.68387 5.03314 0
M  V30 3289 O 306.541 4.39207 4.11559 0
M  V30 3290 H 310.367 2.77686 1.2298 0
M  V30 3291 H 307.952 1.39132 0.544308 0
M  V30 3292 H 309.834 2.17698 3.60812 0
M  V30 3293 H 308.509 1.12783 3.03417 0
M  V30 3294 H 307.416 3.18359 1.96465 0
M  V30 3295 H 308.749 4.17824 2.60161 0
M  V30 3296 N 310.401 -0.613514 1.45168 0
M  V30 3297 C 311.629 -1.39946 1.5239 0
M  V30 3298 C 312.044 -1.88167 0.154531 0
M  V30 3299 O 311.401 -1.61872 -0.842843 0
M  V30 3300 C 311.452 -2.60795 2.50337 0
M  V30 3301 O 311.173 -2.1458 3.81952 0
M  V30 3302 C 312.674 -3.53723 2.67198 0
M  V30 3303 H 309.894 -0.428593 0.516284 0
M  V30 3304 H 312.438 -0.748753 1.903 0
M  V30 3305 H 310.593 -3.21919 2.15515 0
M  V30 3306 H 311.007 -2.93055 4.34993 0
M  V30 3307 H 312.481 -4.35079 3.39721 0
M  V30 3308 H 312.958 -4.0368 1.73029 0
M  V30 3309 H 313.564 -2.98456 3.02992 0
M  V30 3310 N 311.879 -1.3236 -0.855495 0
M  V30 3311 C 313.125 -1.23054 -1.612 0
M  V30 3312 C 313.458 0.207404 -1.93089 0
M  V30 3313 O 312.733 1.14432 -1.57275 0
M  V30 3314 C 313.016 -2.08937 -2.93287 0
M  V30 3315 C 312.869 -3.61105 -2.68185 0
M  V30 3316 C 314.188 -1.94986 -3.94549 0
M  V30 3317 H 311.307 -0.448364 -0.584926 0
M  V30 3318 H 313.949 -1.62297 -0.987917 0
M  V30 3319 H 312.099 -1.75599 -3.46551 0
M  V30 3320 H 313.771 -4.04652 -2.21483 0
M  V30 3321 H 312.014 -3.83813 -2.02164 0
M  V30 3322 H 312.685 -4.16522 -3.62234 0
M  V30 3323 H 315.161 -2.24189 -3.5054 0
M  V30 3324 H 314.037 -2.57356 -4.84829 0
M  V30 3325 H 314.298 -0.917263 -4.3248 0
M  V30 3326 N 313.357 1.07166 -1.15556 0
M  V30 3327 C 314.605 1.79443 -0.929764 0
M  V30 3328 C 314.926 1.87246 0.544414 0
M  V30 3329 O 314.196 1.37473 1.39564 0
M  V30 3330 H 312.776 0.664625 -0.341003 0
M  V30 3331 H 315.438 1.29499 -1.45657 0
M  V30 3332 H 314.534 2.81832 -1.34079 0
M  V30 3333 N 314.835 0.952656 1.25548 0
M  V30 3334 C 315.767 0.428609 2.25157 0
M  V30 3335 C 316.78 -0.454428 1.56329 0
M  V30 3336 O 317.969 -0.263023 1.76552 0
M  V30 3337 C 315.069 -0.401972 3.36508 0
M  V30 3338 C 314.242 0.467601 4.34893 0
M  V30 3339 C 313.301 -0.30445 5.25319 0
M  V30 3340 O 312.327 0.296473 5.68427 0
M  V30 3341 N 313.529 -1.59805 5.5807 0
M  V30 3342 H 316.294 1.28497 2.70756 0
M  V30 3343 H 313.855 0.822798 1.39433 0
M  V30 3344 H 315.847 -0.926134 3.9396 0
M  V30 3345 H 314.417 -1.15918 2.90313 0
M  V30 3346 H 313.637 1.17288 3.76347 0
M  V30 3347 H 314.925 1.06119 4.97611 0
M  V30 3348 H 314.323 -2.10823 5.24948 0
M  V30 3349 H 312.88 -2.06822 6.18116 0
M  V30 3350 N 316.313 -1.40141 0.720998 0
M  V30 3351 C 317.223 -2.34486 0.0731031 0
M  V30 3352 C 318.239 -1.57587 -0.737723 0
M  V30 3353 O 319.415 -1.89949 -0.669429 0
M  V30 3354 C 316.48 -3.36528 -0.833656 0
M  V30 3355 C 315.541 -4.29298 -0.0121673 0
M  V30 3356 C 314.774 -5.26466 -0.875742 0
M  V30 3357 O 314.997 -5.29745 -2.11485 0
M  V30 3358 O 313.931 -6.01092 -0.31185 0
M  V30 3359 H 317.757 -2.9152 0.851444 0
M  V30 3360 H 315.342 -1.41427 0.481527 0
M  V30 3361 H 317.224 -3.99093 -1.35289 0
M  V30 3362 H 315.899 -2.81899 -1.59105 0
M  V30 3363 H 314.806 -3.70001 0.552262 0
M  V30 3364 H 316.139 -4.87094 0.707129 0
M  V30 3365 N 317.792 -0.46758 -1.50504 0
M  V30 3366 C 318.722 0.318381 -2.31319 0
M  V30 3367 C 319.703 0.993564 -1.38066 0
M  V30 3368 O 320.888 0.991411 -1.66987 0
M  V30 3369 C 318.018 1.40275 -3.17711 0
M  V30 3370 C 316.972 0.849373 -4.19487 0
M  V30 3371 C 316.298 2.03177 -4.94594 0
M  V30 3372 C 317.598 -0.136942 -5.2212 0
M  V30 3373 H 319.292 -0.356106 -2.97275 0
M  V30 3374 H 316.838 -0.172703 -1.42961 0
M  V30 3375 H 318.791 1.96004 -3.73042 0
M  V30 3376 H 317.515 2.10596 -2.49634 0
M  V30 3377 H 316.174 0.314076 -3.65252 0
M  V30 3378 H 315.822 2.72187 -4.22993 0
M  V30 3379 H 315.522 1.66774 -5.63436 0
M  V30 3380 H 317.046 2.59403 -5.52759 0
M  V30 3381 H 318.46 0.331056 -5.72343 0
M  V30 3382 H 316.857 -0.41507 -5.98663 0
M  V30 3383 H 317.927 -1.06398 -4.73083 0
M  V30 3384 N 319.27 1.56325 -0.20005 0
M  V30 3385 C 320.233 2.18084 0.705132 0
M  V30 3386 C 321.233 1.13666 1.1374 0
M  V30 3387 O 322.423 1.39023 1.04968 0
M  V30 3388 C 319.555 2.78689 1.96329 0
M  V30 3389 H 320.748 2.99435 0.167023 0
M  V30 3390 H 318.301 1.56221 0.0495725 0
M  V30 3391 H 319.036 2.0115 2.5438 0
M  V30 3392 H 318.821 3.55133 1.66202 0
M  V30 3393 H 320.311 3.26096 2.60866 0
M  V30 3394 N 320.748 -0.0735177 1.57428 0
M  V30 3395 C 321.996 -0.771472 1.86796 0
M  V30 3396 C 322.317 -1.78201 0.791804 0
M  V30 3397 O 321.587 -1.95074 -0.179718 0
M  V30 3398 H 320.167 -0.28791 0.689287 0
M  V30 3399 H 322.829 -0.0500161 1.94836 0
M  V30 3400 H 321.925 -1.28874 2.8425 0
M  V30 3401 N 322.226 -1.5378 -0.344866 0
M  V30 3402 C 323.174 -1.82373 -1.4437 0
M  V30 3403 C 324.168 -0.694128 -1.54526 0
M  V30 3404 O 325.374 -0.877442 -1.57165 0
M  V30 3405 H 321.749 -0.577765 -0.481344 0
M  V30 3406 H 323.72 -2.74306 -1.17468 0
M  V30 3407 C 322.469 -2.04898 -2.80913 0
M  V30 3408 H 321.792 -2.9127 -2.73865 0
M  V30 3409 H 323.232 -2.28871 -3.56923 0
M  V30 3410 C 321.691 -0.834116 -3.26411 0
M  V30 3411 O 322.221 -0.0328885 -4.01687 0
M  V30 3412 N 320.427 -0.65171 -2.83198 0
M  V30 3413 H 319.974 -1.30489 -2.22104 0
M  V30 3414 H 319.932 0.159686 -3.13994 0
M  V30 3415 N 323.704 0.605807 -1.45491 0
M  V30 3416 C 325.115 1.18777 -1.44045 0
M  V30 3417 C 325.466 1.95471 -0.169001 0
M  V30 3418 O 324.591 2.0374 0.729324 0
M  V30 3419 C 325.186 2.16064 -2.60963 0
M  V30 3420 C 323.745 2.69633 -2.62631 0
M  V30 3421 C 322.892 1.45072 -2.36325 0
M  V30 3422 H 325.843 0.395017 -1.53705 0
M  V30 3423 H 325.864 2.9913 -2.35163 0
M  V30 3424 H 325.376 1.60217 -3.53486 0
M  V30 3425 H 323.477 3.29414 -1.74119 0
M  V30 3426 H 323.59 3.13944 -3.61906 0
M  V30 3427 H 321.954 1.74089 -1.85917 0
M  V30 3428 H 322.737 0.910899 -3.30995 0
M  V30 3429 N 325.182 1.32811 0.848464 0
M  V30 3430 C 326.129 1.22265 1.95755 0
M  V30 3431 C 327.099 0.103413 1.65778 0
M  V30 3432 O 328.284 0.280033 1.88734 0
M  V30 3433 C 325.424 0.958014 3.31536 0
M  V30 3434 C 324.537 2.16262 3.73971 0
M  V30 3435 C 323.672 1.83295 4.98575 0
M  V30 3436 C 322.711 3.00041 5.33518 0
M  V30 3437 N 321.848 2.67125 6.49299 0
M  V30 3438 H 326.688 2.17128 2.04107 0
M  V30 3439 H 324.225 1.07982 0.998913 0
M  V30 3440 H 326.183 0.785052 4.09747 0
M  V30 3441 H 324.813 0.046159 3.22767 0
M  V30 3442 H 323.865 2.44565 2.91362 0
M  V30 3443 H 325.177 3.03572 3.95785 0
M  V30 3444 H 324.331 1.62586 5.84509 0
M  V30 3445 H 323.07 0.932078 4.7871 0
M  V30 3446 H 322.075 3.21374 4.46093 0
M  V30 3447 H 323.3 3.90869 5.55336 0
M  V30 3448 H 321.246 1.79586 6.3094 0
M  V30 3449 H 321.163 3.47965 6.71161 0
M  V30 3450 H 322.431 2.49861 7.3837 0
M  V30 3451 N 326.66 -1.06551 1.16123 0
M  V30 3452 C 327.906 -1.79567 0.94252 0
M  V30 3453 C 328.239 -1.86869 -0.528547 0
M  V30 3454 O 327.514 -1.35838 -1.39206 0
M  V30 3455 C 327.797 -3.24195 1.56747 0
M  V30 3456 C 327.65 -3.24989 3.10969 0
M  V30 3457 C 328.969 -4.21678 1.25998 0
M  V30 3458 H 326.088 -0.651883 0.343828 0
M  V30 3459 H 328.73 -1.2463 1.43413 0
M  V30 3460 H 326.88 -3.71107 1.14942 0
M  V30 3461 H 328.552 -2.86258 3.61737 0
M  V30 3462 H 326.795 -2.63716 3.44436 0
M  V30 3463 H 327.466 -4.27005 3.49815 0
M  V30 3464 H 329.942 -3.83196 1.62174 0
M  V30 3465 H 328.818 -5.21146 1.7233 0
M  V30 3466 H 329.079 -4.4174 0.178367 0
M  V30 3467 N 328.138 -0.959301 -1.25041 0
M  V30 3468 C 329.101 -0.487677 -2.23952 0
M  V30 3469 C 330.101 0.41119 -1.55454 0
M  V30 3470 O 331.291 0.207825 -1.72956 0
M  V30 3471 C 328.423 0.294807 -3.39623 0
M  V30 3472 H 329.616 -1.36198 -2.67189 0
M  V30 3473 H 327.169 -0.743042 -1.37508 0
M  V30 3474 H 327.904 1.18658 -3.01813 0
M  V30 3475 H 327.689 -0.35012 -3.90534 0
M  V30 3476 H 329.179 0.614089 -4.1306 0
M  V30 3477 N 329.616 1.39756 -0.72842 0
M  V30 3478 C 330.549 2.28176 -0.0330172 0
M  V30 3479 C 331.527 1.44035 0.754501 0
M  V30 3480 O 332.711 1.73434 0.738445 0
M  V30 3481 C 329.838 3.24795 0.960504 0
M  V30 3482 C 328.884 4.25693 0.262264 0
M  V30 3483 S 329.717 5.25714 -1.01906 0
M  V30 3484 C 330.873 6.25894 -0.0279717 0
M  V30 3485 H 331.106 2.86807 -0.78287 0
M  V30 3486 H 328.639 1.45382 -0.519951 0
M  V30 3487 H 330.597 3.80983 1.52846 0
M  V30 3488 H 329.258 2.65196 1.68315 0
M  V30 3489 H 328.451 4.93699 1.01379 0
M  V30 3490 H 328.053 3.7327 -0.233482 0
M  V30 3491 H 330.345 6.72585 0.814621 0
M  V30 3492 H 331.288 7.04876 -0.67499 0
M  V30 3493 H 331.696 5.63466 0.341489 0
M  V30 3494 N 331.094 0.475555 1.50254 0
M  V30 3495 C 332.34 -0.0780073 2.0265 0
M  V30 3496 C 332.673 -1.38968 1.35652 0
M  V30 3497 O 331.948 -1.8839 0.483691 0
M  V30 3498 C 332.231 -0.257161 3.59181 0
M  V30 3499 C 332.084 1.07585 4.36744 0
M  V30 3500 C 333.403 -1.00965 4.28362 0
M  V30 3501 H 330.522 -0.0268758 0.73651 0
M  V30 3502 H 333.164 0.622015 1.7953 0
M  V30 3503 H 331.314 -0.853412 3.79011 0
M  V30 3504 H 332.986 1.70902 4.28474 0
M  V30 3505 H 331.229 1.6714 4.00308 0
M  V30 3506 H 331.9 0.904088 5.44546 0
M  V30 3507 H 334.376 -0.504214 4.13034 0
M  V30 3508 H 333.252 -1.10381 5.37687 0
M  V30 3509 H 333.513 -2.04731 3.91839 0
M  V30 3510 N 332.573 -1.56217 0.208337 0
M  V30 3511 C 333.798 -2.02782 -0.435222 0
M  V30 3512 C 334.223 -1.08738 -1.53485 0
M  V30 3513 O 333.581 -0.0731855 -1.81152 0
M  V30 3514 C 333.629 -3.47687 -0.956335 0
M  V30 3515 O 332.733 -3.56773 -2.06849 0
M  V30 3516 H 332.074 -0.656403 -0.100158 0
M  V30 3517 H 334.604 -2.02033 0.3231 0
M  V30 3518 H 334.614 -3.87745 -1.26955 0
M  V30 3519 H 333.289 -4.15624 -0.15143 0
M  V30 3520 H 331.866 -3.28597 -1.76292 0
M  V30 3521 N 334.051 0.0651679 -1.57465 0
M  V30 3522 C 334.984 1.10876 -1.99453 0
M  V30 3523 C 335.962 1.37205 -0.872555 0
M  V30 3524 O 337.146 1.50468 -1.13542 0
M  V30 3525 C 334.273 2.45167 -2.3369 0
M  V30 3526 C 333.319 2.3493 -3.55964 0
M  V30 3527 S 334.152 1.73708 -5.06543 0
M  V30 3528 C 335.308 3.09563 -5.43987 0
M  V30 3529 H 335.541 0.750967 -2.87659 0
M  V30 3530 H 333.074 0.273933 -1.51951 0
M  V30 3531 H 335.032 3.22412 -2.54088 0
M  V30 3532 H 333.693 2.78105 -1.46001 0
M  V30 3533 H 332.886 3.3398 -3.77457 0
M  V30 3534 H 332.488 1.65823 -3.3523 0
M  V30 3535 H 334.78 4.05882 -5.42463 0
M  V30 3536 H 335.723 2.92843 -6.44708 0
M  V30 3537 H 336.131 3.10474 -4.71451 0
M  V30 3538 N 335.529 1.53961 0.336706 0
M  V30 3539 C 336.757 1.75483 1.09605 0
M  V30 3540 C 337.172 0.4972 1.82136 0
M  V30 3541 O 336.529 -0.53149 1.74589 0
M  V30 3542 C 336.58 2.93943 2.10428 0
M  V30 3543 O 336.301 4.14842 1.40846 0
M  V30 3544 C 337.802 3.27571 2.98684 0
M  V30 3545 H 335.022 0.586166 0.326574 0
M  V30 3546 H 337.566 2.00808 0.38683 0
M  V30 3547 H 335.721 2.70929 2.76905 0
M  V30 3548 H 336.135 4.81383 2.08255 0
M  V30 3549 H 337.609 4.13791 3.6535 0
M  V30 3550 H 338.086 2.44168 3.65074 0
M  V30 3551 H 338.692 3.52615 2.37787 0
M  V30 3552 N 337.007 -0.598083 1.45811 0
M  V30 3553 C 338.255 -1.35413 1.50026 0
M  V30 3554 C 338.576 -1.94444 0.147177 0
M  V30 3555 O 337.846 -1.77701 -0.824571 0
M  V30 3556 H 336.426 -0.502727 0.552517 0
M  V30 3557 H 339.088 -0.701606 1.81834 0
M  V30 3558 H 338.184 -2.16871 2.2444 0
M  V30 3559 N 338.485 -1.33259 -0.841409 0
M  V30 3560 C 339.71 -1.2775 -1.63385 0
M  V30 3561 C 340.135 0.149188 -1.87507 0
M  V30 3562 O 339.493 1.10498 -1.43736 0
M  V30 3563 C 339.541 -2.05571 -2.96265 0
M  V30 3564 O 338.645 -1.41257 -3.87453 0
M  V30 3565 H 337.986 -0.439627 -0.497618 0
M  V30 3566 H 340.516 -1.75782 -1.04699 0
M  V30 3567 H 340.526 -2.16241 -3.45982 0
M  V30 3568 H 339.201 -3.09309 -2.7803 0
M  V30 3569 H 337.778 -1.39217 -3.45938 0
M  V30 3570 N 339.963 1.05934 -1.16686 0
M  V30 3571 C 341.209 1.79065 -0.95203 0
M  V30 3572 C 341.542 1.87147 0.518629 0
M  V30 3573 O 340.817 1.36574 1.38484 0
M  V30 3574 C 341.1 3.23359 -1.58464 0
M  V30 3575 C 340.953 3.23336 -3.12689 0
M  V30 3576 C 342.272 4.21004 -1.28232 0
M  V30 3577 H 339.391 0.65005 -0.34728 0
M  V30 3578 H 342.033 1.23868 -1.44072 0
M  V30 3579 H 340.183 3.70493 -1.16908 0
M  V30 3580 H 341.855 2.84336 -3.6325 0
M  V30 3581 H 340.098 2.61886 -3.4583 0
M  V30 3582 H 340.769 4.25144 -3.52075 0
M  V30 3583 H 343.245 3.8233 -1.64203 0
M  V30 3584 H 342.121 5.20225 -1.75092 0
M  V30 3585 H 342.382 4.41639 -0.201791 0
M  V30 3586 N 341.441 0.965919 1.2453 0
M  V30 3587 C 342.666 0.643971 1.97149 0
M  V30 3588 C 343.091 -0.779487 1.71189 0
M  V30 3589 O 342.449 -1.5288 0.974553 0
M  V30 3590 C 342.497 0.922557 3.48599 0
M  V30 3591 O 341.601 0.00707672 4.12399 0
M  V30 3592 H 340.942 0.243647 0.617683 0
M  V30 3593 H 343.472 1.29558 1.58353 0
M  V30 3594 H 343.482 0.853373 3.98976 0
M  V30 3595 H 342.157 1.95996 3.66822 0
M  V30 3596 H 340.734 0.12943 3.72675 0
M  V30 3597 N 342.919 -1.39368 0.735821 0
M  V30 3598 C 343.882 -2.2896 0.104874 0
M  V30 3599 C 344.882 -1.46347 -0.666274 0
M  V30 3600 O 346.072 -1.67014 -0.49517 0
M  V30 3601 C 343.204 -3.29857 -0.860656 0
M  V30 3602 H 344.397 -2.86259 0.894205 0
M  V30 3603 H 341.95 -1.48029 0.501704 0
M  V30 3604 H 342.685 -2.77615 -1.67631 0
M  V30 3605 H 342.47 -3.9087 -0.310327 0
M  V30 3606 H 343.96 -3.96893 -1.29867 0
M  V30 3607 N 344.397 -0.483516 -1.5 0
M  V30 3608 C 345.645 0.067027 -2.01989 0
M  V30 3609 C 345.966 1.3909 -1.36671 0
M  V30 3610 O 345.236 1.88978 -0.516152 0
M  V30 3611 H 343.816 0.0277606 -0.746484 0
M  V30 3612 H 346.478 -0.636773 -1.84204 0
M  V30 3613 H 345.574 0.209484 -3.11396 0
M  V30 3614 N 345.875 1.56104 -0.216619 0
M  V30 3615 C 346.785 2.23694 0.706982 0
M  V30 3616 C 347.801 1.24295 1.21765 0
M  V30 3617 O 348.977 1.57094 1.2603 0
M  V30 3618 C 346.042 2.8998 1.90033 0
M  V30 3619 C 345.103 4.04708 1.43213 0
M  V30 3620 C 344.336 4.67824 2.56859 0
M  V30 3621 O 344.559 4.29913 3.74874 0
M  V30 3622 O 343.493 5.56905 2.28343 0
M  V30 3623 H 347.319 3.03272 0.161235 0
M  V30 3624 H 344.904 1.49394 0.0136177 0
M  V30 3625 H 346.786 3.31837 2.59735 0
M  V30 3626 H 345.461 2.13365 2.43428 0
M  V30 3627 H 344.368 3.6743 0.70327 0
M  V30 3628 H 345.701 4.83051 0.944615 0
M  V30 3629 N 347.353 -0.0568162 1.57498 0
M  V30 3630 C 348.3 -1.06591 2.04712 0
M  V30 3631 C 349.27 -1.3758 0.930644 0
M  V30 3632 O 350.455 -1.48392 1.19935 0
M  V30 3633 C 347.595 -2.3701 2.50839 0
M  V30 3634 C 346.708 -2.12421 3.76167 0
M  V30 3635 C 345.843 -3.36511 4.11015 0
M  V30 3636 C 344.882 -3.07353 5.2934 0
M  V30 3637 N 344.019 -4.23816 5.59754 0
M  V30 3638 H 348.859 -0.65631 2.90683 0
M  V30 3639 H 346.396 -0.312481 1.43743 0
M  V30 3640 H 348.354 -3.13175 2.7564 0
M  V30 3641 H 346.984 -2.75744 1.67825 0
M  V30 3642 H 346.036 -1.2688 3.58616 0
M  V30 3643 H 347.348 -1.86894 4.62463 0
M  V30 3644 H 346.502 -4.21062 4.36797 0
M  V30 3645 H 345.241 -3.65128 3.23315 0
M  V30 3646 H 344.246 -2.212 5.03339 0
M  V30 3647 H 345.471 -2.80043 6.1867 0
M  V30 3648 H 343.417 -4.52436 4.75014 0
M  V30 3649 H 343.334 -4.01614 6.40501 0
M  V30 3650 H 344.602 -5.0932 5.90096 0
M  V30 3651 N 348.832 -1.54138 -0.328536 0
M  V30 3652 C 350.081 -1.71318 -1.06456 0
M  V30 3653 C 350.394 -0.491109 -1.89334 0
M  V30 3654 O 351.6 -0.54416 -2.65991 0
M  V30 3655 C 350.056 -3.03 -1.94214 0
M  V30 3656 C 349.664 -4.32595 -1.16471 0
M  V30 3657 C 351.408 -3.29544 -2.67583 0
M  V30 3658 C 349.315 -5.55341 -2.03347 0
M  V30 3659 H 348.245 -0.638429 -0.401155 0
M  V30 3660 H 350.896 -1.80633 -0.323106 0
M  V30 3661 H 349.278 -2.87579 -2.72239 0
M  V30 3662 H 350.452 -4.58766 -0.432525 0
M  V30 3663 H 348.767 -4.12777 -0.548063 0
M  V30 3664 H 351.364 -4.18444 -3.3288 0
M  V30 3665 H 351.707 -2.47206 -3.34955 0
M  V30 3666 H 352.24 -3.45809 -1.96623 0
M  V30 3667 H 348.979 -6.40268 -1.40491 0
M  V30 3668 H 348.499 -5.33397 -2.74313 0
M  V30 3669 H 350.178 -5.91557 -2.62049 0
M  V30 3670 N 350.31 0.590341 -1.46126 0
M  V30 3671 C 351.243 1.71434 -1.50617 0
M  V30 3672 C 352.221 1.58543 -0.360948 0
M  V30 3673 O 353.405 1.79865 -0.563985 0
M  V30 3674 C 350.532 3.09422 -1.37753 0
M  V30 3675 C 349.578 3.40854 -2.5636 0
M  V30 3676 S 350.411 3.33773 -4.18755 0
M  V30 3677 C 351.567 4.74312 -4.08386 0
M  V30 3678 H 351.8 1.67364 -2.45717 0
M  V30 3679 H 349.333 0.76845 -1.33919 0
M  V30 3680 H 351.291 3.8903 -1.31018 0
M  V30 3681 H 349.952 3.10989 -0.440949 0
M  V30 3682 H 349.145 4.41368 -2.43332 0
M  V30 3683 H 348.747 2.68798 -2.60046 0
M  V30 3684 H 351.039 5.64522 -3.74595 0
M  V30 3685 H 351.982 4.92397 -5.08872 0
M  V30 3686 H 352.39 4.50803 -3.3976 0
M  V30 3687 N 351.788 1.33704 0.83433 0
M  V30 3688 C 352.751 1.24244 1.92603 0
M  V30 3689 C 353.751 0.160383 1.59998 0
M  V30 3690 O 354.941 0.412228 1.69252 0
M  V30 3691 C 352.073 0.91555 3.28376 0
M  V30 3692 H 353.266 2.21287 2.02416 0
M  V30 3693 H 350.819 1.17827 1.02696 0
M  V30 3694 H 351.554 -0.0521886 3.24258 0
M  V30 3695 H 351.339 1.69811 3.53422 0
M  V30 3696 H 352.829 0.874231 4.08347 0
M  V30 3697 N 353.266 -1.05314 1.17247 0
M  V30 3698 C 354.494 -1.81971 0.984593 0
M  V30 3699 C 354.909 -1.82929 -0.467166 0
M  V30 3700 O 354.266 -1.25564 -1.32438 0
M  V30 3701 C 354.317 -3.28143 1.51672 0
M  V30 3702 O 354.038 -3.27347 2.91163 0
M  V30 3703 C 355.539 -4.21493 1.37326 0
M  V30 3704 H 352.759 -0.573455 0.348411 0
M  V30 3705 H 355.303 -1.32808 1.55506 0
M  V30 3706 H 353.458 -3.74582 0.988302 0
M  V30 3707 H 353.872 -4.18824 3.15732 0
M  V30 3708 H 355.346 -5.22043 1.79375 0
M  V30 3709 H 355.823 -4.38031 0.320169 0
M  V30 3710 H 356.429 -3.80909 1.89178 0
M  V30 3711 N 354.744 -0.972509 -1.24016 0
M  V30 3712 C 355.707 -0.511403 -2.23422 0
M  V30 3713 C 356.707 0.394679 -1.55881 0
M  V30 3714 O 357.897 0.189469 -1.73167 0
M  V30 3715 C 355.029 0.258769 -3.39916 0
M  V30 3716 H 356.222 -1.39024 -2.6573 0
M  V30 3717 H 353.775 -0.757585 -1.36713 0
M  V30 3718 H 354.51 1.1545 -3.03054 0
M  V30 3719 H 354.295 -0.391522 -3.9014 0
M  V30 3720 H 355.785 0.570244 -4.13688 0
M  V30 3721 N 356.222 1.38976 -0.743202 0
M  V30 3722 C 357.185 2.28901 -0.117014 0
M  V30 3723 C 358.185 1.46698 0.658503 0
M  V30 3724 O 359.375 1.67274 0.486305 0
M  V30 3725 C 356.507 3.30309 0.84315 0
M  V30 3726 H 357.7 2.8578 -0.909373 0
M  V30 3727 H 355.253 1.47761 -0.509547 0
M  V30 3728 H 355.988 2.785 1.66157 0
M  V30 3729 H 355.773 3.91029 0.289594 0
M  V30 3730 H 357.263 3.97577 1.2776 0
M  V30 3731 N 357.7 0.491464 1.49741 0
M  V30 3732 C 358.647 -0.292027 2.28945 0
M  V30 3733 C 359.617 -0.968973 1.34908 0
M  V30 3734 O 360.802 -0.97748 1.6386 0
M  V30 3735 C 357.942 -1.35617 3.17336 0
M  V30 3736 C 357.055 -0.691957 4.26422 0
M  V30 3737 C 356.19 -1.73572 5.02042 0
M  V30 3738 C 355.229 -1.05286 6.02977 0
M  V30 3739 N 354.366 -2.0404 6.71798 0
M  V30 3740 H 359.206 0.389654 2.95442 0
M  V30 3741 H 356.743 0.204003 1.45679 0
M  V30 3742 H 358.701 -1.98502 3.66951 0
M  V30 3743 H 357.331 -2.00674 2.52844 0
M  V30 3744 H 356.383 0.0499523 3.80367 0
M  V30 3745 H 357.695 -0.153946 4.98562 0
M  V30 3746 H 356.849 -2.43987 5.55478 0
M  V30 3747 H 355.588 -2.30757 4.29654 0
M  V30 3748 H 354.593 -0.334446 5.48782 0
M  V30 3749 H 355.818 -0.487636 6.77347 0
M  V30 3750 H 353.764 -2.60205 6.02187 0
M  V30 3751 H 353.681 -1.55279 7.39881 0
M  V30 3752 H 354.949 -2.73772 7.29842 0
M  V30 3753 N 359.178 -1.55987 0.224894 0
M  V30 3754 C 360.126 -2.21808 -0.700283 0
M  V30 3755 C 361.12 -1.19854 -1.19714 0
M  V30 3756 O 362.326 -1.37925 -1.15658 0
M  V30 3757 H 358.701 -0.711226 -0.244258 0
M  V30 3758 H 360.672 -2.98152 -0.121749 0
M  V30 3759 C 359.421 -2.91444 -1.8962 0
M  V30 3760 H 358.744 -3.69655 -1.52299 0
M  V30 3761 H 360.184 -3.40894 -2.52125 0
M  V30 3762 C 358.643 -1.94098 -2.75368 0
M  V30 3763 O 359.173 -1.46004 -3.74227 0
M  V30 3764 N 357.379 -1.61675 -2.41474 0
M  V30 3765 H 356.926 -2.00979 -1.61137 0
M  V30 3766 H 356.884 -0.968036 -2.99126 0
M  V30 3767 N 360.656 0.0484629 -1.57525 0
M  V30 3768 C 361.905 0.742065 -1.87553 0
M  V30 3769 C 362.218 1.77545 -0.820802 0
M  V30 3770 O 363.424 2.52027 -1.00967 0
M  V30 3771 C 361.88 1.37081 -3.32771 0
M  V30 3772 C 361.488 0.374786 -4.4643 0
M  V30 3773 C 363.232 2.04542 -3.71972 0
M  V30 3774 C 361.139 1.01077 -5.82698 0
M  V30 3775 H 360.069 0.280903 -0.699721 0
M  V30 3776 H 362.72 -0.00411877 -1.835 0
M  V30 3777 H 361.102 2.16605 -3.31509 0
M  V30 3778 H 362.276 -0.392331 -4.59127 0
M  V30 3779 H 360.591 -0.196653 -4.15935 0
M  V30 3780 H 363.188 2.52943 -4.71088 0
M  V30 3781 H 363.531 2.85515 -3.02964 0
M  V30 3782 H 364.064 1.31819 -3.75325 0
M  V30 3783 H 360.803 0.240878 -6.55057 0
M  V30 3784 H 360.323 1.74819 -5.73758 0
M  V30 3785 H 362.002 1.52383 -6.28799 0
M  V30 3786 N 362.134 1.5431 0.320358 0
M  V30 3787 C 363.362 1.76636 1.07738 0
M  V30 3788 C 363.777 0.51649 1.81598 0
M  V30 3789 O 363.134 -0.512942 1.75143 0
M  V30 3790 C 363.185 2.96158 2.07299 0
M  V30 3791 O 362.906 4.16313 1.36438 0
M  V30 3792 C 364.407 3.3072 2.95193 0
M  V30 3793 H 361.627 0.589597 0.320339 0
M  V30 3794 H 364.171 2.01207 0.36551 0
M  V30 3795 H 362.326 2.73851 2.74016 0
M  V30 3796 H 362.74 4.83565 2.03138 0
M  V30 3797 H 364.214 4.17643 3.60941 0
M  V30 3798 H 364.691 2.48026 3.62463 0
M  V30 3799 H 365.297 3.55117 2.34034 0
M  V30 3800 N 363.613 -0.582584 1.46437 0
M  V30 3801 C 364.56 -1.69164 1.5701 0
M  V30 3802 C 365.53 -1.60847 0.414403 0
M  V30 3803 O 366.715 -1.80058 0.631171 0
M  V30 3804 C 363.855 -3.075 1.56646 0
M  V30 3805 C 362.968 -3.2644 2.82951 0
M  V30 3806 C 362.103 -4.55026 2.7409 0
M  V30 3807 C 361.142 -4.6731 3.95333 0
M  V30 3808 N 360.279 -5.87221 3.84858 0
M  V30 3809 H 365.119 -1.59464 2.51744 0
M  V30 3810 H 362.656 -0.777186 1.24893 0
M  V30 3811 H 364.614 -3.8757 1.5442 0
M  V30 3812 H 363.244 -3.16096 0.654439 0
M  V30 3813 H 362.296 -2.39974 2.95155 0
M  V30 3814 H 363.608 -3.31385 3.72808 0
M  V30 3815 H 362.762 -5.43324 2.6997 0
M  V30 3816 H 361.501 -4.52519 1.81873 0
M  V30 3817 H 360.506 -3.77429 3.99784 0
M  V30 3818 H 361.731 -4.71595 4.88646 0
M  V30 3819 H 359.677 -5.85712 2.95427 0
M  V30 3820 H 359.594 -5.93435 4.6837 0
M  V30 3821 H 360.862 -6.7795 3.84713 0
M  V30 3822 N 365.091 -1.34144 -0.827227 0
M  V30 3823 C 366.337 -1.26446 -1.58554 0
M  V30 3824 C 366.67 0.1664 -1.93486 0
M  V30 3825 O 365.945 1.1107 -1.59667 0
M  V30 3826 C 366.228 -2.15111 -2.8879 0
M  V30 3827 C 366.081 -3.66712 -2.60465 0
M  V30 3828 C 367.4 -2.03311 -3.90324 0
M  V30 3829 H 364.519 -0.46067 -0.575284 0
M  V30 3830 H 367.161 -1.64356 -0.953269 0
M  V30 3831 H 365.311 -1.8291 -3.42748 0
M  V30 3832 H 366.983 -4.09259 -2.1285 0
M  V30 3833 H 365.226 -3.88014 -1.93978 0
M  V30 3834 H 365.897 -4.24112 -3.53317 0
M  V30 3835 H 368.373 -2.31574 -3.45706 0
M  V30 3836 H 367.249 -2.67582 -4.79261 0
M  V30 3837 H 367.51 -1.00879 -4.30437 0
M  V30 3838 N 366.569 1.04691 -1.17803 0
M  V30 3839 C 367.809 1.79352 -0.980423 0
M  V30 3840 C 368.173 1.85853 0.481958 0
M  V30 3841 O 369.374 2.56656 0.798809 0
M  V30 3842 C 367.645 3.19088 -1.6099 0
M  V30 3843 S 369.204 4.10164 -1.55918 0
M  V30 3844 H 366.022 0.617631 -0.352211 0
M  V30 3845 H 368.624 1.25575 -1.49837 0
M  V30 3846 H 367.328 3.11962 -2.66661 0
M  V30 3847 H 366.859 3.77941 -1.09197 0
M  V30 3848 H 368.874 4.92907 -0.570685 0
M  V30 3849 N 368.047 0.979072 1.23499 0
M  V30 3850 C 368.977 0.537606 2.27227 0
M  V30 3851 C 369.958 -0.428539 1.64613 0
M  V30 3852 O 371.143 -0.322191 1.91509 0
M  V30 3853 C 368.273 -0.162052 3.46922 0
M  V30 3854 C 367.227 0.721242 4.21879 0
M  V30 3855 C 366.553 -0.110555 5.34586 0
M  V30 3856 C 367.853 2.01141 4.82016 0
M  V30 3857 H 369.547 1.40462 2.64406 0
M  V30 3858 H 367.093 0.67684 1.27102 0
M  V30 3859 H 369.046 -0.482192 4.18632 0
M  V30 3860 H 367.77 -1.06351 3.08799 0
M  V30 3861 H 366.429 1.02482 3.51984 0
M  V30 3862 H 366.077 -1.0125 4.92704 0
M  V30 3863 H 365.777 0.477325 5.85658 0
M  V30 3864 H 367.301 -0.425107 6.09118 0
M  V30 3865 H 368.715 1.75612 5.45741 0
M  V30 3866 H 367.112 2.54695 5.43369 0
M  V30 3867 H 368.182 2.69909 4.02836 0
M  V30 3868 N 369.525 -1.3858 0.750561 0
M  V30 3869 C 370.435 -2.34278 0.122825 0
M  V30 3870 C 371.451 -1.59116 -0.704131 0
M  V30 3871 O 372.627 -1.91326 -0.628987 0
M  V30 3872 C 369.692 -3.38221 -0.762086 0
M  V30 3873 C 368.753 -4.29227 0.078896 0
M  V30 3874 C 367.986 -5.28205 -0.763874 0
M  V30 3875 O 368.209 -5.34112 -2.00201 0
M  V30 3876 O 367.143 -6.01618 -0.18428 0
M  V30 3877 H 370.969 -2.89649 0.913088 0
M  V30 3878 H 368.554 -1.40374 0.511417 0
M  V30 3879 H 370.436 -4.01872 -1.26793 0
M  V30 3880 H 369.111 -2.85211 -1.5309 0
M  V30 3881 H 368.018 -3.68747 0.630621 0
M  V30 3882 H 369.351 -4.85484 0.810289 0
M  V30 3883 N 371.003 -0.499398 -1.49478 0
M  V30 3884 C 371.933 0.269244 -2.31943 0
M  V30 3885 C 372.914 0.964054 -1.40143 0
M  V30 3886 O 374.099 0.955767 -1.69052 0
M  V30 3887 C 371.229 1.33504 -3.20615 0
M  V30 3888 C 370.183 0.760202 -4.21195 0
M  V30 3889 C 369.509 1.9264 -4.98792 0
M  V30 3890 C 370.809 -0.247661 -5.21712 0
M  V30 3891 H 372.503 -0.419082 -2.96452 0
M  V30 3892 H 370.049 -0.202988 -1.42562 0
M  V30 3893 H 372.002 1.88048 -3.77115 0
M  V30 3894 H 370.726 2.05253 -2.54045 0
M  V30 3895 H 369.385 0.23653 -3.65836 0
M  V30 3896 H 369.033 2.63154 -4.28671 0
M  V30 3897 H 368.733 1.54785 -5.66847 0
M  V30 3898 H 370.257 2.4762 -5.58137 0
M  V30 3899 H 371.671 0.209579 -5.72917 0
M  V30 3900 H 370.068 -0.541962 -5.97648 0
M  V30 3901 H 371.138 -1.16409 -4.7072 0
M  V30 3902 N 372.481 1.55866 -0.233164 0
M  V30 3903 C 373.729 1.9821 0.394593 0
M  V30 3904 C 374.05 1.12234 1.59463 0
M  V30 3905 O 373.32 0.201981 1.94856 0
M  V30 3906 H 371.9 0.732034 0.148778 0
M  V30 3907 H 374.562 1.92107 -0.32876 0
M  V30 3908 H 373.658 3.03845 0.713063 0
M  V30 3909 N 373.959 -0.0401083 1.57549 0
M  V30 3910 C 375.207 -0.731677 1.8839 0
M  V30 3911 C 375.528 -1.76481 0.829425 0
M  V30 3912 O 374.798 -1.95411 -0.1383 0
M  V30 3913 H 373.378 -0.273225 0.695239 0
M  V30 3914 H 376.04 -0.00867725 1.94898 0
M  V30 3915 H 375.136 -1.22816 2.86919 0
M  V30 3916 N 375.437 -1.54477 -0.31217 0
M  V30 3917 C 376.384 -1.84655 -1.38461 0
M  V30 3918 C 377.354 -0.694536 -1.50882 0
M  V30 3919 O 378.539 -0.942081 -1.6592 0
M  V30 3920 C 375.679 -2.0896 -2.74645 0
M  V30 3921 C 374.792 -3.36618 -2.70763 0
M  V30 3922 C 373.927 -3.50824 -3.98868 0
M  V30 3923 C 372.966 -4.72315 -3.89339 0
M  V30 3924 N 372.103 -4.83387 -5.09197 0
M  V30 3925 H 376.943 -2.76142 -1.12026 0
M  V30 3926 H 374.48 -1.36748 -0.542065 0
M  V30 3927 H 376.438 -2.21045 -3.53829 0
M  V30 3928 H 375.068 -1.20752 -2.99364 0
M  V30 3929 H 374.12 -3.33211 -1.83506 0
M  V30 3930 H 375.432 -4.25917 -2.59608 0
M  V30 3931 H 374.586 -3.62513 -4.86486 0
M  V30 3932 H 373.325 -2.59638 -4.12843 0
M  V30 3933 H 372.33 -4.6067 -3.00105 0
M  V30 3934 H 373.555 -5.64897 -3.76919 0
M  V30 3935 H 371.501 -3.9512 -5.23657 0
M  V30 3936 H 371.418 -5.66669 -5.00422 0
M  V30 3937 H 372.686 -4.9942 -5.98498 0
M  V30 3938 N 376.915 0.57481 -1.46744 0
M  V30 3939 C 377.878 1.66533 -1.57478 0
M  V30 3940 C 378.878 1.54338 -0.451263 0
M  V30 3941 O 380.068 1.58814 -0.715813 0
M  V30 3942 C 377.2 3.05999 -1.50259 0
M  V30 3943 H 378.393 1.58372 -2.54673 0
M  V30 3944 H 375.946 0.793301 -1.34672 0
M  V30 3945 H 376.681 3.19709 -0.543725 0
M  V30 3946 H 376.466 3.16259 -2.31781 0
M  V30 3947 H 377.956 3.8537 -1.60872 0
M  V30 3948 N 378.394 1.34581 0.820102 0
M  V30 3949 C 379.805 1.24298 1.39309 0
M  V30 3950 C 380.156 -0.130351 1.95767 0
M  V30 3951 O 379.281 -1.0308 1.90272 0
M  V30 3952 C 379.876 2.25054 2.53251 0
M  V30 3953 C 378.435 2.18552 3.0645 0
M  V30 3954 C 377.582 2.11503 1.79337 0
M  V30 3955 H 380.533 1.45906 0.624262 0
M  V30 3956 H 380.554 1.86917 3.31425 0
M  V30 3957 H 380.066 3.24996 2.1213 0
M  V30 3958 H 378.167 1.21976 3.52069 0
M  V30 3959 H 378.28 3.0993 3.65349 0
M  V30 3960 H 376.644 1.57268 2.00347 0
M  V30 3961 H 377.427 3.13284 1.40386 0
M  V30 3962 N 379.872 -1.04064 1.18357 0
M  V30 3963 C 380.835 -2.10243 0.912707 0
M  V30 3964 C 381.835 -1.60477 -0.101928 0
M  V30 3965 O 383.025 -1.73703 0.131517 0
M  V30 3966 C 380.157 -3.38893 0.369387 0
M  V30 3967 H 381.35 -2.35706 1.85426 0
M  V30 3968 H 378.903 -1.20489 0.995594 0
M  V30 3969 H 379.638 -3.19094 -0.578776 0
M  V30 3970 H 379.423 -3.76331 1.1008 0
M  V30 3971 H 380.913 -4.17128 0.198575 0
M  V30 3972 N 381.35 -0.985608 -1.22978 0
M  V30 3973 C 382.599 -0.652881 -1.90841 0
M  V30 3974 C 382.912 0.817842 -1.77681 0
M  V30 3975 O 384.118 1.26185 -2.40395 0
M  V30 3976 C 382.574 -1.11717 -3.42122 0
M  V30 3977 C 382.182 -2.6126 -3.63933 0
M  V30 3978 C 383.926 -0.85843 -4.1573 0
M  V30 3979 C 381.833 -3.0133 -5.08876 0
M  V30 3980 H 380.763 -0.240491 -0.714619 0
M  V30 3981 H 383.414 -1.1942 -1.39324 0
M  V30 3982 H 381.796 -0.504027 -3.92779 0
M  V30 3983 H 382.97 -3.27858 -3.23799 0
M  V30 3984 H 381.285 -2.84937 -3.03644 0
M  V30 3985 H 383.882 -1.13359 -5.22546 0
M  V30 3986 H 384.225 0.205461 -4.15793 0
M  V30 3987 H 384.758 -1.43341 -3.71077 0
M  V30 3988 H 381.497 -4.06864 -5.13947 0
M  V30 3989 H 381.017 -2.3943 -5.49939 0
M  V30 3990 H 382.696 -2.92224 -5.77247 0
M  V30 3991 N 382.828 1.3818 -0.7579 0
M  V30 3992 C 384.074 2.00316 -0.316453 0
M  V30 3993 C 384.407 1.60026 1.10025 0
M  V30 3994 O 383.682 0.839835 1.75434 0
M  V30 3995 C 383.965 3.57349 -0.444245 0
M  V30 3996 C 383.818 4.07591 -1.90236 0
M  V30 3997 C 385.137 4.3981 0.1598 0
M  V30 3998 H 382.256 0.727741 -0.116459 0
M  V30 3999 H 384.898 1.6406 -0.958352 0
M  V30 4000 H 383.048 3.88365 0.102233 0
M  V30 4001 H 384.72 3.87199 -2.50748 0
M  V30 4002 H 382.963 3.60297 -2.41595 0
M  V30 4003 H 383.634 5.16677 -1.94291 0
M  V30 4004 H 386.11 4.14971 -0.306314 0
M  V30 4005 H 384.986 5.48885 0.0401675 0
M  V30 4006 H 385.247 4.24102 1.24859 0
M  V30 4007 N 384.306 0.507319 1.49211 0
M  V30 4008 C 385.239 -0.314509 2.26022 0
M  V30 4009 C 386.217 -0.964849 1.30879 0
M  V30 4010 O 387.401 -0.993707 1.6018 0
M  V30 4011 C 384.528 -1.44346 3.06402 0
M  V30 4012 C 383.574 -0.90685 4.16748 0
M  V30 4013 S 384.407 0.207392 5.35098 0
M  V30 4014 C 385.563 -0.924573 6.19033 0
M  V30 4015 H 385.796 0.337416 2.95379 0
M  V30 4016 H 383.329 0.292718 1.516 0
M  V30 4017 H 385.287 -2.09029 3.53295 0
M  V30 4018 H 383.948 -2.06702 2.36502 0
M  V30 4019 H 383.141 -1.75309 4.72528 0
M  V30 4020 H 382.743 -0.33712 3.72478 0
M  V30 4021 H 385.035 -1.82839 6.52362 0
M  V30 4022 H 385.978 -0.405248 7.06939 0
M  V30 4023 H 386.386 -1.19476 5.51712 0
M  V30 4024 N 385.784 -1.5574 0.241426 0
M  V30 4025 C 387.061 -1.90704 -0.434881 0
M  V30 4026 C 387.441 -1.16145 -1.76277 0
M  V30 4027 O 386.789 -0.277152 -2.26813 0
M  V30 4028 C 386.999 -3.43657 -0.608343 0
M  V30 4029 C 388.347 -4.14806 -0.906725 0
M  V30 4030 O 389.371 -3.49366 -0.694408 0
M  V30 4031 O 388.23 -5.30548 -1.31075 0
M  V30 4032 H 385.324 -0.793592 -0.23268 0
M  V30 4033 H 387.87 -1.67288 0.285086 0
M  V30 4034 H 386.642 -3.89927 0.327505 0
M  V30 4035 H 386.265 -3.72918 -1.37906 0
M  V30 4036 N 387.262 0.0317525 -1.57568 0
M  V30 4037 C 388.539 0.758366 -1.803 0
M  V30 4038 C 388.919 1.93718 -0.838845 0
M  V30 4039 O 388.267 2.28187 0.119571 0
M  V30 4040 C 388.477 1.19392 -3.27943 0
M  V30 4041 C 389.825 1.61094 -3.92854 0
M  V30 4042 O 390.849 1.28857 -3.32076 0
M  V30 4043 O 389.708 2.20918 -4.99858 0
M  V30 4044 H 386.802 0.366514 -0.741348 0
M  V30 4045 H 389.348 0.00873765 -1.69698 0
M  V30 4046 H 388.12 0.352275 -3.89711 0
M  V30 4047 H 387.743 2.00365 -3.43424 0
M  V30 4048 N 388.74 1.54641 0.303973 0
M  V30 4049 C 389.703 1.84646 1.35789 0
M  V30 4050 C 390.703 0.7192 1.4382 0
M  V30 4051 O 391.893 0.987491 1.43507 0
M  V30 4052 C 389.025 2.02407 2.74307 0
M  V30 4053 H 390.218 2.78829 1.10429 0
M  V30 4054 H 387.771 1.46658 0.540487 0
M  V30 4055 H 388.506 1.10502 3.04893 0
M  V30 4056 H 388.291 2.84453 2.69868 0
M  V30 4057 H 389.781 2.27002 3.50514 0
M  V30 4058 N 390.218 -0.567019 1.47046 0
M  V30 4059 C 391.495 -1.3276 1.43646 0
M  V30 4060 C 391.875 -2.1071 0.128186 0
M  V30 4061 O 391.223 -2.10441 -0.890326 0
M  V30 4062 C 391.433 -2.2404 2.67595 0
M  V30 4063 C 392.781 -2.85372 3.14401 0
M  V30 4064 O 393.805 -2.34346 2.68254 0
M  V30 4065 O 392.664 -3.78091 3.946 0
M  V30 4066 H 389.758 -0.597293 0.571988 0
M  V30 4067 H 392.304 -0.586735 1.59234 0
M  V30 4068 H 391.076 -1.65975 3.54356 0
M  V30 4069 H 390.699 -3.05439 2.54544 0
M  V30 4070 N 391.696 -1.35014 -0.812953 0
M  V30 4071 C 392.626 -1.30069 -1.93919 0
M  V30 4072 C 393.607 -0.176275 -1.69184 0
M  V30 4073 O 394.792 -0.370227 -1.90638 0
M  V30 4074 C 391.922 -1.06547 -3.30552 0
M  V30 4075 C 390.876 -2.15561 -3.69753 0
M  V30 4076 C 390.202 -1.77214 -5.04479 0
M  V30 4077 C 391.502 -3.57476 -3.808 0
M  V30 4078 H 393.196 -2.24303 -1.98314 0
M  V30 4079 H 390.742 -1.07977 -0.952736 0
M  V30 4080 H 392.695 -1.01729 -4.08937 0
M  V30 4081 H 391.419 -0.0875719 -3.26483 0
M  V30 4082 H 390.078 -2.19466 -2.9365 0
M  V30 4083 H 389.726 -0.780589 -4.96906 0
M  V30 4084 H 389.426 -2.50184 -5.31678 0
M  V30 4085 H 390.95 -1.7391 -5.8531 0
M  V30 4086 H 392.364 -3.55929 -4.4943 0
M  V30 4087 H 390.761 -4.29152 -4.19462 0
M  V30 4088 H 391.831 -3.94091 -2.82525 0
M  V30 4089 N 393.175 1.03435 -1.18907 0
M  V30 4090 C 394.085 2.15075 -0.937015 0
M  V30 4091 C 395.101 1.73706 0.101085 0
M  V30 4092 O 396.277 2.01232 -0.0822948 0
M  V30 4093 C 393.342 3.43458 -0.473057 0
M  V30 4094 C 392.403 3.99172 -1.57989 0
M  V30 4095 C 391.636 5.21427 -1.13797 0
M  V30 4096 O 391.859 5.704 0.000725941 0
M  V30 4097 O 390.793 5.69837 -1.9383 0
M  V30 4098 H 394.619 2.39198 -1.87131 0
M  V30 4099 H 392.204 1.13506 -0.971427 0
M  V30 4100 H 394.086 4.20811 -0.222702 0
M  V30 4101 H 392.761 3.20793 0.432869 0
M  V30 4102 H 391.668 3.23178 -1.88433 0
M  V30 4103 H 393.001 4.2619 -2.46217 0
M  V30 4104 N 394.653 0.992116 1.22453 0
M  V30 4105 C 395.583 0.561677 2.26644 0
M  V30 4106 C 396.564 -0.411055 1.65059 0
M  V30 4107 O 397.749 -0.301861 1.9184 0
M  V30 4108 C 394.879 -0.125247 3.47074 0
M  V30 4109 C 393.833 0.765948 4.21091 0
M  V30 4110 C 393.159 -0.0538484 5.34673 0
M  V30 4111 C 394.459 2.06242 4.79856 0
M  V30 4112 H 396.153 1.43259 2.62902 0
M  V30 4113 H 393.699 0.690283 1.26377 0
M  V30 4114 H 395.652 -0.437764 4.1912 0
M  V30 4115 H 394.376 -1.03069 3.0991 0
M  V30 4116 H 393.035 1.0621 3.50878 0
M  V30 4117 H 392.683 -0.960188 4.9375 0
M  V30 4118 H 392.383 0.539415 5.85119 0
M  V30 4119 H 393.907 -0.360477 6.09535 0
M  V30 4120 H 395.321 1.8139 5.43848 0
M  V30 4121 H 393.718 2.60444 5.40638 0
M  V30 4122 H 394.788 2.74167 3.99951 0
M  V30 4123 N 396.131 -1.37776 0.765217 0
M  V30 4124 C 397.094 -2.28686 0.153416 0
M  V30 4125 C 398.094 -1.47727 -0.635081 0
M  V30 4126 O 399.284 -1.68027 -0.459632 0
M  V30 4127 C 396.416 -3.31608 -0.790495 0
M  V30 4128 H 397.609 -2.84297 0.954723 0
M  V30 4129 H 395.162 -1.46932 0.53299 0
M  V30 4130 H 395.897 -2.81109 -1.61705 0
M  V30 4131 H 395.682 -3.9144 -0.227348 0
M  V30 4132 H 397.172 -3.99559 -1.21419 0
M  V30 4133 N 397.609 -0.515225 -1.4894 0
M  V30 4134 C 398.855 0.0242508 -2.02785 0
M  V30 4135 C 399.188 1.35323 -1.39289 0
M  V30 4136 O 398.463 1.87041 -0.533469 0
M  V30 4137 C 398.746 0.16184 -3.59736 0
M  V30 4138 C 398.599 -1.19127 -4.33738 0
M  V30 4139 C 399.918 0.895719 -4.30888 0
M  V30 4140 H 397.037 0.00733914 -0.736963 0
M  V30 4141 H 399.679 -0.669395 -1.77818 0
M  V30 4142 H 397.829 0.752624 -3.8114 0
M  V30 4143 H 399.501 -1.82202 -4.23792 0
M  V30 4144 H 397.744 -1.77695 -3.95736 0
M  V30 4145 H 398.415 -1.04815 -5.41957 0
M  V30 4146 H 400.891 0.394528 -4.14225 0
M  V30 4147 H 399.767 0.960859 -5.40425 0
M  V30 4148 H 400.028 1.9427 -3.97129 0
M  V30 4149 N 399.087 1.5561 -0.249682 0
M  V30 4150 C 400.034 2.21496 0.648694 0
M  V30 4151 C 401.004 1.17977 1.16921 0
M  V30 4152 O 402.189 1.46434 1.22318 0
M  V30 4153 C 399.329 2.92039 1.83868 0
M  V30 4154 C 398.442 4.10219 1.35442 0
M  V30 4155 C 397.577 4.6847 2.50419 0
M  V30 4156 C 396.616 5.78893 1.98869 0
M  V30 4157 N 395.753 6.31315 3.07223 0
M  V30 4158 H 400.593 2.97892 0.0801582 0
M  V30 4159 H 398.13 1.47074 0.0278031 0
M  V30 4160 H 400.088 3.31138 2.53778 0
M  V30 4161 H 398.718 2.18111 2.37965 0
M  V30 4162 H 397.77 3.76413 0.54928 0
M  V30 4163 H 399.082 4.89927 0.936649 0
M  V30 4164 H 398.236 5.10158 3.28366 0
M  V30 4165 H 396.975 3.87984 2.95499 0
M  V30 4166 H 395.98 5.3668 1.19393 0
M  V30 4167 H 397.205 6.61232 1.54755 0
M  V30 4168 H 395.151 5.53733 3.51732 0
M  V30 4169 H 395.068 7.06224 2.69784 0
M  V30 4170 H 396.336 6.77662 3.8522 0
M  V30 4171 N 400.565 -0.0233959 1.57583 0
M  V30 4172 C 401.528 -1.00693 2.05897 0
M  V30 4173 C 402.528 -1.28693 0.964092 0
M  V30 4174 O 403.718 -1.23602 1.22753 0
M  V30 4175 C 400.85 -2.33825 2.4807 0
M  V30 4176 H 402.043 -0.589476 2.9405 0
M  V30 4177 H 399.596 -0.270354 1.53944 0
M  V30 4178 H 400.331 -2.80307 1.6309 0
M  V30 4179 H 400.116 -2.1483 3.2801 0
M  V30 4180 H 401.606 -3.04426 2.85857 0
M  V30 4181 N 402.043 -1.548 -0.295768 0
M  V30 4182 C 403.292 -1.73538 -1.02798 0
M  V30 4183 C 403.605 -0.531159 -1.8825 0
M  V30 4184 O 404.811 -0.600458 -2.64777 0
M  V30 4185 C 403.267 -3.07051 -1.87744 0
M  V30 4186 C 402.875 -4.34968 -1.07269 0
M  V30 4187 C 404.619 -3.35146 -2.60533 0
M  V30 4188 C 402.526 -5.5953 -1.91521 0
M  V30 4189 H 401.456 -0.646794 -0.387522 0
M  V30 4190 H 404.107 -1.81278 -0.284718 0
M  V30 4191 H 402.489 -2.93289 -2.66078 0
M  V30 4192 H 403.663 -4.5958 -0.335117 0
M  V30 4193 H 401.978 -4.13847 -0.460384 0
M  V30 4194 H 404.575 -4.2541 -3.23929 0
M  V30 4195 H 404.918 -2.54255 -3.29636 0
M  V30 4196 H 405.451 -3.49902 -1.89244 0
M  V30 4197 H 402.19 -6.43103 -1.26878 0
M  V30 4198 H 401.71 -5.39096 -2.62937 0
M  V30 4199 H 403.389 -5.96982 -2.49442 0
M  V30 4200 N 403.521 0.559213 -1.47345 0
M  V30 4201 C 404.767 1.31843 -1.54095 0
M  V30 4202 C 405.1 1.93149 -0.201726 0
M  V30 4203 O 404.375 1.77759 0.789428 0
M  V30 4204 C 404.658 2.43006 -2.65744 0
M  V30 4205 C 404.511 1.86581 -4.09277 0
M  V30 4206 C 405.83 3.44943 -2.73318 0
M  V30 4207 H 402.949 0.478012 -0.560957 0
M  V30 4208 H 405.591 0.625977 -1.79392 0
M  V30 4209 H 403.741 3.02072 -2.44305 0
M  V30 4210 H 405.413 1.31792 -4.42073 0
M  V30 4211 H 403.656 1.17268 -4.17649 0
M  V30 4212 H 404.327 2.66933 -4.83168 0
M  V30 4213 H 406.803 2.95793 -2.92653 0
M  V30 4214 H 405.679 4.20153 -3.53218 0
M  V30 4215 H 405.94 4.03665 -1.80296 0
M  V30 4216 N 404.999 1.35443 0.805782 0
M  V30 4217 C 406.276 1.19325 1.54987 0
M  V30 4218 C 406.656 -0.227294 2.09873 0
M  V30 4219 O 406.004 -1.2309 1.92512 0
M  V30 4220 C 406.214 2.26196 2.65775 0
M  V30 4221 C 407.562 2.62043 3.34094 0
M  V30 4222 O 408.586 2.25115 2.76046 0
M  V30 4223 O 407.445 3.25542 4.38958 0
M  V30 4224 H 404.539 0.463623 0.684823 0
M  V30 4225 H 407.085 1.47127 0.845674 0
M  V30 4226 H 405.857 3.21471 2.23096 0
M  V30 4227 H 405.48 1.99667 3.43829 0
M  V30 4228 N 406.477 -1.02803 1.19454 0
M  V30 4229 C 407.702 -1.80378 1.02364 0
M  V30 4230 C 408.127 -1.83282 -0.423007 0
M  V30 4231 O 407.485 -1.25945 -1.30413 0
M  V30 4232 C 407.533 -3.23248 1.59821 0
M  V30 4233 O 406.637 -4.04 0.828105 0
M  V30 4234 H 405.978 -0.556799 0.361761 0
M  V30 4235 H 408.508 -1.29385 1.58495 0
M  V30 4236 H 408.518 -3.73994 1.63073 0
M  V30 4237 H 407.193 -3.2045 2.65113 0
M  V30 4238 H 405.77 -3.62635 0.86891 0
M  V30 4239 N 407.956 -0.998596 -1.21925 0
M  V30 4240 C 409.372 -0.710303 -1.42923 0
M  V30 4241 C 409.572 0.716933 -1.88314 0
M  V30 4242 O 408.628 1.48712 -2.04062 0
M  V30 4243 C 409.941 -1.72072 -2.466 0
M  V30 4244 C 411.489 -1.73681 -2.60392 0
M  V30 4245 C 411.964 -2.73601 -3.67296 0
M  V30 4246 N 413.455 -2.7223 -3.7476 0
M  V30 4247 C 414.19 -3.46206 -4.57087 0
M  V30 4248 N 413.686 -4.29802 -5.43362 0
M  V30 4249 N 415.479 -3.34886 -4.51451 0
M  V30 4250 H 407.63 -1.92028 -0.9077 0
M  V30 4251 H 409.893 -0.828487 -0.460775 0
M  V30 4252 H 409.599 -2.74231 -2.20206 0
M  V30 4253 H 409.473 -1.51818 -3.45299 0
M  V30 4254 H 411.86 -0.722173 -2.86127 0
M  V30 4255 H 411.941 -1.98005 -1.61949 0
M  V30 4256 H 411.585 -3.75217 -3.42307 0
M  V30 4257 H 411.515 -2.46545 -4.65321 0
M  V30 4258 H 414.006 -2.11576 -3.1312 0
M  V30 4259 H 414.319 -4.83061 -6.03218 0
M  V30 4260 H 412.664 -4.33887 -5.42925 0
M  V30 4261 H 415.855 -2.69015 -3.83078 0
M  V30 4262 H 416.028 -3.92796 -5.15379 0
M  V30 4263 N 409.434 1.37368 -0.772513 0
M  V30 4264 C 410.68 1.99969 -0.337681 0
M  V30 4265 C 411.013 1.61184 1.08321 0
M  V30 4266 O 410.288 0.858395 1.74533 0
M  V30 4267 C 410.571 3.56858 -0.482121 0
M  V30 4268 C 410.424 4.0555 -1.94549 0
M  V30 4269 C 411.743 4.39955 0.113143 0
M  V30 4270 H 408.862 0.726464 -0.124171 0
M  V30 4271 H 411.504 1.63034 -0.975699 0
M  V30 4272 H 409.654 3.88452 0.0610361 0
M  V30 4273 H 411.326 3.84518 -2.54841 0
M  V30 4274 H 409.569 3.57715 -2.45403 0
M  V30 4275 H 410.24 5.14587 -1.9976 0
M  V30 4276 H 412.716 4.14623 -0.35031 0
M  V30 4277 H 411.592 5.48897 -0.0180514 0
M  V30 4278 H 411.853 4.25403 1.20354 0
M  V30 4279 N 410.912 0.523116 1.48665 0
M  V30 4280 C 412.161 -0.01544 2.01694 0
M  V30 4281 C 412.474 -1.35975 1.40606 0
M  V30 4282 O 413.68 -1.98627 1.85093 0
M  V30 4283 C 412.136 -0.0779303 3.59816 0
M  V30 4284 C 411.744 1.26107 4.29885 0
M  V30 4285 C 413.488 -0.565678 4.20714 0
M  V30 4286 C 411.395 1.15954 5.79921 0
M  V30 4287 H 410.325 -0.00954163 0.75394 0
M  V30 4288 H 412.976 0.665865 1.70993 0
M  V30 4289 H 411.358 -0.824165 3.87329 0
M  V30 4290 H 412.532 2.02233 4.14051 0
M  V30 4291 H 410.847 1.68401 3.80828 0
M  V30 4292 H 413.444 -0.6595 5.30617 0
M  V30 4293 H 413.787 -1.56984 3.85567 0
M  V30 4294 H 414.32 0.12467 3.97605 0
M  V30 4295 H 411.059 2.13864 6.19631 0
M  V30 4296 H 410.579 0.439529 5.98187 0
M  V30 4297 H 412.258 0.847361 6.41427 0
M  V30 4298 N 412.39 -1.55475 0.257931 0
M  V30 4299 C 413.338 -2.23244 -0.653076 0
M  V30 4300 C 414.332 -1.22366 -1.17144 0
M  V30 4301 O 415.538 -1.40347 -1.12706 0
M  V30 4302 H 411.913 -0.716247 -0.229117 0
M  V30 4303 H 413.884 -2.98343 -0.0584788 0
M  V30 4304 C 412.633 -2.95401 -1.83395 0
M  V30 4305 H 411.956 -3.72802 -1.44424 0
M  V30 4306 H 413.396 -3.46165 -2.44838 0
M  V30 4307 C 411.855 -1.99895 -2.71189 0
M  V30 4308 O 412.385 -1.53909 -3.71046 0
M  V30 4309 N 410.591 -1.6676 -2.3799 0
M  V30 4310 H 410.138 -2.04352 -1.56837 0
M  V30 4311 H 410.096 -1.03127 -2.97005 0
M  V30 4312 N 413.868 0.0150385 -1.57593 0
M  V30 4313 C 415.093 0.718067 -1.94573 0
M  V30 4314 C 415.518 1.6734 -0.859005 0
M  V30 4315 O 414.876 1.80362 0.184147 0
M  V30 4316 C 414.924 1.43918 -3.30636 0
M  V30 4317 O 414.028 2.55299 -3.23876 0
M  V30 4318 H 413.369 0.192125 -0.635597 0
M  V30 4319 H 415.899 -0.0336708 -2.04572 0
M  V30 4320 H 415.909 1.80598 -3.65853 0
M  V30 4321 H 414.584 0.738619 -4.09289 0
M  V30 4322 H 413.161 2.21058 -3.00312 0
M  V30 4323 N 415.346 1.54954 0.287554 0
M  V30 4324 C 416.594 1.74528 1.01904 0
M  V30 4325 C 416.915 0.541349 1.87335 0
M  V30 4326 O 416.185 -0.444108 1.908 0
M  V30 4327 H 414.765 0.643576 0.379235 0
M  V30 4328 H 417.427 1.92333 0.315294 0
M  V30 4329 H 416.523 2.64015 1.6644 0
M  V30 4330 N 416.824 -0.551391 1.4764 0
M  V30 4331 C 417.756 -1.67333 1.56628 0
M  V30 4332 C 418.769 -1.56398 0.452045 0
M  V30 4333 O 419.958 -1.6325 0.721926 0
M  V30 4334 C 417.058 -3.05841 1.45994 0
M  V30 4335 C 416.231 -3.42472 2.72088 0
M  V30 4336 C 415.29 -4.60168 2.55209 0
M  V30 4337 O 414.316 -4.64458 3.2904 0
M  V30 4338 N 415.518 -5.57024 1.63416 0
M  V30 4339 H 418.283 -1.60066 2.53375 0
M  V30 4340 H 415.844 -0.738169 1.44093 0
M  V30 4341 H 417.836 -3.8242 1.32428 0
M  V30 4342 H 416.406 -3.07302 0.573071 0
M  V30 4343 H 415.626 -2.55284 3.00373 0
M  V30 4344 H 416.914 -3.63723 3.55785 0
M  V30 4345 H 416.312 -5.56319 1.02594 0
M  V30 4346 H 414.869 -6.32906 1.558 0
M  V30 4347 N 418.302 -1.35869 -0.798587 0
M  V30 4348 C 419.548 -1.2978 -1.55836 0
M  V30 4349 C 419.881 0.125322 -1.93795 0
M  V30 4350 O 419.156 1.07658 -1.61987 0
M  V30 4351 C 419.439 -2.21188 -2.84162 0
M  V30 4352 C 419.292 -3.72155 -2.52628 0
M  V30 4353 C 420.611 -2.11545 -3.85923 0
M  V30 4354 H 417.73 -0.472769 -0.565383 0
M  V30 4355 H 420.372 -1.66341 -0.918192 0
M  V30 4356 H 418.522 -1.90139 -3.38791 0
M  V30 4357 H 420.194 -4.13682 -2.04121 0
M  V30 4358 H 418.437 -3.92042 -1.85704 0
M  V30 4359 H 419.108 -4.31511 -3.44242 0
M  V30 4360 H 421.584 -2.38855 -3.40716 0
M  V30 4361 H 420.46 -2.77688 -4.73477 0
M  V30 4362 H 420.721 -1.09987 -4.282 0
M  V30 4363 N 419.78 1.02168 -1.19998 0
M  V30 4364 C 421.02 1.77232 -1.01825 0
M  V30 4365 C 421.384 1.86833 0.442428 0
M  V30 4366 O 422.585 2.58293 0.744189 0
M  V30 4367 C 420.856 3.15601 -1.67722 0
M  V30 4368 S 422.415 4.06765 -1.64584 0
M  V30 4369 H 419.233 0.610021 -0.365233 0
M  V30 4370 H 421.835 1.22368 -1.52467 0
M  V30 4371 H 420.539 3.06235 -2.73218 0
M  V30 4372 H 420.07 3.7554 -1.17189 0
M  V30 4373 H 422.085 4.91586 -0.67511 0
M  V30 4374 N 421.258 1.00505 1.21394 0
M  V30 4375 C 422.206 0.558623 2.25792 0
M  V30 4376 C 423.2 -0.396848 1.64686 0
M  V30 4377 O 424.406 -0.268035 1.77993 0
M  V30 4378 H 420.781 0.1623 0.734277 0
M  V30 4379 H 422.752 1.4503 2.60785 0
M  V30 4380 C 421.501 -0.0989574 3.47559 0
M  V30 4381 H 420.824 0.627225 3.94849 0
M  V30 4382 H 422.264 -0.3746 4.22342 0
M  V30 4383 C 420.723 -1.33817 3.09184 0
M  V30 4384 O 421.253 -2.43252 3.19674 0
M  V30 4385 N 419.459 -1.21793 2.63846 0
M  V30 4386 H 419.006 -0.32746 2.5551 0
M  V30 4387 H 418.964 -2.04809 2.38539 0
M  V30 4388 N 422.737 -1.36956 0.779787 0
M  V30 4389 C 423.977 -2.01328 0.353043 0
M  V30 4390 C 424.341 -1.60558 -1.05286 0
M  V30 4391 O 425.542 -2.1745 -1.58016 0
M  V30 4392 C 423.813 -3.53874 0.500822 0
M  V30 4393 S 425.372 -4.38506 0.16053 0
M  V30 4394 H 422.19 -0.69799 0.13539 0
M  V30 4395 H 424.792 -1.67016 1.01617 0
M  V30 4396 H 423.496 -3.81034 1.52451 0
M  V30 4397 H 423.027 -3.92994 -0.178574 0
M  V30 4398 H 425.042 -4.85153 -1.04121 0
M  V30 4399 N 424.215 -0.530993 -1.48385 0
M  V30 4400 C 425.178 0.220497 -2.28137 0
M  V30 4401 C 426.178 0.866851 -1.35434 0
M  V30 4402 O 427.368 0.726746 -1.58316 0
M  V30 4403 C 424.5 1.31921 -3.1434 0
M  V30 4404 H 425.693 -0.479714 -2.96038 0
M  V30 4405 H 423.246 -0.286968 -1.53643 0
M  V30 4406 H 423.981 2.05264 -2.51072 0
M  V30 4407 H 423.766 0.86085 -3.82533 0
M  V30 4408 H 425.256 1.84776 -3.74497 0
M  V30 4409 N 425.693 1.55336 -0.266172 0
M  V30 4410 C 426.603 2.2583 0.635458 0
M  V30 4411 C 427.619 1.28106 1.17749 0
M  V30 4412 O 428.795 1.61024 1.20968 0
M  V30 4413 C 425.86 2.95879 1.80712 0
M  V30 4414 C 424.921 4.09059 1.30265 0
M  V30 4415 C 424.154 4.75759 2.41846 0
M  V30 4416 O 424.377 4.41622 3.61007 0
M  V30 4417 O 423.311 5.63888 2.1051 0
M  V30 4418 H 427.137 3.03631 0.0646693 0
M  V30 4419 H 424.722 1.49361 -0.0339177 0
M  V30 4420 H 426.604 3.39932 2.49047 0
M  V30 4421 H 425.279 2.21002 2.36516 0
M  V30 4422 H 424.186 3.69482 0.586019 0
M  V30 4423 H 425.519 4.85811 0.790458 0
M  V30 4424 N 427.171 -0.0066808 1.57599 0
M  V30 4425 C 428.587 -0.36267 1.55425 0
M  V30 4426 C 428.787 -1.75209 0.995187 0
M  V30 4427 O 427.843 -2.44616 0.626058 0
M  V30 4428 C 429.156 -0.244017 2.99708 0
M  V30 4429 C 430.704 -0.319451 3.11366 0
M  V30 4430 C 431.179 -0.229998 4.57422 0
M  V30 4431 N 432.67 -0.288105 4.62303 0
M  V30 4432 C 433.405 -0.242127 5.72889 0
M  V30 4433 N 432.901 -0.147133 6.92644 0
M  V30 4434 N 434.694 -0.293502 5.61333 0
M  V30 4435 H 426.845 0.902314 1.92281 0
M  V30 4436 H 429.108 0.34525 0.882896 0
M  V30 4437 H 428.814 0.711678 3.44424 0
M  V30 4438 H 428.688 -1.02877 3.629 0
M  V30 4439 H 431.075 -1.26559 2.66584 0
M  V30 4440 H 431.156 0.495055 2.50964 0
M  V30 4441 H 430.8 0.712566 5.02877 0
M  V30 4442 H 430.73 -1.0629 5.15761 0
M  V30 4443 H 433.221 -0.363126 3.76151 0
M  V30 4444 H 433.534 -0.117763 7.7271 0
M  V30 4445 H 431.879 -0.112857 6.94908 0
M  V30 4446 H 435.07 -0.365864 4.66668 0
M  V30 4447 H 435.243 -0.254204 6.47501 0
M  V30 4448 N 428.649 -1.55105 -0.279332 0
M  V30 4449 C 429.895 -1.75672 -1.01327 0
M  V30 4450 C 430.228 -0.552739 -1.86168 0
M  V30 4451 O 429.503 0.449827 -1.89227 0
M  V30 4452 C 429.786 -3.05825 -1.90114 0
M  V30 4453 C 429.639 -4.36565 -1.08309 0
M  V30 4454 C 430.958 -3.31975 -2.8893 0
M  V30 4455 H 428.077 -0.639149 -0.366957 0
M  V30 4456 H 430.719 -1.87833 -0.286154 0
M  V30 4457 H 428.869 -2.95588 -2.52111 0
M  V30 4458 H 430.541 -4.58751 -0.484314 0
M  V30 4459 H 428.784 -4.32076 -0.386362 0
M  V30 4460 H 429.455 -5.23946 -1.73737 0
M  V30 4461 H 431.931 -3.41963 -2.37067 0
M  V30 4462 H 430.807 -4.2432 -3.48201 0
M  V30 4463 H 431.068 -2.51309 -3.63725 0
M  V30 4464 N 430.127 0.543554 -1.4793 0
M  V30 4465 C 431.357 1.32324 -1.58663 0
M  V30 4466 C 431.765 1.8766 -0.240896 0
M  V30 4467 O 431.108 1.66411 0.778011 0
M  V30 4468 C 431.17 2.52094 -2.56299 0
M  V30 4469 C 430.834 2.17944 -4.01683 0
M  V30 4470 C 431.831 1.74422 -4.89768 0
M  V30 4471 C 429.516 2.28884 -4.47121 0
M  V30 4472 C 431.51 1.42287 -6.21316 0
M  V30 4473 C 429.197 1.96361 -5.78693 0
M  V30 4474 C 430.195 1.53132 -6.65612 0
M  V30 4475 O 429.883 1.21029 -7.94737 0
M  V30 4476 H 429.615 0.409174 -0.538101 0
M  V30 4477 H 432.169 0.663887 -1.94375 0
M  V30 4478 H 430.399 3.20965 -2.15681 0
M  V30 4479 H 432.088 3.14165 -2.57012 0
M  V30 4480 H 432.854 1.65452 -4.55907 0
M  V30 4481 H 428.733 2.61488 -3.79664 0
M  V30 4482 H 432.277 1.08472 -6.89115 0
M  V30 4483 H 428.174 2.04967 -6.12094 0
M  V30 4484 H 428.942 1.34543 -8.07366 0
M  V30 4485 N 431.605 1.3629 0.791371 0
M  V30 4486 C 432.851 1.30605 1.55146 0
M  V30 4487 C 433.184 -0.115042 1.93859 0
M  V30 4488 O 432.459 -1.06798 1.62556 0
M  V30 4489 C 432.742 2.22692 2.82985 0
M  V30 4490 C 432.595 3.73489 2.50651 0
M  V30 4491 C 433.914 2.13588 3.84796 0
M  V30 4492 H 431.033 0.475761 0.562868 0
M  V30 4493 H 433.675 1.66825 0.909358 0
M  V30 4494 H 431.825 1.91933 3.37778 0
M  V30 4495 H 433.497 4.14758 2.01924 0
M  V30 4496 H 431.74 3.93021 1.83622 0
M  V30 4497 H 432.411 4.3333 3.41949 0
M  V30 4498 H 434.887 2.40659 3.39445 0
M  V30 4499 H 433.763 2.80195 4.71998 0
M  V30 4500 H 434.024 1.12256 4.27611 0
M  V30 4501 N 433.083 -1.0153 1.20538 0
M  V30 4502 C 434.015 -2.10224 0.913155 0
M  V30 4503 C 435.028 -1.62495 -0.0995998 0
M  V30 4504 O 436.217 -1.78014 0.131582 0
M  V30 4505 C 433.317 -3.37111 0.347717 0
M  V30 4506 C 432.49 -4.13971 1.41233 0
M  V30 4507 C 431.549 -5.19158 0.857976 0
M  V30 4508 O 430.575 -5.48 1.53897 0
M  V30 4509 N 431.777 -5.7955 -0.331966 0
M  V30 4510 H 434.542 -2.35879 1.84881 0
M  V30 4511 H 432.103 -1.17931 1.10923 0
M  V30 4512 H 434.095 -4.04683 -0.0373026 0
M  V30 4513 H 432.665 -3.08696 -0.492527 0
M  V30 4514 H 431.885 -3.41351 1.97163 0
M  V30 4515 H 433.173 -4.62103 2.12928 0
M  V30 4516 H 432.571 -5.58455 -0.902478 0
M  V30 4517 H 431.128 -6.48464 -0.65861 0
M  V30 4518 N 434.561 -1.01147 -1.20859 0
M  V30 4519 C 435.508 -0.577354 -2.23462 0
M  V30 4520 C 436.478 0.399922 -1.61214 0
M  V30 4521 O 437.663 0.300515 -1.88419 0
M  V30 4522 C 434.803 0.083372 -3.44999 0
M  V30 4523 C 433.916 -0.937856 -4.21697 0
M  V30 4524 C 433.051 -0.248717 -5.30617 0
M  V30 4525 C 432.09 -1.25705 -5.99053 0
M  V30 4526 N 431.227 -0.594939 -6.99575 0
M  V30 4527 H 436.067 -1.45695 -2.59956 0
M  V30 4528 H 433.604 -0.729428 -1.27741 0
M  V30 4529 H 435.562 0.483535 -4.14388 0
M  V30 4530 H 434.192 0.926645 -3.09214 0
M  V30 4531 H 433.244 -1.45622 -3.51423 0
M  V30 4532 H 434.556 -1.70493 -4.68757 0
M  V30 4533 H 433.71 0.207215 -6.06346 0
M  V30 4534 H 432.449 0.55071 -4.84581 0
M  V30 4535 H 431.454 -1.72343 -5.2209 0
M  V30 4536 H 432.679 -2.05767 -6.47176 0
M  V30 4537 H 430.625 0.184713 -6.5574 0
M  V30 4538 H 430.542 -1.30017 -7.44736 0
M  V30 4539 H 431.81 -0.162427 -7.79331 0
M  V30 4540 N 436.039 1.36541 -0.78704 0
M  V30 4541 C 437.287 1.98911 -0.357633 0
M  V30 4542 C 437.608 1.62778 1.07371 0
M  V30 4543 O 436.878 0.900612 1.73971 0
M  V30 4544 H 435.458 0.735734 -0.129246 0
M  V30 4545 H 438.12 1.66776 -1.00855 0
M  V30 4546 H 437.216 3.08874 -0.447549 0
M  V30 4547 N 437.518 0.538854 1.48102 0
M  V30 4548 C 438.767 0.0059532 2.01699 0
M  V30 4549 C 439.08 -1.34476 1.42041 0
M  V30 4550 O 440.286 -1.96653 1.87189 0
M  V30 4551 C 438.742 -0.0397627 3.59878 0
M  V30 4552 C 438.35 1.30659 4.28523 0
M  V30 4553 C 440.094 -0.521024 4.2129 0
M  V30 4554 C 438.001 1.22098 5.78659 0
M  V30 4555 H 436.931 -0.00154456 0.753998 0
M  V30 4556 H 439.582 0.683963 1.70277 0
M  V30 4557 H 437.964 -0.783037 3.88181 0
M  V30 4558 H 439.138 2.06613 4.11883 0
M  V30 4559 H 437.453 1.7243 3.79021 0
M  V30 4560 H 440.05 -0.603184 5.31287 0
M  V30 4561 H 440.393 -1.52885 3.8721 0
M  V30 4562 H 440.926 0.166834 3.9745 0
M  V30 4563 H 437.665 2.20424 6.17328 0
M  V30 4564 H 437.185 0.50295 5.97688 0
M  V30 4565 H 438.864 0.915345 6.40492 0
M  V30 4566 N 438.996 -1.55193 0.274407 0
M  V30 4567 C 440.226 -2.03692 -0.345442 0
M  V30 4568 C 440.634 -1.15224 -1.50067 0
M  V30 4569 O 439.977 -0.164749 -1.8296 0
M  V30 4570 C 440.039 -3.48325 -0.88939 0
M  V30 4571 C 439.703 -4.56794 0.137115 0
M  V30 4572 C 440.7 -5.11028 0.956378 0
M  V30 4573 C 438.385 -5.01568 0.27115 0
M  V30 4574 C 440.379 -6.08552 1.89587 0
M  V30 4575 C 438.066 -5.98918 1.21412 0
M  V30 4576 C 439.064 -6.52291 2.02498 0
M  V30 4577 O 438.752 -7.47738 2.952 0
M  V30 4578 H 438.484 -0.670893 -0.0829332 0
M  V30 4579 H 441.038 -2.01387 0.404056 0
M  V30 4580 H 439.268 -3.47867 -1.68895 0
M  V30 4581 H 440.957 -3.80167 -1.42225 0
M  V30 4582 H 441.723 -4.7725 0.863559 0
M  V30 4583 H 437.602 -4.5967 -0.349987 0
M  V30 4584 H 441.146 -6.50137 2.52918 0
M  V30 4585 H 437.043 -6.32114 1.30776 0
M  V30 4586 H 437.811 -7.65451 2.89874 0
M  V30 4587 N 440.474 -0.00167713 -1.576 0
M  V30 4588 C 441.751 0.719951 -1.81868 0
M  V30 4589 C 442.131 1.91895 -0.879747 0
M  V30 4590 O 441.479 2.28389 0.0711423 0
M  V30 4591 C 441.689 1.12409 -3.30402 0
M  V30 4592 C 443.037 1.52724 -3.96182 0
M  V30 4593 O 444.061 1.21784 -3.34734 0
M  V30 4594 O 442.92 2.10265 -5.04431 0
M  V30 4595 H 440.014 0.350707 -0.748955 0
M  V30 4596 H 442.56 -0.0272597 -1.69678 0
M  V30 4597 H 441.332 0.269532 -3.90371 0
M  V30 4598 H 440.955 1.93035 -3.47596 0
M  V30 4599 N 441.952 1.55251 0.271103 0
M  V30 4600 C 442.884 1.84675 1.35749 0
M  V30 4601 C 443.897 0.731366 1.45447 0
M  V30 4602 O 445.086 1.00924 1.4723 0
M  V30 4603 C 442.186 1.99638 2.73857 0
M  V30 4604 C 441.359 3.30312 2.86727 0
M  V30 4605 C 440.418 3.35318 4.05522 0
M  V30 4606 O 439.444 4.08682 3.96191 0
M  V30 4607 N 440.646 2.62857 5.17577 0
M  V30 4608 H 443.411 2.78445 1.10853 0
M  V30 4609 H 440.972 1.55191 0.461218 0
M  V30 4610 H 442.964 2.00355 3.51625 0
M  V30 4611 H 441.534 1.12725 2.91568 0
M  V30 4612 H 440.754 3.42118 1.95829 0
M  V30 4613 H 442.042 4.16488 2.92258 0
M  V30 4614 H 441.44 2.02939 5.28046 0
M  V30 4615 H 439.997 2.69295 5.93568 0
M  V30 4616 N 443.43 -0.535701 1.48216 0
M  V30 4617 C 444.677 -1.29183 1.55942 0
M  V30 4618 C 445.005 -1.93125 0.230857 0
M  V30 4619 O 444.26 -1.79556 -0.778331 0
M  V30 4620 C 444.559 -2.4068 2.64212 0
M  V30 4621 C 444.225 -1.94428 4.06827 0
M  V30 4622 C 442.887 -1.81532 4.45645 0
M  V30 4623 C 445.239 -1.59405 4.96225 0
M  V30 4624 C 442.567 -1.31939 5.71672 0
M  V30 4625 C 444.919 -1.11276 6.22736 0
M  V30 4626 C 443.583 -0.969924 6.60416 0
M  V30 4627 H 442.853 -0.472715 0.570632 0
M  V30 4628 H 445.5 -0.598437 1.81909 0
M  V30 4629 H 443.805 -3.15666 2.32083 0
M  V30 4630 H 445.502 -2.98822 2.67407 0
M  V30 4631 H 442.092 -2.05415 3.76168 0
M  V30 4632 H 446.276 -1.68231 4.66917 0
M  V30 4633 H 441.532 -1.19562 5.99596 0
M  V30 4634 H 445.706 -0.832453 6.91407 0
M  V30 4635 H 443.333 -0.583436 7.57958 0
M  V30 4636 N 444.908 -1.36708 -0.784132 0
M  V30 4637 C 446.154 -1.31426 -1.54451 0
M  V30 4638 C 446.487 0.10476 -1.93917 0
M  V30 4639 O 445.762 1.05934 -1.6312 0
M  V30 4640 C 446.045 -2.24189 -2.818 0
M  V30 4641 C 445.898 -3.74813 -2.48667 0
M  V30 4642 C 447.217 -2.15626 -3.83658 0
M  V30 4643 H 444.336 -0.478739 -0.560337 0
M  V30 4644 H 446.978 -1.67305 -0.900498 0
M  V30 4645 H 445.128 -1.93722 -3.36755 0
M  V30 4646 H 446.8 -4.15823 -1.99722 0
M  V30 4647 H 445.043 -3.93989 -1.81535 0
M  V30 4648 H 445.714 -4.35138 -3.39646 0
M  V30 4649 H 448.19 -2.42456 -3.38163 0
M  V30 4650 H 447.066 -2.82694 -4.70506 0
M  V30 4651 H 447.327 -1.14522 -4.27009 0
M  V30 4652 N 446.386 1.0089 -1.21074 0
M  V30 4653 C 447.334 2.11707 -0.963476 0
M  V30 4654 C 448.328 1.69172 0.0879032 0
M  V30 4655 O 449.534 1.79889 -0.0631415 0
M  V30 4656 H 445.909 0.692026 -0.294287 0
M  V30 4657 H 447.88 2.29743 -1.90422 0
M  V30 4658 C 446.629 3.43473 -0.540509 0
M  V30 4659 H 445.952 3.76634 -1.34114 0
M  V30 4660 H 447.392 4.22044 -0.406777 0
M  V30 4661 C 445.851 3.2849 0.748079 0
M  V30 4662 O 446.381 3.58883 1.8046 0
M  V30 4663 N 444.587 2.81715 0.713081 0
M  V30 4664 H 444.134 2.5718 -0.146973 0
M  V30 4665 H 444.092 2.72071 1.57558 0
M  V30 4666 N 447.864 1.01787 1.20321 0
M  V30 4667 C 449.28 0.732951 1.41774 0
M  V30 4668 C 449.48 -0.686883 1.89431 0
M  V30 4669 O 448.536 -1.45446 2.06402 0
M  V30 4670 C 449.849 1.75973 2.43832 0
M  V30 4671 C 451.397 1.77802 2.57596 0
M  V30 4672 C 451.872 2.7941 3.62897 0
M  V30 4673 N 453.363 2.78157 3.70382 0
M  V30 4674 C 454.098 3.53434 4.51521 0
M  V30 4675 N 453.594 4.38392 5.36455 0
M  V30 4676 N 455.387 3.42026 4.46066 0
M  V30 4677 H 447.538 1.93447 0.877035 0
M  V30 4678 H 449.801 0.835712 0.447536 0
M  V30 4679 H 449.507 2.77699 2.15815 0
M  V30 4680 H 449.381 1.57292 3.4284 0
M  V30 4681 H 451.768 0.767602 2.84942 0
M  V30 4682 H 451.849 2.00557 1.58779 0
M  V30 4683 H 451.493 3.80616 3.36295 0
M  V30 4684 H 451.423 2.53916 4.61339 0
M  V30 4685 H 453.914 2.16531 3.09714 0
M  V30 4686 H 454.227 4.92596 5.95457 0
M  V30 4687 H 452.572 4.4247 5.35953 0
M  V30 4688 H 455.763 2.75075 3.78749 0
M  V30 4689 H 455.936 4.00946 5.09064 0
M  V30 4690 N 449.342 -1.36122 0.79427 0
M  V30 4691 C 450.272 -2.32551 0.210328 0
M  V30 4692 C 451.253 -1.56884 -0.657386 0
M  V30 4693 O 452.438 -1.85014 -0.590207 0
M  V30 4694 C 449.568 -3.41128 -0.651819 0
M  V30 4695 C 448.522 -4.27842 0.116395 0
M  V30 4696 C 447.848 -5.2763 -0.86666 0
M  V30 4697 C 449.148 -5.05647 1.30837 0
M  V30 4698 H 450.842 -2.81636 1.01594 0
M  V30 4699 H 448.388 -1.35407 0.489981 0
M  V30 4700 H 450.341 -4.07581 -1.07031 0
M  V30 4701 H 449.065 -2.90622 -1.49019 0
M  V30 4702 H 447.724 -3.62952 0.515915 0
M  V30 4703 H 447.372 -4.73395 -1.70019 0
M  V30 4704 H 447.072 -5.86514 -0.35705 0
M  V30 4705 H 448.596 -5.96955 -1.28361 0
M  V30 4706 H 450.01 -5.65113 0.965393 0
M  V30 4707 H 448.407 -5.73967 1.75161 0
M  V30 4708 H 449.477 -4.37006 2.10128 0
M  V30 4709 N 450.82 -0.546701 -1.47814 0
M  V30 4710 C 452.068 -0.0187037 -2.02091 0
M  V30 4711 C 452.389 1.33168 -1.42447 0
M  V30 4712 O 451.659 1.86619 -0.595839 0
M  V30 4713 H 450.239 -0.00392531 -0.74699 0
M  V30 4714 H 452.901 -0.714327 -1.81338 0
M  V30 4715 H 451.997 0.0772219 -3.12004 0
M  V30 4716 N 452.299 1.55045 -0.282633 0
M  V30 4717 C 453.209 2.26491 0.61147 0
M  V30 4718 C 454.225 1.29348 1.16384 0
M  V30 4719 O 455.401 1.62298 1.19253 0
M  V30 4720 C 452.466 2.97779 1.77563 0
M  V30 4721 C 451.527 4.10418 1.25919 0
M  V30 4722 C 450.76 4.78297 2.36786 0
M  V30 4723 O 450.983 4.45426 3.56303 0
M  V30 4724 O 449.917 5.66089 2.04517 0
M  V30 4725 H 453.743 3.03683 0.0324615 0
M  V30 4726 H 451.328 1.49317 -0.0497576 0
M  V30 4727 H 453.21 3.42554 2.45427 0
M  V30 4728 H 451.885 2.23498 2.34159 0
M  V30 4729 H 450.792 3.70082 0.546797 0
M  V30 4730 H 452.125 4.86622 0.738887 0
M  V30 4731 N 453.777 0.010035 1.57597 0
M  V30 4732 C 454.74 -0.963029 2.07986 0
M  V30 4733 C 455.74 -1.26619 0.991173 0
M  V30 4734 O 456.93 -1.2097 1.25347 0
M  V30 4735 C 454.062 -2.2851 2.52974 0
M  V30 4736 H 455.255 -0.526971 2.95234 0
M  V30 4737 H 452.808 -0.237639 1.54483 0
M  V30 4738 H 453.543 -2.76784 1.69 0
M  V30 4739 H 453.328 -2.07824 3.32493 0
M  V30 4740 H 454.818 -2.98294 2.9225 0
M  V30 4741 N 455.255 -1.55392 -0.262866 0
M  V30 4742 C 456.188 -1.8391 -1.35101 0
M  V30 4743 C 457.166 -0.692901 -1.47097 0
M  V30 4744 O 458.35 -0.936979 -1.63563 0
M  V30 4745 C 455.477 -2.00969 -2.72634 0
M  V30 4746 C 454.523 -3.23559 -2.7787 0
M  V30 4747 S 455.356 -4.80647 -2.3609 0
M  V30 4748 C 456.512 -5.00692 -3.75578 0
M  V30 4749 H 456.745 -2.75918 -1.1071 0
M  V30 4750 H 454.278 -1.47294 -0.463029 0
M  V30 4751 H 456.236 -2.11482 -3.51832 0
M  V30 4752 H 454.897 -1.09832 -2.94272 0
M  V30 4753 H 454.09 -3.32413 -3.78837 0
M  V30 4754 H 453.692 -3.11689 -2.06702 0
M  V30 4755 H 455.984 -4.87055 -4.70939 0
M  V30 4756 H 456.927 -6.02717 -3.71669 0
M  V30 4757 H 457.335 -4.28619 -3.6735 0
M  V30 4758 N 456.733 0.527833 -1.48498 0
M  V30 4759 C 457.665 1.6482 -1.5927 0
M  V30 4760 C 458.678 1.55659 -0.476869 0
M  V30 4761 O 459.867 1.62081 -0.747806 0
M  V30 4762 C 456.967 3.0348 -1.50842 0
M  V30 4763 C 456.14 3.381 -2.77502 0
M  V30 4764 C 455.199 4.5605 -2.62497 0
M  V30 4765 O 454.225 4.59165 -3.36387 0
M  V30 4766 N 455.427 5.54353 -1.72257 0
M  V30 4767 H 458.192 1.56015 -2.55889 0
M  V30 4768 H 455.753 0.715152 -1.45249 0
M  V30 4769 H 457.745 3.80264 -1.38496 0
M  V30 4770 H 456.315 3.06352 -0.621887 0
M  V30 4771 H 455.535 2.50473 -3.04396 0
M  V30 4772 H 456.823 3.58017 -3.61527 0
M  V30 4773 H 456.221 5.54617 -1.11431 0
M  V30 4774 H 454.778 6.30347 -1.65849 0
M  V30 4775 N 458.211 1.37122 0.776871 0
M  V30 4776 C 459.174 1.32301 1.8716 0
M  V30 4777 C 460.174 0.228099 1.59174 0
M  V30 4778 O 461.364 0.483642 1.67352 0
M  V30 4779 C 458.496 1.054 3.24197 0
M  V30 4780 H 459.689 2.29673 1.92848 0
M  V30 4781 H 457.242 1.22077 0.97606 0
M  V30 4782 H 457.977 0.0853872 3.24188 0
M  V30 4783 H 457.762 1.84648 3.45901 0
M  V30 4784 H 459.252 1.04664 4.04271 0
M  V30 4785 N 459.689 -1.00246 1.21608 0
M  V30 4786 C 460.935 -1.74319 1.03638 0
M  V30 4787 C 461.268 -1.89408 -0.428749 0
M  V30 4788 O 460.543 -1.43026 -1.3181 0
M  V30 4789 C 460.826 -3.15431 1.73711 0
M  V30 4790 C 460.679 -3.08049 3.27759 0
M  V30 4791 C 461.998 -4.14407 1.48173 0
M  V30 4792 H 459.117 -0.632741 0.377899 0
M  V30 4793 H 461.759 -1.16853 1.49818 0
M  V30 4794 H 459.909 -3.64493 1.34452 0
M  V30 4795 H 461.581 -2.66681 3.76403 0
M  V30 4796 H 459.824 -2.45088 3.57931 0
M  V30 4797 H 460.495 -4.07862 3.71958 0
M  V30 4798 H 462.971 -3.74061 1.82258 0
M  V30 4799 H 461.847 -5.11279 1.99713 0
M  V30 4800 H 462.108 -4.40174 0.412273 0
M  V30 4801 N 461.167 -1.02423 -1.1978 0
M  V30 4802 C 462.099 -0.559152 -2.22275 0
M  V30 4803 C 463.112 0.36251 -1.58713 0
M  V30 4804 O 464.301 0.159641 -1.77785 0
M  V30 4805 C 461.401 0.205094 -3.38279 0
M  V30 4806 C 460.574 -0.720361 -4.31427 0
M  V30 4807 C 459.633 -0.00234368 -5.262 0
M  V30 4808 O 458.659 -0.627378 -5.65732 0
M  V30 4809 N 459.861 1.26996 -5.66438 0
M  V30 4810 H 462.626 -1.44064 -2.62804 0
M  V30 4811 H 460.187 -0.902692 -1.34399 0
M  V30 4812 H 462.179 0.694868 -3.9869 0
M  V30 4813 H 460.749 0.987947 -2.96578 0
M  V30 4814 H 459.969 -1.39031 -3.68869 0
M  V30 4815 H 461.257 -1.3495 -4.90577 0
M  V30 4816 H 460.655 1.79858 -5.36347 0
M  V30 4817 H 459.212 1.70432 -6.29123 0
M  V30 4818 N 462.645 1.35699 -0.801477 0
M  V30 4819 C 463.892 1.98913 -0.379459 0
M  V30 4820 C 464.22 1.63592 1.05204 0
M  V30 4821 O 463.475 0.888563 1.74365 0
M  V30 4822 C 463.774 3.53828 -0.504041 0
M  V30 4823 C 463.44 4.09002 -1.8981 0
M  V30 4824 C 462.102 4.23783 -2.27951 0
M  V30 4825 C 464.454 4.38939 -2.81038 0
M  V30 4826 C 461.782 4.65816 -3.56696 0
M  V30 4827 C 464.134 4.82409 -4.09224 0
M  V30 4828 C 462.798 4.95395 -4.4737 0
M  V30 4829 H 462.068 0.727874 -0.138854 0
M  V30 4830 H 464.715 1.61994 -1.02128 0
M  V30 4831 H 463.02 3.91175 0.221242 0
M  V30 4832 H 464.717 4.00687 -0.158361 0
M  V30 4833 H 461.307 3.97946 -1.59176 0
M  V30 4834 H 465.491 4.27077 -2.52821 0
M  V30 4835 H 460.747 4.74059 -3.86106 0
M  V30 4836 H 464.921 5.04535 -4.80018 0
M  V30 4837 H 462.548 5.27724 -5.47185 0
M  V30 4838 N 464.123 0.554532 1.47522 0
M  V30 4839 C 465.371 0.0294208 2.02079 0
M  V30 4840 C 465.692 -1.32411 1.43151 0
M  V30 4841 O 464.962 -1.863 0.605728 0
M  V30 4842 H 463.542 0.00788672 0.746958 0
M  V30 4843 H 466.204 0.723934 1.80956 0
M  V30 4844 H 465.3 -0.0606745 3.12041 0
M  V30 4845 N 465.601 -1.54893 0.290851 0
M  V30 4846 C 466.549 -2.24579 -0.605576 0
M  V30 4847 C 467.543 -1.24824 -1.14522 0
M  V30 4848 O 468.749 -1.42706 -1.09704 0
M  V30 4849 H 465.124 -0.720946 -0.213872 0
M  V30 4850 H 467.095 -2.984 0.0048173 0
M  V30 4851 C 465.844 -2.99224 -1.77088 0
M  V30 4852 H 465.167 -3.75782 -1.36484 0
M  V30 4853 H 466.607 -3.51281 -2.3744 0
M  V30 4854 C 465.066 -2.05602 -2.66888 0
M  V30 4855 O 465.596 -1.61745 -3.67698 0
M  V30 4856 N 463.802 -1.71771 -2.34399 0
M  V30 4857 H 463.349 -2.07633 -1.52468 0
M  V30 4858 H 463.307 -1.09403 -2.94751 0
M  V30 4859 N 467.08 -0.0183926 -1.57589 0
M  V30 4860 C 468.491 0.521927 -1.79256 0
M  V30 4861 C 468.842 1.72885 -0.927636 0
M  V30 4862 O 467.967 2.15978 -0.135091 0
M  V30 4863 C 468.562 0.953632 -3.25102 0
M  V30 4864 C 467.121 1.43913 -3.47801 0
M  V30 4865 C 466.268 0.398837 -2.74417 0
M  V30 4866 H 469.219 -0.244485 -1.56805 0
M  V30 4867 H 469.24 1.81863 -3.34224 0
M  V30 4868 H 468.752 0.0750123 -3.88028 0
M  V30 4869 H 466.853 2.33804 -2.90115 0
M  V30 4870 H 466.966 1.45391 -4.56507 0
M  V30 4871 H 465.33 0.864572 -2.39577 0
M  V30 4872 H 466.113 -0.471132 -3.40052 0
M  V30 4873 N 468.558 1.5553 0.254621 0
M  V30 4874 C 469.521 1.88872 1.29846 0
M  V30 4875 C 470.521 0.764591 1.41459 0
M  V30 4876 O 471.711 1.03265 1.40293 0
M  V30 4877 C 468.843 2.11032 2.67728 0
M  V30 4878 H 470.036 2.82201 1.01502 0
M  V30 4879 H 467.589 1.48303 0.493556 0
M  V30 4880 H 468.324 1.20146 3.01223 0
M  V30 4881 H 468.109 2.92895 2.60682 0
M  V30 4882 H 469.599 2.38038 3.43115 0
M  V30 4883 N 470.036 -0.519951 1.48776 0
M  V30 4884 C 470.946 -1.65025 1.66745 0
M  V30 4885 C 471.962 -1.6508 0.549954 0
M  V30 4886 O 473.138 -1.83848 0.822295 0
M  V30 4887 C 470.203 -3.0146 1.71238 0
M  V30 4888 C 469.264 -3.12182 2.94688 0
M  V30 4889 C 468.497 -4.42109 2.98958 0
M  V30 4890 O 468.72 -5.29799 2.1135 0
M  V30 4891 O 467.654 -4.57406 3.91233 0
M  V30 4892 H 471.48 -1.52801 2.62461 0
M  V30 4893 H 469.065 -0.694157 1.32294 0
M  V30 4894 H 470.947 -3.82584 1.76657 0
M  V30 4895 H 469.622 -3.13988 0.786975 0
M  V30 4896 H 468.529 -2.30316 2.94797 0
M  V30 4897 H 469.862 -3.04574 3.86646 0
M  V30 4898 N 471.514 -1.37532 -0.769588 0
M  V30 4899 C 472.93 -1.18379 -1.07045 0
M  V30 4900 C 473.13 -0.0214312 -2.01489 0
M  V30 4901 O 472.186 0.637809 -2.44312 0
M  V30 4902 C 473.499 -2.50338 -1.66588 0
M  V30 4903 C 475.047 -2.56879 -1.78835 0
M  V30 4904 C 475.522 -3.88974 -2.41792 0
M  V30 4905 N 477.013 -3.90428 -2.4924 0
M  V30 4906 C 477.748 -4.89388 -2.98809 0
M  V30 4907 N 477.244 -5.98745 -3.48535 0
M  V30 4908 N 479.037 -4.76791 -2.97703 0
M  V30 4909 H 471.188 -2.11921 -0.142541 0
M  V30 4910 H 473.451 -0.939608 -0.125863 0
M  V30 4911 H 473.157 -3.35767 -1.0466 0
M  V30 4912 H 473.031 -2.67583 -2.65856 0
M  V30 4913 H 475.418 -1.71856 -2.39895 0
M  V30 4914 H 475.499 -2.43516 -0.783166 0
M  V30 4915 H 475.143 -4.74412 -1.81371 0
M  V30 4916 H 475.073 -3.99641 -3.4292 0
M  V30 4917 H 477.564 -3.11433 -2.14052 0
M  V30 4918 H 477.877 -6.70205 -3.84767 0
M  V30 4919 H 476.222 -6.02387 -3.46634 0
M  V30 4920 H 479.413 -3.90478 -2.58157 0
M  V30 4921 H 479.586 -5.54069 -3.36024 0
M  V30 4922 N 472.992 0.995999 -1.22138 0
M  V30 4923 C 473.94 2.10673 -0.985876 0
M  V30 4924 C 474.934 1.69255 0.0699553 0
M  V30 4925 O 476.14 1.79812 -0.0822176 0
M  V30 4926 H 472.515 0.688865 -0.30161 0
M  V30 4927 H 474.486 2.27711 -1.92848 0
M  V30 4928 C 473.235 3.42881 -0.576909 0
M  V30 4929 H 472.558 3.75191 -1.38101 0
M  V30 4930 H 473.998 4.21589 -0.451518 0
M  V30 4931 C 472.457 3.29265 0.713196 0
M  V30 4932 O 472.987 3.60777 1.76643 0
M  V30 4933 N 471.193 2.82456 0.683162 0
M  V30 4934 H 470.74 2.5701 -0.174242 0
M  V30 4935 H 470.698 2.73727 1.54663 0
M  V30 4936 N 474.47 1.03057 1.19235 0
M  V30 4937 C 475.747 0.642608 1.84743 0
M  V30 4938 C 476.127 -0.878577 1.91948 0
M  V30 4939 O 475.475 -1.77597 1.43776 0
M  V30 4940 C 475.685 1.30665 3.23616 0
M  V30 4941 C 477.033 1.43098 3.9976 0
M  V30 4942 O 478.057 1.26396 3.3302 0
M  V30 4943 O 476.916 1.70223 5.19313 0
M  V30 4944 H 474.01 0.223573 0.796206 0
M  V30 4945 H 476.556 1.12883 1.26711 0
M  V30 4946 H 475.328 2.34544 3.13217 0
M  V30 4947 H 474.951 0.808405 3.89295 0
M  V30 4948 N 475.948 -1.35272 0.808662 0
M  V30 4949 C 477.197 -1.97963 0.386483 0
M  V30 4950 C 477.51 -1.64866 -1.05255 0
M  V30 4951 O 478.716 -2.20937 -1.57794 0
M  V30 4952 C 477.172 -3.54162 0.640096 0
M  V30 4953 C 476.78 -3.96166 2.0918 0
M  V30 4954 C 478.524 -4.23553 0.283376 0
M  V30 4955 C 476.431 -5.4522 2.29106 0
M  V30 4956 H 475.361 -0.740742 0.140774 0
M  V30 4957 H 478.012 -1.5431 0.993012 0
M  V30 4958 H 476.394 -3.95983 -0.0364117 0
M  V30 4959 H 477.568 -3.65491 2.80629 0
M  V30 4960 H 475.883 -3.3967 2.40859 0
M  V30 4961 H 478.48 -5.33124 0.410273 0
M  V30 4962 H 478.823 -4.09105 -0.770659 0
M  V30 4963 H 479.356 -3.8716 0.913884 0
M  V30 4964 H 476.095 -5.64638 3.32962 0
M  V30 4965 H 475.615 -5.77457 1.62184 0
M  V30 4966 H 477.294 -6.1171 2.1076 0
M  V30 4967 N 477.426 -0.562348 -1.47226 0
M  V30 4968 C 478.389 0.172056 -2.28553 0
M  V30 4969 C 479.389 0.837928 -1.37242 0
M  V30 4970 O 480.579 0.693001 -1.59822 0
M  V30 4971 C 477.711 1.25223 -3.17068 0
M  V30 4972 H 478.904 -0.542401 -2.94954 0
M  V30 4973 H 476.457 -0.319493 -1.53 0
M  V30 4974 H 477.192 1.99892 -2.55369 0
M  V30 4975 H 476.977 0.779515 -3.84273 0
M  V30 4976 H 478.467 1.76791 -3.78332 0
M  V30 4977 N 478.904 1.54736 -0.299062 0
M  V30 4978 C 479.837 2.1962 0.619851 0
M  V30 4979 C 480.815 1.16496 1.13434 0
M  V30 4980 O 481.999 1.4513 1.2029 0
M  V30 4981 C 479.126 2.8385 1.84788 0
M  V30 4982 C 478.172 4.00484 1.46679 0
M  V30 4983 S 479.005 5.32926 0.524389 0
M  V30 4984 C 480.161 6.00638 1.76026 0
M  V30 4985 H 480.394 2.97221 0.0686177 0
M  V30 4986 H 477.927 1.54176 -0.0832085 0
M  V30 4987 H 479.885 3.21483 2.55263 0
M  V30 4988 H 478.546 2.06099 2.37028 0
M  V30 4989 H 477.739 4.44201 2.38121 0
M  V30 4990 H 477.341 3.64398 0.842008 0
M  V30 4991 H 479.633 6.21327 2.70109 0
M  V30 4992 H 480.576 6.94805 1.36569 0
M  V30 4993 H 480.984 5.3026 1.93609 0
M  V30 4994 N 480.382 0.0267497 1.57577 0
M  V30 4995 C 481.63 -0.651116 1.91324 0
M  V30 4996 C 481.951 -1.72804 0.90353 0
M  V30 4997 O 481.221 -1.95822 -0.0552946 0
M  V30 4998 H 479.801 -0.243491 0.706202 0
M  V30 4999 H 482.463 0.0739935 1.94759 0
M  V30 5000 H 481.559 -1.10536 2.9187 0
M  V30 5001 N 481.861 -1.55662 -0.24637 0
M  V30 5002 C 483.272 -1.67953 -0.81539 0
M  V30 5003 C 483.623 -0.624302 -1.86002 0
M  V30 5004 O 482.748 0.229328 -2.15181 0
M  V30 5005 C 483.343 -3.04484 -1.48576 0
M  V30 5006 C 481.902 -3.18713 -2.00248 0
M  V30 5007 C 481.049 -2.6383 -0.853766 0
M  V30 5008 H 484 -1.58685 -0.0221692 0
M  V30 5009 H 484.021 -2.98959 -2.3538 0
M  V30 5010 H 483.533 -3.81264 -0.725222 0
M  V30 5011 H 481.634 -2.46757 -2.79181 0
M  V30 5012 H 481.747 -4.25628 -2.1995 0
M  V30 5013 H 480.111 -2.21667 -1.25442 0
M  V30 5014 H 480.894 -3.43135 -0.106302 0
M  V30 5015 N 483.339 0.512053 -1.4905 0
M  V30 5016 C 484.269 1.62365 -1.67809 0
M  V30 5017 C 485.25 1.61737 -0.526809 0
M  V30 5018 O 486.435 1.78651 -0.761404 0
M  V30 5019 C 483.565 3.00895 -1.73435 0
M  V30 5020 C 482.519 3.16387 -2.88242 0
M  V30 5021 C 481.845 4.56157 -2.78971 0
M  V30 5022 C 483.145 2.97457 -4.29321 0
M  V30 5023 H 484.839 1.46921 -2.60873 0
M  V30 5024 H 482.385 0.705379 -1.2554 0
M  V30 5025 H 484.338 3.78549 -1.85145 0
M  V30 5026 H 483.062 3.17403 -0.769619 0
M  V30 5027 H 481.721 2.41155 -2.76116 0
M  V30 5028 H 481.369 4.69525 -1.8043 0
M  V30 5029 H 481.069 4.67465 -3.5602 0
M  V30 5030 H 482.593 5.35886 -2.92675 0
M  V30 5031 H 484.007 3.64888 -4.42187 0
M  V30 5032 H 482.404 3.20245 -5.07507 0
M  V30 5033 H 483.474 1.93692 -4.44535 0
M  V30 5034 N 484.817 1.37938 0.762283 0
M  V30 5035 C 486.066 1.32989 1.51647 0
M  V30 5036 C 486.379 -0.0802922 1.95435 0
M  V30 5037 O 487.585 -0.252295 2.70325 0
M  V30 5038 C 486.041 2.33485 2.73885 0
M  V30 5039 C 485.649 3.80079 2.37157 0
M  V30 5040 C 487.393 2.37563 3.51801 0
M  V30 5041 C 485.3 4.72283 3.55954 0
M  V30 5042 H 484.23 0.494301 0.56937 0
M  V30 5043 H 486.881 1.63448 0.834083 0
M  V30 5044 H 485.263 1.96056 3.44061 0
M  V30 5045 H 486.437 4.26398 1.74704 0
M  V30 5046 H 484.752 3.79037 1.72395 0
M  V30 5047 H 487.349 3.0365 4.40114 0
M  V30 5048 H 487.692 1.39199 3.92338 0
M  V30 5049 H 488.225 2.73747 2.8863 0
M  V30 5050 H 484.964 5.7181 3.2049 0
M  V30 5051 H 484.484 4.30663 4.1748 0
M  V30 5052 H 486.163 4.89876 4.22647 0
M  V30 5053 N 486.295 -0.989507 1.22664 0
M  V30 5054 C 487.243 -2.10148 0.997035 0
M  V30 5055 C 488.237 -1.6929 -0.0609783 0
M  V30 5056 O 489.443 -1.79766 0.0917523 0
M  V30 5057 H 485.818 -0.687256 0.305259 0
M  V30 5058 H 487.789 -2.26685 1.94053 0
M  V30 5059 C 486.538 -3.4257 0.595085 0
M  V30 5060 H 485.861 -3.74453 1.40089 0
M  V30 5061 H 487.301 -4.21344 0.473869 0
M  V30 5062 C 485.76 -3.29638 -0.695725 0
M  V30 5063 O 486.29 -3.61709 -1.74727 0
M  V30 5064 N 484.496 -2.82814 -0.668173 0
M  V30 5065 H 484.043 -2.56914 0.18787 0
M  V30 5066 H 484.001 -2.74544 -1.5321 0
M  V30 5067 N 487.773 -1.03688 -1.18687 0
M  V30 5068 C 488.736 -0.629115 -2.20397 0
M  V30 5069 C 489.736 0.311495 -1.57754 0
M  V30 5070 O 490.926 0.0974107 -1.73927 0
M  V30 5071 C 488.058 0.0782231 -3.4081 0
M  V30 5072 H 489.251 -1.52915 -2.57987 0
M  V30 5073 H 486.804 -0.828988 -1.32505 0
M  V30 5074 H 487.539 0.992233 -3.08748 0
M  V30 5075 H 487.324 -0.597776 -3.87517 0
M  V30 5076 H 488.814 0.350156 -4.16129 0
M  V30 5077 N 489.251 1.34841 -0.815825 0
M  V30 5078 C 490.214 2.27959 -0.238185 0
M  V30 5079 C 491.214 1.49983 0.579816 0
M  V30 5080 O 492.404 1.69617 0.396953 0
M  V30 5081 C 489.536 3.34314 0.666876 0
M  V30 5082 H 490.729 2.80558 -1.05958 0
M  V30 5083 H 488.282 1.44852 -0.587156 0
M  V30 5084 H 489.017 2.86916 1.5116 0
M  V30 5085 H 488.802 3.92014 0.0819106 0
M  V30 5086 H 490.292 4.0379 1.06506 0
M  V30 5087 N 490.729 0.570148 1.46925 0
M  V30 5088 C 491.692 -0.159933 2.28641 0
M  V30 5089 C 492.692 -0.830638 1.37685 0
M  V30 5090 O 493.882 -0.684516 1.60187 0
M  V30 5091 C 491.014 -1.2354 3.17727 0
M  V30 5092 H 492.207 0.558035 2.94662 0
M  V30 5093 H 489.76 0.327603 1.52828 0
M  V30 5094 H 490.495 -1.98535 2.56426 0
M  V30 5095 H 490.28 -0.759125 3.84681 0
M  V30 5096 H 491.77 -1.74782 3.79264 0
M  V30 5097 N 492.207 -1.54576 0.307264 0
M  V30 5098 C 493.137 -2.26708 -0.55907 0
M  V30 5099 C 494.118 -1.26893 -1.1328 0
M  V30 5100 O 495.303 -1.55677 -1.16097 0
M  V30 5101 C 492.433 -3.01259 -1.72801 0
M  V30 5102 C 491.387 -4.08275 -1.28435 0
M  V30 5103 C 490.713 -4.70575 -2.53895 0
M  V30 5104 C 492.013 -5.2068 -0.411038 0
M  V30 5105 H 493.707 -2.9937 0.042576 0
M  V30 5106 H 491.253 -1.43983 0.0219173 0
M  V30 5107 H 493.206 -3.50444 -2.34023 0
M  V30 5108 H 491.93 -2.26187 -2.356 0
M  V30 5109 H 490.589 -3.59949 -0.695161 0
M  V30 5110 H 490.237 -3.92136 -3.15021 0
M  V30 5111 H 489.937 -5.42854 -2.24908 0
M  V30 5112 H 491.461 -5.22527 -3.15908 0
M  V30 5113 H 492.875 -5.65721 -0.929097 0
M  V30 5114 H 491.272 -5.99716 -0.214664 0
M  V30 5115 H 492.342 -4.81629 0.562287 0
M  V30 5116 N 493.685 -0.035106 -1.57561 0
M  V30 5117 C 494.595 0.960295 -2.14046 0
M  V30 5118 C 495.611 1.3529 -1.0942 0
M  V30 5119 O 496.787 1.43309 -1.41508 0
M  V30 5120 C 493.852 2.22214 -2.66124 0
M  V30 5121 C 492.913 1.8894 -3.85487 0
M  V30 5122 C 492.146 3.09109 -4.35072 0
M  V30 5123 O 492.369 4.21963 -3.83802 0
M  V30 5124 O 491.303 2.91058 -5.26848 0
M  V30 5125 H 495.129 0.509983 -2.99387 0
M  V30 5126 H 492.714 0.185853 -1.48239 0
M  V30 5127 H 494.596 2.96279 -2.99661 0
M  V30 5128 H 493.271 2.66414 -1.83862 0
M  V30 5129 H 492.178 1.12241 -3.56865 0
M  V30 5130 H 493.511 1.49551 -4.6893 0
M  V30 5131 N 495.163 1.55791 0.238111 0
M  V30 5132 C 496.579 1.48411 0.587045 0
M  V30 5133 C 496.779 0.72702 1.87927 0
M  V30 5134 O 495.835 0.259942 2.51158 0
M  V30 5135 C 497.148 2.92873 0.681623 0
M  V30 5136 C 498.696 3.03295 0.773363 0
M  V30 5137 C 499.171 4.49082 0.899428 0
M  V30 5138 N 500.662 4.53056 0.964075 0
M  V30 5139 C 501.397 5.63117 1.08104 0
M  V30 5140 N 500.893 6.82969 1.16299 0
M  V30 5141 N 502.686 5.50933 1.11488 0
M  V30 5142 H 494.837 2.0345 -0.610076 0
M  V30 5143 H 497.1 0.924034 -0.211813 0
M  V30 5144 H 496.806 3.51142 -0.19802 0
M  V30 5145 H 496.68 3.43851 1.55069 0
M  V30 5146 H 499.067 2.45101 1.64346 0
M  V30 5147 H 499.148 2.55513 -0.121034 0
M  V30 5148 H 498.792 5.07889 0.0338586 0
M  V30 5149 H 498.722 4.94553 1.809 0
M  V30 5150 H 501.213 3.66737 0.91173 0
M  V30 5151 H 501.526 7.62598 1.25155 0
M  V30 5152 H 499.871 6.85712 1.13241 0
M  V30 5153 H 503.062 4.56231 1.0474 0
M  V30 5154 H 503.235 6.36743 1.20259 0
M  V30 5155 N 496.642 -0.504142 1.49319 0
M  V30 5156 C 497.888 -1.26033 1.58882 0
M  V30 5157 C 498.221 -1.92268 0.273274 0
M  V30 5158 O 497.496 -1.80567 -0.72291 0
M  V30 5159 C 497.779 -2.32976 2.7458 0
M  V30 5160 C 497.632 -1.71263 4.1592 0
M  V30 5161 C 498.951 -3.34561 2.85932 0
M  V30 5162 H 496.07 -0.456863 0.578312 0
M  V30 5163 H 498.712 -0.558965 1.81592 0
M  V30 5164 H 496.862 -2.92796 2.55348 0
M  V30 5165 H 498.534 -1.15294 4.4666 0
M  V30 5166 H 496.777 -1.01686 4.21714 0
M  V30 5167 H 497.448 -2.48816 4.92742 0
M  V30 5168 H 499.924 -2.84727 3.0343 0
M  V30 5169 H 498.8 -4.06754 3.68568 0
M  V30 5170 H 499.061 -3.96695 1.95154 0
M  V30 5171 N 498.12 -1.38341 -0.754957 0
M  V30 5172 C 499.03 -1.3769 -1.89944 0
M  V30 5173 C 500.046 -0.274194 -1.71826 0
M  V30 5174 O 501.222 -0.512391 -1.94773 0
M  V30 5175 C 498.287 -1.19938 -3.25293 0
M  V30 5176 C 497.348 -2.40001 -3.55946 0
M  V30 5177 C 496.581 -2.23087 -4.84838 0
M  V30 5178 O 496.804 -1.22386 -5.57116 0
M  V30 5179 O 495.738 -3.11646 -5.14937 0
M  V30 5180 H 499.564 -2.3412 -1.93446 0
M  V30 5181 H 497.149 -1.19246 -0.900044 0
M  V30 5182 H 499.031 -1.12093 -4.06218 0
M  V30 5183 H 497.706 -0.265919 -3.22606 0
M  V30 5184 H 496.613 -2.53421 -2.75188 0
M  V30 5185 H 497.946 -3.31973 -3.63394 0
M  V30 5186 N 499.598 0.982988 -1.23187 0
M  V30 5187 C 500.53 2.07729 -0.968572 0
M  V30 5188 C 501.543 1.62702 0.0564821 0
M  V30 5189 O 502.732 1.77603 -0.178733 0
M  V30 5190 C 499.832 3.36071 -0.436974 0
M  V30 5191 C 499.005 4.10081 -1.52159 0
M  V30 5192 C 498.064 5.16701 -0.99532 0
M  V30 5193 O 497.09 5.43727 -1.68373 0
M  V30 5194 N 498.292 5.80226 0.178192 0
M  V30 5195 H 501.057 2.30894 -1.9107 0
M  V30 5196 H 498.618 1.14949 -1.1401 0
M  V30 5197 H 500.61 4.04639 -0.0700051 0
M  V30 5198 H 499.18 3.09893 0.410509 0
M  V30 5199 H 498.4 3.36004 -2.06144 0
M  V30 5200 H 499.688 4.56295 -2.25105 0
M  V30 5201 H 499.086 5.60651 0.754096 0
M  V30 5202 H 497.643 6.49982 0.486449 0
M  V30 5203 N 501.076 1.04316 1.18135 0
M  V30 5204 C 502.023 0.636398 2.21853 0
M  V30 5205 C 502.993 -0.357039 1.62217 0
M  V30 5206 O 504.178 -0.250453 1.89149 0
M  V30 5207 C 501.318 0.00812779 3.45099 0
M  V30 5208 C 500.431 1.04933 4.19062 0
M  V30 5209 C 499.566 0.389313 5.29771 0
M  V30 5210 C 498.605 1.41544 5.9551 0
M  V30 5211 N 497.742 0.78021 6.97751 0
M  V30 5212 H 502.582 1.52536 2.56002 0
M  V30 5213 H 500.119 0.76304 1.25762 0
M  V30 5214 H 502.077 -0.373497 4.15525 0
M  V30 5215 H 500.707 -0.844336 3.11562 0
M  V30 5216 H 499.759 1.54888 3.47439 0
M  V30 5217 H 501.071 1.82862 4.64072 0
M  V30 5218 H 500.225 -0.0463805 6.06682 0
M  V30 5219 H 498.964 -0.422038 4.8587 0
M  V30 5220 H 497.969 1.86124 5.17337 0
M  V30 5221 H 499.194 2.22854 6.41493 0
M  V30 5222 H 497.14 -0.0107899 6.55999 0
M  V30 5223 H 497.057 1.49716 7.41027 0
M  V30 5224 H 498.325 0.368996 7.78626 0
M  V30 5225 N 502.554 -1.34406 0.822964 0
M  V30 5226 C 503.8 -1.98578 0.411666 0
M  V30 5227 C 504.133 -1.65093 -1.02264 0
M  V30 5228 O 503.408 -0.92258 -1.71227 0
M  V30 5229 C 503.691 -3.54823 0.614235 0
M  V30 5230 C 503.544 -3.9805 2.09466 0
M  V30 5231 C 504.863 -4.40071 0.050221 0
M  V30 5232 H 501.982 -0.721355 0.151047 0
M  V30 5233 H 504.624 -1.59301 1.03554 0
M  V30 5234 H 502.774 -3.88411 0.0831774 0
M  V30 5235 H 504.446 -3.74795 2.68936 0
M  V30 5236 H 502.689 -3.4836 2.5851 0
M  V30 5237 H 503.36 -5.06819 2.18721 0
M  V30 5238 H 505.836 -4.13037 0.503953 0
M  V30 5239 H 504.712 -5.48452 0.221759 0
M  V30 5240 H 504.973 -4.29576 -1.04482 0
M  V30 5241 N 504.032 -0.577932 -1.46621 0
M  V30 5242 C 504.995 0.147805 -2.28723 0
M  V30 5243 C 505.995 0.823325 -1.38123 0
M  V30 5244 O 507.185 0.676011 -1.60548 0
M  V30 5245 C 504.317 1.21853 -3.18378 0
M  V30 5246 H 505.51 -0.573654 -2.94362 0
M  V30 5247 H 503.063 -0.335703 -1.52652 0
M  V30 5248 H 503.798 1.97173 -2.57475 0
M  V30 5249 H 503.583 0.738714 -3.85078 0
M  V30 5250 H 505.073 1.72768 -3.80186 0
M  V30 5251 N 505.51 1.54411 -0.315457 0
M  V30 5252 C 506.926 1.59556 0.037464 0
M  V30 5253 C 507.126 1.33217 1.5118 0
M  V30 5254 O 506.182 1.11264 2.26664 0
M  V30 5255 C 507.495 2.98372 -0.373477 0
M  V30 5256 C 509.043 3.11324 -0.323452 0
M  V30 5257 C 509.518 4.52472 -0.709433 0
M  V30 5258 N 511.009 4.58437 -0.662524 0
M  V30 5259 C 511.744 5.65751 -0.933474 0
M  V30 5260 N 511.24 6.81039 -1.27114 0
M  V30 5261 N 513.033 5.55489 -0.859573 0
M  V30 5262 H 505.184 1.6979 -1.27614 0
M  V30 5263 H 507.447 0.793732 -0.518356 0
M  V30 5264 H 507.153 3.22618 -1.40037 0
M  V30 5265 H 507.027 3.76264 0.265615 0
M  V30 5266 H 509.414 2.86818 0.694223 0
M  V30 5267 H 509.495 2.35555 -0.997367 0
M  V30 5268 H 509.139 4.7771 -1.72498 0
M  V30 5269 H 509.069 5.26598 -0.0132923 0
M  V30 5270 H 511.56 3.75636 -0.413065 0
M  V30 5271 H 511.873 7.58816 -1.46348 0
M  V30 5272 H 510.218 6.82555 -1.30932 0
M  V30 5273 H 513.409 4.64299 -0.595324 0
M  V30 5274 H 513.582 6.39036 -1.0741 0
M  V30 5275 N 506.988 0.0434614 1.5754 0
M  V30 5276 C 507.951 -0.918696 2.09982 0
M  V30 5277 C 508.951 -1.24488 1.01781 0
M  V30 5278 O 510.141 -1.18284 1.27885 0
M  V30 5279 C 507.273 -2.23093 2.57764 0
M  V30 5280 H 508.466 -0.464229 2.96285 0
M  V30 5281 H 506.019 -0.204818 1.54952 0
M  V30 5282 H 506.754 -2.73137 1.74832 0
M  V30 5283 H 506.539 -2.00724 3.36827 0
M  V30 5284 H 508.029 -2.92028 2.98512 0
M  V30 5285 N 508.466 -1.55915 -0.229846 0
M  V30 5286 C 509.712 -1.78807 -0.956868 0
M  V30 5287 C 510.045 -0.611687 -1.84315 0
M  V30 5288 O 509.32 0.389398 -1.90562 0
M  V30 5289 C 509.603 -3.11718 -1.80288 0
M  V30 5290 C 509.456 -4.3979 -0.943649 0
M  V30 5291 C 510.775 -3.40999 -2.78222 0
M  V30 5292 H 507.894 -0.6505 -0.346437 0
M  V30 5293 H 510.536 -1.88648 -0.226252 0
M  V30 5294 H 508.686 -3.03459 -2.42579 0
M  V30 5295 H 510.358 -4.60059 -0.338121 0
M  V30 5296 H 508.601 -4.33086 -0.248705 0
M  V30 5297 H 509.272 -5.29208 -1.5698 0
M  V30 5298 H 511.748 -3.49332 -2.26067 0
M  V30 5299 H 510.624 -4.35183 -3.34526 0
M  V30 5300 H 510.885 -2.62754 -3.55546 0
M  V30 5301 N 509.944 0.496216 -1.49584 0
M  V30 5302 C 510.854 1.62352 -1.69349 0
M  V30 5303 C 511.87 1.64184 -0.576147 0
M  V30 5304 O 513.046 1.82517 -0.85144 0
M  V30 5305 C 510.111 2.98698 -1.76013 0
M  V30 5306 C 509.172 3.07454 -2.99617 0
M  V30 5307 C 508.405 4.37296 -3.05953 0
M  V30 5308 O 508.628 5.2637 -2.19752 0
M  V30 5309 O 507.562 4.51124 -3.9846 0
M  V30 5310 H 511.388 1.48606 -2.64859 0
M  V30 5311 H 508.973 0.673022 -1.33382 0
M  V30 5312 H 510.855 3.79725 -1.82721 0
M  V30 5313 H 509.53 3.12696 -0.836828 0
M  V30 5314 H 508.437 2.25597 -2.98424 0
M  V30 5315 H 509.77 2.98385 -3.91443 0
M  V30 5316 N 511.423 1.38739 0.74761 0
M  V30 5317 C 512.333 1.38696 1.89211 0
M  V30 5318 C 513.349 0.283303 1.71678 0
M  V30 5319 O 514.525 0.522713 1.94498 0
M  V30 5320 C 511.59 1.21662 3.24653 0
M  V30 5321 C 510.651 2.41886 3.54669 0
M  V30 5322 C 509.884 2.25655 4.83648 0
M  V30 5323 O 510.107 1.25339 5.56459 0
M  V30 5324 O 509.041 3.14372 5.13277 0
M  V30 5325 H 512.867 2.35143 1.92202 0
M  V30 5326 H 510.452 1.19721 0.893708 0
M  V30 5327 H 512.334 1.14246 4.05618 0
M  V30 5328 H 511.009 0.283024 3.2246 0
M  V30 5329 H 509.916 2.54877 2.73841 0
M  V30 5330 H 511.249 3.33895 3.61628 0
M  V30 5331 N 512.901 -0.976442 1.23707 0
M  V30 5332 C 514.149 -1.71487 1.06942 0
M  V30 5333 C 514.47 -1.9098 -0.393897 0
M  V30 5334 O 513.74 -1.48128 -1.28198 0
M  V30 5335 H 512.32 -0.635425 0.392739 0
M  V30 5336 H 514.982 -1.17515 1.55487 0
M  V30 5337 H 514.078 -2.70286 1.56051 0
M  V30 5338 N 514.379 -1.04941 -1.1758 0
M  V30 5339 C 515.342 -0.652456 -2.19717 0
M  V30 5340 C 516.342 0.294745 -1.58076 0
M  V30 5341 O 517.532 0.0789579 -1.74021 0
M  V30 5342 C 514.664 0.0420712 -3.40874 0
M  V30 5343 H 515.857 -1.55642 -2.5635 0
M  V30 5344 H 513.41 -0.842995 -1.31618 0
M  V30 5345 H 514.145 0.95943 -3.09783 0
M  V30 5346 H 513.93 -0.638844 -3.86861 0
M  V30 5347 H 515.42 0.306 -4.16477 0
M  V30 5348 N 515.857 1.33968 -0.830081 0
M  V30 5349 C 517.273 1.51003 -0.516742 0
M  V30 5350 C 517.473 1.77286 0.957694 0
M  V30 5351 O 516.529 1.82797 1.74188 0
M  V30 5352 C 517.842 2.67036 -1.38247 0
M  V30 5353 C 519.39 2.80919 -1.38034 0
M  V30 5354 C 519.865 4.00004 -2.23071 0
M  V30 5355 N 521.356 4.07224 -2.20733 0
M  V30 5356 C 522.091 4.98541 -2.83275 0
M  V30 5357 N 521.587 5.95033 -3.54835 0
M  V30 5358 N 523.38 4.91469 -2.72791 0
M  V30 5359 H 515.531 1.15168 -1.78466 0
M  V30 5360 H 517.794 0.565443 -0.760906 0
M  V30 5361 H 517.5 2.54266 -2.42985 0
M  V30 5362 H 517.374 3.62226 -1.05225 0
M  V30 5363 H 519.761 2.93127 -0.340713 0
M  V30 5364 H 519.842 1.86517 -1.75057 0
M  V30 5365 H 519.486 3.88557 -3.27087 0
M  V30 5366 H 519.416 4.93634 -1.83394 0
M  V30 5367 H 521.907 3.38162 -1.68687 0
M  V30 5368 H 522.22 6.61357 -3.99784 0
M  V30 5369 H 520.565 5.95135 -3.58942 0
M  V30 5370 H 523.756 4.15048 -2.16456 0
M  V30 5371 H 523.929 5.62439 -3.21818 0
M  V30 5372 N 517.335 0.585699 1.46312 0
M  V30 5373 C 518.581 0.0725284 2.0267 0
M  V30 5374 C 518.914 -1.28523 1.45586 0
M  V30 5375 O 518.189 -1.84283 0.622101 0
M  V30 5376 C 518.472 0.0099788 3.60099 0
M  V30 5377 C 518.325 1.39685 4.27561 0
M  V30 5378 C 519.644 -0.689117 4.34671 0
M  V30 5379 H 516.763 0.0278307 0.736474 0
M  V30 5380 H 519.405 0.753472 1.74421 0
M  V30 5381 H 517.555 -0.56992 3.84297 0
M  V30 5382 H 519.227 2.02215 4.14617 0
M  V30 5383 H 517.47 1.96374 3.86807 0
M  V30 5384 H 518.141 1.30553 5.36339 0
M  V30 5385 H 520.617 -0.196446 4.15636 0
M  V30 5386 H 519.493 -0.701921 5.44393 0
M  V30 5387 H 519.754 -1.75101 4.05946 0
M  V30 5388 N 518.813 -1.54241 0.323641 0
M  V30 5389 C 519.776 -2.22997 -0.529602 0
M  V30 5390 C 520.776 -1.22345 -1.04347 0
M  V30 5391 O 521.966 -1.46924 -0.935889 0
M  V30 5392 C 519.098 -2.93409 -1.73562 0
M  V30 5393 H 520.291 -2.99815 0.0714518 0
M  V30 5394 H 517.844 -1.56121 0.0747258 0
M  V30 5395 H 518.579 -2.20729 -2.37591 0
M  V30 5396 H 518.364 -3.67217 -1.37456 0
M  V30 5397 H 519.854 -3.45794 -2.34128 0
M  V30 5398 N 520.291 -0.0518155 -1.57515 0
M  V30 5399 C 521.538 0.621823 -1.92716 0
M  V30 5400 C 521.866 1.70813 -0.930229 0
M  V30 5401 O 521.121 1.95616 0.0573708 0
M  V30 5402 C 521.42 1.25607 -3.34601 0
M  V30 5403 C 521.086 0.297901 -4.49915 0
M  V30 5404 C 519.748 0.034243 -4.81188 0
M  V30 5405 C 522.1 -0.358738 -5.19964 0
M  V30 5406 C 519.428 -0.893479 -5.79857 0
M  V30 5407 C 521.78 -1.27466 -6.19625 0
M  V30 5408 C 520.444 -1.54698 -6.49326 0
M  V30 5409 H 519.714 0.227541 -0.705199 0
M  V30 5410 H 522.361 -0.118432 -1.91133 0
M  V30 5411 H 520.666 2.07161 -3.32553 0
M  V30 5412 H 522.363 1.78424 -3.59118 0
M  V30 5413 H 518.953 0.513581 -4.25512 0
M  V30 5414 H 523.137 -0.168133 -4.96015 0
M  V30 5415 H 518.393 -1.11193 -6.01204 0
M  V30 5416 H 522.567 -1.78953 -6.73015 0
M  V30 5417 H 520.194 -2.26748 -7.25596 0
M  V30 5418 N 521.769 1.56035 0.221574 0
M  V30 5419 C 523.017 1.78693 0.944102 0
M  V30 5420 C 523.338 0.620317 1.8487 0
M  V30 5421 O 522.608 -0.362784 1.92512 0
M  V30 5422 H 521.188 0.659082 0.351597 0
M  V30 5423 H 523.85 1.93497 0.233435 0
M  V30 5424 H 522.946 2.70837 1.55093 0
M  V30 5425 N 523.247 -0.488276 1.49845 0
M  V30 5426 C 524.495 -1.23911 1.59657 0
M  V30 5427 C 524.816 -1.92816 0.291005 0
M  V30 5428 O 524.086 -1.83328 -0.690485 0
M  V30 5429 H 522.666 -0.460357 0.588286 0
M  V30 5430 H 525.328 -0.564794 1.86537 0
M  V30 5431 H 524.424 -1.99625 2.39909 0
M  V30 5432 N 524.725 -1.39134 -0.740242 0
M  V30 5433 C 525.672 -1.37434 -1.8542 0
M  V30 5434 C 526.642 -0.234822 -1.64432 0
M  V30 5435 O 527.827 -0.429125 -1.85912 0
M  V30 5436 C 524.967 -1.21844 -3.22875 0
M  V30 5437 C 524.08 -2.45296 -3.55603 0
M  V30 5438 C 523.215 -2.22334 -4.82432 0
M  V30 5439 C 522.254 -3.41488 -5.07988 0
M  V30 5440 N 521.391 -3.17877 -6.26018 0
M  V30 5441 H 526.231 -2.3266 -1.86207 0
M  V30 5442 H 523.768 -1.15578 -0.909946 0
M  V30 5443 H 525.726 -1.10818 -4.02213 0
M  V30 5444 H 524.356 -0.3025 -3.21379 0
M  V30 5445 H 523.408 -2.66945 -2.71006 0
M  V30 5446 H 524.72 -3.34063 -3.7041 0
M  V30 5447 H 523.874 -2.0852 -5.69741 0
M  V30 5448 H 522.613 -1.30954 -4.6979 0
M  V30 5449 H 521.618 -3.55807 -4.19144 0
M  V30 5450 H 522.843 -4.33763 -5.22519 0
M  V30 5451 H 520.789 -2.29156 -6.14673 0
M  V30 5452 H 520.706 -4.00198 -6.41387 0
M  V30 5453 H 521.974 -3.07746 -7.16179 0
M  V30 5454 N 526.204 0.969867 -1.24223 0
M  V30 5455 C 527.167 2.04564 -1.03373 0
M  V30 5456 C 528.167 1.60798 0.00819206 0
M  V30 5457 O 529.357 1.72641 -0.232567 0
M  V30 5458 C 526.489 3.36163 -0.566343 0
M  V30 5459 H 527.682 2.24494 -1.98853 0
M  V30 5460 H 525.235 1.1448 -1.06415 0
M  V30 5461 H 525.97 3.21925 0.391751 0
M  V30 5462 H 525.755 3.69273 -1.31834 0
M  V30 5463 H 527.245 4.1526 -0.441435 0
M  V30 5464 N 527.682 1.05563 1.17022 0
M  V30 5465 C 528.928 0.769074 1.87652 0
M  V30 5466 C 529.261 -0.702326 1.81055 0
M  V30 5467 O 528.536 -1.5139 1.22112 0
M  V30 5468 C 528.819 1.25492 3.37526 0
M  V30 5469 C 528.672 2.78953 3.52853 0
M  V30 5470 C 529.991 0.856919 4.31677 0
M  V30 5471 H 527.11 0.280854 0.681388 0
M  V30 5472 H 529.752 1.31027 1.37593 0
M  V30 5473 H 527.902 0.794516 3.80289 0
M  V30 5474 H 529.574 3.33146 3.19079 0
M  V30 5475 H 527.817 3.18046 2.95007 0
M  V30 5476 H 528.488 3.08011 4.58076 0
M  V30 5477 H 530.964 1.25334 3.96775 0
M  V30 5478 H 529.84 1.22443 5.35069 0
M  V30 5479 H 530.101 -0.238787 4.41455 0
M  V30 5480 N 529.16 -1.33526 0.837174 0
M  V30 5481 C 530.07 -2.33023 0.271568 0
M  V30 5482 C 531.086 -1.63272 -0.601514 0
M  V30 5483 O 532.262 -1.94939 -0.506038 0
M  V30 5484 C 529.327 -3.42382 -0.545448 0
M  V30 5485 C 528.388 -4.27857 0.351709 0
M  V30 5486 C 527.621 -5.31994 -0.426409 0
M  V30 5487 O 527.844 -5.45763 -1.65828 0
M  V30 5488 O 526.778 -6.01572 0.1987 0
M  V30 5489 H 530.604 -2.83256 1.09545 0
M  V30 5490 H 528.189 -1.36837 0.599655 0
M  V30 5491 H 530.071 -4.09122 -1.00979 0
M  V30 5492 H 528.746 -2.94369 -1.34641 0
M  V30 5493 H 527.653 -3.6399 0.863853 0
M  V30 5494 H 528.986 -4.79349 1.1174 0
M  V30 5495 N 530.638 -0.59345 -1.46 0
M  V30 5496 C 531.886 -0.082988 -2.0193 0
M  V30 5497 C 532.207 1.28569 -1.46612 0
M  V30 5498 O 531.477 1.84629 -0.654909 0
M  V30 5499 H 530.057 -0.0276882 -0.746487 0
M  V30 5500 H 532.719 -0.771657 -1.78973 0
M  V30 5501 H 531.815 -0.022079 -3.12092 0
M  V30 5502 N 532.116 1.54067 -0.331816 0
M  V30 5503 C 533.063 2.24623 0.530372 0
M  V30 5504 C 534.033 1.24009 1.10503 0
M  V30 5505 O 535.218 1.52712 1.14384 0
M  V30 5506 C 532.358 3.01374 1.68129 0
M  V30 5507 C 531.471 4.16821 1.13507 0
M  V30 5508 C 530.606 4.81085 2.25234 0
M  V30 5509 C 529.645 5.88621 1.67903 0
M  V30 5510 N 528.782 6.46713 2.73326 0
M  V30 5511 H 533.622 2.97898 -0.0778607 0
M  V30 5512 H 531.159 1.47014 -0.0501965 0
M  V30 5513 H 533.117 3.44125 2.35868 0
M  V30 5514 H 531.747 2.30419 2.26069 0
M  V30 5515 H 530.799 3.78796 0.348979 0
M  V30 5516 H 532.111 4.94203 0.675633 0
M  V30 5517 H 531.265 5.26846 3.00862 0
M  V30 5518 H 530.004 4.03102 2.74518 0
M  V30 5519 H 529.009 5.42254 0.907773 0
M  V30 5520 H 530.234 6.68506 1.19487 0
M  V30 5521 H 528.18 5.71599 3.21886 0
M  V30 5522 H 528.097 7.19532 2.3197 0
M  V30 5523 H 529.365 6.97129 3.48758 0
M  V30 5524 N 533.594 0.0601682 1.57485 0
M  V30 5525 C 534.842 -0.610386 1.92662 0
M  V30 5526 C 535.163 -1.70849 0.939981 0
M  V30 5527 O 534.433 -1.95895 -0.0137455 0
M  V30 5528 H 533.013 -0.228457 0.711208 0
M  V30 5529 H 535.675 0.115288 1.94559 0
M  V30 5530 H 534.771 -1.0432 2.94149 0
M  V30 5531 N 535.072 -1.5615 -0.213296 0
M  V30 5532 C 536.302 -1.83372 -0.951757 0
M  V30 5533 C 536.71 -0.638158 -1.78113 0
M  V30 5534 O 536.053 0.402609 -1.79234 0
M  V30 5535 C 536.115 -3.04444 -1.91192 0
M  V30 5536 C 535.779 -4.39107 -1.26627 0
M  V30 5537 C 536.776 -5.15794 -0.652087 0
M  V30 5538 C 534.461 -4.85834 -1.27556 0
M  V30 5539 C 536.455 -6.37376 -0.055814 0
M  V30 5540 C 534.142 -6.07356 -0.675451 0
M  V30 5541 C 535.14 -6.82967 -0.0666367 0
M  V30 5542 O 534.828 -8.0219 0.524119 0
M  V30 5543 H 534.56 -0.613398 -0.284111 0
M  V30 5544 H 537.114 -2.04096 -0.231112 0
M  V30 5545 H 535.344 -2.79559 -2.67178 0
M  V30 5546 H 537.033 -3.18466 -2.51662 0
M  V30 5547 H 537.799 -4.80796 -0.637172 0
M  V30 5548 H 533.678 -4.26949 -1.73883 0
M  V30 5549 H 537.222 -6.96334 0.420004 0
M  V30 5550 H 533.119 -6.41825 -0.687806 0
M  V30 5551 H 533.887 -8.17426 0.419243 0
M  V30 5552 N 536.55 0.480323 -1.50102 0
M  V30 5553 C 537.78 1.25475 -1.64133 0
M  V30 5554 C 538.188 1.8647 -0.320272 0
M  V30 5555 O 537.531 1.69561 0.70673 0
M  V30 5556 C 537.593 2.40996 -2.6676 0
M  V30 5557 C 537.257 2.00711 -4.10565 0
M  V30 5558 C 538.254 1.53492 -4.96725 0
M  V30 5559 C 535.939 2.09714 -4.56427 0
M  V30 5560 C 537.933 1.15806 -6.26792 0
M  V30 5561 C 535.62 1.7164 -5.86501 0
M  V30 5562 C 536.618 1.24763 -6.71508 0
M  V30 5563 O 536.306 0.872122 -7.99155 0
M  V30 5564 H 536.038 0.385983 -0.554971 0
M  V30 5565 H 538.592 0.580848 -1.97016 0
M  V30 5566 H 536.822 3.11528 -2.291 0
M  V30 5567 H 538.511 3.02981 -2.70106 0
M  V30 5568 H 539.277 1.45966 -4.62514 0
M  V30 5569 H 535.156 2.4515 -3.90413 0
M  V30 5570 H 538.7 0.791465 -6.93096 0
M  V30 5571 H 534.597 1.78822 -6.20236 0
M  V30 5572 H 535.365 1.00178 -8.12346 0
M  V30 5573 N 538.028 1.39524 0.732853 0
M  V30 5574 C 539.258 1.3994 1.51988 0
M  V30 5575 C 539.666 -0.00727973 1.89199 0
M  V30 5576 O 539.009 -0.989521 1.54771 0
M  V30 5577 C 539.071 2.21026 2.83527 0
M  V30 5578 C 538.735 3.69633 2.68738 0
M  V30 5579 C 539.732 4.62665 2.37143 0
M  V30 5580 C 537.417 4.13244 2.85542 0
M  V30 5581 C 539.411 5.97291 2.22536 0
M  V30 5582 C 537.098 5.47945 2.70554 0
M  V30 5583 C 538.096 6.39783 2.39097 0
M  V30 5584 O 537.784 7.72002 2.24204 0
M  V30 5585 H 537.516 0.479795 0.476206 0
M  V30 5586 H 540.07 1.8399 0.913054 0
M  V30 5587 H 538.3 1.71728 3.46477 0
M  V30 5588 H 539.989 2.13594 3.45156 0
M  V30 5589 H 540.755 4.30272 2.2381 0
M  V30 5590 H 536.634 3.42094 3.09019 0
M  V30 5591 H 540.178 6.68939 1.97905 0
M  V30 5592 H 536.075 5.79928 2.83466 0
M  V30 5593 H 536.843 7.8275 2.39258 0
M  V30 5594 N 539.506 -0.963266 1.24736 0
M  V30 5595 C 540.917 -1.52145 1.08207 0
M  V30 5596 C 541.268 -1.93142 -0.345061 0
M  V30 5597 O 540.393 -1.77769 -1.23399 0
M  V30 5598 C 540.988 -2.76486 1.95808 0
M  V30 5599 C 539.547 -3.28646 1.8349 0
M  V30 5600 C 538.694 -2.01529 1.90476 0
M  V30 5601 H 541.645 -0.781083 1.38148 0
M  V30 5602 H 541.666 -3.49986 1.49297 0
M  V30 5603 H 541.178 -2.46617 2.99669 0
M  V30 5604 H 539.279 -3.63357 0.824787 0
M  V30 5605 H 539.392 -3.97246 2.67829 0
M  V30 5606 H 537.756 -2.16442 1.34258 0
M  V30 5607 H 538.539 -1.7402 2.95926 0
M  V30 5608 N 540.985 -1.06182 -1.16461 0
M  V30 5609 C 542.396 -0.802426 -1.68576 0
M  V30 5610 C 542.747 0.67412 -1.84255 0
M  V30 5611 O 541.872 1.52303 -1.5373 0
M  V30 5612 C 542.467 -1.45002 -3.06202 0
M  V30 5613 C 541.026 -1.23843 -3.55443 0
M  V30 5614 C 540.173 -1.52724 -2.31454 0
M  V30 5615 H 543.124 -1.22545 -1.00839 0
M  V30 5616 H 543.145 -0.864731 -3.70544 0
M  V30 5617 H 542.657 -2.52466 -2.94759 0
M  V30 5618 H 540.758 -0.183487 -3.72148 0
M  V30 5619 H 540.871 -1.95036 -4.37604 0
M  V30 5620 H 539.235 -0.947726 -2.36411 0
M  V30 5621 H 540.018 -2.61343 -2.22609 0
M  V30 5622 N 542.463 1.3308 -0.844243 0
M  V30 5623 C 543.691 2.01808 -0.456203 0
M  V30 5624 C 544.106 1.63498 0.944131 0
M  V30 5625 O 543.463 0.85102 1.61443 0
M  V30 5626 C 543.514 3.56922 -0.573513 0
M  V30 5627 O 543.235 3.93851 -1.91868 0
M  V30 5628 C 544.736 4.42922 -0.183125 0
M  V30 5629 H 541.956 0.646273 -0.180477 0
M  V30 5630 H 544.5 1.69891 -1.1383 0
M  V30 5631 H 542.655 3.87352 0.0607367 0
M  V30 5632 H 543.069 4.88564 -1.90802 0
M  V30 5633 H 544.543 5.51093 -0.316241 0
M  V30 5634 H 545.02 4.30386 0.875477 0
M  V30 5635 H 545.626 4.1786 -0.792027 0
M  V30 5636 N 543.941 0.601185 1.45683 0
M  V30 5637 C 544.871 -0.108824 2.33246 0
M  V30 5638 C 545.852 -0.865223 1.46451 0
M  V30 5639 O 547.037 -0.83704 1.75235 0
M  V30 5640 C 544.167 -1.11101 3.2905 0
M  V30 5641 C 543.121 -0.468244 4.25431 0
M  V30 5642 C 542.447 -1.57822 5.10878 0
M  V30 5643 C 543.747 0.606469 5.18767 0
M  V30 5644 H 545.441 0.622306 2.92861 0
M  V30 5645 H 542.987 0.300714 1.40825 0
M  V30 5646 H 544.94 -1.61622 3.89174 0
M  V30 5647 H 543.664 -1.87265 2.67581 0
M  V30 5648 H 542.323 0.0160484 3.66596 0
M  V30 5649 H 541.971 -2.32998 4.45781 0
M  V30 5650 H 541.671 -1.15369 5.76163 0
M  V30 5651 H 543.195 -2.08583 5.73869 0
M  V30 5652 H 544.609 0.185589 5.73 0
M  V30 5653 H 543.006 0.952381 5.92494 0
M  V30 5654 H 544.076 1.48559 4.61582 0
M  V30 5655 N 545.419 -1.53889 0.339982 0
M  V30 5656 C 546.349 -2.27843 -0.510856 0
M  V30 5657 C 547.33 -1.29267 -1.10563 0
M  V30 5658 O 548.515 -1.58104 -1.12768 0
M  V30 5659 C 545.645 -3.04857 -1.66372 0
M  V30 5660 C 544.599 -4.10907 -1.19746 0
M  V30 5661 C 543.925 -4.75855 -2.43857 0
M  V30 5662 C 545.225 -5.21435 -0.300501 0
M  V30 5663 H 546.919 -2.99212 0.106067 0
M  V30 5664 H 544.465 -1.43904 0.0524533 0
M  V30 5665 H 546.418 -3.5533 -2.26537 0
M  V30 5666 H 545.142 -2.31133 -2.30749 0
M  V30 5667 H 543.801 -3.61342 -0.618654 0
M  V30 5668 H 543.449 -3.9873 -3.06633 0
M  V30 5669 H 543.149 -5.47502 -2.13343 0
M  V30 5670 H 544.673 -5.2911 -3.04754 0
M  V30 5671 H 546.087 -5.67565 -0.80889 0
M  V30 5672 H 544.484 -6.00036 -0.0874076 0
M  V30 5673 H 545.554 -4.80328 0.664321 0
M  V30 5674 N 546.897 -0.0685191 -1.57451 0
M  V30 5675 C 547.827 0.89747 -2.15564 0
M  V30 5676 C 548.808 1.31266 -1.08181 0
M  V30 5677 O 549.993 1.38429 -1.36202 0
M  V30 5678 C 547.123 2.16623 -2.71463 0
M  V30 5679 C 546.077 1.89054 -3.83982 0
M  V30 5680 C 545.403 3.22532 -4.26471 0
M  V30 5681 C 546.703 1.1984 -5.08366 0
M  V30 5682 H 548.397 0.413373 -2.96533 0
M  V30 5683 H 545.943 0.197391 -1.42641 0
M  V30 5684 H 547.896 2.84614 -3.10761 0
M  V30 5685 H 546.62 2.67269 -1.8771 0
M  V30 5686 H 545.279 1.23469 -3.45183 0
M  V30 5687 H 544.927 3.71013 -3.39644 0
M  V30 5688 H 544.627 3.04879 -5.02317 0
M  V30 5689 H 546.151 3.91727 -4.68383 0
M  V30 5690 H 547.565 1.77896 -5.45001 0
M  V30 5691 H 545.962 1.12456 -5.89469 0
M  V30 5692 H 547.032 0.176996 -4.84577 0
M  V30 5693 N 548.375 1.56261 0.205012 0
M  V30 5694 C 549.652 1.70856 0.952233 0
M  V30 5695 C 550.032 0.620501 2.01775 0
M  V30 5696 O 549.38 -0.370035 2.25484 0
M  V30 5697 C 549.59 3.12807 1.54767 0
M  V30 5698 C 550.938 3.72733 2.0336 0
M  V30 5699 O 551.962 3.15873 1.64629 0
M  V30 5700 O 550.821 4.72501 2.746 0
M  V30 5701 H 547.915 0.696496 0.445895 0
M  V30 5702 H 550.461 1.6857 0.195489 0
M  V30 5703 H 549.233 3.83465 0.779132 0
M  V30 5704 H 548.856 3.1928 2.36951 0
M  V30 5705 N 549.853 -0.472356 1.50355 0
M  V30 5706 C 551.099 -1.22634 1.6152 0
M  V30 5707 C 551.432 -1.91645 0.313995 0
M  V30 5708 O 550.707 -1.82059 -0.684446 0
M  V30 5709 C 550.99 -2.27099 2.7946 0
M  V30 5710 C 550.843 -1.62402 4.19459 0
M  V30 5711 C 552.162 -3.28421 2.92964 0
M  V30 5712 H 549.281 -0.444494 0.587873 0
M  V30 5713 H 551.923 -0.520321 1.82737 0
M  V30 5714 H 550.073 -2.87314 2.61501 0
M  V30 5715 H 551.745 -1.05793 4.49005 0
M  V30 5716 H 549.988 -0.927184 4.23776 0
M  V30 5717 H 550.659 -2.38309 4.97909 0
M  V30 5718 H 553.135 -2.78227 3.09401 0
M  V30 5719 H 552.011 -3.98845 3.77113 0
M  V30 5720 H 552.272 -3.92467 2.03525 0
M  V30 5721 N 551.331 -1.39911 -0.725443 0
M  V30 5722 C 552.747 -1.21725 -1.03224 0
M  V30 5723 C 552.947 -0.0855224 -2.01318 0
M  V30 5724 O 552.003 0.55976 -2.46217 0
M  V30 5725 C 553.316 -2.55511 -1.58539 0
M  V30 5726 C 554.864 -2.62439 -1.70572 0
M  V30 5727 C 555.339 -3.9647 -2.29294 0
M  V30 5728 N 556.83 -3.98159 -2.36692 0
M  V30 5729 C 557.565 -4.98647 -2.83088 0
M  V30 5730 N 557.061 -6.0953 -3.2931 0
M  V30 5731 N 558.854 -4.8602 -2.82384 0
M  V30 5732 H 551.005 -2.12267 -0.075048 0
M  V30 5733 H 553.268 -0.943136 -0.0959066 0
M  V30 5734 H 552.974 -3.38926 -0.939249 0
M  V30 5735 H 552.848 -2.75905 -2.57208 0
M  V30 5736 H 555.235 -1.79401 -2.34306 0
M  V30 5737 H 555.316 -2.45885 -0.705297 0
M  V30 5738 H 554.96 -4.79942 -1.66186 0
M  V30 5739 H 554.89 -4.10349 -3.30032 0
M  V30 5740 H 557.381 -3.18085 -2.04035 0
M  V30 5741 H 557.694 -6.82106 -3.6325 0
M  V30 5742 H 556.039 -6.1311 -3.27294 0
M  V30 5743 H 559.23 -3.98493 -2.45603 0
M  V30 5744 H 559.403 -5.64478 -3.18226 0
M  V30 5745 N 552.809 0.956637 -1.25245 0
M  V30 5746 C 553.741 2.05628 -1.01242 0
M  V30 5747 C 554.754 1.62785 0.0219579 0
M  V30 5748 O 555.943 1.77184 -0.216365 0
M  V30 5749 C 553.043 3.35069 -0.508161 0
M  V30 5750 C 552.216 4.06761 -1.60823 0
M  V30 5751 C 551.275 5.14473 -1.1047 0
M  V30 5752 O 550.301 5.40033 -1.79868 0
M  V30 5753 N 551.503 5.80474 0.0550773 0
M  V30 5754 H 554.268 2.2679 -1.95925 0
M  V30 5755 H 551.829 1.12505 -1.16423 0
M  V30 5756 H 553.821 4.044 -0.155819 0
M  V30 5757 H 552.391 3.10694 0.344683 0
M  V30 5758 H 551.611 3.31555 -2.13224 0
M  V30 5759 H 552.899 4.51418 -2.34733 0
M  V30 5760 H 552.297 5.62125 0.635004 0
M  V30 5761 H 550.854 6.50868 0.348469 0
M  V30 5762 N 554.287 1.06798 1.15896 0
M  V30 5763 C 555.197 0.694564 2.24083 0
M  V30 5764 C 556.213 -0.291687 1.71538 0
M  V30 5765 O 557.389 -0.139723 2.00915 0
M  V30 5766 C 554.454 0.0921014 3.46578 0
M  V30 5767 C 553.515 1.13087 4.14137 0
M  V30 5768 C 552.748 0.557064 5.30785 0
M  V30 5769 O 552.971 -0.628623 5.66925 0
M  V30 5770 O 551.905 1.29924 5.8771 0
M  V30 5771 H 555.731 1.59663 2.58344 0
M  V30 5772 H 553.316 0.840575 1.2351 0
M  V30 5773 H 555.198 -0.241884 4.20705 0
M  V30 5774 H 553.873 -0.78337 3.14078 0
M  V30 5775 H 552.78 1.51712 3.41957 0
M  V30 5776 H 554.113 1.97805 4.50704 0
M  V30 5777 N 555.766 -1.3263 0.851289 0
M  V30 5778 C 556.699 -2.26952 0.238318 0
M  V30 5779 C 557.677 -1.50243 -0.621757 0
M  V30 5780 O 558.861 -1.79378 -0.579298 0
M  V30 5781 C 555.988 -3.32124 -0.664178 0
M  V30 5782 C 555.034 -4.26325 0.122067 0
M  V30 5783 S 555.867 -5.14404 1.48824 0
M  V30 5784 C 557.023 -6.231 0.591372 0
M  V30 5785 H 557.256 -2.78594 1.03791 0
M  V30 5786 H 554.789 -1.4011 0.648731 0
M  V30 5787 H 556.747 -3.93197 -1.17924 0
M  V30 5788 H 555.408 -2.79273 -1.43755 0
M  V30 5789 H 554.601 -5.00821 -0.565181 0
M  V30 5790 H 554.203 -3.69652 0.568602 0
M  V30 5791 H 556.495 -6.77187 -0.205762 0
M  V30 5792 H 557.438 -6.95936 1.30687 0
M  V30 5793 H 557.846 -5.64252 0.167206 0
M  V30 5794 N 557.244 -0.608902 -1.45362 0
M  V30 5795 C 558.469 -0.10921 -2.07112 0
M  V30 5796 C 558.894 1.19779 -1.45033 0
M  V30 5797 O 558.252 1.72961 -0.543527 0
M  V30 5798 C 558.3 0.0155745 -3.60597 0
M  V30 5799 O 557.404 1.06546 -3.98399 0
M  V30 5800 H 556.745 -0.0746619 -0.659789 0
M  V30 5801 H 559.275 -0.839283 -1.86594 0
M  V30 5802 H 559.285 0.213364 -4.07442 0
M  V30 5803 H 557.96 -0.938765 -4.05167 0
M  V30 5804 H 556.537 0.844024 -3.63223 0
M  V30 5805 N 558.722 1.53707 -0.348139 0
M  V30 5806 C 559.971 2.0017 0.247992 0
M  V30 5807 C 560.284 1.23983 1.51286 0
M  V30 5808 O 561.49 1.60946 2.18652 0
M  V30 5809 C 559.946 3.56515 0.492459 0
M  V30 5810 C 559.554 4.41562 -0.756777 0
M  V30 5811 C 561.298 4.11381 1.0472 0
M  V30 5812 C 559.205 5.89426 -0.482856 0
M  V30 5813 H 558.135 0.747806 0.0964452 0
M  V30 5814 H 560.786 1.77532 -0.464179 0
M  V30 5815 H 559.168 3.75236 1.26545 0
M  V30 5816 H 560.342 4.34615 -1.53122 0
M  V30 5817 H 558.657 3.97711 -1.23348 0
M  V30 5818 H 561.254 5.19468 1.26717 0
M  V30 5819 H 561.597 3.64885 2.00411 0
M  V30 5820 H 562.13 3.96389 0.334801 0
M  V30 5821 H 558.869 6.40164 -1.40962 0
M  V30 5822 H 558.389 5.99264 0.253416 0
M  V30 5823 H 560.068 6.4692 -0.101816 0
M  V30 5824 N 560.2 0.0768682 1.57412 0
M  V30 5825 C 561.133 -0.924685 2.08626 0
M  V30 5826 C 562.111 -1.28792 0.992542 0
M  V30 5827 O 563.295 -1.39634 1.26628 0
M  V30 5828 C 560.422 -2.23131 2.54814 0
M  V30 5829 C 559.468 -2.01928 3.75669 0
M  V30 5830 S 560.301 -1.27397 5.20125 0
M  V30 5831 C 561.457 -2.59329 5.69648 0
M  V30 5832 H 561.69 -0.488928 2.93252 0
M  V30 5833 H 559.223 -0.136014 1.538 0
M  V30 5834 H 561.181 -2.98226 2.82084 0
M  V30 5835 H 559.842 -2.63831 1.70447 0
M  V30 5836 H 559.035 -2.98639 4.05993 0
M  V30 5837 H 558.637 -1.34967 3.48798 0
M  V30 5838 H 560.929 -3.55394 5.76803 0
M  V30 5839 H 561.872 -2.33608 6.68456 0
M  V30 5840 H 562.28 -2.66767 4.9749 0
M  V30 5841 N 561.678 -1.56367 -0.196722 0
M  V30 5842 C 562.628 -1.9082 -1.24787 0
M  V30 5843 C 563.612 -0.773719 -1.41076 0
M  V30 5844 O 564.804 -1.03655 -1.43474 0
M  V30 5845 C 561.933 -2.24982 -2.59303 0
M  V30 5846 C 561.019 -3.44882 -2.46814 0
M  V30 5847 N 561.41 -4.62835 -2.04003 0
M  V30 5848 C 559.708 -3.48988 -2.77711 0
M  V30 5849 C 560.409 -5.44993 -2.03366 0
M  V30 5850 N 559.385 -4.85356 -2.44807 0
M  V30 5851 H 563.187 -2.79516 -0.908175 0
M  V30 5852 H 560.701 -1.57265 -0.405166 0
M  V30 5853 H 562.698 -2.47848 -3.35227 0
M  V30 5854 H 561.358 -1.37611 -2.94098 0
M  V30 5855 H 562.369 -4.87532 -1.74738 0
M  V30 5856 H 559.046 -2.72029 -3.16712 0
M  V30 5857 H 560.436 -6.49464 -1.72181 0
M  V30 5858 N 563.156 0.464375 -1.50603 0
M  V30 5859 C 564.066 1.58723 -1.72754 0
M  V30 5860 C 565.082 1.62925 -0.610844 0
M  V30 5861 O 566.258 1.8067 -0.889963 0
M  V30 5862 C 563.323 2.94897 -1.82309 0
M  V30 5863 C 562.384 3.0103 -3.06071 0
M  V30 5864 C 561.617 4.30708 -3.1516 0
M  V30 5865 O 561.84 5.2159 -2.30868 0
M  V30 5866 O 560.774 4.42571 -4.0794 0
M  V30 5867 H 564.6 1.42954 -2.67951 0
M  V30 5868 H 562.185 0.644579 -1.3478 0
M  V30 5869 H 564.067 3.75764 -1.90735 0
M  V30 5870 H 562.742 3.10851 -0.902967 0
M  V30 5871 H 561.649 2.19217 -3.03142 0
M  V30 5872 H 562.982 2.90014 -3.97684 0
M  V30 5873 N 564.634 1.40294 0.718013 0
M  V30 5874 C 565.544 1.42678 1.86226 0
M  V30 5875 C 566.56 0.319655 1.71039 0
M  V30 5876 O 567.736 0.563852 1.93346 0
M  V30 5877 C 564.801 1.2852 3.21999 0
M  V30 5878 C 563.862 2.49354 3.49458 0
M  V30 5879 C 563.095 2.35863 4.78753 0
M  V30 5880 O 563.318 1.37114 5.53675 0
M  V30 5881 O 562.252 3.25189 5.06494 0
M  V30 5882 H 566.078 2.39167 1.87171 0
M  V30 5883 H 563.663 1.2159 0.868112 0
M  V30 5884 H 565.545 1.22824 4.03103 0
M  V30 5885 H 564.22 0.351359 3.21787 0
M  V30 5886 H 563.127 2.60628 2.68373 0
M  V30 5887 H 564.46 3.41491 3.54464 0
M  V30 5888 N 566.112 -0.949982 1.2575 0
M  V30 5889 C 567.34 -1.72972 1.13527 0
M  V30 5890 C 567.755 -1.8623 -0.310453 0
M  V30 5891 O 567.112 -1.36336 -1.2132 0
M  V30 5892 C 567.163 -3.14108 1.78936 0
M  V30 5893 O 566.884 -3.01493 3.17858 0
M  V30 5894 C 568.385 -4.08338 1.72554 0
M  V30 5895 H 565.605 -0.541864 0.395758 0
M  V30 5896 H 568.149 -1.19151 1.66202 0
M  V30 5897 H 566.304 -3.64858 1.30221 0
M  V30 5898 H 566.718 -3.90559 3.50092 0
M  V30 5899 H 568.192 -5.04963 2.22973 0
M  V30 5900 H 568.669 -4.33742 0.690251 0
M  V30 5901 H 569.275 -3.63506 2.2078 0
M  V30 5902 N 567.59 -1.07411 -1.15328 0
M  V30 5903 C 568.837 -0.797649 -1.86128 0
M  V30 5904 C 569.165 0.676298 -1.82364 0
M  V30 5905 O 568.42 1.51223 -1.24218 0
M  V30 5906 C 568.719 -1.25191 -3.34757 0
M  V30 5907 C 568.385 -2.73191 -3.58716 0
M  V30 5908 C 567.047 -3.13616 -3.64964 0
M  V30 5909 C 569.399 -3.68718 -3.6837 0
M  V30 5910 C 566.727 -4.48383 -3.78377 0
M  V30 5911 C 569.079 -5.03248 -3.83306 0
M  V30 5912 C 567.743 -5.43293 -3.878 0
M  V30 5913 H 567.013 -0.29188 -0.681092 0
M  V30 5914 H 569.66 -1.34524 -1.36292 0
M  V30 5915 H 567.965 -0.623712 -3.86804 0
M  V30 5916 H 569.662 -1.01489 -3.87945 0
M  V30 5917 H 566.252 -2.40898 -3.54494 0
M  V30 5918 H 570.436 -3.38614 -3.62842 0
M  V30 5919 H 565.692 -4.78877 -3.80114 0
M  V30 5920 H 569.866 -5.77142 -3.89718 0
M  V30 5921 H 567.493 -6.47721 -3.97946 0
M  V30 5922 N 569.068 1.32177 -0.85831 0
M  V30 5923 C 570.316 1.96735 -0.462568 0
M  V30 5924 C 570.637 1.6824 0.985911 0
M  V30 5925 O 569.907 0.991564 1.68952 0
M  V30 5926 H 568.487 0.727849 -0.168064 0
M  V30 5927 H 571.149 1.61195 -1.09554 0
M  V30 5928 H 570.245 3.06068 -0.610647 0
M  V30 5929 N 570.547 0.616602 1.45037 0
M  V30 5930 C 571.958 0.199359 1.85633 0
M  V30 5931 C 572.309 -1.24588 1.51566 0
M  V30 5932 O 571.434 -1.94594 0.94668 0
M  V30 5933 C 572.029 0.355033 3.36935 0
M  V30 5934 C 570.588 -0.00758748 3.76399 0
M  V30 5935 C 569.735 0.675256 2.68953 0
M  V30 5936 H 572.686 0.822708 1.3571 0
M  V30 5937 H 572.707 -0.410201 3.78282 0
M  V30 5938 H 572.219 1.40699 3.61698 0
M  V30 5939 H 570.32 -1.05837 3.57252 0
M  V30 5940 H 570.433 0.392346 4.77491 0
M  V30 5941 H 568.797 0.111992 2.54454 0
M  V30 5942 H 569.58 1.72952 2.96551 0
M  V30 5943 N 572.025 -1.5352 0.356285 0
M  V30 5944 C 573.271 -2.01414 -0.236653 0
M  V30 5945 C 573.604 -1.24339 -1.49176 0
M  V30 5946 O 572.879 -0.334496 -1.91602 0
M  V30 5947 C 573.162 -3.56059 -0.537982 0
M  V30 5948 C 573.015 -4.43835 0.730112 0
M  V30 5949 C 574.334 -4.19127 -1.34239 0
M  V30 5950 H 571.453 -0.732135 -0.0845386 0
M  V30 5951 H 574.095 -1.83854 0.479341 0
M  V30 5952 H 572.245 -3.71153 -1.14795 0
M  V30 5953 H 573.917 -4.40555 1.36782 0
M  V30 5954 H 572.16 -4.1218 1.3524 0
M  V30 5955 H 572.831 -5.49958 0.474358 0
M  V30 5956 H 575.307 -4.07809 -0.826498 0
M  V30 5957 H 574.183 -5.27378 -1.52198 0
M  V30 5958 H 574.444 -3.74581 -2.34822 0
M  V30 5959 N 573.503 -0.0852151 -1.57369 0
M  V30 5960 C 574.433 0.874556 -2.16503 0
M  V30 5961 C 575.414 1.30111 -1.09568 0
M  V30 5962 O 576.599 1.36977 -1.37662 0
M  V30 5963 C 573.729 2.13731 -2.73745 0
M  V30 5964 C 572.683 1.84971 -3.85966 0
M  V30 5965 C 572.009 3.17991 -4.29867 0
M  V30 5966 C 573.309 1.14442 -5.09608 0
M  V30 5967 H 575.003 0.381899 -2.96954 0
M  V30 5968 H 572.549 0.18225 -1.42842 0
M  V30 5969 H 574.502 2.81302 -3.13763 0
M  V30 5970 H 573.226 2.65263 -1.90534 0
M  V30 5971 H 571.885 1.19801 -3.46473 0
M  V30 5972 H 571.533 3.6739 -3.4356 0
M  V30 5973 H 571.233 2.99534 -5.05523 0
M  V30 5974 H 572.757 3.86737 -4.72511 0
M  V30 5975 H 574.171 1.72105 -5.46857 0
M  V30 5976 H 572.568 1.06197 -5.90629 0
M  V30 5977 H 573.638 0.12559 -4.84737 0
M  V30 5978 N 574.981 1.5647 0.188427 0
M  V30 5979 C 576.392 1.70864 0.752494 0
M  V30 5980 C 576.743 0.692905 1.83557 0
M  V30 5981 O 575.868 -0.149307 2.15884 0
M  V30 5982 C 576.463 3.09789 1.37173 0
M  V30 5983 C 575.022 3.25925 1.88281 0
M  V30 5984 C 574.169 2.66817 0.755259 0
M  V30 5985 H 577.12 1.58657 -0.0367408 0
M  V30 5986 H 577.141 3.07489 2.24122 0
M  V30 5987 H 576.653 3.83693 0.583219 0
M  V30 5988 H 574.754 2.56948 2.6983 0
M  V30 5989 H 574.867 4.33498 2.04001 0
M  V30 5990 H 573.231 2.2617 1.17128 0
M  V30 5991 H 574.014 3.43294 -0.0211237 0
M  V30 5992 N 576.459 -0.456382 1.50847 0
M  V30 5993 C 577.705 -1.20914 1.62811 0
M  V30 5994 C 578.038 -1.91301 0.334304 0
M  V30 5995 O 577.313 -1.82775 -0.665098 0
M  V30 5996 C 577.596 -2.24122 2.81853 0
M  V30 5997 C 577.449 -1.57944 4.21158 0
M  V30 5998 C 578.768 -3.25295 2.96431 0
M  V30 5999 H 575.887 -0.438233 0.592554 0
M  V30 6000 H 578.529 -0.50091 1.83278 0
M  V30 6001 H 576.679 -2.84524 2.64534 0
M  V30 6002 H 578.351 -1.01025 4.50102 0
M  V30 6003 H 576.594 -0.882185 4.24735 0
M  V30 6004 H 577.265 -2.33014 5.00408 0
M  V30 6005 H 579.741 -2.7493 3.12335 0
M  V30 6006 H 578.617 -3.94822 3.81322 0
M  V30 6007 H 578.878 -3.90286 2.07676 0
M  V30 6008 N 577.937 -1.40673 -0.710563 0
M  V30 6009 C 579.183 -1.39428 -1.47267 0
M  V30 6010 C 579.516 0.00182129 -1.942 0
M  V30 6011 O 578.791 0.971387 -1.68506 0
M  V30 6012 C 579.074 -2.38812 -2.6952 0
M  V30 6013 C 578.927 -3.87467 -2.28449 0
M  V30 6014 C 580.246 -2.3566 -3.71689 0
M  V30 6015 H 577.365 -0.507768 -0.534173 0
M  V30 6016 H 580.007 -1.71843 -0.810547 0
M  V30 6017 H 578.157 -2.113 -3.26013 0
M  V30 6018 H 579.829 -4.25825 -1.77399 0
M  V30 6019 H 578.072 -4.03058 -1.60395 0
M  V30 6020 H 578.743 -4.5253 -3.16103 0
M  V30 6021 H 581.219 -2.6004 -3.24836 0
M  V30 6022 H 580.095 -3.07237 -4.54859 0
M  V30 6023 H 580.356 -1.36996 -4.20339 0
M  V30 6024 N 579.415 0.9433 -1.26252 0
M  V30 6025 C 580.378 2.02326 -1.07689 0
M  V30 6026 C 581.378 1.60779 -0.0259174 0
M  V30 6027 O 582.568 1.72108 -0.269134 0
M  V30 6028 C 579.7 3.34886 -0.63752 0
M  V30 6029 H 580.893 2.20225 -2.0357 0
M  V30 6030 H 578.446 1.12197 -1.08819 0
M  V30 6031 H 579.181 3.22684 0.323377 0
M  V30 6032 H 578.966 3.66393 -1.39637 0
M  V30 6033 H 580.456 4.14231 -0.529418 0
M  V30 6034 N 580.893 1.08022 1.14757 0
M  V30 6035 C 582.14 0.807509 1.85703 0
M  V30 6036 C 582.468 -0.666617 1.8272 0
M  V30 6037 O 581.723 -1.50562 1.25018 0
M  V30 6038 C 582.022 1.26964 3.34088 0
M  V30 6039 C 581.688 2.7509 3.57262 0
M  V30 6040 C 580.35 3.15547 3.63296 0
M  V30 6041 C 582.702 3.70667 3.66409 0
M  V30 6042 C 580.03 4.50384 3.75994 0
M  V30 6043 C 582.382 5.05274 3.80632 0
M  V30 6044 C 581.046 5.45342 3.84913 0
M  V30 6045 H 580.316 0.295488 0.679535 0
M  V30 6046 H 582.963 1.35245 1.35577 0
M  V30 6047 H 581.268 0.644216 3.86467 0
M  V30 6048 H 582.965 1.03544 3.87401 0
M  V30 6049 H 579.555 2.42775 3.53212 0
M  V30 6050 H 583.739 3.40533 3.61041 0
M  V30 6051 H 578.995 4.80886 3.77569 0
M  V30 6052 H 583.169 5.79201 3.86652 0
M  V30 6053 H 580.796 6.49823 3.94505 0
M  V30 6054 N 582.371 -1.3172 0.865308 0
M  V30 6055 C 583.648 -1.91574 0.394789 0
M  V30 6056 C 584.028 -1.78769 -1.12271 0
M  V30 6057 O 583.376 -1.19245 -1.94918 0
M  V30 6058 C 583.586 -3.37957 0.870982 0
M  V30 6059 C 584.934 -4.15073 0.894384 0
M  V30 6060 O 585.958 -3.4672 0.816325 0
M  V30 6061 O 584.817 -5.37151 1.00651 0
M  V30 6062 H 581.911 -0.818649 0.117229 0
M  V30 6063 H 584.457 -1.4042 0.952913 0
M  V30 6064 H 583.229 -3.41269 1.91444 0
M  V30 6065 H 582.852 -3.96534 0.290907 0
M  V30 6066 N 583.85 -0.624285 -1.44708 0
M  V30 6067 C 585.077 -0.132919 -2.06473 0
M  V30 6068 C 585.493 1.18967 -1.46602 0
M  V30 6069 O 584.85 1.72824 -0.586341 0
M  V30 6070 C 584.901 -0.00465418 -3.615 0
M  V30 6071 O 584.622 -1.27494 -4.19138 0
M  V30 6072 C 586.123 0.516213 -4.40284 0
M  V30 6073 H 583.343 -0.0765201 -0.666623 0
M  V30 6074 H 585.887 -0.856751 -1.85688 0
M  V30 6075 H 584.042 0.669583 -3.8157 0
M  V30 6076 H 584.456 -1.11536 -5.12504 0
M  V30 6077 H 585.93 0.554994 -5.49203 0
M  V30 6078 H 586.407 1.5419 -4.11245 0
M  V30 6079 H 587.013 -0.124542 -4.25118 0
M  V30 6080 N 585.328 1.53329 -0.364422 0
M  V30 6081 C 586.258 2.28627 0.474543 0
M  V30 6082 C 587.239 1.31009 1.08492 0
M  V30 6083 O 588.424 1.59878 1.10239 0
M  V30 6084 C 585.554 3.07465 1.61501 0
M  V30 6085 C 584.508 4.1276 1.13194 0
M  V30 6086 C 583.834 4.79674 2.36255 0
M  V30 6087 C 585.134 5.21847 0.217507 0
M  V30 6088 H 586.828 2.99005 -0.153656 0
M  V30 6089 H 584.374 1.43803 -0.0753406 0
M  V30 6090 H 586.327 3.58889 2.20855 0
M  V30 6091 H 585.051 2.34775 2.27042 0
M  V30 6092 H 583.71 3.62281 0.56109 0
M  V30 6093 H 583.358 4.03557 3.00251 0
M  V30 6094 H 583.058 5.50827 2.04606 0
M  V30 6095 H 584.582 5.33892 2.96297 0
M  V30 6096 H 585.996 5.6878 0.718493 0
M  V30 6097 H 584.393 6.00099 -0.00806408 0
M  V30 6098 H 585.463 4.7921 -0.740653 0
M  V30 6099 N 586.806 0.0935595 1.57322 0
M  V30 6100 C 587.716 -0.880192 2.17462 0
M  V30 6101 C 588.732 -1.31135 1.14366 0
M  V30 6102 O 589.908 -1.37958 1.46729 0
M  V30 6103 C 586.973 -2.12184 2.74188 0
M  V30 6104 C 586.034 -1.74503 3.92234 0
M  V30 6105 C 585.267 -2.92748 4.46245 0
M  V30 6106 O 585.49 -4.07427 3.99198 0
M  V30 6107 O 584.424 -2.71303 5.37288 0
M  V30 6108 H 588.25 -0.398516 3.01074 0
M  V30 6109 H 585.835 -0.130707 1.48827 0
M  V30 6110 H 587.717 -2.84953 3.10451 0
M  V30 6111 H 586.392 -2.59407 1.93623 0
M  V30 6112 H 585.299 -0.989186 3.60785 0
M  V30 6113 H 586.632 -1.32044 4.74157 0
M  V30 6114 N 588.284 -1.56567 -0.180126 0
M  V30 6115 C 589.561 -1.7235 -0.924931 0
M  V30 6116 C 589.941 -0.652523 -2.00762 0
M  V30 6117 O 589.289 0.334115 -2.26044 0
M  V30 6118 C 589.499 -3.1523 -1.49771 0
M  V30 6119 C 590.847 -3.75921 -1.97405 0
M  V30 6120 O 591.871 -3.18452 -1.59583 0
M  V30 6121 O 590.73 -4.7681 -2.67048 0
M  V30 6122 H 587.824 -0.703502 -0.434758 0
M  V30 6123 H 590.37 -1.6886 -0.168647 0
M  V30 6124 H 589.142 -3.84656 -0.718027 0
M  V30 6125 H 588.765 -3.23009 -2.31842 0
M  V30 6126 N 589.762 0.448376 -1.51087 0
M  V30 6127 C 590.725 1.52588 -1.71025 0
M  V30 6128 C 591.725 1.49958 -0.580442 0
M  V30 6129 O 592.915 1.52176 -0.847833 0
M  V30 6130 C 590.047 2.92163 -1.75652 0
M  V30 6131 H 591.24 1.36218 -2.67179 0
M  V30 6132 H 588.793 0.676313 -1.4091 0
M  V30 6133 H 589.528 3.13951 -0.812724 0
M  V30 6134 H 589.313 2.95478 -2.57751 0
M  V30 6135 H 590.803 3.70349 -1.92953 0
M  V30 6136 N 591.24 1.41047 0.703093 0
M  V30 6137 C 592.489 1.39301 1.4587 0
M  V30 6138 C 592.802 0.00267077 1.956 0
M  V30 6139 O 594.008 -0.137414 2.71152 0
M  V30 6140 C 592.464 2.44891 2.63735 0
M  V30 6141 C 592.072 3.89796 2.20824 0
M  V30 6142 C 593.816 2.5227 3.41409 0
M  V30 6143 C 591.723 4.86955 3.35602 0
M  V30 6144 H 590.653 0.518005 0.547893 0
M  V30 6145 H 593.304 1.66839 0.764009 0
M  V30 6146 H 591.686 2.10472 3.35436 0
M  V30 6147 H 592.86 4.33424 1.56461 0
M  V30 6148 H 591.175 3.86008 1.56163 0
M  V30 6149 H 593.772 3.22044 4.26839 0
M  V30 6150 H 594.115 1.55714 3.86081 0
M  V30 6151 H 594.648 2.85742 2.7676 0
M  V30 6152 H 591.387 5.84888 2.9595 0
M  V30 6153 H 590.907 4.47982 3.98839 0
M  V30 6154 H 592.586 5.07361 4.01489 0
M  V30 6155 N 592.718 -0.936591 1.26751 0
M  V30 6156 C 593.943 -1.72288 1.15462 0
M  V30 6157 C 594.368 -1.85915 -0.285887 0
M  V30 6158 O 593.726 -1.35272 -1.20711 0
M  V30 6159 C 593.774 -3.10503 1.83359 0
M  V30 6160 O 592.878 -3.96745 1.1255 0
M  V30 6161 H 592.219 -0.52843 0.402067 0
M  V30 6162 H 594.749 -1.17271 1.67656 0
M  V30 6163 H 594.759 -3.60867 1.90365 0
M  V30 6164 H 593.434 -2.99901 2.88153 0
M  V30 6165 H 592.011 -3.55191 1.13551 0
M  V30 6166 N 594.196 -1.08629 -1.14182 0
M  V30 6167 C 595.129 -0.662329 -2.18377 0
M  V30 6168 C 596.107 0.327054 -1.59277 0
M  V30 6169 O 597.291 0.230376 -1.87087 0
M  V30 6170 C 594.418 0.0254765 -3.3869 0
M  V30 6171 C 593.464 -0.924414 -4.16361 0
M  V30 6172 S 594.297 -2.43226 -4.77076 0
M  V30 6173 C 595.453 -1.75663 -6.00744 0
M  V30 6174 H 595.686 -1.54501 -2.54001 0
M  V30 6175 H 593.219 -0.901484 -1.2535 0
M  V30 6176 H 595.177 0.416032 -4.08386 0
M  V30 6177 H 593.838 0.884689 -3.01384 0
M  V30 6178 H 593.031 -0.390099 -5.02488 0
M  V30 6179 H 592.633 -1.25598 -3.5228 0
M  V30 6180 H 594.925 -1.07589 -6.68903 0
M  V30 6181 H 595.868 -2.59673 -6.58768 0
M  V30 6182 H 596.276 -1.22903 -5.50958 0
M  V30 6183 N 595.674 1.31259 -0.872281 0
M  V30 6184 C 596.637 2.26744 -0.334656 0
M  V30 6185 C 597.637 1.52307 0.515681 0
M  V30 6186 O 598.827 1.71148 0.324656 0
M  V30 6187 C 595.959 3.36841 0.524482 0
M  V30 6188 H 597.152 2.75812 -1.17762 0
M  V30 6189 H 594.705 1.42232 -0.648064 0
M  V30 6190 H 595.44 2.93069 1.38855 0
M  V30 6191 H 595.225 3.92009 -0.0844299 0
M  V30 6192 H 596.715 4.07944 0.892838 0
M  V30 6193 N 597.152 0.631951 1.44375 0
M  V30 6194 C 598.1 -0.0846693 2.32446 0
M  V30 6195 C 599.094 -0.834957 1.47393 0
M  V30 6196 O 600.3 -0.747764 1.63733 0
M  V30 6197 H 596.675 -0.0461508 0.750583 0
M  V30 6198 H 598.646 0.67619 2.90638 0
M  V30 6199 C 597.395 -1.05211 3.314 0
M  V30 6200 H 596.718 -0.484203 3.96857 0
M  V30 6201 H 598.158 -1.523 3.95703 0
M  V30 6202 C 596.617 -2.13776 2.60387 0
M  V30 6203 O 597.147 -3.21869 2.4034 0
M  V30 6204 N 595.353 -1.89733 2.20113 0
M  V30 6205 H 594.9 -1.01833 2.36618 0
M  V30 6206 H 594.858 -2.62572 1.72926 0
M  V30 6207 N 598.631 -1.53133 0.372548 0
M  V30 6208 C 599.908 -1.93704 -0.271693 0
M  V30 6209 C 600.288 -1.30667 -1.65799 0
M  V30 6210 O 599.636 -0.46838 -2.23648 0
M  V30 6211 C 599.846 -3.47576 -0.314903 0
M  V30 6212 C 601.194 -4.20998 -0.551912 0
M  V30 6213 O 602.218 -3.53994 -0.39582 0
M  V30 6214 O 601.077 -5.39748 -0.85639 0
M  V30 6215 H 598.171 -0.810457 -0.164586 0
M  V30 6216 H 600.717 -1.6427 0.425838 0
M  V30 6217 H 599.489 -3.85749 0.656792 0
M  V30 6218 H 599.112 -3.83264 -1.05804 0
M  V30 6219 N 600.109 -0.101901 -1.5727 0
M  V30 6220 C 601.334 0.571759 -1.99363 0
M  V30 6221 C 601.759 1.60507 -0.980768 0
M  V30 6222 O 601.117 1.81231 0.0498517 0
M  V30 6223 C 601.165 1.18996 -3.404 0
M  V30 6224 O 600.269 2.30572 -3.41922 0
M  V30 6225 H 599.61 0.144449 -0.648098 0
M  V30 6226 H 602.14 -0.185325 -2.03759 0
M  V30 6227 H 602.15 1.52962 -3.78241 0
M  V30 6228 H 600.825 0.432984 -4.1364 0
M  V30 6229 H 599.402 1.98173 -3.15883 0
M  V30 6230 N 601.587 1.56661 0.17182 0
M  V30 6231 C 602.864 1.72838 0.915778 0
M  V30 6232 C 603.244 0.66316 2.00413 0
M  V30 6233 O 602.592 -0.322123 2.26218 0
M  V30 6234 C 602.802 3.16019 1.48097 0
M  V30 6235 C 604.15 3.76962 1.95408 0
M  V30 6236 O 605.174 3.19294 1.57892 0
M  V30 6237 O 604.033 4.78219 2.64516 0
M  V30 6238 H 601.127 0.705797 0.431021 0
M  V30 6239 H 603.673 1.68947 0.159689 0
M  V30 6240 H 602.445 3.85031 0.697618 0
M  V30 6241 H 602.068 3.24234 2.30126 0
M  V30 6242 N 603.065 -0.440357 1.51323 0
M  V30 6243 C 604.295 -1.21079 1.67402 0
M  V30 6244 C 604.703 -1.85555 0.369599 0
M  V30 6245 O 604.046 -1.71375 -0.661525 0
M  V30 6246 C 604.108 -2.33839 2.73056 0
M  V30 6247 C 603.772 -1.89755 4.15743 0
M  V30 6248 C 604.769 -1.40268 5.0062 0
M  V30 6249 C 602.454 -1.97539 4.61826 0
M  V30 6250 C 604.448 -0.991474 6.29642 0
M  V30 6251 C 602.135 -1.56029 5.90845 0
M  V30 6252 C 603.133 -1.06915 6.7458 0
M  V30 6253 O 602.821 -0.659933 8.01187 0
M  V30 6254 H 602.553 -0.371133 0.56501 0
M  V30 6255 H 605.107 -0.528409 1.98487 0
M  V30 6256 H 603.337 -3.05345 2.37279 0
M  V30 6257 H 605.026 -2.95713 2.78044 0
M  V30 6258 H 605.792 -1.33652 4.66221 0
M  V30 6259 H 601.671 -2.34713 3.96776 0
M  V30 6260 H 605.215 -0.607425 6.9495 0
M  V30 6261 H 601.112 -1.62315 6.24759 0
M  V30 6262 H 601.88 -0.786052 8.14717 0
M  V30 6263 N 604.543 -1.41418 -0.695603 0
M  V30 6264 C 605.791 -1.40496 -1.45277 0
M  V30 6265 C 606.112 -0.0149538 -1.94994 0
M  V30 6266 O 605.382 0.9432 -1.71699 0
M  V30 6267 H 603.962 -0.517147 -0.539044 0
M  V30 6268 H 606.624 -1.76656 -0.823321 0
M  V30 6269 H 605.72 -2.09214 -2.31595 0
M  V30 6270 N 606.021 0.929856 -1.27246 0
M  V30 6271 C 606.951 2.04722 -1.12299 0
M  V30 6272 C 607.932 1.70082 -0.0250464 0
M  V30 6273 O 609.117 1.93176 -0.199141 0
M  V30 6274 C 606.247 3.38721 -0.767145 0
M  V30 6275 C 605.201 3.87466 -1.81808 0
M  V30 6276 C 604.527 5.18246 -1.31626 0
M  V30 6277 C 605.827 4.11095 -3.22177 0
M  V30 6278 H 607.521 2.17485 -2.05769 0
M  V30 6279 H 605.067 1.04503 -0.990715 0
M  V30 6280 H 607.02 4.16366 -0.649413 0
M  V30 6281 H 605.744 3.25967 0.203259 0
M  V30 6282 H 604.403 3.12012 -1.92468 0
M  V30 6283 H 604.051 5.01881 -0.335378 0
M  V30 6284 H 603.751 5.51829 -2.01887 0
M  V30 6285 H 605.275 5.98462 -1.21143 0
M  V30 6286 H 606.689 4.79316 -3.1453 0
M  V30 6287 H 605.086 4.55982 -3.90129 0
M  V30 6288 H 606.156 3.16468 -3.67391 0
M  V30 6289 N 607.499 1.09233 1.13605 0
M  V30 6290 C 608.727 0.848908 1.88683 0
M  V30 6291 C 609.142 -0.599667 1.79024 0
M  V30 6292 O 608.499 -1.41265 1.15544 0
M  V30 6293 C 608.55 1.27273 3.38355 0
M  V30 6294 O 608.271 2.66449 3.47759 0
M  V30 6295 C 609.772 1.0614 4.30406 0
M  V30 6296 H 606.992 0.305549 0.597395 0
M  V30 6297 H 609.536 1.4538 1.43823 0
M  V30 6298 H 607.691 0.711776 3.80805 0
M  V30 6299 H 608.105 2.84264 4.40788 0
M  V30 6300 H 609.579 1.40725 5.33761 0
M  V30 6301 H 610.056 -0.000960332 4.392 0
M  V30 6302 H 610.662 1.60821 3.93722 0
M  V30 6303 N 608.977 -1.30795 0.87923 0
M  V30 6304 C 610.202 -2.01063 0.508769 0
M  V30 6305 C 610.627 -1.65508 -0.893803 0
M  V30 6306 O 609.985 -0.868616 -1.59138 0
M  V30 6307 C 610.033 -3.54054 0.683991 0
M  V30 6308 O 609.137 -4.11498 -0.272654 0
M  V30 6309 H 608.478 -0.632786 0.201191 0
M  V30 6310 H 611.008 -1.66776 1.18519 0
M  V30 6311 H 611.018 -4.03845 0.580798 0
M  V30 6312 H 609.693 -3.79271 1.70665 0
M  V30 6313 H 608.27 -3.72695 -0.12364 0
M  V30 6314 N 610.455 -0.639598 -1.44038 0
M  V30 6315 C 611.68 -0.153117 -2.06834 0
M  V30 6316 C 612.105 1.16676 -1.47541 0
M  V30 6317 O 611.463 1.71769 -0.580093 0
M  V30 6318 C 611.511 -0.0609169 -3.60549 0
M  V30 6319 O 610.615 0.98071 -4.00569 0
M  V30 6320 H 609.956 -0.0886402 -0.658057 0
M  V30 6321 H 612.486 -0.878674 -1.84771 0
M  V30 6322 H 612.496 0.126892 -4.07803 0
M  V30 6323 H 611.171 -1.0245 -4.03084 0
M  V30 6324 H 609.748 0.766789 -3.64931 0
M  V30 6325 N 611.933 1.52934 -0.380664 0
M  V30 6326 C 613.182 2.00651 0.205477 0
M  V30 6327 C 613.495 1.27164 1.48623 0
M  V30 6328 O 614.701 1.65547 2.15189 0
M  V30 6329 C 613.157 3.57479 0.416726 0
M  V30 6330 C 612.765 4.39857 -0.850268 0
M  V30 6331 C 614.509 4.13509 0.959702 0
M  V30 6332 C 612.416 5.88269 -0.607773 0
M  V30 6333 H 611.346 0.749684 0.0805614 0
M  V30 6334 H 613.997 1.76508 -0.501732 0
M  V30 6335 H 612.379 3.77836 1.18557 0
M  V30 6336 H 613.553 4.31269 -1.62307 0
M  V30 6337 H 611.868 3.95005 -1.31756 0
M  V30 6338 H 614.465 5.22039 1.15669 0
M  V30 6339 H 614.808 3.69054 1.92626 0
M  V30 6340 H 615.341 3.9701 0.250645 0
M  V30 6341 H 612.08 6.3703 -1.54509 0
M  V30 6342 H 611.6 5.99667 0.126247 0
M  V30 6343 H 613.279 6.46558 -0.239014 0
M  V30 6344 N 613.412 0.11024 1.57214 0
M  V30 6345 C 614.642 -0.557025 1.98949 0
M  V30 6346 C 615.05 -1.61317 0.988606 0
M  V30 6347 O 614.393 -1.83679 -0.0279159 0
M  V30 6348 C 614.455 -1.24956 3.37085 0
M  V30 6349 C 614.119 -0.342398 4.55716 0
M  V30 6350 C 615.116 0.415511 5.18237 0
M  V30 6351 C 612.801 -0.256029 5.01647 0
M  V30 6352 C 614.795 1.24761 6.25071 0
M  V30 6353 C 612.482 0.579713 6.08344 0
M  V30 6354 C 613.48 1.33017 6.69922 0
M  V30 6355 O 613.168 2.15205 7.74559 0
M  V30 6356 H 612.9 -0.152792 0.658506 0
M  V30 6357 H 615.454 0.19076 2.04512 0
M  V30 6358 H 613.684 -2.04424 3.2825 0
M  V30 6359 H 615.373 -1.81286 3.63167 0
M  V30 6360 H 616.139 0.358605 4.83672 0
M  V30 6361 H 612.018 -0.829831 4.5347 0
M  V30 6362 H 615.562 1.83386 6.73064 0
M  V30 6363 H 611.459 0.638044 6.42339 0
M  V30 6364 H 612.227 2.08052 7.91617 0
M  V30 6365 N 614.89 -1.56749 -0.16351 0
M  V30 6366 C 616.118 -1.86577 -0.894233 0
M  V30 6367 C 616.533 -0.696543 -1.75481 0
M  V30 6368 O 615.89 0.334161 -1.79415 0
M  V30 6369 C 615.941 -3.15508 -1.76456 0
M  V30 6370 O 615.662 -4.27926 -0.938685 0
M  V30 6371 C 617.163 -3.58737 -2.60428 0
M  V30 6372 H 614.383 -0.618829 -0.259405 0
M  V30 6373 H 616.927 -2.03863 -0.161259 0
M  V30 6374 H 615.082 -3.00025 -2.45079 0
M  V30 6375 H 615.496 -5.01546 -1.53465 0
M  V30 6376 H 616.97 -4.51832 -3.17099 0
M  V30 6377 H 617.447 -2.83229 -3.35675 0
M  V30 6378 H 618.053 -3.76858 -1.97125 0
M  V30 6379 N 616.368 0.432326 -1.51554 0
M  V30 6380 C 617.3 1.54357 -1.6943 0
M  V30 6381 C 618.313 1.52311 -0.574897 0
M  V30 6382 O 619.502 1.56997 -0.849369 0
M  V30 6383 C 616.602 2.93273 -1.69836 0
M  V30 6384 C 615.775 3.19768 -2.98442 0
M  V30 6385 C 614.834 4.38433 -2.90969 0
M  V30 6386 O 613.86 4.36842 -3.64908 0
M  V30 6387 N 615.062 5.42276 -2.07163 0
M  V30 6388 H 617.827 1.39426 -2.65293 0
M  V30 6389 H 615.388 0.621331 -1.49503 0
M  V30 6390 H 617.38 3.70687 -1.62399 0
M  V30 6391 H 615.95 3.01777 -0.815456 0
M  V30 6392 H 615.17 2.30607 -3.19709 0
M  V30 6393 H 616.458 3.343 -3.83563 0
M  V30 6394 H 615.856 5.46407 -1.46477 0
M  V30 6395 H 614.413 6.18524 -2.05601 0
M  V30 6396 N 617.846 1.41785 0.688094 0
M  V30 6397 C 618.794 1.44436 1.82321 0
M  V30 6398 C 619.788 0.321544 1.6632 0
M  V30 6399 O 620.994 0.493931 1.73091 0
M  V30 6400 H 617.369 0.452084 0.600936 0
M  V30 6401 H 619.34 2.40087 1.77202 0
M  V30 6402 C 618.089 1.35071 3.20392 0
M  V30 6403 H 617.412 2.2076 3.33324 0
M  V30 6404 H 618.852 1.40988 3.99873 0
M  V30 6405 C 617.311 0.0639127 3.36839 0
M  V30 6406 O 617.841 -0.888495 3.91751 0
M  V30 6407 N 616.047 -0.0146114 2.90596 0
M  V30 6408 H 615.594 0.761191 2.46097 0
M  V30 6409 H 615.552 -0.874988 3.01979 0
M  V30 6410 N 619.324 -0.923095 1.27737 0
M  V30 6411 C 620.254 -2.04124 1.13383 0
M  V30 6412 C 621.235 -1.70066 0.0340658 0
M  V30 6413 O 622.42 -1.93068 0.209383 0
M  V30 6414 C 619.55 -3.3831 0.785097 0
M  V30 6415 C 618.504 -3.86496 1.8386 0
M  V30 6416 C 617.83 -5.1754 1.34373 0
M  V30 6417 C 619.13 -4.09381 3.24353 0
M  V30 6418 H 620.824 -2.1639 2.06919 0
M  V30 6419 H 618.37 -1.03976 0.996243 0
M  V30 6420 H 620.323 -4.16016 0.671485 0
M  V30 6421 H 619.047 -3.2607 -0.185969 0
M  V30 6422 H 617.706 -3.10987 1.9412 0
M  V30 6423 H 617.354 -5.01696 0.361989 0
M  V30 6424 H 617.054 -5.50751 2.04811 0
M  V30 6425 H 618.578 -5.97811 1.24315 0
M  V30 6426 H 619.992 -4.77641 3.17067 0
M  V30 6427 H 618.389 -4.53906 3.92542 0
M  V30 6428 H 619.459 -3.14515 3.69064 0
M  V30 6429 N 620.802 -1.09834 -1.13024 0
M  V30 6430 C 621.75 -0.736283 -2.20639 0
M  V30 6431 C 622.744 0.264725 -1.67319 0
M  V30 6432 O 623.95 0.125745 -1.7956 0
M  V30 6433 H 620.325 -0.220136 -0.719058 0
M  V30 6434 H 622.296 -1.65295 -2.48436 0
M  V30 6435 C 621.045 -0.177544 -3.47246 0
M  V30 6436 H 620.368 -0.939009 -3.88616 0
M  V30 6437 H 621.808 0.0378007 -4.23983 0
M  V30 6438 C 620.267 1.08824 -3.1884 0
M  V30 6439 O 620.797 2.1708 -3.37993 0
M  V30 6440 N 619.003 1.00442 -2.7269 0
M  V30 6441 H 618.55 0.123383 -2.57304 0
M  V30 6442 H 618.508 1.85206 -2.5406 0
M  V30 6443 N 622.28 1.30327 -0.886154 0
M  V30 6444 C 623.526 1.96388 -0.505941 0
M  V30 6445 C 623.859 1.69784 0.942712 0
M  V30 6446 O 623.134 1.00322 1.6663 0
M  V30 6447 C 623.417 3.51488 -0.782826 0
M  V30 6448 C 623.27 3.87603 -2.28219 0
M  V30 6449 C 624.589 4.39331 -0.260128 0
M  V30 6450 H 621.708 0.713327 -0.185292 0
M  V30 6451 H 624.35 1.54178 -1.11036 0
M  V30 6452 H 622.5 3.87572 -0.268399 0
M  V30 6453 H 624.172 3.61537 -2.86512 0
M  V30 6454 H 622.415 3.3563 -2.74837 0
M  V30 6455 H 623.086 4.95806 -2.42653 0
M  V30 6456 H 625.562 4.10162 -0.700444 0
M  V30 6457 H 624.438 5.46769 -0.483179 0
M  V30 6458 H 624.699 4.34072 0.838674 0
M  V30 6459 N 623.758 0.647228 1.43697 0
M  V30 6460 C 624.721 -0.0385101 2.29168 0
M  V30 6461 C 625.721 -0.756487 1.41894 0
M  V30 6462 O 626.911 -0.598641 1.63591 0
M  V30 6463 C 624.043 -1.06524 3.23829 0
M  V30 6464 H 625.236 0.713445 2.9129 0
M  V30 6465 H 622.789 0.408153 1.50877 0
M  V30 6466 H 623.524 -1.84664 2.66589 0
M  V30 6467 H 623.309 -0.554147 3.88164 0
M  V30 6468 H 624.799 -1.54432 3.87996 0
M  V30 6469 N 625.236 -1.5273 0.388769 0
M  V30 6470 C 626.169 -2.22861 -0.490752 0
M  V30 6471 C 627.147 -1.22912 -1.06449 0
M  V30 6472 O 628.331 -1.51896 -1.11624 0
M  V30 6473 C 625.458 -2.94141 -1.67925 0
M  V30 6474 C 624.504 -4.08355 -1.23081 0
M  V30 6475 S 625.337 -5.35077 -0.212786 0
M  V30 6476 C 626.493 -6.09879 -1.40708 0
M  V30 6477 H 626.726 -2.97115 0.104787 0
M  V30 6478 H 624.259 -1.53428 0.172956 0
M  V30 6479 H 626.217 -3.35818 -2.36085 0
M  V30 6480 H 624.878 -2.19568 -2.24608 0
M  V30 6481 H 624.071 -4.57328 -2.11818 0
M  V30 6482 H 623.673 -3.68688 -0.628121 0
M  V30 6483 H 625.965 -6.36018 -2.33424 0
M  V30 6484 H 626.908 -7.01586 -0.958271 0
M  V30 6485 H 627.316 -5.40646 -1.62364 0
M  V30 6486 N 626.714 -0.118576 -1.57153 0
M  V30 6487 C 627.661 0.831789 -2.1529 0
M  V30 6488 C 628.631 1.26385 -1.07778 0
M  V30 6489 O 629.816 1.34144 -1.35684 0
M  V30 6490 C 626.956 2.07664 -2.75626 0
M  V30 6491 C 626.069 1.69298 -3.97444 0
M  V30 6492 C 625.204 2.88747 -4.45868 0
M  V30 6493 C 624.243 2.46619 -5.60219 0
M  V30 6494 N 623.38 3.5898 -6.03389 0
M  V30 6495 H 628.22 0.329183 -2.96176 0
M  V30 6496 H 625.757 0.150792 -1.46325 0
M  V30 6497 H 627.715 2.80601 -3.08738 0
M  V30 6498 H 626.345 2.55384 -1.97431 0
M  V30 6499 H 625.397 0.862374 -3.70496 0
M  V30 6500 H 626.709 1.34338 -4.80369 0
M  V30 6501 H 625.863 3.69909 -4.80887 0
M  V30 6502 H 624.602 3.26933 -3.61892 0
M  V30 6503 H 623.607 1.63889 -5.24805 0
M  V30 6504 H 624.832 2.0955 -6.45961 0
M  V30 6505 H 622.778 3.9684 -5.22354 0
M  V30 6506 H 622.695 3.27942 -6.81168 0
M  V30 6507 H 623.963 4.40583 -6.43045 0
M  V30 6508 N 628.193 1.56834 0.155195 0
M  V30 6509 C 629.156 1.96748 1.17571 0
M  V30 6510 C 630.156 0.853006 1.3631 0
M  V30 6511 O 631.346 1.11978 1.33441 0
M  V30 6512 C 628.478 2.27631 2.53765 0
M  V30 6513 H 629.671 2.88085 0.833498 0
M  V30 6514 H 627.224 1.51141 0.398242 0
M  V30 6515 H 627.959 1.39059 2.92973 0
M  V30 6516 H 627.744 3.0888 2.41527 0
M  V30 6517 H 629.234 2.59377 3.27282 0
M  V30 6518 N 629.671 -0.424282 1.51781 0
M  V30 6519 C 630.92 -1.16961 1.64326 0
M  V30 6520 C 631.233 -1.92035 0.371749 0
M  V30 6521 O 632.439 -2.68873 0.37676 0
M  V30 6522 C 630.895 -2.12782 2.90262 0
M  V30 6523 C 630.503 -1.43295 4.24465 0
M  V30 6524 C 632.247 -2.87667 3.12166 0
M  V30 6525 C 630.154 -2.37676 5.41538 0
M  V30 6526 H 629.084 -0.440293 0.612093 0
M  V30 6527 H 631.735 -0.435431 1.78259 0
M  V30 6528 H 630.117 -2.8969 2.69992 0
M  V30 6529 H 631.291 -0.718564 4.55163 0
M  V30 6530 H 629.606 -0.805118 4.08542 0
M  V30 6531 H 632.203 -3.58395 3.96808 0
M  V30 6532 H 632.546 -3.49758 2.25776 0
M  V30 6533 H 633.079 -2.17863 3.32837 0
M  V30 6534 H 629.818 -1.80255 6.30229 0
M  V30 6535 H 629.338 -3.07132 5.15199 0
M  V30 6536 H 631.017 -2.98529 5.74012 0
M  V30 6537 N 631.149 -1.42148 -0.680565 0
M  V30 6538 C 632.096 -1.45175 -1.79424 0
M  V30 6539 C 633.066 -0.304352 -1.63288 0
M  V30 6540 O 634.251 -0.507591 -1.83924 0
M  V30 6541 C 631.391 -1.35429 -3.17416 0
M  V30 6542 C 630.504 -2.60158 -3.4488 0
M  V30 6543 C 629.639 -2.42596 -4.72568 0
M  V30 6544 C 628.678 -3.62727 -4.93047 0
M  V30 6545 N 627.815 -3.44143 -6.11973 0
M  V30 6546 H 632.655 -2.40349 -1.76172 0
M  V30 6547 H 630.192 -1.19334 -0.860107 0
M  V30 6548 H 632.15 -1.27777 -3.97151 0
M  V30 6549 H 630.78 -0.438536 -3.19807 0
M  V30 6550 H 629.832 -2.78199 -2.5944 0
M  V30 6551 H 631.144 -3.49473 -3.55908 0
M  V30 6552 H 630.298 -2.32497 -5.60384 0
M  V30 6553 H 629.037 -1.50761 -4.63813 0
M  V30 6554 H 628.042 -3.73264 -4.03676 0
M  V30 6555 H 629.267 -4.55534 -5.03652 0
M  V30 6556 H 627.213 -2.5502 -6.04401 0
M  V30 6557 H 627.13 -4.27041 -6.23836 0
M  V30 6558 H 628.398 -3.37845 -7.02482 0
M  V30 6559 N 632.627 0.916307 -1.28225 0
M  V30 6560 C 633.875 1.6619 -1.15002 0
M  V30 6561 C 634.196 1.92642 0.302329 0
M  V30 6562 O 633.466 1.54076 1.20985 0
M  V30 6563 H 632.046 0.615964 -0.422608 0
M  V30 6564 H 634.708 1.09963 -1.60917 0
M  V30 6565 H 633.804 2.62533 -1.68769 0
M  V30 6566 N 634.105 1.10431 1.1244 0
M  V30 6567 C 635.035 0.775143 2.20258 0
M  V30 6568 C 636.016 -0.25186 1.68225 0
M  V30 6569 O 637.201 -0.117637 1.93843 0
M  V30 6570 C 634.331 0.206133 3.46688 0
M  V30 6571 C 633.285 1.16382 4.11873 0
M  V30 6572 C 632.611 0.456014 5.32752 0
M  V30 6573 C 633.911 2.5104 4.58013 0
M  V30 6574 H 635.605 1.67665 2.4805 0
M  V30 6575 H 633.151 0.807595 1.19222 0
M  V30 6576 H 635.104 -0.036291 4.21384 0
M  V30 6577 H 633.828 -0.730614 3.18323 0
M  V30 6578 H 632.487 1.39169 3.39157 0
M  V30 6579 H 632.135 -0.485203 5.00654 0
M  V30 6580 H 631.835 1.09466 5.77314 0
M  V30 6581 H 633.359 0.222135 6.10196 0
M  V30 6582 H 634.773 2.32401 5.24083 0
M  V30 6583 H 633.17 3.10789 5.13352 0
M  V30 6584 H 634.24 3.11039 3.71998 0
M  V30 6585 N 635.583 -1.29855 0.893053 0
M  V30 6586 C 636.53 -2.27909 0.364161 0
M  V30 6587 C 637.5 -1.56726 -0.550093 0
M  V30 6588 O 638.685 -1.84747 -0.47677 0
M  V30 6589 C 635.825 -3.42678 -0.408178 0
M  V30 6590 C 634.938 -4.28659 0.536212 0
M  V30 6591 C 634.073 -5.30599 -0.252521 0
M  V30 6592 C 633.112 -6.08234 0.686822 0
M  V30 6593 N 632.249 -7.02068 -0.0670902 0
M  V30 6594 H 637.089 -2.72531 1.20544 0
M  V30 6595 H 634.626 -1.34047 0.605779 0
M  V30 6596 H 636.584 -4.07986 -0.871962 0
M  V30 6597 H 635.214 -2.99103 -1.21397 0
M  V30 6598 H 634.266 -3.63584 1.1185 0
M  V30 6599 H 635.578 -4.8274 1.25552 0
M  V30 6600 H 634.732 -6.01694 -0.777801 0
M  V30 6601 H 633.471 -4.77233 -1.005 0
M  V30 6602 H 632.476 -5.3601 1.22366 0
M  V30 6603 H 633.701 -6.63689 1.43852 0
M  V30 6604 H 631.647 -6.5108 -0.801955 0
M  V30 6605 H 631.564 -7.53675 0.59243 0
M  V30 6606 H 632.832 -7.77392 -0.572851 0
M  V30 6607 N 637.061 -0.65484 -1.43351 0
M  V30 6608 C 638.308 -0.168892 -2.01794 0
M  V30 6609 C 638.636 1.2177 -1.51665 0
M  V30 6610 O 637.891 1.82717 -0.70092 0
M  V30 6611 C 638.19 -0.130424 -3.57162 0
M  V30 6612 C 637.856 -1.45898 -4.26643 0
M  V30 6613 C 636.518 -1.82279 -4.4534 0
M  V30 6614 C 638.87 -2.33485 -4.65976 0
M  V30 6615 C 636.198 -3.0591 -5.00635 0
M  V30 6616 C 638.55 -3.5641 -5.22642 0
M  V30 6617 C 637.214 -3.92985 -5.39555 0
M  V30 6618 H 636.484 -0.061802 -0.738418 0
M  V30 6619 H 639.131 -0.845869 -1.71806 0
M  V30 6620 H 637.436 0.630008 -3.86702 0
M  V30 6621 H 639.133 0.262465 -4.0014 0
M  V30 6622 H 635.723 -1.16591 -4.12437 0
M  V30 6623 H 639.907 -2.06668 -4.51223 0
M  V30 6624 H 635.163 -3.34295 -5.11915 0
M  V30 6625 H 639.337 -4.24495 -5.52066 0
M  V30 6626 H 636.964 -4.88862 -5.82167 0
M  V30 6627 N 638.539 1.52521 -0.396863 0
M  V30 6628 C 639.787 2.01274 0.182536 0
M  V30 6629 C 640.108 1.28485 1.46685 0
M  V30 6630 O 639.378 0.407134 1.91623 0
M  V30 6631 H 637.958 0.743671 0.0704442 0
M  V30 6632 H 640.62 1.87547 -0.530289 0
M  V30 6633 H 639.716 3.09687 0.387385 0
M  V30 6634 N 640.017 0.126909 1.57088 0
M  V30 6635 C 640.927 -0.833867 2.1928 0
M  V30 6636 C 641.943 -1.2868 1.17122 0
M  V30 6637 O 643.119 -1.34815 1.49622 0
M  V30 6638 C 640.184 -2.0632 2.78627 0
M  V30 6639 C 639.245 -1.66143 3.95847 0
M  V30 6640 C 638.478 -2.83217 4.52354 0
M  V30 6641 O 638.701 -3.98868 4.0775 0
M  V30 6642 O 637.635 -2.59846 5.42922 0
M  V30 6643 H 641.461 -0.334564 3.01852 0
M  V30 6644 H 639.046 -0.0991091 1.49071 0
M  V30 6645 H 640.928 -2.78304 3.16425 0
M  V30 6646 H 639.603 -2.55242 1.99082 0
M  V30 6647 H 638.51 -0.912435 3.62802 0
M  V30 6648 H 639.843 -1.21957 4.76852 0
M  V30 6649 N 641.495 -1.56914 -0.146875 0
M  V30 6650 C 642.723 -1.87515 -0.874394 0
M  V30 6651 C 643.138 -0.715116 -1.74733 0
M  V30 6652 O 642.495 0.315113 -1.79759 0
M  V30 6653 C 642.546 -3.17362 -1.731 0
M  V30 6654 O 642.267 -4.28897 -0.893245 0
M  V30 6655 C 643.768 -3.61479 -2.56609 0
M  V30 6656 H 640.988 -0.621546 -0.252827 0
M  V30 6657 H 643.532 -2.04023 -0.139627 0
M  V30 6658 H 641.687 -3.02608 -2.41883 0
M  V30 6659 H 642.101 -5.03146 -1.48137 0
M  V30 6660 H 643.575 -4.5517 -3.12289 0
M  V30 6661 H 644.052 -2.86773 -3.32653 0
M  V30 6662 H 644.658 -3.78927 -1.93117 0
M  V30 6663 N 642.974 0.416227 -1.52004 0
M  V30 6664 C 644.204 1.18401 -1.69307 0
M  V30 6665 C 644.612 1.84943 -0.399072 0
M  V30 6666 O 643.955 1.72406 0.634177 0
M  V30 6667 C 644.017 2.29465 -2.76742 0
M  V30 6668 C 643.681 1.83117 -4.18709 0
M  V30 6669 C 644.678 1.32286 -5.02789 0
M  V30 6670 C 642.363 1.90167 -4.64911 0
M  V30 6671 C 644.357 0.891178 -6.31139 0
M  V30 6672 C 642.044 1.4661 -5.93253 0
M  V30 6673 C 643.042 0.961696 -6.76196 0
M  V30 6674 O 642.73 0.532388 -8.02135 0
M  V30 6675 H 642.462 0.362098 -0.570843 0
M  V30 6676 H 645.016 0.496764 -1.99302 0
M  V30 6677 H 643.246 3.01531 -2.42107 0
M  V30 6678 H 644.935 2.91252 -2.82713 0
M  V30 6679 H 645.701 1.26218 -4.68288 0
M  V30 6680 H 641.58 2.28371 -4.00459 0
M  V30 6681 H 645.124 0.496788 -6.95829 0
M  V30 6682 H 641.021 1.52355 -6.27263 0
M  V30 6683 H 641.789 0.656339 -8.15864 0
M  V30 6684 N 644.452 1.42507 0.673017 0
M  V30 6685 C 645.701 1.42364 1.42883 0
M  V30 6686 C 646.014 0.0441598 1.9555 0
M  V30 6687 O 647.22 -0.0798679 2.71382 0
M  V30 6688 C 645.676 2.5043 2.58482 0
M  V30 6689 C 645.284 3.94392 2.12506 0
M  V30 6690 C 647.028 2.59455 3.35981 0
M  V30 6691 C 644.935 4.93964 3.25198 0
M  V30 6692 H 643.865 0.52951 0.536782 0
M  V30 6693 H 646.516 1.68422 0.728448 0
M  V30 6694 H 644.898 2.1754 3.30896 0
M  V30 6695 H 646.072 4.36645 1.47233 0
M  V30 6696 H 644.387 3.89233 1.4794 0
M  V30 6697 H 646.984 3.31025 4.19912 0
M  V30 6698 H 647.327 1.63869 3.82691 0
M  V30 6699 H 647.86 2.91549 2.70637 0
M  V30 6700 H 644.599 5.91034 2.83477 0
M  V30 6701 H 644.119 4.56341 3.89247 0
M  V30 6702 H 645.798 5.15763 3.90637 0
M  V30 6703 N 645.93 -0.909495 1.28709 0
M  V30 6704 C 646.878 -2.03381 1.12866 0
M  V30 6705 C 647.872 -1.69335 0.0468074 0
M  V30 6706 O 649.078 -1.78819 0.205891 0
M  V30 6707 H 645.453 -0.666452 0.348348 0
M  V30 6708 H 647.424 -2.13885 2.08077 0
M  V30 6709 C 646.173 -3.38092 0.811742 0
M  V30 6710 H 645.496 -3.64786 1.63619 0
M  V30 6711 H 646.936 -4.17477 0.740869 0
M  V30 6712 C 645.395 -3.33395 -0.484679 0
M  V30 6713 O 645.925 -3.72089 -1.5137 0
M  V30 6714 N 644.131 -2.86491 -0.486961 0
M  V30 6715 H 643.678 -2.55199 0.350877 0
M  V30 6716 H 643.636 -2.83731 -1.3544 0
M  V30 6717 N 647.408 -1.11026 -1.11852 0
M  V30 6718 C 648.824 -0.843294 -1.35502 0
M  V30 6719 C 649.024 0.534179 -1.9429 0
M  V30 6720 O 648.08 1.28585 -2.17307 0
M  V30 6721 C 649.393 -1.94793 -2.29077 0
M  V30 6722 C 650.941 -1.97709 -2.42652 0
M  V30 6723 C 651.416 -3.07364 -3.39546 0
M  V30 6724 N 652.907 -3.0671 -3.47107 0
M  V30 6725 C 653.642 -3.88197 -4.22008 0
M  V30 6726 N 653.138 -4.79635 -4.99922 0
M  V30 6727 N 654.931 -3.76391 -4.17476 0
M  V30 6728 H 647.082 -1.99805 -0.720538 0
M  V30 6729 H 649.345 -0.868633 -0.379711 0
M  V30 6730 H 649.051 -2.93971 -1.93065 0
M  V30 6731 H 648.925 -1.84039 -3.29256 0
M  V30 6732 H 651.312 -0.991604 -2.77941 0
M  V30 6733 H 651.393 -2.1254 -1.4234 0
M  V30 6734 H 651.037 -4.06136 -3.04985 0
M  V30 6735 H 650.967 -2.89774 -4.39703 0
M  V30 6736 H 653.458 -2.40457 -2.91528 0
M  V30 6737 H 653.771 -5.38357 -5.54429 0
M  V30 6738 H 652.116 -4.8366 -4.99097 0
M  V30 6739 H 655.307 -3.04303 -3.55693 0
M  V30 6740 H 655.48 -4.40131 -4.75593 0
M  V30 6741 N 648.886 1.2938 -0.899927 0
M  V30 6742 C 649.796 2.31462 -0.382437 0
M  V30 6743 C 650.812 1.65956 0.522929 0
M  V30 6744 O 651.988 1.97131 0.412454 0
M  V30 6745 C 649.053 3.44595 0.381472 0
M  V30 6746 C 648.114 4.25692 -0.555444 0
M  V30 6747 C 647.347 5.33422 0.172102 0
M  V30 6748 O 647.57 5.53053 1.396 0
M  V30 6749 O 646.504 5.99939 -0.485491 0
M  V30 6750 H 650.33 2.77706 -1.22934 0
M  V30 6751 H 647.915 1.33821 -0.664259 0
M  V30 6752 H 649.797 4.13474 0.813442 0
M  V30 6753 H 648.472 3.00458 1.20443 0
M  V30 6754 H 647.379 3.59453 -1.03653 0
M  V30 6755 H 648.712 4.73471 -1.34483 0
M  V30 6756 N 650.364 0.662433 1.43002 0
M  V30 6757 C 651.312 -0.035345 2.32573 0
M  V30 6758 C 652.306 -0.803505 1.49131 0
M  V30 6759 O 653.512 -0.712865 1.65282 0
M  V30 6760 H 649.887 -0.0302194 0.751393 0
M  V30 6761 H 651.858 0.737686 2.89138 0
M  V30 6762 C 650.607 -0.981575 3.33557 0
M  V30 6763 H 649.93 -0.399914 3.97795 0
M  V30 6764 H 651.37 -1.43873 3.98844 0
M  V30 6765 C 649.829 -2.08204 2.64863 0
M  V30 6766 O 650.359 -3.16698 2.47113 0
M  V30 6767 N 648.565 -1.85022 2.24088 0
M  V30 6768 H 648.112 -0.967909 2.38724 0
M  V30 6769 H 648.07 -2.58845 1.78457 0
M  V30 6770 N 651.842 -1.52309 0.404946 0
M  V30 6771 C 653.089 -2.01767 -0.1722 0
M  V30 6772 C 653.417 -1.29075 -1.45498 0
M  V30 6773 O 652.672 -0.3843 -1.9189 0
M  V30 6774 C 652.971 -3.54284 -0.470895 0
M  V30 6775 C 652.637 -4.45079 0.722194 0
M  V30 6776 C 651.299 -4.69617 1.04946 0
M  V30 6777 C 653.651 -4.98555 1.51962 0
M  V30 6778 C 650.979 -5.44878 2.17543 0
M  V30 6779 C 653.331 -5.75049 2.63632 0
M  V30 6780 C 651.995 -5.9786 2.9685 0
M  V30 6781 H 651.265 -0.738316 -0.0630125 0
M  V30 6782 H 653.912 -1.83566 0.545506 0
M  V30 6783 H 652.217 -3.70642 -1.27012 0
M  V30 6784 H 653.914 -3.90058 -0.930346 0
M  V30 6785 H 650.504 -4.26155 0.457131 0
M  V30 6786 H 654.688 -4.79509 1.28002 0
M  V30 6787 H 649.944 -5.60762 2.43631 0
M  V30 6788 H 654.118 -6.15483 3.25813 0
M  V30 6789 H 651.745 -6.5596 3.84215 0
M  V30 6790 N 653.32 -0.135238 -1.57019 0
M  V30 6791 C 654.23 0.822226 -2.19719 0
M  V30 6792 C 655.246 1.28057 -1.17802 0
M  V30 6793 O 656.422 1.3402 -1.50335 0
M  V30 6794 C 653.487 2.0484 -2.79717 0
M  V30 6795 C 652.548 1.64042 -3.96723 0
M  V30 6796 C 651.781 2.80814 -4.53849 0
M  V30 6797 O 652.004 3.967 -4.0986 0
M  V30 6798 O 650.938 2.56963 -5.44292 0
M  V30 6799 H 654.764 0.318552 -3.02025 0
M  V30 6800 H 652.349 0.0912021 -1.49121 0
M  V30 6801 H 654.231 2.76622 -3.17897 0
M  V30 6802 H 652.906 2.54182 -2.00432 0
M  V30 6803 H 651.813 0.893182 -3.63281 0
M  V30 6804 H 653.146 1.19426 -4.77492 0
M  V30 6805 N 654.798 1.5699 0.138552 0
M  V30 6806 C 655.761 1.97984 1.15478 0
M  V30 6807 C 656.761 0.867416 1.35398 0
M  V30 6808 O 657.951 1.13387 1.32246 0
M  V30 6809 C 655.083 2.3031 2.51337 0
M  V30 6810 H 656.276 2.88953 0.802896 0
M  V30 6811 H 653.829 1.51555 0.382189 0
M  V30 6812 H 654.564 1.42159 2.91481 0
M  V30 6813 H 654.349 3.11425 2.38237 0
M  V30 6814 H 655.839 2.62834 3.24512 0
M  V30 6815 N 656.276 -0.40816 1.52223 0
M  V30 6816 C 657.209 -1.51834 1.70357 0
M  V30 6817 C 658.187 -1.52973 0.551171 0
M  V30 6818 O 659.371 -1.71667 0.778642 0
M  V30 6819 C 656.498 -2.90362 1.74378 0
M  V30 6820 C 655.544 -3.0713 2.95928 0
M  V30 6821 S 656.377 -2.80342 4.56255 0
M  V30 6822 C 657.533 -4.21098 4.63063 0
M  V30 6823 H 657.766 -1.36223 2.64255 0
M  V30 6824 H 655.299 -0.599798 1.42274 0
M  V30 6825 H 657.257 -3.70199 1.77379 0
M  V30 6826 H 655.918 -3.03314 0.816063 0
M  V30 6827 H 655.111 -4.08482 2.95226 0
M  V30 6828 H 654.713 -2.3516 2.90819 0
M  V30 6829 H 657.005 -5.14749 4.40499 0
M  V30 6830 H 657.948 -4.26823 5.65002 0
M  V30 6831 H 658.356 -4.06114 3.92086 0
M  V30 6832 N 657.755 -1.42862 -0.66545 0
M  V30 6833 C 658.687 -1.43026 -1.79098 0
M  V30 6834 C 659.7 -0.32803 -1.59461 0
M  V30 6835 O 660.889 -0.591709 -1.68407 0
M  V30 6836 C 657.989 -1.21566 -3.16346 0
M  V30 6837 C 657.162 -2.44399 -3.62751 0
M  V30 6838 C 656.221 -2.18344 -4.78761 0
M  V30 6839 O 655.247 -2.91611 -4.88827 0
M  V30 6840 N 656.449 -1.1924 -5.68122 0
M  V30 6841 H 659.214 -2.40045 -1.79439 0
M  V30 6842 H 656.775 -1.37861 -0.848872 0
M  V30 6843 H 658.767 -1.02037 -3.91625 0
M  V30 6844 H 657.337 -0.330368 -3.10849 0
M  V30 6845 H 656.557 -2.79433 -2.78048 0
M  V30 6846 H 657.845 -3.26173 -3.90498 0
M  V30 6847 H 657.243 -0.586603 -5.6265 0
M  V30 6848 H 655.8 -1.05698 -6.43173 0
M  V30 6849 N 659.233 0.902656 -1.29189 0
M  V30 6850 C 660.481 1.6496 -1.16758 0
M  V30 6851 C 660.802 1.92952 0.28188 0
M  V30 6852 O 660.072 1.55351 1.19344 0
M  V30 6853 H 658.652 0.611447 -0.429118 0
M  V30 6854 H 661.314 1.0825 -1.62074 0
M  V30 6855 H 660.41 2.60728 -1.71544 0
M  V30 6856 N 660.711 1.11618 1.11262 0
M  V30 6857 C 661.958 0.86618 1.8304 0
M  V30 6858 C 662.286 -0.608149 1.84748 0
M  V30 6859 O 661.541 -1.46508 1.29745 0
M  V30 6860 C 661.84 1.37529 3.2988 0
M  V30 6861 C 661.506 2.86317 3.4833 0
M  V30 6862 C 660.168 3.26945 3.53073 0
M  V30 6863 C 662.52 3.82136 3.54431 0
M  V30 6864 C 659.848 4.62117 3.61475 0
M  V30 6865 C 662.2 5.17128 3.64365 0
M  V30 6866 C 660.864 5.57312 3.67369 0
M  V30 6867 H 660.134 0.316958 0.66979 0
M  V30 6868 H 662.781 1.3949 1.31205 0
M  V30 6869 H 661.086 0.766842 3.84222 0
M  V30 6870 H 662.783 1.15817 3.83911 0
M  V30 6871 H 659.373 2.53889 3.45309 0
M  V30 6872 H 663.557 3.51847 3.50025 0
M  V30 6873 H 658.813 4.92655 3.62079 0
M  V30 6874 H 662.987 5.91208 3.68029 0
M  V30 6875 H 660.614 6.62045 3.73632 0
M  V30 6876 N 662.189 -1.289 0.906776 0
M  V30 6877 C 663.139 -2.25122 0.361109 0
M  V30 6878 C 664.123 -1.52169 -0.52283 0
M  V30 6879 O 665.315 -1.73223 -0.363691 0
M  V30 6880 C 662.444 -3.40915 -0.403982 0
M  V30 6881 C 661.53 -4.21198 0.495279 0
M  V30 6882 N 661.921 -4.79636 1.60572 0
M  V30 6883 C 660.219 -4.45027 0.294372 0
M  V30 6884 C 660.92 -5.39977 2.16332 0
M  V30 6885 N 659.896 -5.23753 1.45546 0
M  V30 6886 H 663.698 -2.67869 1.20927 0
M  V30 6887 H 661.212 -1.43592 0.758632 0
M  V30 6888 H 663.209 -4.08922 -0.811695 0
M  V30 6889 H 661.869 -2.99703 -1.24932 0
M  V30 6890 H 662.88 -4.78209 1.98838 0
M  V30 6891 H 659.557 -4.14348 -0.512021 0
M  V30 6892 H 660.947 -5.96266 3.09704 0
M  V30 6893 N 663.667 -0.670007 -1.42649 0
M  V30 6894 C 664.63 0.00204659 -2.292 0
M  V30 6895 C 665.63 0.733817 -1.4308 0
M  V30 6896 O 666.82 0.57254 -1.64522 0
M  V30 6897 C 663.952 1.01359 -3.25483 0
M  V30 6898 H 665.145 -0.759696 -2.90118 0
M  V30 6899 H 662.698 -0.432105 -1.50208 0
M  V30 6900 H 663.433 1.80399 -2.69493 0
M  V30 6901 H 663.218 0.492323 -3.88997 0
M  V30 6902 H 664.708 1.4824 -3.90403 0
M  V30 6903 N 665.145 1.52092 -0.413018 0
M  V30 6904 C 666.393 2.01456 0.161178 0
M  V30 6905 C 666.714 1.30034 1.45314 0
M  V30 6906 O 665.984 0.427435 1.9118 0
M  V30 6907 H 664.564 0.744376 0.0625526 0
M  V30 6908 H 667.226 1.86974 -0.550151 0
M  V30 6909 H 666.322 3.1008 0.354517 0
M  V30 6910 N 666.623 0.143563 1.56945 0
M  V30 6911 C 667.869 -0.502787 1.97088 0
M  V30 6912 C 668.224 -1.62703 1.02691 0
M  V30 6913 O 667.517 -1.91502 0.0613323 0
M  V30 6914 C 667.711 -1.05885 3.41355 0
M  V30 6915 C 667.54 0.00998209 4.49699 0
M  V30 6916 C 666.31 0.450229 5.0329 0
M  V30 6917 C 668.508 0.800174 5.08037 0
M  V30 6918 N 666.49 1.50227 5.95235 0
M  V30 6919 C 667.861 1.70279 5.96158 0
M  V30 6920 C 669.916 0.848344 4.9062 0
M  V30 6921 C 668.619 2.64945 6.68728 0
M  V30 6922 C 670.645 1.78281 5.63888 0
M  V30 6923 C 670.007 2.67296 6.51715 0
M  V30 6924 H 666.106 -0.152891 0.766908 0
M  V30 6925 H 668.69 0.23737 1.93248 0
M  V30 6926 H 666.861 -1.76863 3.45795 0
M  V30 6927 H 668.593 -1.67154 3.68567 0
M  V30 6928 H 665.348 0.0531355 4.7357 0
M  V30 6929 H 665.772 2.02795 6.45913 0
M  V30 6930 H 670.414 0.174228 4.22441 0
M  V30 6931 H 668.132 3.33358 7.36137 0
M  V30 6932 H 671.718 1.82584 5.52408 0
M  V30 6933 H 670.598 3.38428 7.07415 0
M  V30 6934 N 668.101 -1.57061 -0.130224 0
M  V30 6935 C 669.517 -1.52103 -0.483413 0
M  V30 6936 C 669.717 -0.854752 -1.82473 0
M  V30 6937 O 668.773 -0.432342 -2.48771 0
M  V30 6938 C 670.086 -2.96872 -0.47825 0
M  V30 6939 C 671.634 -3.07902 -0.562592 0
M  V30 6940 C 672.109 -4.54211 -0.587929 0
M  V30 6941 N 673.6 -4.58621 -0.649684 0
M  V30 6942 C 674.335 -5.69227 -0.690551 0
M  V30 6943 N 673.831 -6.89358 -0.689743 0
M  V30 6944 N 675.624 -5.57304 -0.732708 0
M  V30 6945 H 667.775 -1.98764 0.748779 0
M  V30 6946 H 670.038 -0.907248 0.274965 0
M  V30 6947 H 669.744 -3.48944 0.439444 0
M  V30 6948 H 669.618 -3.53716 -1.31013 0
M  V30 6949 H 672.005 -2.5584 -1.47071 0
M  V30 6950 H 672.086 -2.54073 0.296764 0
M  V30 6951 H 671.73 -5.06915 0.316096 0
M  V30 6952 H 671.66 -5.0584 -1.46401 0
M  V30 6953 H 674.151 -3.72146 -0.656927 0
M  V30 6954 H 674.464 -7.69408 -0.723239 0
M  V30 6955 H 672.809 -6.91884 -0.657347 0
M  V30 6956 H 676 -4.62363 -0.730625 0
M  V30 6957 H 676.173 -6.43515 -0.76109 0
M  V30 6958 N 669.579 0.400081 -1.52437 0
M  V30 6959 C 670.526 1.48803 -1.76426 0
M  V30 6960 C 671.496 1.5461 -0.607032 0
M  V30 6961 O 672.681 1.71041 -0.845563 0
M  V30 6962 C 669.821 2.86156 -1.92896 0
M  V30 6963 C 668.934 2.89587 -3.20567 0
M  V30 6964 C 668.069 4.18296 -3.27417 0
M  V30 6965 C 667.108 4.15736 -4.49255 0
M  V30 6966 N 666.245 5.36032 -4.53447 0
M  V30 6967 H 671.085 1.27649 -2.69276 0
M  V30 6968 H 668.622 0.619451 -1.33421 0
M  V30 6969 H 670.58 3.65901 -2.00429 0
M  V30 6970 H 669.21 3.05785 -1.03418 0
M  V30 6971 H 668.262 2.02278 -3.22161 0
M  V30 6972 H 669.574 2.83562 -4.10358 0
M  V30 6973 H 668.728 5.06439 -3.34072 0
M  V30 6974 H 667.467 4.27028 -2.35581 0
M  V30 6975 H 666.472 3.25982 -4.42737 0
M  V30 6976 H 667.697 4.08636 -5.42396 0
M  V30 6977 H 665.643 5.45415 -3.64498 0
M  V30 6978 H 665.56 5.32038 -5.37096 0
M  V30 6979 H 666.828 6.26104 -4.64343 0
M  V30 6980 N 671.057 1.43213 0.657864 0
M  V30 6981 C 672.282 1.48227 1.45064 0
M  V30 6982 C 672.707 0.0999939 1.87834 0
M  V30 6983 O 672.065 -0.905269 1.57081 0
M  V30 6984 C 672.113 2.42931 2.6649 0
M  V30 6985 O 671.217 1.91237 3.6538 0
M  V30 6986 H 670.558 0.501551 0.435135 0
M  V30 6987 H 673.088 1.8808 0.805431 0
M  V30 6988 H 673.098 2.6008 3.1436 0
M  V30 6989 H 671.773 3.43348 2.34701 0
M  V30 6990 H 670.35 1.83726 3.24498 0
M  V30 6991 N 672.536 -0.895792 1.29666 0
M  V30 6992 C 673.784 -1.64339 1.17631 0
M  V30 6993 C 674.105 -1.93099 -0.271643 0
M  V30 6994 O 673.375 -1.55981 -1.18518 0
M  V30 6995 H 671.955 -0.609162 0.432354 0
M  V30 6996 H 674.617 -1.07389 1.62646 0
M  V30 6997 H 673.713 -2.59815 1.72924 0
M  V30 6998 N 674.014 -1.12206 -1.10668 0
M  V30 6999 C 675.263 -0.870595 -1.81944 0
M  V30 7000 C 675.576 0.605447 -1.85994 0
M  V30 7001 O 676.782 0.973433 -2.53449 0
M  V30 7002 C 675.238 -1.50783 -3.26791 0
M  V30 7003 C 674.846 -3.01849 -3.31046 0
M  V30 7004 C 676.59 -1.33653 -4.02911 0
M  V30 7005 C 674.497 -3.58518 -4.70339 0
M  V30 7006 H 673.427 -0.322043 -0.681765 0
M  V30 7007 H 676.078 -1.34827 -1.24475 0
M  V30 7008 H 674.46 -0.957825 -3.84242 0
M  V30 7009 H 675.634 -3.63321 -2.83433 0
M  V30 7010 H 673.949 -3.18346 -2.68411 0
M  V30 7011 H 676.546 -1.73416 -5.05797 0
M  V30 7012 H 676.889 -0.279949 -4.15358 0
M  V30 7013 H 677.422 -1.85562 -3.51868 0
M  V30 7014 H 674.161 -4.63925 -4.63091 0
M  V30 7015 H 673.681 -3.01819 -5.18329 0
M  V30 7016 H 675.36 -3.57434 -5.39305 0
M  V30 7017 N 675.492 1.28418 -0.913599 0
M  V30 7018 C 676.74 1.94596 -0.545594 0
M  V30 7019 C 677.061 1.7227 0.913668 0
M  V30 7020 O 676.331 1.06233 1.64595 0
M  V30 7021 H 674.911 0.720065 -0.198783 0
M  V30 7022 H 677.573 1.56404 -1.16292 0
M  V30 7023 H 676.669 3.03202 -0.739911 0
M  V30 7024 N 676.97 0.677563 1.42291 0
M  V30 7025 C 678.218 0.200578 2.01102 0
M  V30 7026 C 678.539 -1.19803 1.53858 0
M  V30 7027 O 677.809 -1.80496 0.761439 0
M  V30 7028 H 676.389 0.0711634 0.743603 0
M  V30 7029 H 679.051 0.874691 1.7417 0
M  V30 7030 H 678.147 0.204 3.11433 0
M  V30 7031 N 678.448 -1.51871 0.421078 0
M  V30 7032 C 679.411 -2.25914 -0.386712 0
M  V30 7033 C 680.411 -1.28733 -0.963555 0
M  V30 7034 O 681.601 -1.52579 -0.840556 0
M  V30 7035 C 678.733 -3.03853 -1.54551 0
M  V30 7036 H 679.926 -2.98754 0.261978 0
M  V30 7037 H 677.479 -1.5533 0.173862 0
M  V30 7038 H 678.214 -2.35392 -2.23072 0
M  V30 7039 H 677.999 -3.75215 -1.13824 0
M  V30 7040 H 679.489 -3.59984 -2.11663 0
M  V30 7041 N 679.926 -0.151884 -1.56866 0
M  V30 7042 C 681.203 0.543328 -1.87902 0
M  V30 7043 C 681.583 1.82636 -1.05864 0
M  V30 7044 O 680.931 2.28028 -0.146868 0
M  V30 7045 C 681.141 0.804056 -3.39611 0
M  V30 7046 C 682.489 1.14267 -4.08935 0
M  V30 7047 O 683.513 0.893248 -3.44818 0
M  V30 7048 O 682.372 1.61229 -5.22176 0
M  V30 7049 H 679.466 0.277724 -0.778973 0
M  V30 7050 H 682.012 -0.188862 -1.68646 0
M  V30 7051 H 680.784 -0.103772 -3.91162 0
M  V30 7052 H 680.407 1.59025 -3.64413 0
M  V30 7053 N 681.404 1.57128 0.121893 0
M  V30 7054 C 682.652 1.84335 0.828548 0
M  V30 7055 C 682.973 0.736632 1.80551 0
M  V30 7056 O 682.243 -0.23962 1.94429 0
M  V30 7057 H 680.823 0.680108 0.30897 0
M  V30 7058 H 683.485 1.9459 0.109906 0
M  V30 7059 H 682.581 2.80152 1.37554 0
M  V30 7060 N 682.882 -0.391992 1.52647 0
M  V30 7061 C 683.829 -1.47866 1.77213 0
M  V30 7062 C 684.799 -1.54286 0.615223 0
M  V30 7063 O 685.984 -1.7059 0.854622 0
M  V30 7064 C 683.124 -2.85129 1.94411 0
M  V30 7065 C 682.237 -2.87883 3.22098 0
M  V30 7066 C 681.372 -4.16553 3.29631 0
M  V30 7067 C 680.411 -4.13348 4.51453 0
M  V30 7068 N 679.548 -5.33619 4.56284 0
M  V30 7069 H 684.388 -1.26219 2.6995 0
M  V30 7070 H 681.925 -0.612367 1.33748 0
M  V30 7071 H 683.883 -3.64833 2.02367 0
M  V30 7072 H 682.513 -3.05232 1.05038 0
M  V30 7073 H 681.565 -2.00567 3.23229 0
M  V30 7074 H 682.877 -2.81382 4.11856 0
M  V30 7075 H 682.031 -5.0466 3.36753 0
M  V30 7076 H 680.77 -4.25773 2.37842 0
M  V30 7077 H 679.775 -3.23629 4.44459 0
M  V30 7078 H 681 -4.05754 5.44555 0
M  V30 7079 H 678.946 -5.43474 3.67385 0
M  V30 7080 H 678.863 -5.29182 5.3991 0
M  V30 7081 H 680.131 -6.23632 4.67657 0
M  V30 7082 N 684.36 -1.4356 -0.65026 0
M  V30 7083 C 685.31 -1.45392 -1.75628 0
M  V30 7084 C 686.294 -0.322006 -1.57645 0
M  V30 7085 O 687.486 -0.565996 -1.67707 0
M  V30 7086 C 684.615 -1.38254 -3.1423 0
M  V30 7087 C 683.701 -2.56487 -3.3775 0
M  V30 7088 N 684.092 -3.81824 -3.31729 0
M  V30 7089 C 682.39 -2.51274 -3.6848 0
M  V30 7090 C 683.091 -4.60497 -3.55412 0
M  V30 7091 N 682.067 -3.91274 -3.77367 0
M  V30 7092 H 685.869 -2.40167 -1.69402 0
M  V30 7093 H 683.383 -1.38254 -0.852037 0
M  V30 7094 H 685.38 -1.3765 -3.9352 0
M  V30 7095 H 684.04 -0.445019 -3.21636 0
M  V30 7096 H 685.051 -4.14069 -3.11074 0
M  V30 7097 H 681.728 -1.66223 -3.82983 0
M  V30 7098 H 683.118 -5.69518 -3.5651 0
M  V30 7099 N 685.838 0.888903 -1.30139 0
M  V30 7100 C 687.086 1.63713 -1.18501 0
M  V30 7101 C 687.407 1.9324 0.261399 0
M  V30 7102 O 686.677 1.56608 1.17689 0
M  V30 7103 H 685.257 0.606861 -0.435579 0
M  V30 7104 H 687.919 1.06525 -1.63213 0
M  V30 7105 H 687.015 2.58894 -1.743 0
M  V30 7106 N 687.317 1.12792 1.10072 0
M  V30 7107 C 688.247 0.821688 2.18565 0
M  V30 7108 C 689.228 -0.21612 1.68721 0
M  V30 7109 O 690.413 -0.0764932 1.94049 0
M  V30 7110 C 687.543 0.279624 3.46172 0
M  V30 7111 C 686.497 1.25092 4.09312 0
M  V30 7112 C 685.823 0.568916 5.31665 0
M  V30 7113 C 687.123 2.60699 4.52585 0
M  V30 7114 H 688.817 1.72888 2.44438 0
M  V30 7115 H 686.363 0.832702 1.17482 0
M  V30 7116 H 688.316 0.053099 4.21367 0
M  V30 7117 H 687.04 -0.662929 3.19801 0
M  V30 7118 H 685.699 1.46332 3.36129 0
M  V30 7119 H 685.347 -0.378898 5.01571 0
M  V30 7120 H 685.047 1.21687 5.74862 0
M  V30 7121 H 686.571 0.351517 6.09587 0
M  V30 7122 H 687.985 2.43465 5.19035 0
M  V30 7123 H 686.382 3.21608 5.06644 0
M  V30 7124 H 687.452 3.1886 3.65317 0
M  V30 7125 N 688.795 -1.27931 0.920396 0
M  V30 7126 C 689.745 -2.24727 0.384966 0
M  V30 7127 C 690.729 -1.52715 -0.506661 0
M  V30 7128 O 691.921 -1.73599 -0.345298 0
M  V30 7129 C 689.05 -3.41324 -0.3678 0
M  V30 7130 C 688.136 -4.20649 0.539925 0
M  V30 7131 N 688.527 -4.77906 1.6565 0
M  V30 7132 C 686.825 -4.4469 0.341557 0
M  V30 7133 C 687.526 -5.37652 2.22047 0
M  V30 7134 N 686.502 -5.2218 1.51093 0
M  V30 7135 H 690.304 -2.66572 1.23761 0
M  V30 7136 H 687.818 -1.42779 0.773819 0
M  V30 7137 H 689.815 -4.0976 -0.768277 0
M  V30 7138 H 688.475 -3.01012 -1.21746 0
M  V30 7139 H 689.486 -4.76073 2.03899 0
M  V30 7140 H 686.163 -4.14868 -0.468045 0
M  V30 7141 H 687.553 -5.92948 3.1601 0
M  V30 7142 N 690.273 -0.685099 -1.4193 0
M  V30 7143 C 691.183 -0.013404 -2.34596 0
M  V30 7144 C 692.199 0.777589 -1.55658 0
M  V30 7145 O 693.375 0.717553 -1.88184 0
M  V30 7146 C 690.44 0.919031 -3.34297 0
M  V30 7147 C 689.501 0.121417 -4.29128 0
M  V30 7148 C 688.734 1.00944 -5.24067 0
M  V30 7149 O 688.957 2.24898 -5.24192 0
M  V30 7150 O 687.891 0.464724 -6.00103 0
M  V30 7151 H 691.717 -0.776978 -2.93593 0
M  V30 7152 H 689.302 -0.445379 -1.42607 0
M  V30 7153 H 691.184 1.45402 -3.9552 0
M  V30 7154 H 689.859 1.66228 -2.77759 0
M  V30 7155 H 688.766 -0.45792 -3.71287 0
M  V30 7156 H 690.099 -0.582937 -4.88736 0
M  V30 7157 N 691.751 1.51645 -0.429126 0
M  V30 7158 C 692.981 2.06133 0.138793 0
M  V30 7159 C 693.389 1.29735 1.37716 0
M  V30 7160 O 692.732 0.347955 1.80375 0
M  V30 7161 C 692.794 3.55504 0.534493 0
M  V30 7162 C 692.458 4.53098 -0.595917 0
M  V30 7163 C 693.455 4.98815 -1.46558 0
M  V30 7164 C 691.14 4.96296 -0.774309 0
M  V30 7165 C 693.134 5.86394 -2.4984 0
M  V30 7166 C 690.821 5.83667 -1.81042 0
M  V30 7167 C 691.819 6.28613 -2.67086 0
M  V30 7168 O 691.507 7.14251 -3.68919 0
M  V30 7169 H 691.239 0.675833 0.0150263 0
M  V30 7170 H 693.793 1.96301 -0.604584 0
M  V30 7171 H 692.023 3.63092 1.33045 0
M  V30 7172 H 693.712 3.92545 1.03262 0
M  V30 7173 H 694.478 4.66143 -1.33925 0
M  V30 7174 H 690.357 4.60859 -0.114178 0
M  V30 7175 H 693.901 6.21398 -3.17034 0
M  V30 7176 H 689.798 6.15753 -1.93698 0
M  V30 7177 H 690.566 7.3241 -3.65402 0
M  V30 7178 N 693.229 0.160201 1.56784 0
M  V30 7179 C 694.159 -0.770264 2.2043 0
M  V30 7180 C 695.14 -1.24736 1.15651 0
M  V30 7181 O 696.325 -1.30253 1.44041 0
M  V30 7182 C 693.455 -2.00427 2.83631 0
M  V30 7183 C 692.409 -1.66345 3.94352 0
M  V30 7184 C 691.735 -2.97119 4.4455 0
M  V30 7185 C 693.035 -0.899972 5.14488 0
M  V30 7186 H 694.729 -0.239783 2.98438 0
M  V30 7187 H 692.275 -0.113891 1.43549 0
M  V30 7188 H 694.228 -2.66012 3.26827 0
M  V30 7189 H 692.952 -2.5587 2.02973 0
M  V30 7190 H 691.611 -1.03133 3.51794 0
M  V30 7191 H 691.259 -3.5058 3.60698 0
M  V30 7192 H 690.959 -2.75073 5.19238 0
M  V30 7193 H 692.483 -3.63753 4.90425 0
M  V30 7194 H 693.897 -1.45818 5.54446 0
M  V30 7195 H 692.294 -0.778968 5.95023 0
M  V30 7196 H 693.364 0.105827 4.84785 0
M  V30 7197 N 694.707 -1.5719 -0.113559 0
M  V30 7198 C 695.639 -1.97393 -1.16484 0
M  V30 7199 C 696.652 -0.873964 -1.37352 0
M  V30 7200 O 697.841 -1.15222 -1.36331 0
M  V30 7201 C 694.941 -2.26174 -2.52386 0
M  V30 7202 C 694.114 -3.57479 -2.52046 0
M  V30 7203 C 693.173 -3.74409 -3.69735 0
M  V30 7204 O 692.199 -4.46463 -3.53071 0
M  V30 7205 N 693.401 -3.13588 -4.88511 0
M  V30 7206 H 696.166 -2.88184 -0.822814 0
M  V30 7207 H 693.727 -1.59044 -0.302769 0
M  V30 7208 H 695.719 -2.3471 -3.29687 0
M  V30 7209 H 694.289 -1.41483 -2.7875 0
M  V30 7210 H 693.509 -3.60081 -1.60421 0
M  V30 7211 H 694.797 -4.43775 -2.48881 0
M  V30 7212 H 694.195 -2.55026 -5.04953 0
M  V30 7213 H 692.752 -3.27637 -5.63469 0
M  V30 7214 N 696.185 0.383891 -1.52853 0
M  V30 7215 C 697.413 1.1495 -1.7203 0
M  V30 7216 C 697.828 1.83578 -0.440957 0
M  V30 7217 O 697.185 1.72872 0.584925 0
M  V30 7218 C 697.236 2.19368 -2.87333 0
M  V30 7219 O 696.957 1.53536 -4.10315 0
M  V30 7220 C 698.458 3.08616 -3.18231 0
M  V30 7221 H 695.678 0.344445 -0.575846 0
M  V30 7222 H 698.222 0.448397 -1.99524 0
M  V30 7223 H 696.377 2.85105 -2.62286 0
M  V30 7224 H 696.791 2.2296 -4.74752 0
M  V30 7225 H 698.265 3.77902 -4.02361 0
M  V30 7226 H 698.742 3.72409 -2.32826 0
M  V30 7227 H 699.348 2.48518 -3.45136 0
M  V30 7228 N 697.663 1.43903 0.642637 0
M  V30 7229 C 698.595 1.45857 1.768 0
M  V30 7230 C 699.608 0.353358 1.58919 0
M  V30 7231 O 700.797 0.618426 1.67445 0
M  V30 7232 C 697.897 1.26583 3.14372 0
M  V30 7233 C 697.07 2.50139 3.58817 0
M  V30 7234 C 696.129 2.25933 4.75227 0
M  V30 7235 O 695.155 2.99351 4.84125 0
M  V30 7236 N 696.357 1.28263 5.66153 0
M  V30 7237 H 699.122 2.42869 1.75598 0
M  V30 7238 H 696.683 1.39194 0.826832 0
M  V30 7239 H 698.675 1.08255 3.89953 0
M  V30 7240 H 697.245 0.37978 3.10284 0
M  V30 7241 H 696.465 2.83821 2.73568 0
M  V30 7242 H 697.753 3.32344 3.8526 0
M  V30 7243 H 697.151 0.676041 5.61646 0
M  V30 7244 H 695.708 1.15916 6.4141 0
M  V30 7245 N 699.141 -0.881989 1.30609 0
M  V30 7246 C 700.387 -1.63647 1.19781 0
M  V30 7247 C 700.72 -1.92632 -0.246265 0
M  V30 7248 O 699.995 -1.54938 -1.17577 0
M  V30 7249 C 700.278 -2.97437 2.02985 0
M  V30 7250 C 700.131 -2.75406 3.55628 0
M  V30 7251 C 701.45 -3.98397 1.86997 0
M  V30 7252 H 698.569 -0.593841 0.436488 0
M  V30 7253 H 701.211 -1.02041 1.60273 0
M  V30 7254 H 699.361 -3.50018 1.68581 0
M  V30 7255 H 701.033 -2.2959 4.00107 0
M  V30 7256 H 699.276 -2.09856 3.79662 0
M  V30 7257 H 699.947 -3.70552 4.09139 0
M  V30 7258 H 702.423 -3.54986 2.17081 0
M  V30 7259 H 701.299 -4.89916 2.47536 0
M  V30 7260 H 701.56 -4.3424 0.829943 0
M  V30 7261 N 700.619 -1.13374 -1.09472 0
M  V30 7262 C 701.865 -0.896516 -1.81908 0
M  V30 7263 C 702.198 0.575933 -1.85463 0
M  V30 7264 O 701.473 1.42618 -1.32251 0
M  V30 7265 C 701.756 -1.48445 -3.28079 0
M  V30 7266 C 701.609 -3.02598 -3.32798 0
M  V30 7267 C 702.928 -1.15226 -4.24748 0
M  V30 7268 H 700.047 -0.327127 -0.660422 0
M  V30 7269 H 702.689 -1.40195 -1.2824 0
M  V30 7270 H 700.839 -1.0546 -3.73912 0
M  V30 7271 H 702.511 -3.54335 -2.95372 0
M  V30 7272 H 700.754 -3.37613 -2.72397 0
M  V30 7273 H 701.425 -3.38835 -4.3577 0
M  V30 7274 H 703.901 -1.52369 -3.87199 0
M  V30 7275 H 702.777 -1.59012 -5.25363 0
M  V30 7276 H 703.038 -0.0658891 -4.42051 0
M  V30 7277 N 702.098 1.27442 -0.927168 0
M  V30 7278 C 703.328 1.9821 -0.582775 0
M  V30 7279 C 703.736 1.69361 0.843406 0
M  V30 7280 O 703.079 0.950381 1.57205 0
M  V30 7281 C 703.141 3.52048 -0.728165 0
M  V30 7282 C 702.805 4.04518 -2.12637 0
M  V30 7283 C 703.802 4.17332 -3.10048 0
M  V30 7284 C 701.487 4.38879 -2.44317 0
M  V30 7285 C 703.481 4.6378 -4.37249 0
M  V30 7286 C 701.168 4.85018 -3.71753 0
M  V30 7287 C 702.166 4.97428 -4.68033 0
M  V30 7288 O 701.854 5.42556 -5.93202 0
M  V30 7289 H 701.586 0.639314 -0.219667 0
M  V30 7290 H 704.14 1.63272 -1.24626 0
M  V30 7291 H 702.37 3.86699 -0.00758143 0
M  V30 7292 H 704.059 4.04033 -0.388906 0
M  V30 7293 H 704.825 3.91046 -2.86894 0
M  V30 7294 H 700.704 4.28462 -1.70121 0
M  V30 7295 H 704.248 4.73382 -5.12402 0
M  V30 7296 H 700.145 5.10746 -3.94726 0
M  V30 7297 H 700.913 5.60811 -5.96182 0
M  V30 7298 N 703.576 0.692616 1.41565 0
M  V30 7299 C 704.506 0.0397325 2.33466 0
M  V30 7300 C 705.487 -0.770334 1.51657 0
M  V30 7301 O 706.672 -0.723903 1.80203 0
M  V30 7302 C 703.802 -0.899495 3.3545 0
M  V30 7303 C 702.756 -0.196738 4.27548 0
M  V30 7304 C 702.082 -1.25012 5.19881 0
M  V30 7305 C 703.382 0.935158 5.1386 0
M  V30 7306 H 705.076 0.807296 2.88311 0
M  V30 7307 H 702.622 0.389665 1.38628 0
M  V30 7308 H 704.575 -1.36545 3.98665 0
M  V30 7309 H 703.299 -1.69869 2.78948 0
M  V30 7310 H 701.958 0.249158 3.65752 0
M  V30 7311 H 701.606 -2.04177 4.59696 0
M  V30 7312 H 701.306 -0.784931 5.82334 0
M  V30 7313 H 702.83 -1.71665 5.85972 0
M  V30 7314 H 704.244 0.549619 5.70659 0
M  V30 7315 H 702.641 1.32726 5.85238 0
M  V30 7316 H 703.711 1.77613 4.512 0
M  V30 7317 N 705.054 -1.51416 0.437162 0
M  V30 7318 C 705.986 -2.255 -0.410171 0
M  V30 7319 C 706.999 -1.29511 -0.986444 0
M  V30 7320 O 708.188 -1.55266 -0.880614 0
M  V30 7321 C 705.288 -2.99511 -1.58575 0
M  V30 7322 C 704.461 -4.22595 -1.12839 0
M  V30 7323 C 703.52 -4.79187 -2.17407 0
M  V30 7324 O 702.546 -5.4103 -1.76849 0
M  V30 7325 N 703.748 -4.63204 -3.49889 0
M  V30 7326 H 706.513 -2.98856 0.224783 0
M  V30 7327 H 704.074 -1.59699 0.266041 0
M  V30 7328 H 706.066 -3.34258 -2.28152 0
M  V30 7329 H 704.636 -2.29167 -2.12606 0
M  V30 7330 H 703.856 -3.93344 -0.259695 0
M  V30 7331 H 705.144 -5.02468 -0.800196 0
M  V30 7332 H 704.542 -4.13945 -3.85573 0
M  V30 7333 H 703.099 -5.02313 -4.15361 0
M  V30 7334 N 706.532 -0.168513 -1.56696 0
M  V30 7335 C 707.757 0.486688 -2.01609 0
M  V30 7336 C 708.182 1.56203 -1.04796 0
M  V30 7337 O 707.54 1.8128 -0.0270596 0
M  V30 7338 C 707.588 1.04451 -3.45141 0
M  V30 7339 O 706.692 2.15862 -3.51393 0
M  V30 7340 H 706.033 0.116831 -0.653641 0
M  V30 7341 H 708.563 -0.271579 -2.0279 0
M  V30 7342 H 708.573 1.36782 -3.84389 0
M  V30 7343 H 707.248 0.257155 -4.15104 0
M  V30 7344 H 705.825 1.84597 -3.24004 0
M  V30 7345 O 708.049 1.61471 -0.0305634 0
M  V30 7346 H 708.74 1.84756 0.581805 0
M  V30 END ATOM
M  V30 BEGIN BOND
M  V30 END BOND
M  V30 END CTAB
M  END
$$$$
