drugbank_target|P25713 Metallothionein-3 (DB01593; DB14487; DB14533; DB14548)
 OpenBabel12092121033D

885888  0  0  0  0  0  0  0  0999 V2000
   -0.9080    1.9825   -0.1171 H   0  0  0  0  0 15  0  0  0  0  0  0
    0.0000    1.5760    0.0000 N   0  0  0  0  0 15  0  0  0  0  0  0
    0.9330    2.0387    1.0253 C   0  0  0  0  0 15  0  0  0  0  0  0
    1.9110    0.9285    1.3348 C   0  0  0  0  0 15  0  0  0  0  0  0
    3.0950    1.1967    1.4564 O   0  0  0  0  0 15  0  0  0  0  0  0
    0.2220    2.4363    2.3529 C   0  0  0  0  0 15  0  0  0  0  0  0
   -0.7320    3.6537    2.2001 C   0  0  0  0  0 15  0  0  0  0  0  0
    0.1010    5.1329    1.5261 S   0  0  0  0  0 15  0  0  0  0  0  0
    1.2570    5.5632    2.8680 C   0  0  0  0  0 15  0  0  0  0  0  0
    1.4900    2.9052    0.6314 H   0  0  0  0  0 15  0  0  0  0  0  0
   -0.9770    1.5295    0.2109 H   0  0  0  0  0 15  0  0  0  0  0  0
    0.9810    2.6720    3.1163 H   0  0  0  0  0 15  0  0  0  0  0  0
   -0.3580    1.5738    2.7183 H   0  0  0  0  0 15  0  0  0  0  0  0
   -1.1650    3.9094    3.1809 H   0  0  0  0  0 15  0  0  0  0  0  0
   -1.5630    3.4180    1.5182 H   0  0  0  0  0 15  0  0  0  0  0  0
    0.7290    5.5878    3.8310 H   0  0  0  0  0 15  0  0  0  0  0  0
    1.6720    6.5627    2.6593 H   0  0  0  0  0 15  0  0  0  0  0  0
    2.0800    4.8389    2.9071 H   0  0  0  0  0 15  0  0  0  0  0  0
    1.4781   -0.2728    1.5522 N   0  0  0  0  0 15  0  0  0  0  0  0
    2.7551   -1.0256    1.6655 C   0  0  0  0  0 15  0  0  0  0  0  0
    3.1351   -2.0428    0.5322 C   0  0  0  0  0 15  0  0  0  0  0  0
    2.4831   -2.2366   -0.4677 O   0  0  0  0  0 15  0  0  0  0  0  0
    2.6931   -1.6822    3.0578 C   0  0  0  0  0 15  0  0  0  0  0  0
    4.0411   -2.1937    3.6354 C   0  0  0  0  0 15  0  0  0  0  0  0
    5.0651   -1.7821    3.0842 O   0  0  0  0  0 15  0  0  0  0  0  0
    3.9241   -2.9488    4.6012 O   0  0  0  0  0 15  0  0  0  0  0  0
    1.0181   -0.4758    0.6765 H   0  0  0  0  0 15  0  0  0  0  0  0
    3.5641   -0.2686    1.6756 H   0  0  0  0  0 15  0  0  0  0  0  0
    2.3361   -0.9451    3.7971 H   0  0  0  0  0 15  0  0  0  0  0  0
    1.9591   -2.5061    3.0868 H   0  0  0  0  0 15  0  0  0  0  0  0
    2.9562   -1.4816   -0.5373 N   0  0  0  0  0 15  0  0  0  0  0  0
    4.3672   -1.4943   -1.1193 C   0  0  0  0  0 15  0  0  0  0  0  0
    4.7182   -0.2600   -1.9447 C   0  0  0  0  0 15  0  0  0  0  0  0
    3.8432    0.6335   -2.0692 O   0  0  0  0  0 15  0  0  0  0  0  0
    4.4382   -2.7076   -2.0366 C   0  0  0  0  0 15  0  0  0  0  0  0
    2.9972   -2.7492   -2.5709 C   0  0  0  0  0 15  0  0  0  0  0  0
    2.1442   -2.4284   -1.3389 C   0  0  0  0  0 15  0  0  0  0  0  0
    5.0952   -1.5538   -0.3229 H   0  0  0  0  0 15  0  0  0  0  0  0
    5.1162   -2.4886   -2.8783 H   0  0  0  0  0 15  0  0  0  0  0  0
    4.6282   -3.6057   -1.4355 H   0  0  0  0  0 15  0  0  0  0  0  0
    2.7292   -1.8930   -3.2093 H   0  0  0  0  0 15  0  0  0  0  0  0
    2.8422   -3.7616   -2.9672 H   0  0  0  0  0 15  0  0  0  0  0  0
    1.2062   -1.9384   -1.6523 H   0  0  0  0  0 15  0  0  0  0  0  0
    1.9892   -3.3488   -0.7555 H   0  0  0  0  0 15  0  0  0  0  0  0
    4.4343    0.7856   -1.3662 N   0  0  0  0  0 15  0  0  0  0  0  0
    5.3443    1.9296   -1.3342 C   0  0  0  0  0 15  0  0  0  0  0  0
    6.3603    1.7239   -0.2359 C   0  0  0  0  0 15  0  0  0  0  0  0
    7.5363    1.9587   -0.4689 O   0  0  0  0  0 15  0  0  0  0  0  0
    4.6013    3.2788   -1.1266 C   0  0  0  0  0 15  0  0  0  0  0  0
    3.6623    3.6120   -2.3201 C   0  0  0  0  0 15  0  0  0  0  0  0
    2.8953    4.8969   -2.1223 C   0  0  0  0  0 15  0  0  0  0  0  0
    3.1183    5.5970   -1.0995 O   0  0  0  0  0 15  0  0  0  0  0  0
    2.0523    5.2175   -3.0010 O   0  0  0  0  0 15  0  0  0  0  0  0
    5.8783    1.9861   -2.2975 H   0  0  0  0  0 15  0  0  0  0  0  0
    3.4633    0.9264   -1.1721 H   0  0  0  0  0 15  0  0  0  0  0  0
    5.3453    4.0861   -1.0302 H   0  0  0  0  0 15  0  0  0  0  0  0
    4.0203    3.2312   -0.1940 H   0  0  0  0  0 15  0  0  0  0  0  0
    2.9273    2.8077   -2.4723 H   0  0  0  0  0 15  0  0  0  0  0  0
    4.2603    3.7070   -3.2380 H   0  0  0  0  0 15  0  0  0  0  0  0
    5.9124    1.2097    1.0102 N   0  0  0  0  0 15  0  0  0  0  0  0
    7.1404    1.0496    1.7830 C   0  0  0  0  0 15  0  0  0  0  0  0
    7.5554   -0.4009    1.8449 C   0  0  0  0  0 15  0  0  0  0  0  0
    6.9124   -1.2783    1.3026 O   0  0  0  0  0 15  0  0  0  0  0  0
    6.9634    1.6340    3.2246 C   0  0  0  0  0 15  0  0  0  0  0  0
    6.6844    3.0277    3.1664 O   0  0  0  0  0 15  0  0  0  0  0  0
    8.1854    1.5243    4.1627 C   0  0  0  0  0 15  0  0  0  0  0  0
    5.4054    0.3689    0.5605 H   0  0  0  0  0 15  0  0  0  0  0  0
    7.9494    1.6019    1.2712 H   0  0  0  0  0 15  0  0  0  0  0  0
    6.1044    1.1227    3.7078 H   0  0  0  0  0 15  0  0  0  0  0  0
    6.5184    3.3063    4.0717 H   0  0  0  0  0 15  0  0  0  0  0  0
    7.9924    1.9808    5.1524 H   0  0  0  0  0 15  0  0  0  0  0  0
    8.4694    0.4779    4.3659 H   0  0  0  0  0 15  0  0  0  0  0  0
    9.0754    2.0279    3.7384 H   0  0  0  0  0 15  0  0  0  0  0  0
    7.3905   -1.2043    1.0166 N   0  0  0  0  0 15  0  0  0  0  0  0
    8.6305   -1.9151    0.7145 C   0  0  0  0  0 15  0  0  0  0  0  0
    8.9945   -1.7707   -0.7422 C   0  0  0  0  0 15  0  0  0  0  0  0
   10.1955   -2.4263   -1.1569 O   0  0  0  0  0 15  0  0  0  0  0  0
    8.4665   -3.3880    1.1381 C   0  0  0  0  0 15  0  0  0  0  0  0
   10.0255   -4.2822    0.9579 S   0  0  0  0  0 15  0  0  0  0  0  0
    6.8435   -0.6616    0.2605 H   0  0  0  0  0 15  0  0  0  0  0  0
    9.4455   -1.4567    1.3038 H   0  0  0  0  0 15  0  0  0  0  0  0
    8.1495   -3.4682    2.1941 H   0  0  0  0  0 15  0  0  0  0  0  0
    7.6805   -3.8966    0.5415 H   0  0  0  0  0 15  0  0  0  0  0  0
    9.6955   -4.9601   -0.1385 H   0  0  0  0  0 15  0  0  0  0  0  0
    8.8686   -0.7928   -1.3621 N   0  0  0  0  0 15  0  0  0  0  0  0
   10.2796   -0.4295   -1.8169 C   0  0  0  0  0 15  0  0  0  0  0  0
   10.6306    1.0469   -1.6593 C   0  0  0  0  0 15  0  0  0  0  0  0
    9.7556    1.8126   -1.1822 O   0  0  0  0  0 15  0  0  0  0  0  0
   10.3506   -0.7728   -3.2987 C   0  0  0  0  0 15  0  0  0  0  0  0
    8.9096   -0.4623   -3.7355 C   0  0  0  0  0 15  0  0  0  0  0  0
    8.0566   -1.0057   -2.5842 C   0  0  0  0  0 15  0  0  0  0  0  0
   11.0076   -0.9857   -1.2438 H   0  0  0  0  0 15  0  0  0  0  0  0
   11.0286   -0.0652   -3.8044 H   0  0  0  0  0 15  0  0  0  0  0  0
   10.5406   -1.8475   -3.4131 H   0  0  0  0  0 15  0  0  0  0  0  0
    8.6416    0.6042   -3.6767 H   0  0  0  0  0 15  0  0  0  0  0  0
    8.7546   -0.9853   -4.6886 H   0  0  0  0  0 15  0  0  0  0  0  0
    7.1186   -0.4287   -2.5107 H   0  0  0  0  0 15  0  0  0  0  0  0
    7.9016   -2.0862   -2.7264 H   0  0  0  0  0 15  0  0  0  0  0  0
   10.3467    1.4787   -0.5451 N   0  0  0  0  0 15  0  0  0  0  0  0
   11.5867    2.0439   -0.0188 C   0  0  0  0  0 15  0  0  0  0  0  0
   11.9507    1.4116    1.3014 C   0  0  0  0  0 15  0  0  0  0  0  0
   13.1517    1.8866    1.9147 O   0  0  0  0  0 15  0  0  0  0  0  0
   11.4227    3.5730    0.0851 C   0  0  0  0  0 15  0  0  0  0  0  0
   12.9817    4.3522    0.5593 S   0  0  0  0  0 15  0  0  0  0  0  0
    9.7997    0.7107   -0.0193 H   0  0  0  0  0 15  0  0  0  0  0  0
   12.4017    1.8139   -0.7291 H   0  0  0  0  0 15  0  0  0  0  0  0
   11.1057    4.0085   -0.8804 H   0  0  0  0  0 15  0  0  0  0  0  0
   10.6367    3.8477    0.8193 H   0  0  0  0  0 15  0  0  0  0  0  0
   12.6517    4.6157    1.8212 H   0  0  0  0  0 15  0  0  0  0  0  0
   11.8248    0.2810    1.5507 N   0  0  0  0  0 15  0  0  0  0  0  0
   13.2358   -0.2156    1.8545 C   0  0  0  0  0 15  0  0  0  0  0  0
   13.5868   -1.5499    1.2030 C   0  0  0  0  0 15  0  0  0  0  0  0
   12.7118   -2.1070    0.4934 O   0  0  0  0  0 15  0  0  0  0  0  0
   13.3068   -0.3980    3.3645 C   0  0  0  0  0 15  0  0  0  0  0  0
   11.8658   -0.8389    3.6693 C   0  0  0  0  0 15  0  0  0  0  0  0
   11.0128    0.0645    2.7723 C   0  0  0  0  0 15  0  0  0  0  0  0
   13.9638    0.5026    1.5053 H   0  0  0  0  0 15  0  0  0  0  0  0
   13.9848   -1.2357    3.5988 H   0  0  0  0  0 15  0  0  0  0  0  0
   13.4968    0.5732    3.8384 H   0  0  0  0  0 15  0  0  0  0  0  0
   11.5978   -1.8214    3.2505 H   0  0  0  0  0 15  0  0  0  0  0  0
   11.7108   -0.6721    4.7436 H   0  0  0  0  0 15  0  0  0  0  0  0
   10.0748   -0.4529    2.5064 H   0  0  0  0  0 15  0  0  0  0  0  0
   10.8578    1.0317    3.2743 H   0  0  0  0  0 15  0  0  0  0  0  0
   13.3029   -1.5760    0.0084 N   0  0  0  0  0 15  0  0  0  0  0  0
   14.5279   -1.9562   -0.6891 C   0  0  0  0  0 15  0  0  0  0  0  0
   14.9529   -0.8838   -1.6605 C   0  0  0  0  0 15  0  0  0  0  0  0
   14.3109    0.1574   -1.8062 O   0  0  0  0  0 15  0  0  0  0  0  0
   14.3589   -3.3274   -1.3899 C   0  0  0  0  0 15  0  0  0  0  0  0
   13.4629   -3.2763   -2.5046 O   0  0  0  0  0 15  0  0  0  0  0  0
   12.8039   -0.6384   -0.1827 H   0  0  0  0  0 15  0  0  0  0  0  0
   15.3339   -2.0450    0.0640 H   0  0  0  0  0 15  0  0  0  0  0  0
   15.3439   -3.6849   -1.7515 H   0  0  0  0  0 15  0  0  0  0  0  0
   14.0189   -4.1034   -0.6778 H   0  0  0  0  0 15  0  0  0  0  0  0
   12.5959   -3.0356   -2.1658 H   0  0  0  0  0 15  0  0  0  0  0  0
   14.7810    0.2645   -1.5536 N   0  0  0  0  0 15  0  0  0  0  0  0
   16.0290    0.9930   -1.7602 C   0  0  0  0  0 15  0  0  0  0  0  0
   16.3500    1.8651   -0.5691 C   0  0  0  0  0 15  0  0  0  0  0  0
   15.6200    1.9144    0.4157 O   0  0  0  0  0 15  0  0  0  0  0  0
   14.2000    0.3696   -0.6491 H   0  0  0  0  0 15  0  0  0  0  0  0
   16.8620    0.2867   -1.9278 H   0  0  0  0  0 15  0  0  0  0  0  0
   15.9580    1.6250   -2.6646 H   0  0  0  0  0 15  0  0  0  0  0  0
   16.2591    1.4844    0.5294 N   0  0  0  0  0 15  0  0  0  0  0  0
   17.5071    1.5618    1.2827 C   0  0  0  0  0 15  0  0  0  0  0  0
   17.8281    0.2377    1.9355 C   0  0  0  0  0 15  0  0  0  0  0  0
   17.0981   -0.7408    1.8135 O   0  0  0  0  0 15  0  0  0  0  0  0
   15.6781    0.5754    0.4764 H   0  0  0  0  0 15  0  0  0  0  0  0
   18.3401    1.8491    0.6160 H   0  0  0  0  0 15  0  0  0  0  0  0
   17.4361    2.3431    2.0617 H   0  0  0  0  0 15  0  0  0  0  0  0
   17.7372   -0.7783    1.3704 N   0  0  0  0  0 15  0  0  0  0  0  0
   18.9622   -1.5725    1.3523 C   0  0  0  0  0 15  0  0  0  0  0  0
   19.3872   -1.8800   -0.0616 C   0  0  0  0  0 15  0  0  0  0  0  0
   18.7452   -1.4873   -1.0367 O   0  0  0  0  0 15  0  0  0  0  0  0
   18.7932   -2.8635    2.1917 C   0  0  0  0  0 15  0  0  0  0  0  0
   17.8972   -3.8044    1.5918 O   0  0  0  0  0 15  0  0  0  0  0  0
   17.2382   -0.4766    0.4624 H   0  0  0  0  0 15  0  0  0  0  0  0
   19.7682   -0.9639    1.8047 H   0  0  0  0  0 15  0  0  0  0  0  0
   19.7782   -3.3552    2.3215 H   0  0  0  0  0 15  0  0  0  0  0  0
   18.4532   -2.6330    3.2194 H   0  0  0  0  0 15  0  0  0  0  0  0
   17.0302   -3.3907    1.5520 H   0  0  0  0  0 15  0  0  0  0  0  0
   19.2153   -1.2150   -1.0038 N   0  0  0  0  0 15  0  0  0  0  0  0
   20.4553   -1.0444   -1.7570 C   0  0  0  0  0 15  0  0  0  0  0  0
   20.8193    0.4146   -1.8747 C   0  0  0  0  0 15  0  0  0  0  0  0
   22.0203    0.7058   -2.5937 O   0  0  0  0  0 15  0  0  0  0  0  0
   20.2913   -1.7239   -3.1308 C   0  0  0  0  0 15  0  0  0  0  0  0
   21.8503   -1.7060   -4.0428 S   0  0  0  0  0 15  0  0  0  0  0  0
   18.6683   -0.3742   -0.6045 H   0  0  0  0  0 15  0  0  0  0  0  0
   21.2703   -1.5427   -1.2009 H   0  0  0  0  0 15  0  0  0  0  0  0
   19.9743   -2.7773   -3.0215 H   0  0  0  0  0 15  0  0  0  0  0  0
   19.5053   -1.2275   -3.7376 H   0  0  0  0  0 15  0  0  0  0  0  0
   21.5203   -0.7480   -4.9053 H   0  0  0  0  0 15  0  0  0  0  0  0
   20.6934    1.1989   -1.0230 N   0  0  0  0  0 15  0  0  0  0  0  0
   21.9214    1.9339   -0.7354 C   0  0  0  0  0 15  0  0  0  0  0  0
   22.3364    1.7515    0.7049 C   0  0  0  0  0 15  0  0  0  0  0  0
   21.6934    1.0695    1.4787 O   0  0  0  0  0 15  0  0  0  0  0  0
   21.7444    3.4531   -1.0696 C   0  0  0  0  0 15  0  0  0  0  0  0
   21.4654    3.6296   -2.4533 O   0  0  0  0  0 15  0  0  0  0  0  0
   22.9664    4.3595   -0.8040 C   0  0  0  0  0 15  0  0  0  0  0  0
   20.1864    0.6145   -0.2695 H   0  0  0  0  0 15  0  0  0  0  0  0
   22.7304    1.5220   -1.3659 H   0  0  0  0  0 15  0  0  0  0  0  0
   20.8854    3.8436   -0.4845 H   0  0  0  0  0 15  0  0  0  0  0  0
   21.2994    4.5689   -2.5760 H   0  0  0  0  0 15  0  0  0  0  0  0
   22.7734    5.4117   -1.0879 H   0  0  0  0  0 15  0  0  0  0  0  0
   23.2504    4.3842    0.2617 H   0  0  0  0  0 15  0  0  0  0  0  0
   23.8564    4.0257   -1.3716 H   0  0  0  0  0 15  0  0  0  0  0  0
   22.1715    0.8000    1.3578 N   0  0  0  0  0 15  0  0  0  0  0  0
   23.4115    0.3829    2.0078 C   0  0  0  0  0 15  0  0  0  0  0  0
   23.7755   -1.0289    1.6210 C   0  0  0  0  0 15  0  0  0  0  0  0
   24.9765   -1.5477    2.1977 O   0  0  0  0  0 15  0  0  0  0  0  0
   23.2475    0.5533    3.5309 C   0  0  0  0  0 15  0  0  0  0  0  0
   24.8065    0.2256    4.3822 S   0  0  0  0  0 15  0  0  0  0  0  0
   21.6245    0.1457    0.6959 H   0  0  0  0  0 15  0  0  0  0  0  0
   24.2265    1.0408    1.6549 H   0  0  0  0  0 15  0  0  0  0  0  0
   22.9305    1.5809    3.7873 H   0  0  0  0  0 15  0  0  0  0  0  0
   22.4615   -0.1202    3.9322 H   0  0  0  0  0 15  0  0  0  0  0  0
   24.4765   -0.9691    4.8665 H   0  0  0  0  0 15  0  0  0  0  0  0
   23.6496   -1.4758    0.5530 N   0  0  0  0  0 15  0  0  0  0  0  0
   24.6126   -2.2844   -0.1866 C   0  0  0  0  0 15  0  0  0  0  0  0
   25.6126   -1.3671   -0.8466 C   0  0  0  0  0 15  0  0  0  0  0  0
   26.8026   -1.5938   -0.7032 O   0  0  0  0  0 15  0  0  0  0  0  0
   23.9346   -3.1626   -1.2724 C   0  0  0  0  0 15  0  0  0  0  0  0
   25.1276   -2.9529    0.5236 H   0  0  0  0  0 15  0  0  0  0  0  0
   22.6806   -1.5320    0.3097 H   0  0  0  0  0 15  0  0  0  0  0  0
   23.4156   -2.5409   -2.0151 H   0  0  0  0  0 15  0  0  0  0  0  0
   23.2006   -3.8377   -0.8040 H   0  0  0  0  0 15  0  0  0  0  0  0
   24.6906   -3.7720   -1.7920 H   0  0  0  0  0 15  0  0  0  0  0  0
   25.1277   -0.2892   -1.5492 N   0  0  0  0  0 15  0  0  0  0  0  0
   26.4047    0.3760   -1.9195 C   0  0  0  0  0 15  0  0  0  0  0  0
   26.7847    1.7262   -1.2151 C   0  0  0  0  0 15  0  0  0  0  0  0
   26.1327    2.2585   -0.3468 O   0  0  0  0  0 15  0  0  0  0  0  0
   26.3427    0.5024   -3.4537 C   0  0  0  0  0 15  0  0  0  0  0  0
   27.6907    0.7787   -4.1740 C   0  0  0  0  0 15  0  0  0  0  0  0
   28.7147    0.5866   -3.5134 O   0  0  0  0  0 15  0  0  0  0  0  0
   27.5737    1.1470   -5.3433 O   0  0  0  0  0 15  0  0  0  0  0  0
   24.6677    0.2082   -0.8004 H   0  0  0  0  0 15  0  0  0  0  0  0
   27.2137   -0.3364   -1.6633 H   0  0  0  0  0 15  0  0  0  0  0  0
   25.9857   -0.4473   -3.8874 H   0  0  0  0  0 15  0  0  0  0  0  0
   25.6087    1.2637   -3.7698 H   0  0  0  0  0 15  0  0  0  0  0  0
   26.6058    1.5759   -0.0167 N   0  0  0  0  0 15  0  0  0  0  0  0
   27.8308    1.9598    0.6787 C   0  0  0  0  0 15  0  0  0  0  0  0
   28.2558    0.8925    1.6558 C   0  0  0  0  0 15  0  0  0  0  0  0
   27.6138   -0.1478    1.8070 O   0  0  0  0  0 15  0  0  0  0  0  0
   27.6618    3.3347    1.3723 C   0  0  0  0  0 15  0  0  0  0  0  0
   26.7658    3.2895    2.4872 O   0  0  0  0  0 15  0  0  0  0  0  0
   26.1068    0.6393    0.1793 H   0  0  0  0  0 15  0  0  0  0  0  0
   28.6368    2.0446   -0.0749 H   0  0  0  0  0 15  0  0  0  0  0  0
   28.6468    3.6942    1.7319 H   0  0  0  0  0 15  0  0  0  0  0  0
   27.3218    4.1069    0.6560 H   0  0  0  0  0 15  0  0  0  0  0  0
   25.8988    3.0471    2.1496 H   0  0  0  0  0 15  0  0  0  0  0  0
   28.0839   -0.2563    1.5550 N   0  0  0  0  0 15  0  0  0  0  0  0
   29.3239   -0.9931    1.7865 C   0  0  0  0  0 15  0  0  0  0  0  0
   29.6879   -1.8288    0.5847 C   0  0  0  0  0 15  0  0  0  0  0  0
   30.8889   -2.5966    0.6948 O   0  0  0  0  0 15  0  0  0  0  0  0
   29.1599   -1.8386    3.0648 C   0  0  0  0  0 15  0  0  0  0  0  0
   30.7189   -2.6357    3.5082 S   0  0  0  0  0 15  0  0  0  0  0  0
   27.5369   -0.3342    0.6276 H   0  0  0  0  0 15  0  0  0  0  0  0
   30.1389   -0.2618    1.9374 H   0  0  0  0  0 15  0  0  0  0  0  0
   28.8429   -1.2141    3.9203 H   0  0  0  0  0 15  0  0  0  0  0  0
   28.3739   -2.6127    2.9411 H   0  0  0  0  0 15  0  0  0  0  0  0
   30.3889   -3.8631    3.1141 H   0  0  0  0  0 15  0  0  0  0  0  0
   29.5620   -1.4872   -0.5215 N   0  0  0  0  0 15  0  0  0  0  0  0
   30.5090   -1.6387   -1.6253 C   0  0  0  0  0 15  0  0  0  0  0  0
   31.4790   -0.4806   -1.5900 C   0  0  0  0  0 15  0  0  0  0  0  0
   32.6640   -0.7051   -1.7729 O   0  0  0  0  0 15  0  0  0  0  0  0
   29.8040   -1.6923   -3.0076 C   0  0  0  0  0 15  0  0  0  0  0  0
   28.9170   -2.9621   -3.1446 C   0  0  0  0  0 15  0  0  0  0  0  0
   28.0520   -2.9267   -4.4330 C   0  0  0  0  0 15  0  0  0  0  0  0
   27.0910   -4.1432   -4.5056 C   0  0  0  0  0 15  0  0  0  0  0  0
   26.2280   -4.0881   -5.7081 N   0  0  0  0  0 15  0  0  0  0  0  0
   31.0680   -2.5812   -1.4892 H   0  0  0  0  0 15  0  0  0  0  0  0
   28.6050   -1.2800   -0.7249 H   0  0  0  0  0 15  0  0  0  0  0  0
   30.5630   -1.7031   -3.8085 H   0  0  0  0  0 15  0  0  0  0  0  0
   29.1930   -0.7846   -3.1312 H   0  0  0  0  0 15  0  0  0  0  0  0
   28.2450   -3.0483   -2.2756 H   0  0  0  0  0 15  0  0  0  0  0  0
   29.5570   -3.8619   -3.1569 H   0  0  0  0  0 15  0  0  0  0  0  0
   28.7110   -2.9221   -5.3170 H   0  0  0  0  0 15  0  0  0  0  0  0
   27.4500   -2.0043   -4.4461 H   0  0  0  0  0 15  0  0  0  0  0  0
   26.4550   -4.1505   -3.6058 H   0  0  0  0  0 15  0  0  0  0  0  0
   27.6800   -5.0773   -4.5099 H   0  0  0  0  0 15  0  0  0  0  0  0
   25.6260   -3.1939   -5.7300 H   0  0  0  0  0 15  0  0  0  0  0  0
   25.5430   -4.9251   -5.7356 H   0  0  0  0  0 15  0  0  0  0  0  0
   26.8110   -4.1242   -6.6146 H   0  0  0  0  0 15  0  0  0  0  0  0
   31.0401    0.7711   -1.3745 N   0  0  0  0  0 15  0  0  0  0  0  0
   32.2801    1.5426   -1.3410 C   0  0  0  0  0 15  0  0  0  0  0  0
   32.6441    1.9186    0.0738 C   0  0  0  0  0 15  0  0  0  0  0  0
   33.8451    2.6780    0.2320 O   0  0  0  0  0 15  0  0  0  0  0  0
   32.1161    2.7733   -2.2544 C   0  0  0  0  0 15  0  0  0  0  0  0
   33.6751    3.6738   -2.3995 S   0  0  0  0  0 15  0  0  0  0  0  0
   30.4931    0.5281   -0.4760 H   0  0  0  0  0 15  0  0  0  0  0  0
   33.0951    0.9066   -1.7321 H   0  0  0  0  0 15  0  0  0  0  0  0
   31.7991    2.4779   -3.2715 H   0  0  0  0  0 15  0  0  0  0  0  0
   31.3301    3.4589   -1.8742 H   0  0  0  0  0 15  0  0  0  0  0  0
   33.3451    4.6933   -1.6106 H   0  0  0  0  0 15  0  0  0  0  0  0
   32.5182    1.2203    0.9973 N   0  0  0  0  0 15  0  0  0  0  0  0
   33.4282    1.0027    2.1209 C   0  0  0  0  0 15  0  0  0  0  0  0
   34.4442   -0.0476    1.7393 C   0  0  0  0  0 15  0  0  0  0  0  0
   35.6202    0.1441    2.0088 O   0  0  0  0  0 15  0  0  0  0  0  0
   32.6852    0.5784    3.4184 C   0  0  0  0  0 15  0  0  0  0  0  0
   31.7462    1.7019    3.9412 C   0  0  0  0  0 15  0  0  0  0  0  0
   30.9792    1.2978    5.1768 C   0  0  0  0  0 15  0  0  0  0  0  0
   31.2022    0.1747    5.7013 O   0  0  0  0  0 15  0  0  0  0  0  0
   30.1362    2.1126    5.6361 O   0  0  0  0  0 15  0  0  0  0  0  0
   33.9622    1.9440    2.3333 H   0  0  0  0  0 15  0  0  0  0  0  0
   31.5472    1.0059    1.1047 H   0  0  0  0  0 15  0  0  0  0  0  0
   33.4292    0.3520    4.1993 H   0  0  0  0  0 15  0  0  0  0  0  0
   32.1042   -0.3340    3.2197 H   0  0  0  0  0 15  0  0  0  0  0  0
   31.0112    1.9828    3.1723 H   0  0  0  0  0 15  0  0  0  0  0  0
   32.3442    2.5921    4.1842 H   0  0  0  0  0 15  0  0  0  0  0  0
   33.9963   -1.1934    1.0293 N   0  0  0  0  0 15  0  0  0  0  0  0
   35.2443   -1.8866    0.7246 C   0  0  0  0  0 15  0  0  0  0  0  0
   35.5653   -1.8004   -0.7491 C   0  0  0  0  0 15  0  0  0  0  0  0
   34.8353   -1.2111   -1.5398 O   0  0  0  0  0 15  0  0  0  0  0  0
   33.4153   -0.6984    0.2650 H   0  0  0  0  0 15  0  0  0  0  0  0
   36.0773   -1.4489    1.3036 H   0  0  0  0  0 15  0  0  0  0  0  0
   35.1733   -2.9499    1.0193 H   0  0  0  0  0 15  0  0  0  0  0  0
   35.4744   -0.8072   -1.3536 N   0  0  0  0  0 15  0  0  0  0  0  0
   36.7144   -0.3935   -2.0058 C   0  0  0  0  0 15  0  0  0  0  0  0
   37.0784    1.0203   -1.6265 C   0  0  0  0  0 15  0  0  0  0  0  0
   38.2794    1.5360   -2.2059 O   0  0  0  0  0 15  0  0  0  0  0  0
   36.5504   -0.5720   -3.5279 C   0  0  0  0  0 15  0  0  0  0  0  0
   38.1094   -0.2488   -4.3809 S   0  0  0  0  0 15  0  0  0  0  0  0
   34.9274   -0.1494   -0.6951 H   0  0  0  0  0 15  0  0  0  0  0  0
   37.5294   -1.0496   -1.6493 H   0  0  0  0  0 15  0  0  0  0  0  0
   36.2334   -1.6010   -3.7788 H   0  0  0  0  0 15  0  0  0  0  0  0
   35.7644    0.0994   -3.9327 H   0  0  0  0  0 15  0  0  0  0  0  0
   37.7794    0.9433   -4.8715 H   0  0  0  0  0 15  0  0  0  0  0  0
   36.9525    1.4729   -0.5608 N   0  0  0  0  0 15  0  0  0  0  0  0
   37.8995    2.3006    0.1849 C   0  0  0  0  0 15  0  0  0  0  0  0
   38.8695    1.3928    0.9050 C   0  0  0  0  0 15  0  0  0  0  0  0
   40.0545    1.6824    0.9000 O   0  0  0  0  0 15  0  0  0  0  0  0
   37.1945    3.2332    1.2067 C   0  0  0  0  0 15  0  0  0  0  0  0
   36.3075    4.2919    0.4923 C   0  0  0  0  0 15  0  0  0  0  0  0
   35.4425    5.0959    1.4996 C   0  0  0  0  0 15  0  0  0  0  0  0
   34.4815    6.0723    0.7704 C   0  0  0  0  0 15  0  0  0  0  0  0
   33.6185    6.8058    1.7248 N   0  0  0  0  0 15  0  0  0  0  0  0
   38.4585    2.9330   -0.5270 H   0  0  0  0  0 15  0  0  0  0  0  0
   35.9955    1.4457   -0.2717 H   0  0  0  0  0 15  0  0  0  0  0  0
   37.9535    3.7581    1.8117 H   0  0  0  0  0 15  0  0  0  0  0  0
   36.5835    2.6193    1.8866 H   0  0  0  0  0 15  0  0  0  0  0  0
   35.6355    3.7972   -0.2273 H   0  0  0  0  0 15  0  0  0  0  0  0
   36.9475    4.9874   -0.0788 H   0  0  0  0  0 15  0  0  0  0  0  0
   36.1015    5.6625    2.1781 H   0  0  0  0  0 15  0  0  0  0  0  0
   34.8405    4.3995    2.1046 H   0  0  0  0  0 15  0  0  0  0  0  0
   33.8455    5.4974    0.0781 H   0  0  0  0  0 15  0  0  0  0  0  0
   35.0705    6.7888    0.1711 H   0  0  0  0  0 15  0  0  0  0  0  0
   33.0165    6.1367    2.3183 H   0  0  0  0  0 15  0  0  0  0  0  0
   32.9335    7.4632    1.2060 H   0  0  0  0  0 15  0  0  0  0  0  0
   34.2015    7.4182    2.3943 H   0  0  0  0  0 15  0  0  0  0  0  0
   38.4306    0.2974    1.5477 N   0  0  0  0  0 15  0  0  0  0  0  0
   39.6706   -0.3138    2.0198 C   0  0  0  0  0 15  0  0  0  0  0  0
   40.0346   -1.5137    1.1812 C   0  0  0  0  0 15  0  0  0  0  0  0
   41.2356   -2.1960    1.5501 O   0  0  0  0  0 15  0  0  0  0  0  0
   39.5066   -0.6650    3.5116 C   0  0  0  0  0 15  0  0  0  0  0  0
   41.0656   -1.2596    4.2033 S   0  0  0  0  0 15  0  0  0  0  0  0
   37.8836   -0.0965    0.7044 H   0  0  0  0  0 15  0  0  0  0  0  0
   40.4856    0.4245    1.9084 H   0  0  0  0  0 15  0  0  0  0  0  0
   39.1896    0.2168    4.0983 H   0  0  0  0  0 15  0  0  0  0  0  0
   38.7206   -1.4341    3.6633 H   0  0  0  0  0 15  0  0  0  0  0  0
   40.7356   -2.5475    4.2581 H   0  0  0  0  0 15  0  0  0  0  0  0
   39.9087   -1.5758    0.0251 N   0  0  0  0  0 15  0  0  0  0  0  0
   41.1367   -1.9593   -0.6647 C   0  0  0  0  0 15  0  0  0  0  0  0
   41.5517   -0.9014   -1.6589 C   0  0  0  0  0 15  0  0  0  0  0  0
   40.9087    0.1173   -1.8212 O   0  0  0  0  0 15  0  0  0  0  0  0
   40.9597   -3.3434   -1.3747 C   0  0  0  0  0 15  0  0  0  0  0  0
   40.6807   -4.3608   -0.4203 O   0  0  0  0  0 15  0  0  0  0  0  0
   42.1817   -3.8730   -2.1567 C   0  0  0  0  0 15  0  0  0  0  0  0
   39.4017   -0.6454   -0.1836 H   0  0  0  0  0 15  0  0  0  0  0  0
   41.9457   -2.0433    0.0836 H   0  0  0  0  0 15  0  0  0  0  0  0
   40.1007   -3.2717   -2.0745 H   0  0  0  0  0 15  0  0  0  0  0  0
   40.5147   -5.1630   -0.9240 H   0  0  0  0  0 15  0  0  0  0  0  0
   41.9887   -4.8650   -2.6080 H   0  0  0  0  0 15  0  0  0  0  0  0
   42.4657   -3.2133   -2.9940 H   0  0  0  0  0 15  0  0  0  0  0  0
   43.0717   -3.9772   -1.5065 H   0  0  0  0  0 15  0  0  0  0  0  0
   41.3868    0.2480   -1.5564 N   0  0  0  0  0 15  0  0  0  0  0  0
   42.6118    0.9980   -1.8181 C   0  0  0  0  0 15  0  0  0  0  0  0
   43.0368    1.7821   -0.6020 C   0  0  0  0  0 15  0  0  0  0  0  0
   42.3948    1.7565    0.4490 O   0  0  0  0  0 15  0  0  0  0  0  0
   42.4428    1.9125   -3.0571 C   0  0  0  0  0 15  0  0  0  0  0  0
   41.5468    3.0041   -2.8254 O   0  0  0  0  0 15  0  0  0  0  0  0
   40.8878    0.2840   -0.6002 H   0  0  0  0  0 15  0  0  0  0  0  0
   43.4178    0.2694   -2.0282 H   0  0  0  0  0 15  0  0  0  0  0  0
   43.4278    2.3274   -3.3511 H   0  0  0  0  0 15  0  0  0  0  0  0
   42.1028    1.3360   -3.9386 H   0  0  0  0  0 15  0  0  0  0  0  0
   40.6798    2.6306   -2.6430 H   0  0  0  0  0 15  0  0  0  0  0  0
   42.8649    1.4899    0.5136 N   0  0  0  0  0 15  0  0  0  0  0  0
   44.1049    1.5945    1.2788 C   0  0  0  0  0 15  0  0  0  0  0  0
   44.4689    0.2695    1.9010 C   0  0  0  0  0 15  0  0  0  0  0  0
   45.6699    0.2491    2.6764 O   0  0  0  0  0 15  0  0  0  0  0  0
   43.9409    2.7128    2.3269 C   0  0  0  0  0 15  0  0  0  0  0  0
   45.4999    3.0160    3.1872 S   0  0  0  0  0 15  0  0  0  0  0  0
   42.3179    0.5626    0.4348 H   0  0  0  0  0 15  0  0  0  0  0  0
   44.9199    1.8660    0.5833 H   0  0  0  0  0 15  0  0  0  0  0  0
   43.6239    3.6609    1.8549 H   0  0  0  0  0 15  0  0  0  0  0  0
   43.1549    2.4609    3.0693 H   0  0  0  0  0 15  0  0  0  0  0  0
   45.1699    2.4216    4.3310 H   0  0  0  0  0 15  0  0  0  0  0  0
   44.3430   -0.7638    1.3786 N   0  0  0  0  0 15  0  0  0  0  0  0
   45.2900   -1.8773    1.3427 C   0  0  0  0  0 15  0  0  0  0  0  0
   46.2600   -1.6481    0.2069 C   0  0  0  0  0 15  0  0  0  0  0  0
   47.4450   -1.8661    0.3975 O   0  0  0  0  0 15  0  0  0  0  0  0
   44.5850   -3.2490    1.1635 C   0  0  0  0  0 15  0  0  0  0  0  0
   43.6980   -3.5972    2.3923 C   0  0  0  0  0 15  0  0  0  0  0  0
   42.8330   -4.8614    2.1411 C   0  0  0  0  0 15  0  0  0  0  0  0
   41.8720   -5.1371    3.3282 C   0  0  0  0  0 15  0  0  0  0  0  0
   41.0090   -6.3132    3.0721 N   0  0  0  0  0 15  0  0  0  0  0  0
   45.8490   -1.9013    2.2947 H   0  0  0  0  0 15  0  0  0  0  0  0
   43.3860   -0.9294    1.1402 H   0  0  0  0  0 15  0  0  0  0  0  0
   45.3440   -4.0404    1.0397 H   0  0  0  0  0 15  0  0  0  0  0  0
   43.9740   -3.2185    0.2479 H   0  0  0  0  0 15  0  0  0  0  0  0
   43.0260   -2.7550    2.6231 H   0  0  0  0  0 15  0  0  0  0  0  0
   44.3380   -3.7603    3.2773 H   0  0  0  0  0 15  0  0  0  0  0  0
   43.4920   -5.7320    1.9882 H   0  0  0  0  0 15  0  0  0  0  0  0
   42.2310   -4.7194    1.2296 H   0  0  0  0  0 15  0  0  0  0  0  0
   41.2360   -4.2512    3.4864 H   0  0  0  0  0 15  0  0  0  0  0  0
   42.4610   -5.2981    4.2483 H   0  0  0  0  0 15  0  0  0  0  0  0
   40.4070   -6.1847    2.1869 H   0  0  0  0  0 15  0  0  0  0  0  0
   40.3240   -6.4809    3.8925 H   0  0  0  0  0 15  0  0  0  0  0  0
   41.5920   -7.2130    2.9555 H   0  0  0  0  0 15  0  0  0  0  0  0
   45.8211   -1.2256   -0.9908 N   0  0  0  0  0 15  0  0  0  0  0  0
   46.7681   -0.9975   -2.0813 C   0  0  0  0  0 15  0  0  0  0  0  0
   47.7381    0.0815   -1.6590 C   0  0  0  0  0 15  0  0  0  0  0  0
   48.9231   -0.0685   -1.9068 O   0  0  0  0  0 15  0  0  0  0  0  0
   46.0631   -0.5836   -3.4013 C   0  0  0  0  0 15  0  0  0  0  0  0
   45.1761   -1.7336   -3.9569 C   0  0  0  0  0 15  0  0  0  0  0  0
   44.3111   -1.2675   -5.1586 C   0  0  0  0  0 15  0  0  0  0  0  0
   43.3501   -2.3889   -5.6356 C   0  0  0  0  0 15  0  0  0  0  0  0
   42.4871   -1.9331   -6.7496 N   0  0  0  0  0 15  0  0  0  0  0  0
   47.3271   -1.9310   -2.2697 H   0  0  0  0  0 15  0  0  0  0  0  0
   44.8641   -0.9621   -1.1127 H   0  0  0  0  0 15  0  0  0  0  0  0
   46.8221   -0.3248   -4.1593 H   0  0  0  0  0 15  0  0  0  0  0  0
   45.4521    0.3128   -3.2128 H   0  0  0  0  0 15  0  0  0  0  0  0
   44.5041   -2.1067   -3.1674 H   0  0  0  0  0 15  0  0  0  0  0  0
   45.8161   -2.5770   -4.2707 H   0  0  0  0  0 15  0  0  0  0  0  0
   44.9701   -0.9662   -5.9896 H   0  0  0  0  0 15  0  0  0  0  0  0
   43.7091   -0.3943   -4.8610 H   0  0  0  0  0 15  0  0  0  0  0  0
   42.7141   -2.6981   -4.7905 H   0  0  0  0  0 15  0  0  0  0  0  0
   43.9391   -3.2673   -5.9534 H   0  0  0  0  0 15  0  0  0  0  0  0
   41.8851   -1.0835   -6.4699 H   0  0  0  0  0 15  0  0  0  0  0  0
   41.8021   -2.7122   -7.0568 H   0  0  0  0  0 15  0  0  0  0  0  0
   43.0701   -1.6625   -7.6156 H   0  0  0  0  0 15  0  0  0  0  0  0
   47.2992    1.1880   -1.0356 N   0  0  0  0  0 15  0  0  0  0  0  0
   48.5242    1.9314   -0.7558 C   0  0  0  0  0 15  0  0  0  0  0  0
   48.9492    1.7537    0.6802 C   0  0  0  0  0 15  0  0  0  0  0  0
   48.3072    1.0605    1.4705 O   0  0  0  0  0 15  0  0  0  0  0  0
   48.3552    3.4275   -1.1206 C   0  0  0  0  0 15  0  0  0  0  0  0
   47.4592    4.1168   -0.2431 O   0  0  0  0  0 15  0  0  0  0  0  0
   46.8002    0.6027   -0.2786 H   0  0  0  0  0 15  0  0  0  0  0  0
   49.3302    1.5068   -1.3841 H   0  0  0  0  0 15  0  0  0  0  0  0
   49.3402    3.9344   -1.0803 H   0  0  0  0  0 15  0  0  0  0  0  0
   48.0152    3.5500   -2.1667 H   0  0  0  0  0 15  0  0  0  0  0  0
   46.5922    3.7132   -0.3425 H   0  0  0  0  0 15  0  0  0  0  0  0
   48.7773    0.8144    1.3493 N   0  0  0  0  0 15  0  0  0  0  0  0
   50.0173    0.4042    2.0036 C   0  0  0  0  0 15  0  0  0  0  0  0
   50.3813   -1.0117    1.6319 C   0  0  0  0  0 15  0  0  0  0  0  0
   51.5823   -1.5243    2.2140 O   0  0  0  0  0 15  0  0  0  0  0  0
   49.8533    0.5907    3.5248 C   0  0  0  0  0 15  0  0  0  0  0  0
   51.4123    0.2721    4.3796 S   0  0  0  0  0 15  0  0  0  0  0  0
   48.2303    0.1531    0.6943 H   0  0  0  0  0 15  0  0  0  0  0  0
   50.8323    1.0583    1.6438 H   0  0  0  0  0 15  0  0  0  0  0  0
   49.5363    1.6210    3.7703 H   0  0  0  0  0 15  0  0  0  0  0  0
   49.0673   -0.0785    3.9332 H   0  0  0  0  0 15  0  0  0  0  0  0
   51.0823   -0.9174    4.8765 H   0  0  0  0  0 15  0  0  0  0  0  0
   50.2554   -1.4699    0.5686 N   0  0  0  0  0 15  0  0  0  0  0  0
   51.4954   -2.0434    0.0513 C   0  0  0  0  0 15  0  0  0  0  0  0
   51.8594   -1.4321   -1.2788 C   0  0  0  0  0 15  0  0  0  0  0  0
   53.0604   -1.9168   -1.8845 O   0  0  0  0  0 15  0  0  0  0  0  0
   51.3314   -3.5739   -0.0282 C   0  0  0  0  0 15  0  0  0  0  0  0
   52.8904   -4.3606   -0.4900 S   0  0  0  0  0 15  0  0  0  0  0  0
   49.7084   -0.7103    0.0306 H   0  0  0  0  0 15  0  0  0  0  0  0
   52.3104   -1.8021    0.7579 H   0  0  0  0  0 15  0  0  0  0  0  0
   51.0144   -3.9940    0.9440 H   0  0  0  0  0 15  0  0  0  0  0  0
   50.5454   -3.8603   -0.7580 H   0  0  0  0  0 15  0  0  0  0  0  0
   52.5604   -4.6441   -1.7475 H   0  0  0  0  0 15  0  0  0  0  0  0
   51.7335   -0.3056   -1.5461 N   0  0  0  0  0 15  0  0  0  0  0  0
   52.9585    0.3076   -2.0511 C   0  0  0  0  0 15  0  0  0  0  0  0
   53.3835    1.4639   -1.1812 C   0  0  0  0  0 15  0  0  0  0  0  0
   52.7415    1.8034   -0.1863 O   0  0  0  0  0 15  0  0  0  0  0  0
   52.7895    0.7370   -3.5299 C   0  0  0  0  0 15  0  0  0  0  0  0
   51.8935    1.8413   -3.6901 O   0  0  0  0  0 15  0  0  0  0  0  0
   51.2345    0.0589   -0.6614 H   0  0  0  0  0 15  0  0  0  0  0  0
   53.7645   -0.4488   -1.9962 H   0  0  0  0  0 15  0  0  0  0  0  0
   53.7745    1.0246   -3.9493 H   0  0  0  0  0 15  0  0  0  0  0  0
   52.4495   -0.1088   -4.1576 H   0  0  0  0  0 15  0  0  0  0  0  0
   51.0265    1.5540   -3.3898 H   0  0  0  0  0 15  0  0  0  0  0  0
   53.2116    1.5756   -0.0334 N   0  0  0  0  0 15  0  0  0  0  0  0
   54.4516    1.9384    0.6484 C   0  0  0  0  0 15  0  0  0  0  0  0
   54.8156    0.9104    1.6904 C   0  0  0  0  0 15  0  0  0  0  0  0
   56.0166    1.1595    2.4250 O   0  0  0  0  0 15  0  0  0  0  0  0
   54.2876    3.3502    1.2449 C   0  0  0  0  0 15  0  0  0  0  0  0
   55.8466    3.9323    1.9472 S   0  0  0  0  0 15  0  0  0  0  0  0
   52.6646    0.6782    0.2134 H   0  0  0  0  0 15  0  0  0  0  0  0
   55.2666    1.9525   -0.0981 H   0  0  0  0  0 15  0  0  0  0  0  0
   53.9706    4.0765    0.4741 H   0  0  0  0  0 15  0  0  0  0  0  0
   53.5016    3.3706    2.0286 H   0  0  0  0  0 15  0  0  0  0  0  0
   55.5166    3.7701    3.2261 H   0  0  0  0  0 15  0  0  0  0  0  0
   54.6897   -0.2398    1.5577 N   0  0  0  0  0 15  0  0  0  0  0  0
   55.9297   -0.9741    1.7970 C   0  0  0  0  0 15  0  0  0  0  0  0
   56.2937   -1.8225    0.6041 C   0  0  0  0  0 15  0  0  0  0  0  0
   57.4947   -2.5891    0.7223 O   0  0  0  0  0 15  0  0  0  0  0  0
   55.7657   -1.8059    3.0842 C   0  0  0  0  0 15  0  0  0  0  0  0
   57.3247   -2.5984    3.5360 S   0  0  0  0  0 15  0  0  0  0  0  0
   54.1427   -0.3275    0.6311 H   0  0  0  0  0 15  0  0  0  0  0  0
   56.7447   -0.2413    1.9401 H   0  0  0  0  0 15  0  0  0  0  0  0
   55.4487   -1.1725    3.9329 H   0  0  0  0  0 15  0  0  0  0  0  0
   54.9797   -2.5814    2.9687 H   0  0  0  0  0 15  0  0  0  0  0  0
   56.9947   -3.8299    3.1549 H   0  0  0  0  0 15  0  0  0  0  0  0
   56.1678   -1.4927   -0.5057 N   0  0  0  0  0 15  0  0  0  0  0  0
   57.5788   -1.5177   -1.0873 C   0  0  0  0  0 15  0  0  0  0  0  0
   57.9298   -0.3012   -1.9387 C   0  0  0  0  0 15  0  0  0  0  0  0
   57.0548    0.5895   -2.0822 O   0  0  0  0  0 15  0  0  0  0  0  0
   57.6498   -2.7502   -1.9787 C   0  0  0  0  0 15  0  0  0  0  0  0
   56.2088   -2.8031   -2.5120 C   0  0  0  0  0 15  0  0  0  0  0  0
   55.3558   -2.4562   -1.2871 C   0  0  0  0  0 15  0  0  0  0  0  0
   58.3068   -1.5603   -0.2899 H   0  0  0  0  0 15  0  0  0  0  0  0
   58.3278   -2.5491   -2.8249 H   0  0  0  0  0 15  0  0  0  0  0  0
   57.8398   -3.6354   -1.3587 H   0  0  0  0  0 15  0  0  0  0  0  0
   55.9408   -1.9606   -3.1685 H   0  0  0  0  0 15  0  0  0  0  0  0
   56.0538   -3.8237   -2.8867 H   0  0  0  0  0 15  0  0  0  0  0  0
   54.4178   -1.9730   -1.6108 H   0  0  0  0  0 15  0  0  0  0  0  0
   55.2008   -3.3641   -0.6843 H   0  0  0  0  0 15  0  0  0  0  0  0
   57.6459    0.7564   -1.3826 N   0  0  0  0  0 15  0  0  0  0  0  0
   58.6089    1.8518   -1.3507 C   0  0  0  0  0 15  0  0  0  0  0  0
   59.6089    1.5882   -0.2517 C   0  0  0  0  0 15  0  0  0  0  0  0
   60.7989    1.6662   -0.5084 O   0  0  0  0  0 15  0  0  0  0  0  0
   57.9309    3.2260   -1.1020 C   0  0  0  0  0 15  0  0  0  0  0  0
   59.1239    1.8942   -2.3251 H   0  0  0  0  0 15  0  0  0  0  0  0
   56.6769    0.9578   -1.2351 H   0  0  0  0  0 15  0  0  0  0  0  0
   57.4119    3.2403   -0.1335 H   0  0  0  0  0 15  0  0  0  0  0  0
   57.1969    3.4312   -1.8976 H   0  0  0  0  0 15  0  0  0  0  0  0
   58.6869    4.0267   -1.1065 H   0  0  0  0  0 15  0  0  0  0  0  0
   59.1240    1.2308    0.9843 N   0  0  0  0  0 15  0  0  0  0  0  0
   60.0340    1.0251    2.1102 C   0  0  0  0  0 15  0  0  0  0  0  0
   61.0500   -0.0292    1.7398 C   0  0  0  0  0 15  0  0  0  0  0  0
   62.2260    0.1654    2.0072 O   0  0  0  0  0 15  0  0  0  0  0  0
   59.2910    0.6147    3.4121 C   0  0  0  0  0 15  0  0  0  0  0  0
   58.3520    1.7436    3.9230 C   0  0  0  0  0 15  0  0  0  0  0  0
   57.5850    1.3526    5.1628 C   0  0  0  0  0 15  0  0  0  0  0  0
   57.8080    0.2351    5.6992 O   0  0  0  0  0 15  0  0  0  0  0  0
   56.7420    2.1723    5.6133 O   0  0  0  0  0 15  0  0  0  0  0  0
   60.5680    1.9686    2.3126 H   0  0  0  0  0 15  0  0  0  0  0  0
   58.1530    1.0175    1.0939 H   0  0  0  0  0 15  0  0  0  0  0  0
   60.0350    0.3965    4.1953 H   0  0  0  0  0 15  0  0  0  0  0  0
   58.7100   -0.2999    3.2231 H   0  0  0  0  0 15  0  0  0  0  0  0
   57.6170    2.0164    3.1511 H   0  0  0  0  0 15  0  0  0  0  0  0
   58.9500    2.6363    4.1564 H   0  0  0  0  0 15  0  0  0  0  0  0
   60.6021   -1.1825    1.0419 N   0  0  0  0  0 15  0  0  0  0  0  0
   61.8421   -1.8995    0.7549 C   0  0  0  0  0 15  0  0  0  0  0  0
   62.2061   -1.7861   -0.7045 C   0  0  0  0  0 15  0  0  0  0  0  0
   63.4071   -2.4503   -1.1052 O   0  0  0  0  0 15  0  0  0  0  0  0
   61.6781   -3.3631    1.2097 C   0  0  0  0  0 15  0  0  0  0  0  0
   63.2371   -4.2609    1.0485 S   0  0  0  0  0 15  0  0  0  0  0  0
   60.0551   -0.6559    0.2744 H   0  0  0  0  0 15  0  0  0  0  0  0
   62.6571   -1.4287    1.3344 H   0  0  0  0  0 15  0  0  0  0  0  0
   61.3611   -3.4209    2.2672 H   0  0  0  0  0 15  0  0  0  0  0  0
   60.8921   -3.8842    0.6240 H   0  0  0  0  0 15  0  0  0  0  0  0
   62.9071   -4.9619   -0.0333 H   0  0  0  0  0 15  0  0  0  0  0  0
   62.0802   -0.8215   -1.3449 N   0  0  0  0  0 15  0  0  0  0  0  0
   62.9902   -0.2444   -2.3332 C   0  0  0  0  0 15  0  0  0  0  0  0
   64.0062    0.6205   -1.6256 C   0  0  0  0  0 15  0  0  0  0  0  0
   65.1822    0.5288   -1.9434 O   0  0  0  0  0 15  0  0  0  0  0  0
   62.2472    0.5854   -3.4172 C   0  0  0  0  0 15  0  0  0  0  0  0
   61.3082   -0.3018   -4.2824 C   0  0  0  0  0 15  0  0  0  0  0  0
   60.5412    0.4885   -5.3146 C   0  0  0  0  0 15  0  0  0  0  0  0
   60.7642    1.7219   -5.4379 O   0  0  0  0  0 15  0  0  0  0  0  0
   59.6982   -0.1285   -6.0176 O   0  0  0  0  0 15  0  0  0  0  0  0
   63.5242   -1.0623   -2.8451 H   0  0  0  0  0 15  0  0  0  0  0  0
   61.1092   -0.5836   -1.3753 H   0  0  0  0  0 15  0  0  0  0  0  0
   62.9912    1.0575   -4.0792 H   0  0  0  0  0 15  0  0  0  0  0  0
   61.6662    1.3807   -2.9278 H   0  0  0  0  0 15  0  0  0  0  0  0
   60.5732   -0.8213   -3.6497 H   0  0  0  0  0 15  0  0  0  0  0  0
   61.9062   -1.0614   -4.8062 H   0  0  0  0  0 15  0  0  0  0  0  0
   63.5583    1.4668   -0.5764 N   0  0  0  0  0 15  0  0  0  0  0  0
   64.5053    2.3024    0.1605 C   0  0  0  0  0 15  0  0  0  0  0  0
   65.4753    1.4023    0.8902 C   0  0  0  0  0 15  0  0  0  0  0  0
   66.6603    1.6919    0.8821 O   0  0  0  0  0 15  0  0  0  0  0  0
   63.8003    3.2458    1.1723 C   0  0  0  0  0 15  0  0  0  0  0  0
   62.9133    4.2968    0.4467 C   0  0  0  0  0 15  0  0  0  0  0  0
   62.0483    5.1115    1.4455 C   0  0  0  0  0 15  0  0  0  0  0  0
   61.0873    6.0801    0.7060 C   0  0  0  0  0 15  0  0  0  0  0  0
   60.2243    6.8238    1.6525 N   0  0  0  0  0 15  0  0  0  0  0  0
   65.0643    2.9273   -0.5581 H   0  0  0  0  0 15  0  0  0  0  0  0
   62.6013    1.4427   -0.2871 H   0  0  0  0  0 15  0  0  0  0  0  0
   64.5593    3.7771    1.7717 H   0  0  0  0  0 15  0  0  0  0  0  0
   63.1893    2.6392    1.8587 H   0  0  0  0  0 15  0  0  0  0  0  0
   62.2413    3.7946   -0.2676 H   0  0  0  0  0 15  0  0  0  0  0  0
   63.5533    4.9863   -0.1317 H   0  0  0  0  0 15  0  0  0  0  0  0
   62.7073    5.6853    2.1179 H   0  0  0  0  0 15  0  0  0  0  0  0
   61.4463    4.4216    2.0579 H   0  0  0  0  0 15  0  0  0  0  0  0
   60.4513    5.4980    0.0198 H   0  0  0  0  0 15  0  0  0  0  0  0
   61.6763    6.7903    0.0991 H   0  0  0  0  0 15  0  0  0  0  0  0
   59.6223    6.1609    2.2531 H   0  0  0  0  0 15  0  0  0  0  0  0
   59.5393    7.4756    1.1267 H   0  0  0  0  0 15  0  0  0  0  0  0
   60.8073    7.4432    2.3155 H   0  0  0  0  0 15  0  0  0  0  0  0
   65.0364    0.3138    1.5444 N   0  0  0  0  0 15  0  0  0  0  0  0
   66.2764   -0.2924    2.0230 C   0  0  0  0  0 15  0  0  0  0  0  0
   66.6404   -1.5010    1.1972 C   0  0  0  0  0 15  0  0  0  0  0  0
   67.8414   -2.1795    1.5733 O   0  0  0  0  0 15  0  0  0  0  0  0
   66.1124   -0.6277    3.5185 C   0  0  0  0  0 15  0  0  0  0  0  0
   67.6714   -1.2149    4.2165 S   0  0  0  0  0 15  0  0  0  0  0  0
   64.4894   -0.0890    0.7054 H   0  0  0  0  0 15  0  0  0  0  0  0
   67.0914    0.4447    1.9038 H   0  0  0  0  0 15  0  0  0  0  0  0
   65.7954    0.2603    4.0957 H   0  0  0  0  0 15  0  0  0  0  0  0
   65.3264   -1.3952    3.6783 H   0  0  0  0  0 15  0  0  0  0  0  0
   67.3414   -2.5022    4.2849 H   0  0  0  0  0 15  0  0  0  0  0  0
   66.5145   -1.5754    0.0418 N   0  0  0  0  0 15  0  0  0  0  0  0
   67.4775   -2.0988   -0.9209 C   0  0  0  0  0 15  0  0  0  0  0  0
   68.4775   -1.0165   -1.2460 C   0  0  0  0  0 15  0  0  0  0  0  0
   69.6675   -1.2776   -1.1842 O   0  0  0  0  0 15  0  0  0  0  0  0
   66.7995   -2.5753   -2.2337 C   0  0  0  0  0 15  0  0  0  0  0  0
   67.9925   -2.9624   -0.4674 H   0  0  0  0  0 15  0  0  0  0  0  0
   65.5455   -1.5493   -0.2065 H   0  0  0  0  0 15  0  0  0  0  0  0
   66.2805   -1.7454   -2.7332 H   0  0  0  0  0 15  0  0  0  0  0  0
   66.0655   -3.3661   -2.0108 H   0  0  0  0  0 15  0  0  0  0  0  0
   67.5555   -2.9820   -2.9235 H   0  0  0  0  0 15  0  0  0  0  0  0
   67.9926    0.2315   -1.5589 N   0  0  0  0  0 15  0  0  0  0  0  0
   68.9396    1.2868   -1.9160 C   0  0  0  0  0 15  0  0  0  0  0  0
   69.9096    1.4707   -0.7720 C   0  0  0  0  0 15  0  0  0  0  0  0
   71.0946    1.6080   -1.0270 O   0  0  0  0  0 15  0  0  0  0  0  0
   68.2346    2.6342   -2.2294 C   0  0  0  0  0 15  0  0  0  0  0  0
   67.3476    2.5291   -3.5023 C   0  0  0  0  0 15  0  0  0  0  0  0
   66.4826    3.8011   -3.7107 C   0  0  0  0  0 15  0  0  0  0  0  0
   65.5216    3.6428   -4.9190 C   0  0  0  0  0 15  0  0  0  0  0  0
   64.6586    4.8340   -5.0918 N   0  0  0  0  0 15  0  0  0  0  0  0
   69.4986    0.9753   -2.8159 H   0  0  0  0  0 15  0  0  0  0  0  0
   67.0356    0.4703   -1.3938 H   0  0  0  0  0 15  0  0  0  0  0  0
   68.9936    3.4187   -2.3913 H   0  0  0  0  0 15  0  0  0  0  0  0
   67.6236    2.9269   -1.3614 H   0  0  0  0  0 15  0  0  0  0  0  0
   66.6756    1.6595   -3.4229 H   0  0  0  0  0 15  0  0  0  0  0  0
   67.9876    2.3713   -4.3883 H   0  0  0  0  0 15  0  0  0  0  0  0
   67.1416    4.6700   -3.8729 H   0  0  0  0  0 15  0  0  0  0  0  0
   65.8806    3.9880   -2.8073 H   0  0  0  0  0 15  0  0  0  0  0  0
   64.8856    2.7577   -4.7564 H   0  0  0  0  0 15  0  0  0  0  0  0
   66.1106    3.4707   -5.8371 H   0  0  0  0  0 15  0  0  0  0  0  0
   64.0566    5.0243   -4.2179 H   0  0  0  0  0 15  0  0  0  0  0  0
   63.9736    4.7031   -5.9190 H   0  0  0  0  0 15  0  0  0  0  0  0
   65.2416    5.7175   -5.2983 H   0  0  0  0  0 15  0  0  0  0  0  0
   69.4707    1.4953    0.4978 N   0  0  0  0  0 15  0  0  0  0  0  0
   70.7477    1.4968    1.2591 C   0  0  0  0  0 15  0  0  0  0  0  0
   71.1277    0.2263    2.0988 C   0  0  0  0  0 15  0  0  0  0  0  0
   70.4757   -0.7912    2.1437 O   0  0  0  0  0 15  0  0  0  0  0  0
   70.6857    2.7775    2.1131 C   0  0  0  0  0 15  0  0  0  0  0  0
   72.0337    3.2737    2.7040 C   0  0  0  0  0 15  0  0  0  0  0  0
   73.0577    2.7889    2.2158 O   0  0  0  0  0 15  0  0  0  0  0  0
   71.9167    4.1181    3.5927 O   0  0  0  0  0 15  0  0  0  0  0  0
   69.0107    0.5992    0.5700 H   0  0  0  0  0 15  0  0  0  0  0  0
   71.5567    1.6180    0.5118 H   0  0  0  0  0 15  0  0  0  0  0  0
   70.3287    3.6171    1.4926 H   0  0  0  0  0 15  0  0  0  0  0  0
   69.9517    2.6852    2.9323 H   0  0  0  0  0 15  0  0  0  0  0  0
   70.9488   -0.7491    1.3866 N   0  0  0  0  0 15  0  0  0  0  0  0
   72.1888   -1.5211    1.3653 C   0  0  0  0  0 15  0  0  0  0  0  0
   72.5528   -1.9195   -0.0432 C   0  0  0  0  0 15  0  0  0  0  0  0
   73.7538   -2.6813   -0.1894 O   0  0  0  0  0 15  0  0  0  0  0  0
   72.0248   -2.7370    2.2983 C   0  0  0  0  0 15  0  0  0  0  0  0
   73.5838   -3.6352    2.4576 S   0  0  0  0  0 15  0  0  0  0  0  0
   70.4018   -0.5205    0.4844 H   0  0  0  0  0 15  0  0  0  0  0  0
   73.0038   -0.8790    1.7463 H   0  0  0  0  0 15  0  0  0  0  0  0
   71.7078   -2.4255    3.3105 H   0  0  0  0  0 15  0  0  0  0  0  0
   71.2388   -3.4286    1.9290 H   0  0  0  0  0 15  0  0  0  0  0  0
   73.2538   -4.6671    1.6850 H   0  0  0  0  0 15  0  0  0  0  0  0
   72.4269   -1.2360   -0.9778 N   0  0  0  0  0 15  0  0  0  0  0  0
   73.6729   -1.0713   -1.7220 C   0  0  0  0  0 15  0  0  0  0  0  0
   74.0059    0.3905   -1.9023 C   0  0  0  0  0 15  0  0  0  0  0  0
   73.2809    1.2890   -1.4565 O   0  0  0  0  0 15  0  0  0  0  0  0
   73.5639   -1.8003   -3.1187 C   0  0  0  0  0 15  0  0  0  0  0  0
   73.4169   -3.3390   -3.0138 C   0  0  0  0  0 15  0  0  0  0  0  0
   74.7359   -1.5649   -4.1134 C   0  0  0  0  0 15  0  0  0  0  0  0
   71.8549   -0.3906   -0.6250 H   0  0  0  0  0 15  0  0  0  0  0  0
   74.4969   -1.5214   -1.1381 H   0  0  0  0  0 15  0  0  0  0  0  0
   72.6469   -1.4177   -3.6171 H   0  0  0  0  0 15  0  0  0  0  0  0
   74.3189   -3.8170   -2.5904 H   0  0  0  0  0 15  0  0  0  0  0  0
   72.5619   -3.6280   -2.3783 H   0  0  0  0  0 15  0  0  0  0  0  0
   73.2329   -3.8010   -4.0029 H   0  0  0  0  0 15  0  0  0  0  0  0
   75.7089   -1.8976   -3.7031 H   0  0  0  0  0 15  0  0  0  0  0  0
   74.5849   -2.0997   -5.0715 H   0  0  0  0  0 15  0  0  0  0  0  0
   74.8459   -0.5009   -4.3925 H   0  0  0  0  0 15  0  0  0  0  0  0
   73.9050    1.1769   -1.0482 N   0  0  0  0  0 15  0  0  0  0  0  0
   75.1450    1.8955   -0.7650 C   0  0  0  0  0 15  0  0  0  0  0  0
   75.5090    1.7898    0.6950 C   0  0  0  0  0 15  0  0  0  0  0  0
   76.7100    2.4561    1.0921 O   0  0  0  0  0 15  0  0  0  0  0  0
   74.9810    3.3566   -1.2275 C   0  0  0  0  0 15  0  0  0  0  0  0
   76.5400    4.2553   -1.0711 S   0  0  0  0  0 15  0  0  0  0  0  0
   73.3580    0.6544   -0.2779 H   0  0  0  0  0 15  0  0  0  0  0  0
   75.9600    1.4216   -1.3420 H   0  0  0  0  0 15  0  0  0  0  0  0
   74.6640    3.4088   -2.2853 H   0  0  0  0  0 15  0  0  0  0  0  0
   74.1950    3.8808   -0.6446 H   0  0  0  0  0 15  0  0  0  0  0  0
   76.2100    4.9620    0.0070 H   0  0  0  0  0 15  0  0  0  0  0  0
   75.3831    0.8287    1.3406 N   0  0  0  0  0 15  0  0  0  0  0  0
   76.3301    0.2526    2.2941 C   0  0  0  0  0 15  0  0  0  0  0  0
   77.3001   -0.6259    1.5386 C   0  0  0  0  0 15  0  0  0  0  0  0
   78.4851   -0.5663    1.8220 O   0  0  0  0  0 15  0  0  0  0  0  0
   75.6251   -0.5748    3.4028 C   0  0  0  0  0 15  0  0  0  0  0  0
   74.7381    0.3265    4.3076 C   0  0  0  0  0 15  0  0  0  0  0  0
   73.8731   -0.5110    5.2874 C   0  0  0  0  0 15  0  0  0  0  0  0
   72.9121    0.3893    6.1086 C   0  0  0  0  0 15  0  0  0  0  0  0
   72.0491   -0.4094    7.0091 N   0  0  0  0  0 15  0  0  0  0  0  0
   76.8891    1.0711    2.7809 H   0  0  0  0  0 15  0  0  0  0  0  0
   74.4261    0.5397    1.3684 H   0  0  0  0  0 15  0  0  0  0  0  0
   76.3841   -1.0699    4.0325 H   0  0  0  0  0 15  0  0  0  0  0  0
   75.0141   -1.3584    2.9283 H   0  0  0  0  0 15  0  0  0  0  0  0
   74.0661    0.9398    3.6861 H   0  0  0  0  0 15  0  0  0  0  0  0
   75.3781    1.0186    4.8829 H   0  0  0  0  0 15  0  0  0  0  0  0
   74.5321   -1.0703    5.9718 H   0  0  0  0  0 15  0  0  0  0  0  0
   73.2711   -1.2366    4.7176 H   0  0  0  0  0 15  0  0  0  0  0  0
   72.2761    0.9608    5.4134 H   0  0  0  0  0 15  0  0  0  0  0  0
   73.5011    1.1131    6.6992 H   0  0  0  0  0 15  0  0  0  0  0  0
   71.4471   -1.1186    6.4639 H   0  0  0  0  0 15  0  0  0  0  0  0
   71.3641    0.2241    7.5567 H   0  0  0  0  0 15  0  0  0  0  0  0
   72.6321   -0.9513    7.7367 H   0  0  0  0  0 15  0  0  0  0  0  0
   76.8612   -1.4637    0.5841 N   0  0  0  0  0 15  0  0  0  0  0  0
   78.1092   -2.0198    0.0701 C   0  0  0  0  0 15  0  0  0  0  0  0
   78.4302   -1.4579   -1.2950 C   0  0  0  0  0 15  0  0  0  0  0  0
   77.7002   -0.6431   -1.8504 O   0  0  0  0  0 15  0  0  0  0  0  0
   76.2802   -0.7466    0.0229 H   0  0  0  0  0 15  0  0  0  0  0  0
   78.9422   -1.7946    0.7602 H   0  0  0  0  0 15  0  0  0  0  0  0
   78.0382   -3.1210    0.0022 H   0  0  0  0  0 15  0  0  0  0  0  0
   78.3393   -0.3220   -1.5428 N   0  0  0  0  0 15  0  0  0  0  0  0
   79.5873    0.2805   -2.0014 C   0  0  0  0  0 15  0  0  0  0  0  0
   79.9083    1.5278   -1.2118 C   0  0  0  0  0 15  0  0  0  0  0  0
   79.1783    1.9338   -0.3132 O   0  0  0  0  0 15  0  0  0  0  0  0
   77.7583    0.1066   -0.7394 H   0  0  0  0  0 15  0  0  0  0  0  0
   80.4203   -0.4382   -1.8991 H   0  0  0  0  0 15  0  0  0  0  0  0
   79.5163    0.5380   -3.0743 H   0  0  0  0  0 15  0  0  0  0  0  0
   79.8174    1.5752   -0.0501 N   0  0  0  0  0 15  0  0  0  0  0  0
   80.7274    2.1495    0.9398 C   0  0  0  0  0 15  0  0  0  0  0  0
   81.7434    1.1071    1.3424 C   0  0  0  0  0 15  0  0  0  0  0  0
   82.9194    1.4287    1.4195 O   0  0  0  0  0 15  0  0  0  0  0  0
   79.9844    2.6823    2.1966 C   0  0  0  0  0 15  0  0  0  0  0  0
   79.0454    3.8727    1.8525 C   0  0  0  0  0 15  0  0  0  0  0  0
   78.2784    4.3800    3.0494 C   0  0  0  0  0 15  0  0  0  0  0  0
   78.5014    3.8781    4.1828 O   0  0  0  0  0 15  0  0  0  0  0  0
   77.4354    5.2960    2.8602 O   0  0  0  0  0 15  0  0  0  0  0  0
   81.2614    2.9986    0.4814 H   0  0  0  0  0 15  0  0  0  0  0  0
   78.8464    1.4841    0.1717 H   0  0  0  0  0 15  0  0  0  0  0  0
   80.7284    3.0247    2.9341 H   0  0  0  0  0 15  0  0  0  0  0  0
   79.4034    1.8640    2.6465 H   0  0  0  0  0 15  0  0  0  0  0  0
   78.3104    3.5792    1.0883 H   0  0  0  0  0 15  0  0  0  0  0  0
   79.6434    4.7034    1.4507 H   0  0  0  0  0 15  0  0  0  0  0  0
   81.2955   -0.2232    1.5601 N   0  0  0  0  0 15  0  0  0  0  0  0
   82.2585   -1.2601    1.9145 C   0  0  0  0  0 15  0  0  0  0  0  0
   83.2585   -1.3989    0.7929 C   0  0  0  0  0 15  0  0  0  0  0  0
   84.4485   -1.3818    1.0607 O   0  0  0  0  0 15  0  0  0  0  0  0
   81.5805   -2.6342    2.1638 C   0  0  0  0  0 15  0  0  0  0  0  0
   82.7735   -0.9580    2.8419 H   0  0  0  0  0 15  0  0  0  0  0  0
   80.3265   -0.4636    1.4927 H   0  0  0  0  0 15  0  0  0  0  0  0
   81.0615   -2.9874    1.2619 H   0  0  0  0  0 15  0  0  0  0  0  0
   80.8465   -2.5473    2.9809 H   0  0  0  0  0 15  0  0  0  0  0  0
   82.3365   -3.3825    2.4490 H   0  0  0  0  0 15  0  0  0  0  0  0
   82.7736   -1.4979   -0.4899 N   0  0  0  0  0 15  0  0  0  0  0  0
   83.7366   -1.6675   -1.5725 C   0  0  0  0  0 15  0  0  0  0  0  0
   84.7366   -0.5389   -1.5150 C   0  0  0  0  0 15  0  0  0  0  0  0
   85.9266   -0.8055   -1.5446 O   0  0  0  0  0 15  0  0  0  0  0  0
   83.0586   -1.6753   -2.9690 C   0  0  0  0  0 15  0  0  0  0  0  0
   84.2516   -2.6332   -1.4353 H   0  0  0  0  0 15  0  0  0  0  0  0
   81.8046   -1.3899   -0.7149 H   0  0  0  0  0 15  0  0  0  0  0  0
   82.5396   -0.7258   -3.1607 H   0  0  0  0  0 15  0  0  0  0  0  0
   82.3246   -2.4950   -3.0247 H   0  0  0  0  0 15  0  0  0  0  0  0
   83.8146   -1.8267   -3.7553 H   0  0  0  0  0 15  0  0  0  0  0  0
   84.2517    0.7417   -1.3905 N   0  0  0  0  0 15  0  0  0  0  0  0
   85.1617    1.8862   -1.3950 C   0  0  0  0  0 15  0  0  0  0  0  0
   86.1777    1.7156   -0.2906 C   0  0  0  0  0 15  0  0  0  0  0  0
   87.3537    1.9428   -0.5310 O   0  0  0  0  0 15  0  0  0  0  0  0
   84.4187    3.2413   -1.2304 C   0  0  0  0  0 15  0  0  0  0  0  0
   83.4797    3.5364   -2.4339 C   0  0  0  0  0 15  0  0  0  0  0  0
   82.7127    4.8269   -2.2770 C   0  0  0  0  0 15  0  0  0  0  0  0
   82.9357    5.5592   -1.2770 O   0  0  0  0  0 15  0  0  0  0  0  0
   81.8697    5.1194   -3.1655 O   0  0  0  0  0 15  0  0  0  0  0  0
   85.6957    1.9120   -2.3596 H   0  0  0  0  0 15  0  0  0  0  0  0
   83.2807    0.8886   -1.2010 H   0  0  0  0  0 15  0  0  0  0  0  0
   85.1627    4.0513   -1.1596 H   0  0  0  0  0 15  0  0  0  0  0  0
   83.8377    3.2234   -0.2967 H   0  0  0  0  0 15  0  0  0  0  0  0
   82.7447    2.7276   -2.5604 H   0  0  0  0  0 15  0  0  0  0  0  0
   84.0777    3.6021   -3.3543 H   0  0  0  0  0 15  0  0  0  0  0  0
   85.7298    1.2412    0.9712 N   0  0  0  0  0 15  0  0  0  0  0  0
   86.6928    1.0316    2.0467 C   0  0  0  0  0 15  0  0  0  0  0  0
   87.6928   -0.0099    1.6080 C   0  0  0  0  0 15  0  0  0  0  0  0
   88.8828    0.2307    1.7267 O   0  0  0  0  0 15  0  0  0  0  0  0
   86.0148    0.5628    3.3622 C   0  0  0  0  0 15  0  0  0  0  0  0
   87.2078    1.9861    2.2471 H   0  0  0  0  0 15  0  0  0  0  0  0
   84.7608    1.0629    1.1459 H   0  0  0  0  0 15  0  0  0  0  0  0
   85.4958   -0.3952    3.2188 H   0  0  0  0  0 15  0  0  0  0  0  0
   85.2808    1.3144    3.6941 H   0  0  0  0  0 15  0  0  0  0  0  0
   86.7708    0.4370    4.1531 H   0  0  0  0  0 15  0  0  0  0  0  0
   87.2079   -1.1713    1.0544 N   0  0  0  0  0 15  0  0  0  0  0  0
   88.1179   -2.2488    0.6684 C   0  0  0  0  0 15  0  0  0  0  0  0
   89.1339   -1.7119   -0.3117 C   0  0  0  0  0 15  0  0  0  0  0  0
   90.3099   -2.0074   -0.1632 O   0  0  0  0  0 15  0  0  0  0  0  0
   87.3749   -3.4666    0.0516 C   0  0  0  0  0 15  0  0  0  0  0  0
   86.4359   -4.1543    1.0825 C   0  0  0  0  0 15  0  0  0  0  0  0
   85.6689   -5.3140    0.4951 C   0  0  0  0  0 15  0  0  0  0  0  0
   85.8919   -5.6615   -0.6947 O   0  0  0  0  0 15  0  0  0  0  0  0
   84.8259   -5.8919    1.2306 O   0  0  0  0  0 15  0  0  0  0  0  0
   88.6519   -2.6019    1.5664 H   0  0  0  0  0 15  0  0  0  0  0  0
   86.2369   -1.2448    0.8261 H   0  0  0  0  0 15  0  0  0  0  0  0
   88.1189   -4.2039   -0.2910 H   0  0  0  0  0 15  0  0  0  0  0  0
   86.7939   -3.1314   -0.8200 H   0  0  0  0  0 15  0  0  0  0  0  0
   85.7009   -3.4370    1.4771 H   0  0  0  0  0 15  0  0  0  0  0  0
   87.0339   -4.5298    1.9253 H   0  0  0  0  0 15  0  0  0  0  0  0
   88.6860   -0.8358   -1.3361 N   0  0  0  0  0 15  0  0  0  0  0  0
   89.6490   -0.2720   -2.2758 C   0  0  0  0  0 15  0  0  0  0  0  0
   90.6490    0.5575   -1.5083 C   0  0  0  0  0 15  0  0  0  0  0  0
   91.8390    0.3717   -1.7019 O   0  0  0  0  0 15  0  0  0  0  0  0
   88.9710    0.6172   -3.3527 C   0  0  0  0  0 15  0  0  0  0  0  0
   90.1640   -1.1011   -2.7895 H   0  0  0  0  0 15  0  0  0  0  0  0
   87.7170   -0.6086   -1.4396 H   0  0  0  0  0 15  0  0  0  0  0  0
   88.4520    1.4688   -2.8913 H   0  0  0  0  0 15  0  0  0  0  0  0
   88.2370    0.0237   -3.9209 H   0  0  0  0  0 15  0  0  0  0  0  0
   89.7270    1.0050   -4.0533 H   0  0  0  0  0 15  0  0  0  0  0  0
   90.1641    1.4606   -0.5919 N   0  0  0  0  0 15  0  0  0  0  0  0
   91.0741    2.3419    0.1383 C   0  0  0  0  0 15  0  0  0  0  0  0
   92.0901    1.5030    0.8766 C   0  0  0  0  0 15  0  0  0  0  0  0
   93.2661    1.8315    0.8377 O   0  0  0  0  0 15  0  0  0  0  0  0
   90.3311    3.2766    1.1333 C   0  0  0  0  0 15  0  0  0  0  0  0
   89.3921    4.2745    0.3986 C   0  0  0  0  0 15  0  0  0  0  0  0
   88.6251    5.1644    1.3462 C   0  0  0  0  0 15  0  0  0  0  0  0
   88.8481    5.0855    2.5832 O   0  0  0  0  0 15  0  0  0  0  0  0
   87.7821    5.9584    0.8518 O   0  0  0  0  0 15  0  0  0  0  0  0
   91.6081    2.9800   -0.5855 H   0  0  0  0  0 15  0  0  0  0  0  0
   89.1931    1.4519   -0.3522 H   0  0  0  0  0 15  0  0  0  0  0  0
   91.0751    3.8529    1.7067 H   0  0  0  0  0 15  0  0  0  0  0  0
   89.7501    2.6643    1.8384 H   0  0  0  0  0 15  0  0  0  0  0  0
   88.6571    3.7347   -0.2169 H   0  0  0  0  0 15  0  0  0  0  0  0
   89.9901    4.9148   -0.2657 H   0  0  0  0  0 15  0  0  0  0  0  0
   91.6422    0.3302    1.5410 N   0  0  0  0  0 15  0  0  0  0  0  0
   92.5892   -0.5328    2.2457 C   0  0  0  0  0 15  0  0  0  0  0  0
   93.5592   -1.1063    1.2389 C   0  0  0  0  0 15  0  0  0  0  0  0
   94.7442   -1.1455    1.5259 O   0  0  0  0  0 15  0  0  0  0  0  0
   91.8842   -1.6845    3.0120 C   0  0  0  0  0 15  0  0  0  0  0  0
   90.9972   -1.1395    4.1670 C   0  0  0  0  0 15  0  0  0  0  0  0
   90.1322   -2.2575    4.8085 C   0  0  0  0  0 15  0  0  0  0  0  0
   89.1712   -1.6853    5.8844 C   0  0  0  0  0 15  0  0  0  0  0  0
   88.3082   -2.7401    6.4642 N   0  0  0  0  0 15  0  0  0  0  0  0
   93.1482    0.0747    2.9791 H   0  0  0  0  0 15  0  0  0  0  0  0
   90.6852    0.0486    1.4702 H   0  0  0  0  0 15  0  0  0  0  0  0
   92.6432   -2.3623    3.4387 H   0  0  0  0  0 15  0  0  0  0  0  0
   91.2732   -2.2631    2.3018 H   0  0  0  0  0 15  0  0  0  0  0  0
   90.3252   -0.3530    3.7876 H   0  0  0  0  0 15  0  0  0  0  0  0
   91.6372   -0.6809    4.9413 H   0  0  0  0  0 15  0  0  0  0  0  0
   90.7912   -3.0142    5.2653 H   0  0  0  0  0 15  0  0  0  0  0  0
   89.5302   -2.7495    4.0281 H   0  0  0  0  0 15  0  0  0  0  0  0
   88.5352   -0.9135    5.4216 H   0  0  0  0  0 15  0  0  0  0  0  0
   89.7602   -1.2020    6.6838 H   0  0  0  0  0 15  0  0  0  0  0  0
   87.7062   -3.2249    5.7126 H   0  0  0  0  0 15  0  0  0  0  0  0
   87.6232   -2.3274    7.1928 H   0  0  0  0  0 15  0  0  0  0  0  0
   88.8912   -3.4950    6.9676 H   0  0  0  0  0 15  0  0  0  0  0  0
   93.1203   -1.5749    0.0585 N   0  0  0  0  0 15  0  0  0  0  0  0
   94.3603   -1.9485   -0.6175 C   0  0  0  0  0 15  0  0  0  0  0  0
   94.7243   -0.9372   -1.6757 C   0  0  0  0  0 15  0  0  0  0  0  0
   95.9253   -1.1980   -2.4063 O   0  0  0  0  0 15  0  0  0  0  0  0
   94.1963   -3.3696   -1.1915 C   0  0  0  0  0 15  0  0  0  0  0  0
   95.7553   -3.9628   -1.8844 S   0  0  0  0  0 15  0  0  0  0  0  0
   92.5733   -0.6815   -0.2025 H   0  0  0  0  0 15  0  0  0  0  0  0
   95.1753   -1.9507    0.1292 H   0  0  0  0  0 15  0  0  0  0  0  0
   93.8793   -4.0835   -0.4092 H   0  0  0  0  0 15  0  0  0  0  0  0
   93.4103   -3.4025   -1.9748 H   0  0  0  0  0 15  0  0  0  0  0  0
   95.4253   -3.8210   -3.1657 H   0  0  0  0  0 15  0  0  0  0  0  0
   94.5984    0.2150   -1.5613 N   0  0  0  0  0 15  0  0  0  0  0  0
   95.8234    0.9592   -1.8388 C   0  0  0  0  0 15  0  0  0  0  0  0
   96.2484    1.7689   -0.6396 C   0  0  0  0  0 15  0  0  0  0  0  0
   95.6064    1.7657    0.4116 O   0  0  0  0  0 15  0  0  0  0  0  0
   95.6544    1.8472   -3.0969 C   0  0  0  0  0 15  0  0  0  0  0  0
   94.7584    2.9435   -2.8885 O   0  0  0  0  0 15  0  0  0  0  0  0
   94.0994    0.2713   -0.6061 H   0  0  0  0  0 15  0  0  0  0  0  0
   96.6294    0.2263   -2.0334 H   0  0  0  0  0 15  0  0  0  0  0  0
   96.6394    2.2558   -3.3997 H   0  0  0  0  0 15  0  0  0  0  0  0
   95.3144    1.2522   -3.9660 H   0  0  0  0  0 15  0  0  0  0  0  0
   93.8914    2.5739   -2.6982 H   0  0  0  0  0 15  0  0  0  0  0  0
   96.0765    1.5005    0.4819 N   0  0  0  0  0 15  0  0  0  0  0  0
   97.3165    1.6213    1.2447 C   0  0  0  0  0 15  0  0  0  0  0  0
   97.6805    0.3097    1.8949 C   0  0  0  0  0 15  0  0  0  0  0  0
   98.8815    0.3059    2.6705 O   0  0  0  0  0 15  0  0  0  0  0  0
   97.1525    2.7615    2.2688 C   0  0  0  0  0 15  0  0  0  0  0  0
   98.7115    3.0830    3.1225 S   0  0  0  0  0 15  0  0  0  0  0  0
   95.5295    0.5717    0.4228 H   0  0  0  0  0 15  0  0  0  0  0  0
   98.1315    1.8779    0.5436 H   0  0  0  0  0 15  0  0  0  0  0  0
   96.8355    3.6994    1.7768 H   0  0  0  0  0 15  0  0  0  0  0  0
   96.3665    2.5254    3.0164 H   0  0  0  0  0 15  0  0  0  0  0  0
   98.3815    2.5129    4.2787 H   0  0  0  0  0 15  0  0  0  0  0  0
   97.5546   -0.7343    1.3945 N   0  0  0  0  0 15  0  0  0  0  0  0
   98.7946   -1.5065    1.3814 C   0  0  0  0  0 15  0  0  0  0  0  0
   99.1586   -1.9199   -0.0229 C   0  0  0  0  0 15  0  0  0  0  0  0
  100.3596   -2.6832   -0.1609 O   0  0  0  0  0 15  0  0  0  0  0  0
   98.6306   -2.7125    2.3272 C   0  0  0  0  0 15  0  0  0  0  0  0
  100.1896   -3.6089    2.4960 S   0  0  0  0  0 15  0  0  0  0  0  0
   97.0076   -0.5153    0.4899 H   0  0  0  0  0 15  0  0  0  0  0  0
   99.6096   -0.8604    1.7555 H   0  0  0  0  0 15  0  0  0  0  0  0
   98.3136   -2.3903    3.3361 H   0  0  0  0  0 15  0  0  0  0  0  0
   97.8446   -3.4079    1.9653 H   0  0  0  0  0 15  0  0  0  0  0  0
   99.8596   -4.6490    1.7345 H   0  0  0  0  0 15  0  0  0  0  0  0
   99.0327   -1.2463   -0.9646 N   0  0  0  0  0 15  0  0  0  0  0  0
   99.9647   -0.9993   -2.0627 C   0  0  0  0  0 15  0  0  0  0  0  0
  100.9777    0.0323   -1.6277 C   0  0  0  0  0 15  0  0  0  0  0  0
  102.1667   -0.2051   -1.7732 O   0  0  0  0  0 15  0  0  0  0  0  0
   99.2667   -0.4868   -3.3539 C   0  0  0  0  0 15  0  0  0  0  0  0
   98.4397   -1.5823   -4.0778 C   0  0  0  0  0 15  0  0  0  0  0  0
   97.4987   -1.0719   -5.1517 C   0  0  0  0  0 15  0  0  0  0  0  0
   96.5247   -1.7643   -5.4117 O   0  0  0  0  0 15  0  0  0  0  0  0
   97.7267    0.0920   -5.8043 N   0  0  0  0  0 15  0  0  0  0  0  0
  100.4917   -1.9448   -2.2803 H   0  0  0  0  0 15  0  0  0  0  0  0
   98.0527   -1.1570   -1.1324 H   0  0  0  0  0 15  0  0  0  0  0  0
  100.0447   -0.1301   -4.0449 H   0  0  0  0  0 15  0  0  0  0  0  0
   98.6147    0.3645   -3.1047 H   0  0  0  0  0 15  0  0  0  0  0  0
   97.8347   -2.1111   -3.3291 H   0  0  0  0  0 15  0  0  0  0  0  0
   99.1227   -2.3185   -4.5290 H   0  0  0  0  0 15  0  0  0  0  0  0
   98.5207    0.6708   -5.6171 H   0  0  0  0  0 15  0  0  0  0  0  0
   97.0777    0.3899   -6.5063 H   0  0  0  0  0 15  0  0  0  0  0  0
  100.5497    1.0971   -1.1851 O   0  0  0  0  0 15  0  0  0  0  0  0
  101.2407    1.6999   -0.9285 H   0  0  0  0  0 15  0  0  0  0  0  0
M  END
$$$$
