drugbank_target|P25788 Proteasome subunit alpha type-3 (DB08515; DB12695)
 OpenBabel12092120433D

  0  0  0     0  0            999 V3000
M  V30 BEGIN CTAB
M  V30 COUNTS 3953 3988 0 0 0
M  V30 BEGIN ATOM
M  V30 1 H -0.908 1.98254 -0.117106 0
M  V30 2 N 0 1.576 0 0
M  V30 3 C 0.933 2.03868 1.02534 0
M  V30 4 C 1.911 0.928543 1.3348 0
M  V30 5 O 3.095 1.19667 1.45644 0
M  V30 6 C 0.222 2.43627 2.35294 0
M  V30 7 C -0.732 3.65373 2.2001 0
M  V30 8 S 0.101 5.13292 1.52614 0
M  V30 9 C 1.257 5.56322 2.86805 0
M  V30 10 H 1.49 2.90518 0.631377 0
M  V30 11 H -0.977 1.52953 0.210867 0
M  V30 12 H 0.981 2.67203 3.11629 0
M  V30 13 H -0.358 1.57376 2.7183 0
M  V30 14 H -1.165 3.90944 3.18086 0
M  V30 15 H -1.563 3.418 1.51819 0
M  V30 16 H 0.729 5.58782 3.83104 0
M  V30 17 H 1.672 6.56266 2.65933 0
M  V30 18 H 2.08 4.83886 2.90714 0
M  V30 19 N 1.4781 -0.272755 1.55222 0
M  V30 20 C 2.7031 -1.02683 1.80197 0
M  V30 21 C 3.1281 -1.79142 0.573551 0
M  V30 22 O 2.4861 -1.74917 -0.476849 0
M  V30 23 C 2.5341 -1.9609 3.02624 0
M  V30 24 O 1.6381 -3.04863 2.77727 0
M  V30 25 H 0.9791 -0.293557 0.595584 0
M  V30 26 H 3.5091 -0.30159 2.02365 0
M  V30 27 H 3.5191 -2.38039 3.31363 0
M  V30 28 H 2.1941 -1.39851 3.91682 0
M  V30 29 H 0.7711 -2.67228 2.60084 0
M  V30 30 N 2.9562 -1.48159 -0.537278 0
M  V30 31 C 4.1812 -1.59707 -1.32319 0
M  V30 32 C 4.6062 -0.254859 -1.86365 0
M  V30 33 O 3.9642 0.772378 -1.64024 0
M  V30 34 C 4.0122 -2.6412 -2.45505 0
M  V30 35 O 3.1162 -2.20774 -3.48328 0
M  V30 36 H 2.4572 -0.535791 -0.392204 0
M  V30 37 H 4.9872 -1.94092 -0.647268 0
M  V30 38 H 4.9972 -2.85166 -2.91795 0
M  V30 39 H 3.6722 -3.61567 -2.05528 0
M  V30 40 H 2.2492 -2.09911 -3.08207 0
M  V30 41 N 4.4343 0.785586 -1.36625 0
M  V30 42 C 5.6833 1.53883 -1.30396 0
M  V30 43 C 5.9963 1.95271 0.113452 0
M  V30 44 O 7.2023 2.69858 0.298142 0
M  V30 45 C 5.6583 2.77808 -2.28802 0
M  V30 46 C 5.2663 2.43574 -3.75999 0
M  V30 47 C 7.0103 3.55783 -2.31558 0
M  V30 48 C 4.9173 3.63919 -4.66173 0
M  V30 49 H 3.8473 0.577678 -0.484566 0
M  V30 50 H 6.4983 0.861705 -1.62009 0
M  V30 51 H 4.8803 3.47339 -1.90188 0
M  V30 52 H 6.0543 1.81916 -4.23371 0
M  V30 53 H 4.3693 1.78803 -3.76056 0
M  V30 54 H 6.9663 4.45205 -2.96137 0
M  V30 55 H 7.3093 3.94644 -1.3252 0
M  V30 56 H 7.8423 2.93235 -2.68809 0
M  V30 57 H 4.5813 3.3015 -5.66287 0
M  V30 58 H 4.1013 4.2473 -4.23515 0
M  V30 59 H 5.7803 4.30901 -4.82632 0
M  V30 60 N 5.9124 1.20967 1.01018 0
M  V30 61 C 7.1604 1.02172 1.74371 0
M  V30 62 C 7.4814 -0.446414 1.89821 0
M  V30 63 O 6.7514 -1.32234 1.44537 0
M  V30 64 H 5.3314 0.375066 0.646014 0
M  V30 65 H 7.9934 1.52187 1.21758 0
M  V30 66 H 7.0894 1.48538 2.74487 0
M  V30 67 N 7.3905 -1.2043 1.01659 0
M  V30 68 C 8.6185 -1.93777 0.725132 0
M  V30 69 C 9.0335 -1.74772 -0.714166 0
M  V30 70 O 8.3905 -1.06169 -1.4844 0
M  V30 71 C 8.4415 -3.45876 1.05129 0
M  V30 72 O 8.1625 -3.6426 2.43406 0
M  V30 73 C 9.6635 -4.36368 0.780891 0
M  V30 74 H 6.8835 -0.615901 0.266284 0
M  V30 75 H 9.4275 -1.52922 1.35776 0
M  V30 76 H 7.5825 -3.8461 0.464065 0
M  V30 77 H 7.9965 -4.58246 2.55169 0
M  V30 78 H 9.4705 -5.41743 1.05918 0
M  V30 79 H 9.9475 -4.38275 -0.284937 0
M  V30 80 H 10.5535 -4.03296 1.35027 0
M  V30 81 N 8.8686 -0.792821 -1.36206 0
M  V30 82 C 10.1166 -0.366062 -1.98757 0
M  V30 83 C 10.4376 1.0668 -1.63231 0
M  V30 84 O 9.7076 1.73587 -0.907978 0
M  V30 85 H 8.2876 -0.132364 -0.735179 0
M  V30 86 H 10.9496 -1.01562 -1.66347 0
M  V30 87 H 10.0456 -0.460638 -3.08682 0
M  V30 88 N 10.3467 1.47872 -0.545128 0
M  V30 89 C 11.5767 2.06589 -0.0210534 0
M  V30 90 C 11.9847 1.39997 1.27269 0
M  V30 91 O 11.3277 0.486421 1.77143 0
M  V30 92 C 11.3897 3.58574 0.257933 0
M  V30 93 C 11.0537 4.47132 -0.944573 0
M  V30 94 C 12.0507 4.85986 -1.84699 0
M  V30 95 C 9.7357 4.88821 -1.15584 0
M  V30 96 C 11.7297 5.65314 -2.94446 0
M  V30 97 C 9.4167 5.67916 -2.25642 0
M  V30 98 C 10.4147 6.06073 -3.14905 0
M  V30 99 O 10.1027 6.83578 -4.23057 0
M  V30 100 H 9.8347 0.674971 -0.0372899 0
M  V30 101 H 12.3887 1.91037 -0.754599 0
M  V30 102 H 10.6187 3.72295 1.04564 0
M  V30 103 H 12.3077 3.99356 0.72592 0
M  V30 104 H 13.0737 4.54388 -1.69577 0
M  V30 105 H 8.9527 4.58595 -0.470279 0
M  V30 106 H 12.4967 5.95016 -3.64145 0
M  V30 107 H 8.3937 5.98927 -2.40742 0
M  V30 108 H 9.1617 7.01954 -4.20954 0
M  V30 109 N 11.8248 0.280983 1.55075 0
M  V30 110 C 13.1018 -0.386207 1.91749 0
M  V30 111 C 13.4818 -1.73264 1.20594 0
M  V30 112 O 12.8298 -2.26034 0.334784 0
M  V30 113 C 13.0398 -0.520687 3.45094 0
M  V30 114 C 14.3878 -0.800865 4.16979 0
M  V30 115 O 15.4118 -0.605271 3.5102 0
M  V30 116 O 14.2708 -1.1753 5.33712 0
M  V30 117 H 11.3648 -0.212408 0.799257 0
M  V30 118 H 13.9108 0.327568 1.66509 0
M  V30 119 H 12.6828 0.426633 3.88967 0
M  V30 120 H 12.3058 -1.2837 3.76307 0
M  V30 121 N 13.3029 -1.57598 0.00835791 0
M  V30 122 C 14.2329 -2.1198 -0.979113 0
M  V30 123 C 15.2139 -1.03091 -1.35301 0
M  V30 124 O 16.3989 -1.30818 -1.43528 0
M  V30 125 C 13.5289 -2.62995 -2.26828 0
M  V30 126 C 12.4829 -3.76485 -2.03576 0
M  V30 127 C 11.8089 -4.13846 -3.38579 0
M  V30 128 C 13.1089 -5.0342 -1.39161 0
M  V30 129 H 14.8029 -2.94738 -0.526281 0
M  V30 130 H 12.3489 -1.41783 -0.251704 0
M  V30 131 H 14.3019 -2.99669 -2.96271 0
M  V30 132 H 13.0259 -1.7737 -2.7424 0
M  V30 133 H 11.6849 -3.40217 -1.36557 0
M  V30 134 H 11.3329 -3.25232 -3.83709 0
M  V30 135 H 11.0329 -4.90312 -3.23834 0
M  V30 136 H 12.5569 -4.53086 -4.09323 0
M  V30 137 H 13.9709 -5.37812 -1.98573 0
M  V30 138 H 12.3679 -5.84746 -1.34878 0
M  V30 139 H 13.4379 -4.83548 -0.361868 0
M  V30 140 N 14.781 0.264519 -1.55364 0
M  V30 141 C 16.006 1.01726 -1.80739 0
M  V30 142 C 16.431 1.78836 -0.583044 0
M  V30 143 O 15.789 1.75167 0.467566 0
M  V30 144 C 15.837 1.94482 -3.03659 0
M  V30 145 O 14.941 3.03386 -2.7934 0
M  V30 146 H 14.282 0.290395 -0.597132 0
M  V30 147 H 16.812 0.290854 -2.02522 0
M  V30 148 H 16.822 2.36278 -3.32621 0
M  V30 149 H 15.497 1.37772 -3.92418 0
M  V30 150 H 14.074 2.65844 -2.61498 0
M  V30 151 N 16.2591 1.48442 0.529413 0
M  V30 152 C 17.2221 1.62524 1.61612 0
M  V30 153 C 18.2221 0.498509 1.52877 0
M  V30 154 O 19.4121 0.76431 1.56537 0
M  V30 155 C 16.5441 1.59597 3.01233 0
M  V30 156 H 17.7371 2.59423 1.50465 0
M  V30 157 H 15.2901 1.37047 0.751514 0
M  V30 158 H 16.0251 0.641781 3.17886 0
M  V30 159 H 15.8101 2.41397 3.08982 0
M  V30 160 H 17.3001 1.72646 3.80241 0
M  V30 161 N 17.7372 -0.778329 1.37039 0
M  V30 162 C 18.9622 -1.57248 1.35233 0
M  V30 163 C 19.3872 -1.87999 -0.0615568 0
M  V30 164 O 18.7452 -1.48734 -1.03672 0
M  V30 165 C 18.7932 -2.86353 2.19167 0
M  V30 166 O 17.8972 -3.80442 1.59178 0
M  V30 167 H 17.2382 -0.476569 0.462362 0
M  V30 168 H 19.7682 -0.963853 1.80474 0
M  V30 169 H 19.7782 -3.35519 2.32145 0
M  V30 170 H 18.4532 -2.63299 3.21942 0
M  V30 171 H 17.0302 -3.39067 1.55203 0
M  V30 172 N 19.2153 -1.21501 -1.00376 0
M  V30 173 C 20.4433 -1.059 -1.77744 0
M  V30 174 C 20.8583 0.391125 -1.84704 0
M  V30 175 O 20.2153 1.27133 -1.30933 0
M  V30 176 C 20.2663 -1.65111 -3.21591 0
M  V30 177 O 19.9873 -3.0445 -3.15027 0
M  V30 178 C 21.4883 -1.54637 -4.15454 0
M  V30 179 H 18.7083 -0.371825 -0.558558 0
M  V30 180 H 21.2523 -1.60865 -1.26264 0
M  V30 181 H 19.4073 -1.14235 -3.70175 0
M  V30 182 H 19.8213 -3.3278 -4.0541 0
M  V30 183 H 21.2953 -2.00808 -5.14179 0
M  V30 184 H 21.7723 -0.501022 -4.36333 0
M  V30 185 H 22.3783 -2.04767 -3.72761 0
M  V30 186 N 20.6934 1.19889 -1.02296 0
M  V30 187 C 21.9404 1.8942 -0.715972 0
M  V30 188 C 22.2684 1.79251 0.754944 0
M  V30 189 O 21.5234 1.17526 1.56481 0
M  V30 190 C 21.8224 3.39883 -1.10518 0
M  V30 191 C 21.4884 3.70254 -2.57337 0
M  V30 192 C 20.1504 3.78254 -2.97452 0
M  V30 193 C 22.5024 3.84052 -3.52354 0
M  V30 194 C 19.8304 3.97514 -4.31509 0
M  V30 195 C 22.1824 4.04824 -4.86108 0
M  V30 196 C 20.8464 4.11054 -5.25919 0
M  V30 197 H 20.1164 0.693138 -0.261993 0
M  V30 198 H 22.7634 1.42012 -1.28472 0
M  V30 199 H 21.0684 3.8915 -0.454953 0
M  V30 200 H 22.7654 3.9199 -0.845261 0
M  V30 201 H 19.3554 3.64632 -2.25258 0
M  V30 202 H 23.5394 3.77221 -3.22518 0
M  V30 203 H 18.7954 4.00574 -4.61898 0
M  V30 204 H 22.9694 4.14442 -5.59653 0
M  V30 205 H 20.5964 4.2573 -6.29808 0
M  V30 206 N 22.1715 0.800033 1.35784 0
M  V30 207 C 23.3965 0.388511 2.03729 0
M  V30 208 C 23.8215 -0.990481 1.5991 0
M  V30 209 O 23.1795 -1.64013 0.772612 0
M  V30 210 C 23.2275 0.4726 3.5749 0
M  V30 211 O 22.3315 -0.51646 4.09153 0
M  V30 212 H 21.6725 0.163271 0.643614 0
M  V30 213 H 24.2025 1.0841 1.73518 0
M  V30 214 H 24.2125 0.34003 4.06581 0
M  V30 215 H 22.8875 1.47848 3.88734 0
M  V30 216 H 21.4645 -0.344673 3.71304 0
M  V30 217 N 23.6496 -1.47581 0.552962 0
M  V30 218 C 25.0606 -1.86324 0.118463 0
M  V30 219 C 25.4116 -1.46006 -1.3106 0
M  V30 220 O 24.5366 -0.861182 -1.98526 0
M  V30 221 C 25.1316 -3.3816 0.20821 0
M  V30 222 C 23.6906 -3.7601 -0.171226 0
M  V30 223 C 22.8376 -2.71634 0.557686 0
M  V30 224 H 25.7886 -1.39159 0.762928 0
M  V30 225 H 25.8096 -3.76141 -0.574278 0
M  V30 226 H 25.3216 -3.67473 1.24841 0
M  V30 227 H 23.4226 -3.52313 -1.21269 0
M  V30 228 H 23.5356 -4.78745 0.184379 0
M  V30 229 H 21.8996 -2.547 0.00125792 0
M  V30 230 H 22.6826 -3.0379 1.59896 0
M  V30 231 N 25.1277 -0.289203 -1.54924 0
M  V30 232 C 26.4047 0.376032 -1.91951 0
M  V30 233 C 26.7847 1.72622 -1.21511 0
M  V30 234 O 26.1327 2.25853 -0.346767 0
M  V30 235 C 26.3427 0.502378 -3.45365 0
M  V30 236 C 27.6907 0.778741 -4.17398 0
M  V30 237 O 28.7147 0.586647 -3.51336 0
M  V30 238 O 27.5737 1.14698 -5.34328 0
M  V30 239 H 24.6677 0.208167 -0.800372 0
M  V30 240 H 27.2137 -0.336394 -1.66332 0
M  V30 241 H 25.9857 -0.447255 -3.88736 0
M  V30 242 H 25.6087 1.26373 -3.76982 0
M  V30 243 N 26.6058 1.57591 -0.0167156 0
M  V30 244 C 27.8538 1.90906 0.663285 0
M  V30 245 C 28.1748 0.892509 1.73376 0
M  V30 246 O 27.4448 -0.0677623 1.95783 0
M  V30 247 H 26.0248 0.704637 0.247983 0
M  V30 248 H 28.6868 1.94803 -0.0615909 0
M  V30 249 H 27.7828 2.9116 1.12393 0
M  V30 250 N 28.0839 -0.256276 1.55502 0
M  V30 251 C 29.4999 -0.604325 1.47716 0
M  V30 252 C 29.6999 -1.88763 0.705039 0
M  V30 253 O 28.7559 -2.51445 0.230613 0
M  V30 254 C 30.0689 -0.715756 2.92057 0
M  V30 255 C 31.6169 -0.808706 3.02372 0
M  V30 256 C 32.0919 -0.951777 4.48001 0
M  V30 257 N 33.5829 -1.01688 4.519 0
M  V30 258 C 34.3179 -1.14668 5.61817 0
M  V30 259 N 33.8139 -1.24261 6.81565 0
M  V30 260 N 35.6069 -1.1791 5.49594 0
M  V30 261 H 27.7579 0.586291 2.04148 0
M  V30 262 H 30.0209 0.201015 0.926443 0
M  V30 263 H 29.7269 0.157027 3.51349 0
M  V30 264 H 29.6009 -1.59071 3.42018 0
M  V30 265 H 31.9879 -1.67195 2.43166 0
M  V30 266 H 32.0689 0.0912063 2.55637 0
M  V30 267 H 31.7129 -0.0931291 5.07815 0
M  V30 268 H 31.6429 -1.86659 4.92408 0
M  V30 269 H 34.1339 -0.954468 3.65648 0
M  V30 270 H 34.4469 -1.34046 7.61086 0
M  V30 271 H 32.7919 -1.21236 6.84344 0
M  V30 272 H 35.9829 -1.10057 4.54978 0
M  V30 273 H 36.1559 -1.27681 6.35296 0
M  V30 274 N 29.562 -1.4872 -0.521534 0
M  V30 275 C 30.808 -1.574 -1.27879 0
M  V30 276 C 31.141 -0.250817 -1.92573 0
M  V30 277 O 30.416 0.743934 -1.79711 0
M  V30 278 C 30.699 -2.71843 -2.36164 0
M  V30 279 C 30.552 -4.13893 -1.76105 0
M  V30 280 C 31.871 -2.82008 -3.37875 0
M  V30 281 H 28.99 -0.572941 -0.463581 0
M  V30 282 H 31.632 -1.80927 -0.580119 0
M  V30 283 H 29.782 -2.51914 -2.95756 0
M  V30 284 H 31.454 -4.45284 -1.20499 0
M  V30 285 H 29.697 -4.20498 -1.06601 0
M  V30 286 H 30.368 -4.89804 -2.5455 0
M  V30 287 H 32.844 -3.00086 -2.88249 0
M  V30 288 H 31.72 -3.63796 -4.11028 0
M  V30 289 H 31.981 -1.90511 -3.98946 0
M  V30 290 N 31.0401 0.771051 -1.3745 0
M  V30 291 C 32.2871 1.52963 -1.32697 0
M  V30 292 C 32.6151 1.94299 0.0883274 0
M  V30 293 O 31.8701 1.64397 1.0617 0
M  V30 294 C 32.1691 2.80676 -2.2126 0
M  V30 295 C 31.8351 2.58389 -3.69521 0
M  V30 296 C 30.4971 2.52019 -4.09927 0
M  V30 297 C 32.8491 2.38469 -4.63446 0
M  V30 298 C 30.1771 2.23721 -5.42371 0
M  V30 299 C 32.5291 2.11694 -5.96128 0
M  V30 300 C 31.1931 2.03769 -6.35637 0
M  V30 301 H 30.4631 0.559732 -0.485573 0
M  V30 302 H 33.1101 0.888083 -1.69662 0
M  V30 303 H 31.4151 3.49392 -1.77291 0
M  V30 304 H 33.1121 3.38557 -2.14895 0
M  V30 305 H 29.7021 2.6421 -3.37478 0
M  V30 306 H 33.8861 2.4238 -4.33089 0
M  V30 307 H 29.1421 2.16081 -5.71943 0
M  V30 308 H 33.3161 1.9528 -6.6846 0
M  V30 309 H 30.9431 1.81606 -7.38189 0
M  V30 310 N 32.5182 1.22032 0.997298 0
M  V30 311 C 33.4502 0.944263 2.08845 0
M  V30 312 C 34.4632 -0.0754663 1.62625 0
M  V30 313 O 35.6522 0.157994 1.77799 0
M  V30 314 C 32.7522 0.397723 3.36558 0
M  V30 315 C 31.9252 1.47362 4.11829 0
M  V30 316 C 30.9842 0.934951 5.17827 0
M  V30 317 O 30.0102 1.62016 5.45655 0
M  V30 318 N 31.2122 -0.245895 5.79979 0
M  V30 319 H 33.9772 1.88363 2.33109 0
M  V30 320 H 31.5382 1.12661 1.16272 0
M  V30 321 H 33.5302 0.0227771 4.04694 0
M  V30 322 H 32.1002 -0.446646 3.09393 0
M  V30 323 H 31.3202 2.02208 3.38386 0
M  V30 324 H 32.6082 2.19764 4.58891 0
M  V30 325 H 32.0062 -0.819475 5.59733 0
M  V30 326 H 30.5632 -0.562272 6.4937 0
M  V30 327 N 33.9963 -1.19345 1.0293 0
M  V30 328 C 35.2423 -1.89318 0.727083 0
M  V30 329 C 35.5753 -1.79446 -0.742483 0
M  V30 330 O 34.8503 -1.1871 -1.54072 0
M  V30 331 C 35.1333 -3.40238 1.17942 0
M  V30 332 C 34.9863 -3.58979 2.71024 0
M  V30 333 C 36.3053 -4.33479 0.760548 0
M  V30 334 H 33.4243 -0.687475 0.265606 0
M  V30 335 H 36.0663 -1.40477 1.2793 0
M  V30 336 H 34.2163 -3.81964 0.709608 0
M  V30 337 H 35.8883 -3.26421 3.25955 0
M  V30 338 H 34.1313 -3.02018 3.11396 0
M  V30 339 H 34.8023 -4.64823 2.9773 0
M  V30 340 H 37.2783 -3.99469 1.16464 0
M  V30 341 H 36.1543 -5.37664 1.10493 0
M  V30 342 H 36.4153 -4.40813 -0.337063 0
M  V30 343 N 35.4744 -0.807222 -1.35358 0
M  V30 344 C 36.3844 -0.219594 -2.3357 0
M  V30 345 C 37.4004 0.637734 -1.61892 0
M  V30 346 O 38.5764 0.549336 -1.93763 0
M  V30 347 C 35.6414 0.62158 -3.41083 0
M  V30 348 C 34.7024 -0.256315 -4.28534 0
M  V30 349 C 33.9354 0.544807 -5.30912 0
M  V30 350 O 34.1584 1.77944 -5.41934 0
M  V30 351 O 33.0924 -0.0646478 -6.01865 0
M  V30 352 H 36.9184 -1.03208 -2.85625 0
M  V30 353 H 34.5034 -0.569025 -1.38139 0
M  V30 354 H 36.3854 1.10067 -4.06772 0
M  V30 355 H 35.0604 1.41165 -2.91297 0
M  V30 356 H 33.9674 -0.782559 -3.65823 0
M  V30 357 H 35.3004 -1.01034 -4.81719 0
M  V30 358 N 36.9525 1.47285 -0.560781 0
M  V30 359 C 38.1825 2.06555 -0.0429638 0
M  V30 360 C 38.5905 1.41339 1.25777 0
M  V30 361 O 37.9335 0.505182 1.76617 0
M  V30 362 C 37.9955 3.58827 0.219887 0
M  V30 363 C 37.6595 4.46105 -0.991944 0
M  V30 364 C 38.6565 4.84 -1.89843 0
M  V30 365 C 36.3415 4.87567 -1.20762 0
M  V30 366 C 38.3355 5.6216 -3.00425 0
M  V30 367 C 36.0225 5.65491 -2.31653 0
M  V30 368 C 37.0205 6.02699 -3.21315 0
M  V30 369 O 36.7085 6.79052 -4.30283 0
M  V30 370 H 36.4405 0.674537 -0.0444468 0
M  V30 371 H 38.9945 1.90225 -0.774818 0
M  V30 372 H 37.2245 3.73383 1.00609 0
M  V30 373 H 38.9135 4.00103 0.683522 0
M  V30 374 H 39.6795 4.52564 -1.74387 0
M  V30 375 H 35.5585 4.5807 -0.518893 0
M  V30 376 H 39.1025 5.9112 -3.70436 0
M  V30 377 H 34.9995 5.9634 -2.47081 0
M  V30 378 H 35.7675 6.9745 -4.28376 0
M  V30 379 N 38.4306 0.297415 1.54768 0
M  V30 380 C 39.3936 -0.567375 2.22066 0
M  V30 381 C 40.3936 -1.06409 1.20556 0
M  V30 382 O 41.5836 -0.960691 1.45315 0
M  V30 383 C 38.7156 -1.78517 2.90421 0
M  V30 384 H 39.9086 0.0205534 2.99893 0
M  V30 385 H 37.4616 0.0482163 1.56226 0
M  V30 386 H 38.1966 -2.41303 2.16664 0
M  V30 387 H 37.9816 -1.43669 3.64831 0
M  V30 388 H 39.4716 -2.39964 3.41771 0
M  V30 389 N 39.9087 -1.5758 0.0250728 0
M  V30 390 C 40.8417 -2.05473 -0.992777 0
M  V30 391 C 41.8197 -0.949661 -1.31986 0
M  V30 392 O 43.0037 -1.21969 -1.43722 0
M  V30 393 C 40.1307 -2.4734 -2.31389 0
M  V30 394 C 39.1767 -3.68827 -2.1417 0
M  V30 395 S 40.0097 -5.15655 -1.44429 0
M  V30 396 C 41.1657 -5.60814 -2.77918 0
M  V30 397 H 41.3987 -2.91486 -0.585078 0
M  V30 398 H 38.9317 -1.53269 -0.186507 0
M  V30 399 H 40.8897 -2.72127 -3.07339 0
M  V30 400 H 39.5507 -1.6168 -2.69292 0
M  V30 401 H 38.7437 -3.95955 -3.11826 0
M  V30 402 H 38.3457 -3.44172 -1.46362 0
M  V30 403 H 40.6377 -5.64806 -3.74166 0
M  V30 404 H 41.5807 -6.60414 -2.55459 0
M  V30 405 H 41.9887 -4.8845 -2.82979 0
M  V30 406 N 41.3868 0.248026 -1.55636 0
M  V30 407 C 42.3338 1.30707 -1.90222 0
M  V30 408 C 43.3038 1.47881 -0.756332 0
M  V30 409 O 44.4888 1.61883 -1.00988 0
M  V30 410 C 41.6288 2.65769 -2.20138 0
M  V30 411 C 40.7418 2.56612 -3.47526 0
M  V30 412 C 39.8768 3.8402 -3.67017 0
M  V30 413 C 38.9158 3.69476 -4.8801 0
M  V30 414 N 38.0528 4.88774 -5.04029 0
M  V30 415 H 42.8928 1.00512 -2.80538 0
M  V30 416 H 40.4298 0.485055 -1.38873 0
M  V30 417 H 42.3878 3.44386 -2.35487 0
M  V30 418 H 41.0178 2.94115 -1.33027 0
M  V30 419 H 40.0698 1.69571 -3.40514 0
M  V30 420 H 41.3818 2.41774 -4.36287 0
M  V30 421 H 40.5358 4.7108 -3.8232 0
M  V30 422 H 39.2748 4.01754 -2.76487 0
M  V30 423 H 38.2798 2.80799 -4.72686 0
M  V30 424 H 39.5048 3.53238 -5.8 0
M  V30 425 H 37.4508 5.0687 -4.16435 0
M  V30 426 H 37.3678 4.76562 -5.86877 0
M  V30 427 H 38.6358 5.77335 -5.23741 0
M  V30 428 N 42.8649 1.48995 0.513639 0
M  V30 429 C 43.8279 1.64229 1.59879 0
M  V30 430 C 44.8279 0.514696 1.5234 0
M  V30 431 O 46.0179 0.78087 1.55718 0
M  V30 432 C 43.1499 1.62783 2.99524 0
M  V30 433 H 44.3429 2.61004 1.47705 0
M  V30 434 H 41.8959 1.37837 0.736936 0
M  V30 435 H 42.6309 0.675461 3.17188 0
M  V30 436 H 42.4159 2.4466 3.06404 0
M  V30 437 H 43.9059 1.76669 3.78388 0
M  V30 438 N 44.343 -0.763751 1.37857 0
M  V30 439 C 45.589 -1.52483 1.33704 0
M  V30 440 C 45.922 -1.94051 -0.0759612 0
M  V30 441 O 45.197 -1.64675 -1.03501 0
M  V30 442 C 45.48 -2.78441 2.28348 0
M  V30 443 C 45.333 -2.43075 3.78463 0
M  V30 444 C 46.652 -3.80415 2.21298 0
M  V30 445 H 43.771 -0.553169 0.487005 0
M  V30 446 H 46.413 -0.875562 1.68624 0
M  V30 447 H 44.563 -3.33842 1.987 0
M  V30 448 H 46.235 -1.93527 4.18742 0
M  V30 449 H 44.478 -1.75666 3.96641 0
M  V30 450 H 45.149 -3.33149 4.40132 0
M  V30 451 H 47.625 -3.34527 2.47449 0
M  V30 452 H 46.501 -4.66257 2.89647 0
M  V30 453 H 46.762 -4.25262 1.20849 0
M  V30 454 N 45.8211 -1.22559 -0.990812 0
M  V30 455 C 46.7311 -1.01394 -2.11557 0
M  V30 456 C 47.7471 0.0383962 -1.73958 0
M  V30 457 O 48.9231 -0.154787 -2.00804 0
M  V30 458 C 45.9881 -0.596569 -3.41529 0
M  V30 459 C 45.0491 -1.72276 -3.93217 0
M  V30 460 C 44.2821 -1.32521 -5.16985 0
M  V30 461 O 44.5051 -0.204909 -5.70032 0
M  V30 462 O 43.4391 -2.14247 -5.62478 0
M  V30 463 H 47.2651 -1.95633 -2.32296 0
M  V30 464 H 44.8501 -1.01172 -1.0993 0
M  V30 465 H 46.7321 -0.374263 -4.19735 0
M  V30 466 H 45.4071 0.316939 -3.22145 0
M  V30 467 H 44.3141 -1.99961 -3.16174 0
M  V30 468 H 45.6471 -2.61421 -4.17037 0
M  V30 469 N 47.2992 1.18797 -1.03562 0
M  V30 470 C 48.2472 2.24297 -0.615905 0
M  V30 471 C 49.2412 1.65643 0.354808 0
M  V30 472 O 50.4472 1.78618 0.22265 0
M  V30 473 H 46.8222 0.729909 -0.180934 0
M  V30 474 H 48.7932 2.5701 -1.5162 0
M  V30 475 C 47.5422 3.47698 0.0104735 0
M  V30 476 H 46.8652 3.93125 -0.727509 0
M  V30 477 H 48.3052 4.23159 0.266995 0
M  V30 478 C 46.7642 3.12489 1.25905 0
M  V30 479 O 47.2942 3.25761 2.35038 0
M  V30 480 N 45.5002 2.6686 1.15039 0
M  V30 481 H 45.0472 2.56261 0.262328 0
M  V30 482 H 45.0052 2.43674 1.98672 0
M  V30 483 N 48.7773 0.814389 1.34928 0
M  V30 484 C 50.0023 0.410097 2.03305 0
M  V30 485 C 50.4273 -0.973464 1.60951 0
M  V30 486 O 49.7853 -1.63185 0.789964 0
M  V30 487 C 49.8333 0.51049 3.56968 0
M  V30 488 O 48.9373 -0.473035 4.09678 0
M  V30 489 H 48.2783 0.170088 0.641846 0
M  V30 490 H 50.8083 1.10244 1.72358 0
M  V30 491 H 50.8183 0.383135 4.06197 0
M  V30 492 H 49.4933 1.51963 3.87144 0
M  V30 493 H 48.0703 -0.305272 3.71648 0
M  V30 494 N 50.2554 -1.46986 0.568584 0
M  V30 495 C 51.4804 -2.07335 0.0520528 0
M  V30 496 C 51.9054 -1.41675 -1.23733 0
M  V30 497 O 51.2634 -0.495623 -1.74394 0
M  V30 498 C 51.3114 -3.60417 -0.11501 0
M  V30 499 O 50.4154 -3.95309 -1.17492 0
M  V30 500 H 49.7564 -0.661597 0.0564385 0
M  V30 501 H 52.2864 -1.88837 0.787507 0
M  V30 502 H 52.2964 -4.06698 -0.325644 0
M  V30 503 H 50.9714 -4.07601 0.826675 0
M  V30 504 H 49.5484 -3.60757 -0.943869 0
M  V30 505 N 51.7335 -0.305618 -1.54608 0
M  V30 506 C 52.9615 0.304775 -2.04643 0
M  V30 507 C 53.3765 1.47167 -1.18268 0
M  V30 508 O 52.7335 1.81296 -0.209328 0
M  V30 509 C 52.7845 0.756564 -3.53495 0
M  V30 510 O 52.5055 -0.36389 -4.36586 0
M  V30 511 C 54.0065 1.43163 -4.19546 0
M  V30 512 H 51.2265 0.0655481 -0.667791 0
M  V30 513 H 53.7705 -0.446592 -1.99564 0
M  V30 514 H 51.9255 1.45794 -3.58919 0
M  V30 515 H 52.3395 -0.0113121 -5.24499 0
M  V30 516 H 53.8135 1.69886 -5.25207 0
M  V30 517 H 54.2905 2.37318 -3.69563 0
M  V30 518 H 54.8965 0.773307 -4.18211 0
M  V30 519 N 53.2116 1.57565 -0.0334293 0
M  V30 520 C 54.1746 2.09393 0.932048 0
M  V30 521 C 55.1746 1.00986 1.25134 0
M  V30 522 O 56.3646 1.27129 1.19096 0
M  V30 523 C 53.4966 2.56338 2.2473 0
M  V30 524 H 54.6896 2.95984 0.483085 0
M  V30 525 H 52.2426 1.54819 0.21468 0
M  V30 526 H 52.9776 1.7309 2.74245 0
M  V30 527 H 52.7626 3.35542 2.02865 0
M  V30 528 H 54.2526 2.96646 2.93923 0
M  V30 529 N 54.6897 -0.239769 1.55765 0
M  V30 530 C 55.9387 -0.964754 1.77131 0
M  V30 531 C 56.2517 -1.86213 0.59868 0
M  V30 532 O 57.4577 -2.6244 0.695522 0
M  V30 533 C 55.9137 -1.76552 3.1362 0
M  V30 534 C 55.5217 -0.915185 4.38553 0
M  V30 535 C 57.2657 -2.48281 3.44321 0
M  V30 536 C 55.1727 -1.71225 5.66071 0
M  V30 537 H 54.1027 -0.363953 0.660344 0
M  V30 538 H 56.7537 -0.219181 1.82186 0
M  V30 539 H 55.1357 -2.55331 3.02691 0
M  V30 540 H 56.3097 -0.169217 4.60489 0
M  V30 541 H 54.6247 -0.310889 4.15238 0
M  V30 542 H 57.2217 -3.08382 4.36812 0
M  V30 543 H 57.5647 -3.20256 2.65973 0
M  V30 544 H 58.0977 -1.76507 3.56497 0
M  V30 545 H 54.8367 -1.03612 6.4726 0
M  V30 546 H 54.3567 -2.43331 5.48224 0
M  V30 547 H 56.0357 -2.27758 6.05587 0
M  V30 548 N 56.1678 -1.49265 -0.50573 0
M  V30 549 C 57.4158 -1.582 -1.25766 0
M  V30 550 C 57.7368 -0.268482 -1.93143 0
M  V30 551 O 57.0068 0.711833 -1.8251 0
M  V30 552 H 55.5868 -0.582873 -0.467191 0
M  V30 553 H 58.2488 -1.85865 -0.586525 0
M  V30 554 H 57.3448 -2.37563 -2.02412 0
M  V30 555 N 57.6459 0.756429 -1.3826 0
M  V30 556 C 58.8949 1.51082 -1.3363 0
M  V30 557 C 59.2079 1.95467 0.0720068 0
M  V30 558 O 60.4139 2.7043 0.240834 0
M  V30 559 C 58.8699 2.72893 -2.34644 0
M  V30 560 C 58.4779 2.35544 -3.81081 0
M  V30 561 C 60.2219 3.50791 -2.39052 0
M  V30 562 C 58.1289 3.53948 -4.73787 0
M  V30 563 H 57.0589 0.56727 -0.49671 0
M  V30 564 H 59.7099 0.827147 -1.638 0
M  V30 565 H 58.0919 3.43227 -1.97513 0
M  V30 566 H 59.2659 1.72894 -4.27135 0
M  V30 567 H 57.5809 1.70786 -3.79764 0
M  V30 568 H 60.1779 4.38823 -3.05513 0
M  V30 569 H 60.5209 3.91745 -1.40861 0
M  V30 570 H 61.0539 2.87467 -2.74968 0
M  V30 571 H 57.7929 3.18064 -5.73163 0
M  V30 572 H 57.3129 4.15651 -4.32428 0
M  V30 573 H 58.9919 4.20566 -4.91663 0
M  V30 574 N 59.124 1.23083 0.984299 0
M  V30 575 C 60.54 0.992637 1.24975 0
M  V30 576 C 60.74 -0.308618 1.99123 0
M  V30 577 O 59.796 -1.02905 2.30579 0
M  V30 578 C 61.109 2.19698 2.05312 0
M  V30 579 C 62.657 2.24147 2.18465 0
M  V30 580 C 63.132 3.44157 3.02192 0
M  V30 581 N 64.623 3.44372 3.09777 0
M  V30 582 C 65.358 4.33886 3.74874 0
M  V30 583 N 64.854 5.3363 4.41827 0
M  V30 584 N 66.647 4.21639 3.71721 0
M  V30 585 H 58.798 2.06731 0.487453 0
M  V30 586 H 61.061 0.906339 0.277944 0
M  V30 587 H 60.767 3.1411 1.58201 0
M  V30 588 H 60.641 2.20465 3.06064 0
M  V30 589 H 63.028 1.30277 2.64786 0
M  V30 590 H 63.109 2.27415 1.17115 0
M  V30 591 H 62.753 4.38332 2.56568 0
M  V30 592 H 62.683 3.3813 4.03702 0
M  V30 593 H 65.174 2.72201 2.62135 0
M  V30 594 H 65.487 5.98196 4.89266 0
M  V30 595 H 63.832 5.37534 4.40548 0
M  V30 596 H 67.023 3.42962 3.18582 0
M  V30 597 H 67.196 4.91604 4.22173 0
M  V30 598 N 60.6021 -1.18246 1.0419 0
M  V30 599 C 61.8421 -1.89948 0.754916 0
M  V30 600 C 62.2061 -1.78608 -0.70451 0
M  V30 601 O 63.4071 -2.4503 -1.10516 0
M  V30 602 C 61.6781 -3.36305 1.20969 0
M  V30 603 S 63.2371 -4.26088 1.04854 0
M  V30 604 H 60.0551 -0.655897 0.274446 0
M  V30 605 H 62.6571 -1.42873 1.33445 0
M  V30 606 H 61.3611 -3.42089 2.26722 0
M  V30 607 H 60.8921 -3.8842 0.624004 0
M  V30 608 H 62.9071 -4.96189 -0.0332896 0
M  V30 609 N 62.0802 -0.821533 -1.34494 0
M  V30 610 C 63.0272 -0.240397 -2.29545 0
M  V30 611 C 63.9972 0.634031 -1.53523 0
M  V30 612 O 65.1822 0.575966 -1.81899 0
M  V30 613 C 62.3222 0.592869 -3.39969 0
M  V30 614 C 61.4352 -0.30365 -4.30932 0
M  V30 615 C 60.5702 0.539049 -5.28458 0
M  V30 616 C 59.6092 -0.356942 -6.11058 0
M  V30 617 N 58.7462 0.446603 -7.00678 0
M  V30 618 H 63.5862 -1.05632 -2.7865 0
M  V30 619 H 61.1232 -0.532413 -1.37127 0
M  V30 620 H 63.0812 1.09129 -4.02675 0
M  V30 621 H 61.7112 1.37392 -2.92102 0
M  V30 622 H 60.7632 -0.920276 -3.691 0
M  V30 623 H 62.0752 -0.992661 -4.88823 0
M  V30 624 H 61.2292 1.102 -5.96608 0
M  V30 625 H 59.9682 1.26157 -4.71101 0
M  V30 626 H 58.9732 -0.932047 -5.41842 0
M  V30 627 H 60.1982 -1.07755 -6.70497 0
M  V30 628 H 58.1442 1.15282 -6.45791 0
M  V30 629 H 58.0612 -0.184048 -7.55776 0
M  V30 630 H 59.3292 0.992352 -7.73158 0
M  V30 631 N 63.5583 1.46682 -0.576371 0
M  V30 632 C 64.8353 1.95599 0.00703437 0
M  V30 633 C 65.2153 1.51904 1.46589 0
M  V30 634 O 64.5633 0.766755 2.15251 0
M  V30 635 C 64.7733 3.4864 -0.158404 0
M  V30 636 C 66.1213 4.24594 -0.0229439 0
M  V30 637 O 67.1453 3.56094 -0.0869173 0
M  V30 638 O 66.0043 5.46373 0.118015 0
M  V30 639 H 63.0983 0.825275 0.053384 0
M  V30 640 H 65.6443 1.56996 -0.644244 0
M  V30 641 H 64.4163 3.7331 -1.17282 0
M  V30 642 H 64.0393 3.94057 0.5296 0
M  V30 643 N 65.0364 0.313813 1.54444 0
M  V30 644 C 66.2844 -0.291099 1.99993 0
M  V30 645 C 66.6054 -1.53418 1.20366 0
M  V30 646 O 65.8754 -1.93544 0.302927 0
M  V30 647 H 64.4554 -0.110552 0.738774 0
M  V30 648 H 67.1174 0.428106 1.9014 0
M  V30 649 H 66.2134 -0.554268 3.07139 0
M  V30 650 N 66.5145 -1.57545 0.0417849 0
M  V30 651 C 67.7605 -1.92601 -0.635021 0
M  V30 652 C 68.0935 -0.919627 -1.71045 0
M  V30 653 O 67.3685 0.0557892 -1.9442 0
M  V30 654 C 67.6515 -3.38085 -1.23979 0
M  V30 655 C 67.5045 -4.49467 -0.173057 0
M  V30 656 C 68.8235 -3.83776 -2.15416 0
M  V30 657 H 65.9425 -0.700397 -0.229374 0
M  V30 658 H 68.5845 -1.89728 0.101633 0
M  V30 659 H 66.7345 -3.40664 -1.86762 0
M  V30 660 H 68.4065 -4.59018 0.458312 0
M  V30 661 H 66.6495 -4.30909 0.499996 0
M  V30 662 H 67.3205 -5.48323 -0.636054 0
M  V30 663 H 69.7965 -3.83013 -1.62605 0
M  V30 664 H 68.6725 -4.8624 -2.54679 0
M  V30 665 H 68.9335 -3.19998 -3.05047 0
M  V30 666 N 67.9926 0.231505 -1.5589 0
M  V30 667 C 69.2386 0.95877 -1.78705 0
M  V30 668 C 69.5716 1.8438 -0.609725 0
M  V30 669 O 68.8466 1.90521 0.391426 0
M  V30 670 C 69.1296 1.8062 -3.11526 0
M  V30 671 C 68.9826 0.948328 -4.39689 0
M  V30 672 C 70.3016 2.78585 -3.40703 0
M  V30 673 H 67.4206 0.347129 -0.650131 0
M  V30 674 H 70.0626 0.228259 -1.88624 0
M  V30 675 H 68.2126 2.42902 -3.03201 0
M  V30 676 H 69.8846 0.343016 -4.60023 0
M  V30 677 H 68.1276 0.253314 -4.3306 0
M  V30 678 H 68.7986 1.57543 -5.29041 0
M  V30 679 H 71.2746 2.26439 -3.49091 0
M  V30 680 H 70.1506 3.34988 -4.34826 0
M  V30 681 H 70.4116 3.55825 -2.62375 0
M  V30 682 N 69.4707 1.49531 0.497807 0
M  V30 683 C 70.7177 1.59179 1.25173 0
M  V30 684 C 71.0457 0.279932 1.92475 0
M  V30 685 O 70.3007 -0.732383 1.81479 0
M  V30 686 C 70.5997 2.70252 2.33878 0
M  V30 687 C 70.2657 4.11644 1.84012 0
M  V30 688 C 68.9277 4.50121 1.70132 0
M  V30 689 C 71.2797 5.00121 1.46725 0
M  V30 690 C 68.6077 5.74845 1.17348 0
M  V30 691 C 70.9597 6.25366 0.95392 0
M  V30 692 C 69.6237 6.6267 0.801538 0
M  V30 693 H 68.8937 0.582478 0.45804 0
M  V30 694 H 71.5407 1.83373 0.551948 0
M  V30 695 H 69.8457 2.40041 3.09657 0
M  V30 696 H 71.5427 2.74925 2.9192 0
M  V30 697 H 68.1327 3.81274 1.95775 0
M  V30 698 H 72.3167 4.71048 1.56294 0
M  V30 699 H 67.5727 6.02444 1.04264 0
M  V30 700 H 71.7467 6.93301 0.656225 0
M  V30 701 H 69.3737 7.59197 0.390351 0
M  V30 702 N 70.9488 -0.749086 1.3866 0
M  V30 703 C 72.1968 -1.50535 1.34847 0
M  V30 704 C 72.5178 -1.94909 -0.0595016 0
M  V30 705 O 71.7878 -1.67973 -1.00806 0
M  V30 706 H 70.3678 -0.558395 0.49619 0
M  V30 707 H 73.0298 -0.890165 1.73384 0
M  V30 708 H 72.1258 -2.39413 2.00219 0
M  V30 709 N 72.4269 -1.23603 -0.977757 0
M  V30 710 C 73.6729 -1.07129 -1.72195 0
M  V30 711 C 74.0059 0.390501 -1.90233 0
M  V30 712 O 73.2809 1.28902 -1.45653 0
M  V30 713 C 73.5639 -1.80031 -3.11867 0
M  V30 714 C 73.4169 -3.33899 -3.01383 0
M  V30 715 C 74.7359 -1.56492 -4.11337 0
M  V30 716 H 71.8549 -0.390571 -0.624999 0
M  V30 717 H 74.4969 -1.52142 -1.13811 0
M  V30 718 H 72.6469 -1.41768 -3.6171 0
M  V30 719 H 74.3189 -3.81699 -2.59043 0
M  V30 720 H 72.5619 -3.62796 -2.37827 0
M  V30 721 H 73.2329 -3.801 -4.00285 0
M  V30 722 H 75.7089 -1.89757 -3.70313 0
M  V30 723 H 74.5849 -2.09973 -5.07151 0
M  V30 724 H 74.8459 -0.500874 -4.39254 0
M  V30 725 N 73.905 1.17692 -1.04816 0
M  V30 726 C 74.815 2.25229 -0.65643 0
M  V30 727 C 75.831 1.71018 0.320761 0
M  V30 728 O 77.007 2.00649 0.173805 0
M  V30 729 C 74.072 3.46684 -0.0332629 0
M  V30 730 C 73.133 4.15997 -1.06042 0
M  V30 731 C 72.366 5.31654 -0.466893 0
M  V30 732 O 72.589 5.65777 0.724758 0
M  V30 733 O 71.523 5.89831 -1.1993 0
M  V30 734 H 75.349 2.61016 -1.55255 0
M  V30 735 H 72.934 1.24919 -0.81949 0
M  V30 736 H 74.816 4.20234 0.313256 0
M  V30 737 H 73.491 3.12703 0.836566 0
M  V30 738 H 72.398 3.44482 -1.45886 0
M  V30 739 H 73.731 4.53996 -1.90127 0
M  V30 740 N 75.3831 0.828654 1.34056 0
M  V30 741 C 76.3301 0.252567 2.29414 0
M  V30 742 C 77.3001 -0.62588 1.53857 0
M  V30 743 O 78.4851 -0.566312 1.82202 0
M  V30 744 C 75.6251 -0.574831 3.40279 0
M  V30 745 C 74.7381 0.326499 4.30764 0
M  V30 746 C 73.8731 -0.511016 5.28736 0
M  V30 747 C 72.9121 0.389342 6.1086 0
M  V30 748 N 72.0491 -0.409439 7.00905 0
M  V30 749 H 76.8891 1.07108 2.78086 0
M  V30 750 H 74.4261 0.539677 1.36843 0
M  V30 751 H 76.3841 -1.06992 4.03248 0
M  V30 752 H 75.0141 -1.35841 2.92826 0
M  V30 753 H 74.0661 0.939837 3.68607 0
M  V30 754 H 75.3781 1.01857 4.88289 0
M  V30 755 H 74.5321 -1.07035 5.97184 0
M  V30 756 H 73.2711 -1.23657 4.71763 0
M  V30 757 H 72.2761 0.960769 5.4134 0
M  V30 758 H 73.5011 1.1131 6.69916 0
M  V30 759 H 71.4471 -1.11856 6.46393 0
M  V30 760 H 71.3641 0.224126 7.55668 0
M  V30 761 H 72.6321 -0.951336 7.73673 0
M  V30 762 N 76.8612 -1.46375 0.584142 0
M  V30 763 C 77.7912 -2.33103 -0.136037 0
M  V30 764 C 78.7722 -1.45431 -0.882255 0
M  V30 765 O 79.9572 -1.74246 -0.857434 0
M  V30 766 C 77.0872 -3.27731 -1.14933 0
M  V30 767 C 76.0412 -4.24855 -0.517862 0
M  V30 768 C 75.3672 -5.09001 -1.63773 0
M  V30 769 C 76.6672 -5.19439 0.545886 0
M  V30 770 H 78.3612 -2.93568 0.588086 0
M  V30 771 H 75.9072 -1.41166 0.284259 0
M  V30 772 H 77.8602 -3.87261 -1.66153 0
M  V30 773 H 76.5842 -2.65377 -1.90375 0
M  V30 774 H 75.2432 -3.6659 -0.0267361 0
M  V30 775 H 74.8912 -4.43031 -2.38185 0
M  V30 776 H 74.5912 -5.74777 -1.22085 0
M  V30 777 H 76.1152 -5.71396 -2.15266 0
M  V30 778 H 77.5292 -5.73177 0.118704 0
M  V30 779 H 75.9262 -5.93566 0.88317 0
M  V30 780 H 76.9962 -4.63285 1.43162 0
M  V30 781 N 78.3393 -0.321999 -1.54275 0
M  V30 782 C 79.5853 0.281461 -2.00837 0
M  V30 783 C 79.9183 1.51909 -1.20985 0
M  V30 784 O 79.1933 1.923 -0.291733 0
M  V30 785 C 79.4763 0.617162 -3.54772 0
M  V30 786 C 79.3293 -0.631064 -4.45351 0
M  V30 787 C 80.6483 1.43542 -4.16033 0
M  V30 788 H 77.7673 0.100826 -0.730071 0
M  V30 789 H 80.4093 -0.438268 -1.84876 0
M  V30 790 H 78.5593 1.23034 -3.68504 0
M  V30 791 H 80.2313 -1.26934 -4.43492 0
M  V30 792 H 78.4743 -1.26025 -4.15091 0
M  V30 793 H 79.1453 -0.351735 -5.50878 0
M  V30 794 H 81.6213 0.917134 -4.05867 0
M  V30 795 H 80.4973 1.63907 -5.23856 0
M  V30 796 H 80.7583 2.43108 -3.69257 0
M  V30 797 N 79.8174 1.5752 -0.0501392 0
M  V30 798 C 80.7474 2.14502 0.922566 0
M  V30 799 C 81.7284 1.06642 1.3252 0
M  V30 800 O 82.9134 1.34577 1.4001 0
M  V30 801 C 80.0434 2.68916 2.19776 0
M  V30 802 C 78.9974 3.8175 1.93523 0
M  V30 803 C 78.3234 4.22677 3.27487 0
M  V30 804 C 79.6234 5.06932 1.25765 0
M  V30 805 H 81.3174 2.9603 0.447952 0
M  V30 806 H 78.8634 1.42401 0.214024 0
M  V30 807 H 80.8164 3.07419 2.88222 0
M  V30 808 H 79.5404 1.84578 2.69441 0
M  V30 809 H 78.1994 3.43718 1.27489 0
M  V30 810 H 77.8474 3.35291 3.74952 0
M  V30 811 H 77.5474 4.98725 3.1072 0
M  V30 812 H 79.0714 4.63779 3.97166 0
M  V30 813 H 80.4854 5.42888 1.84244 0
M  V30 814 H 78.8824 5.88116 1.19328 0
M  V30 815 H 79.9524 4.84337 0.233536 0
M  V30 816 N 81.2955 -0.223234 1.56011 0
M  V30 817 C 82.5205 -0.968978 1.83373 0
M  V30 818 C 82.9455 -1.77227 0.630254 0
M  V30 819 O 82.3035 -1.76345 -0.420959 0
M  V30 820 C 82.3515 -1.86363 3.08709 0
M  V30 821 O 81.4555 -2.95873 2.87285 0
M  V30 822 H 80.7965 -0.274461 0.604622 0
M  V30 823 H 83.3265 -0.237056 2.03222 0
M  V30 824 H 83.3365 -2.27376 3.38768 0
M  V30 825 H 82.0115 -1.27319 3.95933 0
M  V30 826 H 80.5885 -2.58818 2.68454 0
M  V30 827 N 82.7736 -1.49793 -0.48987 0
M  V30 828 C 83.7206 -1.67281 -1.59014 0
M  V30 829 C 84.6906 -0.514177 -1.57941 0
M  V30 830 O 85.8756 -0.742533 -1.75759 0
M  V30 831 C 83.0156 -1.75569 -2.97102 0
M  V30 832 C 82.1286 -3.0281 -3.08107 0
M  V30 833 C 81.2636 -3.02008 -4.36995 0
M  V30 834 C 80.3026 -4.23782 -4.41673 0
M  V30 835 N 79.4396 -4.20826 -5.62005 0
M  V30 836 H 84.2796 -2.61224 -1.43409 0
M  V30 837 H 81.8166 -1.29508 -0.697565 0
M  V30 838 H 83.7746 -1.78354 -3.77155 0
M  V30 839 H 82.4046 -0.850827 -3.11385 0
M  V30 840 H 81.4566 -3.09584 -2.21047 0
M  V30 841 H 82.7686 -3.92801 -3.07423 0
M  V30 842 H 81.9226 -3.03418 -5.25378 0
M  V30 843 H 80.6616 -2.09815 -4.4026 0
M  V30 844 H 79.6666 -4.22604 -3.5169 0
M  V30 845 H 80.8916 -5.17181 -4.40115 0
M  V30 846 H 78.8376 -3.31476 -5.66091 0
M  V30 847 H 78.7546 -5.04564 -5.62984 0
M  V30 848 H 80.0226 -4.26355 -6.52565 0
M  V30 849 N 84.2517 0.741722 -1.39055 0
M  V30 850 C 85.1817 1.869 -1.39966 0
M  V30 851 C 86.1627 1.6804 -0.26392 0
M  V30 852 O 87.3477 1.88458 -0.468755 0
M  V30 853 C 84.4777 3.24572 -1.23574 0
M  V30 854 C 83.4317 3.58056 -2.34477 0
M  V30 855 C 82.7577 4.94593 -2.0318 0
M  V30 856 C 84.0577 3.61716 -3.76774 0
M  V30 857 H 85.7517 1.86395 -2.34302 0
M  V30 858 H 83.2977 0.895361 -1.1278 0
M  V30 859 H 85.2507 4.031 -1.22834 0
M  V30 860 H 83.9747 3.25587 -0.257045 0
M  V30 861 H 82.6337 2.81854 -2.34423 0
M  V30 862 H 82.2817 4.92181 -1.03765 0
M  V30 863 H 81.9817 5.17964 -2.77465 0
M  V30 864 H 83.5057 5.75486 -2.04079 0
M  V30 865 H 84.9197 4.30335 -3.78794 0
M  V30 866 H 83.3167 3.96603 -4.50362 0
M  V30 867 H 84.3867 2.61672 -4.08235 0
M  V30 868 N 85.7298 1.2412 0.971189 0
M  V30 869 C 86.9598 1.10415 1.7462 0
M  V30 870 C 87.3678 -0.346462 1.86001 0
M  V30 871 O 86.7108 -1.25104 1.34517 0
M  V30 872 C 86.7728 1.66596 3.18568 0
M  V30 873 C 86.4368 3.15446 3.3067 0
M  V30 874 C 87.4338 4.12636 3.16271 0
M  V30 875 C 85.1188 3.55337 3.55022 0
M  V30 876 C 87.1128 5.47699 3.26044 0
M  V30 877 C 84.7998 4.90542 3.64434 0
M  V30 878 C 85.7978 5.86532 3.49956 0
M  V30 879 O 85.4858 7.19279 3.59017 0
M  V30 880 H 85.2178 0.386616 0.55453 0
M  V30 881 H 87.7718 1.64633 1.22821 0
M  V30 882 H 86.0018 1.06808 3.71657 0
M  V30 883 H 87.6908 1.48232 3.77865 0
M  V30 884 H 88.4568 3.8316 2.97344 0
M  V30 885 H 84.3358 2.8113 3.65359 0
M  V30 886 H 87.8798 6.22603 3.14661 0
M  V30 887 H 83.7768 5.19691 3.82873 0
M  V30 888 H 84.5448 7.27153 3.75754 0
M  V30 889 N 87.2079 -1.17134 1.05439 0
M  V30 890 C 88.1179 -2.24878 0.668365 0
M  V30 891 C 89.1339 -1.71186 -0.311687 0
M  V30 892 O 90.3099 -2.00738 -0.163161 0
M  V30 893 C 87.3749 -3.46662 0.051648 0
M  V30 894 C 86.4359 -4.15429 1.08246 0
M  V30 895 C 85.6689 -5.31399 0.495082 0
M  V30 896 O 85.8919 -5.66153 -0.694743 0
M  V30 897 O 84.8259 -5.89187 1.23056 0
M  V30 898 H 88.6519 -2.60189 1.56637 0
M  V30 899 H 86.2369 -1.24482 0.826104 0
M  V30 900 H 88.1189 -4.20394 -0.290966 0
M  V30 901 H 86.7939 -3.13142 -0.819971 0
M  V30 902 H 85.7009 -3.43704 1.47711 0
M  V30 903 H 87.0339 -4.52982 1.92532 0
M  V30 904 N 88.686 -0.835752 -1.33615 0
M  V30 905 C 89.596 -0.269088 -2.33052 0
M  V30 906 C 90.612 0.603251 -1.63208 0
M  V30 907 O 91.788 0.508112 -1.94885 0
M  V30 908 C 88.853 0.549091 -3.42324 0
M  V30 909 C 87.914 -0.347156 -4.27894 0
M  V30 910 C 87.147 0.43207 -5.31948 0
M  V30 911 O 87.37 1.66409 -5.45586 0
M  V30 912 O 86.304 -0.192298 -6.01593 0
M  V30 913 H 90.13 -1.09243 -2.83372 0
M  V30 914 H 87.715 -0.598198 -1.36901 0
M  V30 915 H 89.597 1.01414 -4.09015 0
M  V30 916 H 88.272 1.34955 -2.94226 0
M  V30 917 H 87.179 -0.859979 -3.64081 0
M  V30 918 H 88.512 -1.1123 -4.79467 0
M  V30 919 N 90.1641 1.46063 -0.591896 0
M  V30 920 C 91.4121 2.01938 -0.0808391 0
M  V30 921 C 91.7331 1.46475 1.28725 0
M  V30 922 O 91.0031 0.652944 1.84698 0
M  V30 923 H 89.5831 0.746516 -0.0268938 0
M  V30 924 H 92.2451 1.79055 -0.769752 0
M  V30 925 H 91.3411 3.12094 -0.0187578 0
M  V30 926 N 91.6422 0.330177 1.54103 0
M  V30 927 C 92.8672 -0.274893 2.0557 0
M  V30 928 C 93.2922 -1.44487 1.20437 0
M  V30 929 O 92.6502 -1.80021 0.214991 0
M  V30 930 C 92.6982 -0.68079 3.54115 0
M  V30 931 O 91.8022 -1.7824 3.71893 0
M  V30 932 H 91.1432 -0.0483849 0.662235 0
M  V30 933 H 93.6732 0.480508 1.98878 0
M  V30 934 H 93.6832 -0.961635 3.96505 0
M  V30 935 H 92.3582 0.174903 4.15532 0
M  V30 936 H 90.9352 -1.49985 3.41407 0
M  V30 937 N 93.1203 -1.57491 0.0584922 0
M  V30 938 C 94.0683 -2.13148 -0.931168 0
M  V30 939 C 95.0623 -1.06507 -1.31729 0
M  V30 940 O 96.2683 -1.24906 -1.29609 0
M  V30 941 H 92.6433 -0.68137 -0.31818 0
M  V30 942 H 94.6143 -2.95187 -0.436707 0
M  V30 943 C 93.3633 -2.69732 -2.19408 0
M  V30 944 H 92.6863 -3.51454 -1.90578 0
M  V30 945 H 94.1263 -3.12287 -2.86798 0
M  V30 946 C 92.5853 -1.63855 -2.94369 0
M  V30 947 O 93.1153 -1.05565 -3.87581 0
M  V30 948 N 91.3213 -1.35202 -2.57233 0
M  V30 949 H 90.8683 -1.82791 -1.81508 0
M  V30 950 H 90.8263 -0.645922 -3.07693 0
M  V30 951 N 94.5984 0.214957 -1.56127 0
M  V30 952 C 95.5454 1.26642 -1.92952 0
M  V30 953 C 96.5154 1.46244 -0.78753 0
M  V30 954 O 97.7004 1.59704 -1.04399 0
M  V30 955 C 94.8404 2.6104 -2.25726 0
M  V30 956 C 93.9534 2.49183 -3.52891 0
M  V30 957 C 93.0884 3.76149 -3.7508 0
M  V30 958 C 92.1274 3.59041 -4.95738 0
M  V30 959 N 91.2644 4.77972 -5.14283 0
M  V30 960 H 96.1044 0.945384 -2.82607 0
M  V30 961 H 93.6414 0.455489 -1.3987 0
M  V30 962 H 95.5994 3.39313 -2.42739 0
M  V30 963 H 94.2294 2.91227 -1.39236 0
M  V30 964 H 93.2814 1.6231 -3.44034 0
M  V30 965 H 94.5934 2.32466 -4.41318 0
M  V30 966 H 93.7474 4.62865 -3.92226 0
M  V30 967 H 92.4864 3.95799 -2.84947 0
M  V30 968 H 91.4914 2.7071 -4.78535 0
M  V30 969 H 92.7164 3.40856 -5.87362 0
M  V30 970 H 90.6624 4.97923 -4.27093 0
M  V30 971 H 90.5794 4.64006 -5.96853 0
M  V30 972 H 91.8474 5.66096 -5.35869 0
M  V30 973 N 96.0765 1.50051 0.48192 0
M  V30 974 C 97.4925 1.37237 0.814756 0
M  V30 975 C 97.6925 0.420109 1.97072 0
M  V30 976 O 96.7485 -0.141246 2.52105 0
M  V30 977 C 98.0615 2.78375 1.13701 0
M  V30 978 C 99.6095 2.87213 1.2441 0
M  V30 979 C 100.084 4.29161 1.59954 0
M  V30 980 N 101.575 4.32061 1.66967 0
M  V30 981 C 102.31 5.38879 1.95952 0
M  V30 982 N 101.806 6.55918 2.23031 0
M  V30 983 N 103.599 5.26312 1.97363 0
M  V30 984 H 95.7505 2.10546 -0.28005 0
M  V30 985 H 98.0135 0.945921 -0.0627454 0
M  V30 986 H 97.7195 3.49845 0.360787 0
M  V30 987 H 97.5935 3.14941 2.07586 0
M  V30 988 H 99.9805 2.15969 2.01101 0
M  V30 989 H 100.061 2.54204 0.285299 0
M  V30 990 H 99.7055 5.00938 0.838067 0
M  V30 991 H 99.6355 4.59648 2.56966 0
M  V30 992 H 102.126 3.47661 1.48123 0
M  V30 993 H 102.439 7.33139 2.44391 0
M  V30 994 H 100.784 6.59112 2.20447 0
M  V30 995 H 103.975 4.33876 1.75697 0
M  V30 996 H 104.148 6.09649 2.19618 0
M  V30 997 N 97.5546 -0.734337 1.39446 0
M  V30 998 C 98.4846 -1.86155 1.40955 0
M  V30 999 C 99.4656 -1.67898 0.272827 0
M  V30 1000 O 100.651 -1.88207 0.478743 0
M  V30 1001 C 97.7806 -3.23912 1.25294 0
M  V30 1002 C 96.7346 -3.56808 2.36373 0
M  V30 1003 C 96.0606 -4.93508 2.058 0
M  V30 1004 C 97.3606 -3.59713 3.78687 0
M  V30 1005 H 99.0546 -1.8515 2.35287 0
M  V30 1006 H 96.6006 -0.889367 1.13253 0
M  V30 1007 H 98.5536 -4.02443 1.2497 0
M  V30 1008 H 97.2776 -3.25446 0.274308 0
M  V30 1009 H 95.9366 -2.80606 2.35914 0
M  V30 1010 H 95.5846 -4.91623 1.06374 0
M  V30 1011 H 95.2846 -5.16486 2.80208 0
M  V30 1012 H 96.8086 -5.74396 2.07128 0
M  V30 1013 H 98.2226 -4.2832 3.81071 0
M  V30 1014 H 96.6196 -3.94209 4.52459 0
M  V30 1015 H 97.6896 -2.59504 4.09617 0
M  V30 1016 N 99.0327 -1.24633 -0.964593 0
M  V30 1017 C 100.28 -1.08788 -1.70796 0
M  V30 1018 C 100.608 0.372783 -1.90894 0
M  V30 1019 O 99.8627 1.29167 -1.47018 0
M  V30 1020 C 100.162 -1.7763 -3.10133 0
M  V30 1021 C 99.8277 -3.27557 -3.09866 0
M  V30 1022 C 98.4897 -3.6846 -3.09501 0
M  V30 1023 C 100.842 -4.23389 -3.03959 0
M  V30 1024 C 98.1697 -5.03624 -3.00965 0
M  V30 1025 C 100.522 -5.58565 -2.96965 0
M  V30 1026 C 99.1857 -5.98809 -2.9493 0
M  V30 1027 H 98.4557 -0.398084 -0.624988 0
M  V30 1028 H 101.103 -1.54777 -1.12767 0
M  V30 1029 H 99.4077 -1.24044 -3.71645 0
M  V30 1030 H 101.105 -1.62832 -3.66451 0
M  V30 1031 H 97.6947 -2.95006 -3.10917 0
M  V30 1032 H 101.879 -3.92787 -3.03368 0
M  V30 1033 H 97.1347 -5.33998 -2.97752 0
M  V30 1034 H 101.309 -6.32523 -2.91354 0
M  V30 1035 H 98.9357 -7.03505 -2.88071 0
M  V30 1036 N 100.511 1.16574 -1.06058 0
M  V30 1037 C 101.459 2.22941 -0.663343 0
M  V30 1038 C 102.453 1.66358 0.319593 0
M  V30 1039 O 103.659 1.7905 0.184713 0
M  V30 1040 H 100.034 0.725907 -0.196376 0
M  V30 1041 H 102.005 2.53736 -1.57037 0
M  V30 1042 C 100.754 3.47642 -0.0632808 0
M  V30 1043 H 100.077 3.91493 -0.810733 0
M  V30 1044 H 101.517 4.2363 0.177177 0
M  V30 1045 C 99.9758 3.1509 1.19248 0
M  V30 1046 O 100.506 3.30673 2.28075 0
M  V30 1047 N 98.7118 2.6924 1.09353 0
M  V30 1048 H 98.2588 2.5676 0.207912 0
M  V30 1049 H 98.2168 2.47833 1.93458 0
M  V30 1050 N 101.989 0.842826 1.3317 0
M  V30 1051 C 103.235 0.441099 1.97945 0
M  V30 1052 C 103.568 -0.998024 1.66593 0
M  V30 1053 O 102.843 -1.69839 0.947898 0
M  V30 1054 C 103.126 0.666841 3.53872 0
M  V30 1055 C 102.979 2.15352 3.94897 0
M  V30 1056 C 104.298 0.115544 4.39948 0
M  V30 1057 H 101.417 0.161739 0.719034 0
M  V30 1058 H 104.059 1.05907 1.57746 0
M  V30 1059 H 102.209 0.140828 3.88245 0
M  V30 1060 H 103.881 2.7447 3.70761 0
M  V30 1061 H 102.124 2.63653 3.44484 0
M  V30 1062 H 102.795 2.26221 5.03516 0
M  V30 1063 H 105.271 0.565213 4.12243 0
M  V30 1064 H 104.147 0.303152 5.48062 0
M  V30 1065 H 104.408 -0.980935 4.3108 0
M  V30 1066 N 103.467 -1.45747 0.599634 0
M  V30 1067 C 104.744 -1.95585 0.0240846 0
M  V30 1068 C 105.124 -1.54217 -1.44154 0
M  V30 1069 O 104.472 -0.800903 -2.14004 0
M  V30 1070 C 104.682 -3.48344 0.21385 0
M  V30 1071 C 106.03 -4.24504 0.0904902 0
M  V30 1072 O 107.054 -3.55911 0.143558 0
M  V30 1073 O 105.913 -5.46491 -0.0310766 0
M  V30 1074 H 103.007 -0.82602 -0.0402478 0
M  V30 1075 H 105.553 -1.55951 0.669139 0
M  V30 1076 H 104.325 -3.71397 1.23206 0
M  V30 1077 H 103.948 -3.9485 -0.466842 0
M  V30 1078 N 104.945 -0.338344 -1.53925 0
M  V30 1079 C 106.361 0.0137736 -1.59594 0
M  V30 1080 C 106.561 1.49186 -1.35447 0
M  V30 1081 O 105.617 2.24987 -1.14616 0
M  V30 1082 C 106.93 -0.41773 -2.97784 0
M  V30 1083 C 108.478 -0.369633 -3.1081 0
M  V30 1084 C 108.953 -0.776524 -4.51369 0
M  V30 1085 N 110.444 -0.730506 -4.57403 0
M  V30 1086 C 111.179 -1.01736 -5.64303 0
M  V30 1087 N 110.675 -1.3721 -6.79077 0
M  V30 1088 N 112.468 -0.941942 -5.54151 0
M  V30 1089 H 104.619 -1.3012 -1.67876 0
M  V30 1090 H 106.882 -0.530082 -0.78595 0
M  V30 1091 H 106.588 -1.44811 -3.20504 0
M  V30 1092 H 106.462 0.209729 -3.76616 0
M  V30 1093 H 108.849 0.651568 -2.87817 0
M  V30 1094 H 108.93 -1.03223 -2.34049 0
M  V30 1095 H 108.574 -1.79571 -4.75096 0
M  V30 1096 H 108.504 -0.0914649 -5.26521 0
M  V30 1097 H 110.995 -0.468783 -3.74981 0
M  V30 1098 H 111.308 -1.57597 -7.5656 0
M  V30 1099 H 109.653 -1.4105 -6.80536 0
M  V30 1100 H 112.844 -0.664184 -4.63364 0
M  V30 1101 H 113.017 -1.16884 -6.37371 0
M  V30 1102 N 106.423 1.57458 -0.0668435 0
M  V30 1103 C 107.373 2.0896 0.912119 0
M  V30 1104 C 108.357 0.998186 1.26195 0
M  V30 1105 O 109.549 1.26133 1.24175 0
M  V30 1106 C 106.678 2.6508 2.18145 0
M  V30 1107 C 105.764 3.81218 1.85832 0
M  V30 1108 N 106.155 4.90378 1.23948 0
M  V30 1109 C 104.453 3.9042 2.15612 0
M  V30 1110 C 105.154 5.71279 1.09616 0
M  V30 1111 N 104.13 5.19389 1.60423 0
M  V30 1112 H 107.932 2.90749 0.42924 0
M  V30 1113 H 105.446 1.6182 0.137184 0
M  V30 1114 H 107.443 3.0029 2.89192 0
M  V30 1115 H 106.103 1.84736 2.67025 0
M  V30 1116 H 107.114 5.09847 0.909731 0
M  V30 1117 H 103.791 3.21043 2.66903 0
M  V30 1118 H 105.181 6.69085 0.614425 0
M  V30 1119 N 107.901 -0.206675 1.56239 0
M  V30 1120 C 109.147 -0.930218 1.80208 0
M  V30 1121 C 109.48 -1.83387 0.638981 0
M  V30 1122 O 108.755 -1.91119 -0.361066 0
M  V30 1123 C 109.038 -1.75641 3.1436 0
M  V30 1124 C 108.891 -0.878257 4.41142 0
M  V30 1125 C 110.21 -2.73129 3.45092 0
M  V30 1126 H 107.329 -0.336742 0.655571 0
M  V30 1127 H 109.971 -0.198222 1.88963 0
M  V30 1128 H 108.121 -2.38048 3.07027 0
M  V30 1129 H 109.793 -0.269787 4.6051 0
M  V30 1130 H 108.036 -0.184385 4.33408 0
M  V30 1131 H 108.707 -1.49106 5.3148 0
M  V30 1132 H 111.183 -2.20856 3.52649 0
M  V30 1133 H 110.059 -3.28028 4.40101 0
M  V30 1134 H 110.32 -3.51606 2.68003 0
M  V30 1135 N 109.379 -1.50304 -0.473955 0
M  V30 1136 C 110.627 -1.60832 -1.22382 0
M  V30 1137 C 110.948 -0.30939 -1.9253 0
M  V30 1138 O 110.218 0.67296 -1.83978 0
M  V30 1139 H 108.798 -0.592652 -0.454723 0
M  V30 1140 H 111.46 -1.87068 -0.546968 0
M  V30 1141 H 110.556 -2.41803 -1.97327 0
M  V30 1142 N 110.857 0.726932 -1.39834 0
M  V30 1143 C 111.79 1.8501 -1.33592 0
M  V30 1144 C 112.768 1.61262 -0.208191 0
M  V30 1145 O 113.952 1.84422 -0.389981 0
M  V30 1146 C 111.079 3.21143 -1.07633 0
M  V30 1147 C 110.125 3.63737 -2.22705 0
M  V30 1148 S 110.958 3.72167 -3.85035 0
M  V30 1149 C 112.114 5.11077 -3.61318 0
M  V30 1150 H 112.347 1.90022 -2.28646 0
M  V30 1151 H 109.88 0.892595 -1.25985 0
M  V30 1152 H 111.838 3.99747 -0.933415 0
M  V30 1153 H 110.499 3.13776 -0.142526 0
M  V30 1154 H 109.692 4.62551 -2.00155 0
M  V30 1155 H 109.294 2.9236 -2.33242 0
M  V30 1156 H 111.586 5.97656 -3.19083 0
M  V30 1157 H 112.529 5.38658 -4.59623 0
M  V30 1158 H 112.937 4.81135 -2.95245 0
M  V30 1159 N 112.336 1.25143 0.95797 0
M  V30 1160 C 113.299 1.05321 2.03569 0
M  V30 1161 C 114.299 0.007152 1.60798 0
M  V30 1162 O 115.489 0.24903 1.72411 0
M  V30 1163 C 112.621 0.598394 3.35607 0
M  V30 1164 H 113.814 2.00986 2.22586 0
M  V30 1165 H 111.367 1.07502 1.13459 0
M  V30 1166 H 112.102 -0.361014 3.22284 0
M  V30 1167 H 111.887 1.35351 3.67998 0
M  V30 1168 H 113.377 0.48104 4.1482 0
M  V30 1169 N 113.814 -1.1601 1.06675 0
M  V30 1170 C 115.06 -1.86909 0.786945 0
M  V30 1171 C 115.393 -1.81717 -0.685018 0
M  V30 1172 O 114.668 -1.23551 -1.50218 0
M  V30 1173 C 114.951 -3.36313 1.28707 0
M  V30 1174 C 114.804 -3.50175 2.82308 0
M  V30 1175 C 116.123 -4.3084 0.898071 0
M  V30 1176 H 113.242 -0.678677 0.287343 0
M  V30 1177 H 115.884 -1.36336 1.32334 0
M  V30 1178 H 114.034 -3.79513 0.830768 0
M  V30 1179 H 115.706 -3.15886 3.36175 0
M  V30 1180 H 113.949 -2.91959 3.20847 0
M  V30 1181 H 114.62 -4.55116 3.12368 0
M  V30 1182 H 117.096 -3.95561 1.29114 0
M  V30 1183 H 115.972 -5.33876 1.27543 0
M  V30 1184 H 116.233 -4.41662 -0.196651 0
M  V30 1185 N 115.292 -0.849877 -1.32721 0
M  V30 1186 C 116.255 -0.296122 -2.27279 0
M  V30 1187 C 117.255 0.541458 -1.5141 0
M  V30 1188 O 118.445 0.353658 -1.70572 0
M  V30 1189 C 115.577 0.581579 -3.35902 0
M  V30 1190 H 116.77 -1.13064 -2.77771 0
M  V30 1191 H 114.323 -0.62383 -1.43311 0
M  V30 1192 H 115.058 1.43809 -2.9067 0
M  V30 1193 H 114.843 -0.0178814 -3.92096 0
M  V30 1194 H 116.333 0.961951 -4.0637 0
M  V30 1195 N 116.77 1.45427 -0.607355 0
M  V30 1196 C 118.018 2.01841 -0.102253 0
M  V30 1197 C 118.339 1.47832 1.27164 0
M  V30 1198 O 117.609 0.672497 1.83995 0
M  V30 1199 H 116.189 0.746188 -0.0348101 0
M  V30 1200 H 118.851 1.78229 -0.7887 0
M  V30 1201 H 117.947 3.12057 -0.0518585 0
M  V30 1202 N 118.248 0.346503 1.53744 0
M  V30 1203 C 119.178 -0.501193 2.28058 0
M  V30 1204 C 120.159 -1.10014 1.29734 0
M  V30 1205 O 121.344 -1.12097 1.58581 0
M  V30 1206 C 118.474 -1.65078 3.05559 0
M  V30 1207 C 117.428 -1.18003 4.11411 0
M  V30 1208 C 116.754 -2.41837 4.76884 0
M  V30 1209 C 118.054 -0.278394 5.21558 0
M  V30 1210 H 119.748 0.11875 2.99164 0
M  V30 1211 H 117.294 0.0585531 1.43881 0
M  V30 1212 H 119.247 -2.25028 3.56287 0
M  V30 1213 H 117.971 -2.29767 2.32109 0
M  V30 1214 H 116.63 -0.603331 3.61601 0
M  V30 1215 H 116.278 -3.0494 4.00026 0
M  V30 1216 H 115.978 -2.1102 5.48402 0
M  V30 1217 H 117.502 -3.02508 5.30397 0
M  V30 1218 H 118.916 -0.784823 5.67903 0
M  V30 1219 H 117.313 -0.0619707 6.00068 0
M  V30 1220 H 118.383 0.684677 4.80042 0
M  V30 1221 N 119.726 -1.57421 0.075193 0
M  V30 1222 C 120.656 -2.15942 -0.888324 0
M  V30 1223 C 121.637 -1.08737 -1.30806 0
M  V30 1224 O 122.822 -1.36787 -1.37851 0
M  V30 1225 C 119.952 -2.72379 -2.1547 0
M  V30 1226 C 118.906 -3.8478 -1.87425 0
M  V30 1227 C 118.232 -4.27834 -3.20721 0
M  V30 1228 C 119.532 -5.08869 -1.17684 0
M  V30 1229 H 121.226 -2.96705 -0.400799 0
M  V30 1230 H 118.772 -1.42723 -0.191342 0
M  V30 1231 H 120.725 -3.11965 -2.83295 0
M  V30 1232 H 119.449 -1.88841 -2.6647 0
M  V30 1233 H 118.108 -3.45703 -1.22004 0
M  V30 1234 H 117.756 -3.41214 -3.6957 0
M  V30 1235 H 117.456 -5.03605 -3.02746 0
M  V30 1236 H 118.98 -4.70039 -3.89738 0
M  V30 1237 H 120.394 -5.4575 -1.75584 0
M  V30 1238 H 118.791 -5.8994 -1.09956 0
M  V30 1239 H 119.861 -4.84648 -0.156453 0
M  V30 1240 N 121.204 0.198386 -1.56346 0
M  V30 1241 C 122.167 1.22952 -1.93431 0
M  V30 1242 C 123.167 1.38611 -0.815092 0
M  V30 1243 O 124.357 1.36479 -1.08255 0
M  V30 1244 C 121.489 2.59946 -2.20546 0
M  V30 1245 H 122.682 0.912626 -2.85677 0
M  V30 1246 H 120.235 0.43977 -1.49986 0
M  V30 1247 H 120.97 2.96696 -1.30927 0
M  V30 1248 H 120.755 2.49953 -3.02102 0
M  V30 1249 H 122.245 3.3431 -2.50253 0
M  V30 1250 N 122.682 1.50554 0.465978 0
M  V30 1251 C 123.959 1.5232 1.22712 0
M  V30 1252 C 124.339 0.270807 2.09356 0
M  V30 1253 O 123.687 -0.745541 2.15995 0
M  V30 1254 C 123.897 2.82175 2.05374 0
M  V30 1255 C 125.245 3.33033 2.6339 0
M  V30 1256 O 126.269 2.83531 2.15612 0
M  V30 1257 O 125.128 4.19336 3.50456 0
M  V30 1258 H 122.222 0.611183 0.557122 0
M  V30 1259 H 124.768 1.62847 0.477381 0
M  V30 1260 H 123.54 3.64797 1.41558 0
M  V30 1261 H 123.163 2.74675 2.87471 0
M  V30 1262 N 124.16 -0.719506 1.40217 0
M  V30 1263 C 125.123 -1.8153 1.39927 0
M  V30 1264 C 126.123 -1.58095 0.293723 0
M  V30 1265 O 127.313 -1.65209 0.552429 0
M  V30 1266 C 124.445 -3.19561 1.18716 0
M  V30 1267 H 125.638 -1.83186 2.37451 0
M  V30 1268 H 123.191 -0.924746 1.26008 0
M  V30 1269 H 123.926 -3.23557 0.219366 0
M  V30 1270 H 123.711 -3.3797 1.98793 0
M  V30 1271 H 125.201 -3.99598 1.21291 0
M  V30 1272 N 125.638 -1.25649 -0.95132 0
M  V30 1273 C 127.054 -1.02542 -1.223 0
M  V30 1274 C 127.254 0.255715 -1.99871 0
M  V30 1275 O 126.31 0.967558 -2.33226 0
M  V30 1276 C 127.623 -2.25065 -1.99415 0
M  V30 1277 C 129.171 -2.29861 -2.12446 0
M  V30 1278 C 129.646 -3.52048 -2.92961 0
M  V30 1279 N 131.137 -3.52465 -3.00538 0
M  V30 1280 C 131.872 -4.43672 -3.63239 0
M  V30 1281 N 131.368 -5.45157 -4.27523 0
M  V30 1282 N 133.161 -4.31346 -3.60412 0
M  V30 1283 H 125.312 -2.07951 -0.432471 0
M  V30 1284 H 127.575 -0.91339 -0.253816 0
M  V30 1285 H 127.281 -3.18194 -1.49817 0
M  V30 1286 H 127.155 -2.28502 -3.00111 0
M  V30 1287 H 129.542 -1.37252 -2.61239 0
M  V30 1288 H 129.623 -2.3044 -1.11044 0
M  V30 1289 H 129.267 -4.44981 -2.44856 0
M  V30 1290 H 129.197 -3.48715 -3.94596 0
M  V30 1291 H 131.688 -2.79056 -2.54826 0
M  V30 1292 H 132.001 -6.10958 -4.73234 0
M  V30 1293 H 130.346 -5.49025 -4.26141 0
M  V30 1294 H 133.537 -3.51288 -3.09377 0
M  V30 1295 H 133.71 -5.02624 -4.0899 0
M  V30 1296 N 127.117 1.15442 -1.07289 0
M  V30 1297 C 128.342 1.90638 -0.816828 0
M  V30 1298 C 128.767 1.77445 0.624083 0
M  V30 1299 O 128.125 1.10671 1.43602 0
M  V30 1300 C 128.173 3.39008 -1.22906 0
M  V30 1301 O 127.277 4.10701 -0.373975 0
M  V30 1302 H 126.618 0.593555 -0.297638 0
M  V30 1303 H 129.148 1.46198 -1.43134 0
M  V30 1304 H 129.158 3.89801 -1.20497 0
M  V30 1305 H 127.833 3.47929 -2.27856 0
M  V30 1306 H 126.41 3.70046 -0.460499 0
M  V30 1307 N 128.595 0.856903 1.32268 0
M  V30 1308 C 129.525 0.31858 2.31316 0
M  V30 1309 C 130.506 -0.583487 1.59779 0
M  V30 1310 O 131.691 -0.503259 1.87566 0
M  V30 1311 C 128.821 -0.491979 3.43798 0
M  V30 1312 C 127.775 0.315849 4.26833 0
M  V30 1313 C 127.101 -0.619586 5.31098 0
M  V30 1314 C 128.401 1.54282 4.98993 0
M  V30 1315 H 130.095 1.14621 2.76591 0
M  V30 1316 H 127.641 0.552613 1.32974 0
M  V30 1317 H 129.594 -0.879012 4.1213 0
M  V30 1318 H 128.318 -1.35299 2.97257 0
M  V30 1319 H 126.977 0.684664 3.6015 0
M  V30 1320 H 126.625 -1.47751 4.8081 0
M  V30 1321 H 126.325 -0.0830621 5.87541 0
M  V30 1322 H 127.849 -1.00375 6.02293 0
M  V30 1323 H 129.263 1.22796 5.59995 0
M  V30 1324 H 127.66 2.01745 5.65172 0
M  V30 1325 H 128.73 2.30285 4.26728 0
M  V30 1326 N 130.073 -1.45103 0.615059 0
M  V30 1327 C 131.036 -2.29025 -0.0895485 0
M  V30 1328 C 132.036 -1.40174 -0.787906 0
M  V30 1329 O 133.226 -1.62217 -0.634933 0
M  V30 1330 C 130.358 -3.21376 -1.13711 0
M  V30 1331 H 131.551 -2.92807 0.648382 0
M  V30 1332 H 129.104 -1.51749 0.374444 0
M  V30 1333 H 129.839 -2.6241 -1.90556 0
M  V30 1334 H 129.624 -3.86834 -0.640475 0
M  V30 1335 H 131.114 -3.84459 -1.63036 0
M  V30 1336 N 131.551 -0.354651 -1.53558 0
M  V30 1337 C 132.828 0.294281 -1.93374 0
M  V30 1338 C 133.208 1.67313 -1.28723 0
M  V30 1339 O 132.556 2.24179 -0.442247 0
M  V30 1340 C 132.766 0.355445 -3.47185 0
M  V30 1341 C 134.114 0.601007 -4.20325 0
M  V30 1342 O 135.138 0.437106 -3.53508 0
M  V30 1343 O 133.997 0.919322 -5.38712 0
M  V30 1344 H 131.091 0.174033 -0.808481 0
M  V30 1345 H 133.637 -0.406638 -1.64756 0
M  V30 1346 H 132.409 -0.611729 -3.86489 0
M  V30 1347 H 132.032 1.1027 -3.82003 0
M  V30 1348 N 133.029 1.57378 -0.0835403 0
M  V30 1349 C 134.278 1.93106 0.582498 0
M  V30 1350 C 134.591 0.96651 1.70053 0
M  V30 1351 O 135.797 1.21705 2.42693 0
M  V30 1352 C 134.253 3.43076 1.08751 0
M  V30 1353 C 133.861 4.48 -0.000146404 0
M  V30 1354 C 135.605 3.87785 1.72694 0
M  V30 1355 C 133.512 5.89113 0.519568 0
M  V30 1356 H 132.442 0.720775 0.221358 0
M  V30 1357 H 135.093 1.82821 -0.157675 0
M  V30 1358 H 133.475 3.48474 1.88101 0
M  V30 1359 H 134.649 4.54233 -0.775199 0
M  V30 1360 H 132.964 4.1283 -0.54406 0
M  V30 1361 H 135.561 4.90604 2.1263 0
M  V30 1362 H 135.904 3.25796 2.59158 0
M  V30 1363 H 136.437 3.8504 0.999457 0
M  V30 1364 H 133.176 6.54775 -0.308186 0
M  V30 1365 H 132.696 5.86376 1.26188 0
M  V30 1366 H 134.375 6.39346 0.992237 0
M  V30 1367 N 134.507 -0.190092 1.56449 0
M  V30 1368 C 135.47 -1.21925 1.9408 0
M  V30 1369 C 136.47 -1.38176 0.822431 0
M  V30 1370 O 137.66 -1.35903 1.08977 0
M  V30 1371 C 134.792 -2.58773 2.21922 0
M  V30 1372 H 135.985 -0.897464 2.86157 0
M  V30 1373 H 133.538 -0.43181 1.50217 0
M  V30 1374 H 134.273 -2.95998 1.32499 0
M  V30 1375 H 134.058 -2.48348 3.03424 0
M  V30 1376 H 135.548 -3.32978 2.52022 0
M  V30 1377 N 135.985 -1.50799 -0.457987 0
M  V30 1378 C 137.401 -1.38515 -0.792819 0
M  V30 1379 C 137.601 -0.451409 -1.96379 0
M  V30 1380 O 136.657 0.10112 -2.52297 0
M  V30 1381 C 137.97 -2.80149 -1.09258 0
M  V30 1382 C 139.518 -2.89156 -1.19825 0
M  V30 1383 C 139.993 -4.31651 -1.53106 0
M  V30 1384 N 141.484 -4.34662 -1.60072 0
M  V30 1385 C 142.219 -5.41928 -1.87354 0
M  V30 1386 N 141.715 -6.59384 -2.12568 0
M  V30 1387 N 143.508 -5.29385 -1.88965 0
M  V30 1388 H 135.659 -2.10073 0.313511 0
M  V30 1389 H 137.922 -0.944803 0.0777862 0
M  V30 1390 H 137.628 -3.50374 -0.305084 0
M  V30 1391 H 137.502 -3.18204 -2.02549 0
M  V30 1392 H 139.889 -2.19141 -1.97639 0
M  V30 1393 H 139.97 -2.54626 -0.244821 0
M  V30 1394 H 139.614 -5.02208 -0.758266 0
M  V30 1395 H 139.544 -4.63678 -2.49621 0
M  V30 1396 H 142.035 -3.49973 -1.42573 0
M  V30 1397 H 142.348 -7.36934 -2.32696 0
M  V30 1398 H 140.693 -6.62535 -2.09933 0
M  V30 1399 H 143.884 -4.36616 -1.68772 0
M  V30 1400 H 144.057 -6.13066 -2.09891 0
M  V30 1401 N 137.463 0.71206 -1.40597 0
M  V30 1402 C 138.373 1.8562 -1.43466 0
M  V30 1403 C 139.389 1.70902 -0.326902 0
M  V30 1404 O 140.565 1.93105 -0.572043 0
M  V30 1405 C 137.63 3.21451 -1.29884 0
M  V30 1406 C 136.691 3.48398 -2.50833 0
M  V30 1407 C 135.924 4.77749 -2.3789 0
M  V30 1408 O 136.147 5.53089 -1.39459 0
M  V30 1409 O 135.081 5.05111 -3.27333 0
M  V30 1410 H 138.907 1.86155 -2.39958 0
M  V30 1411 H 136.492 0.86295 -1.21957 0
M  V30 1412 H 138.374 4.02579 -1.24531 0
M  V30 1413 H 137.049 3.21636 -0.364997 0
M  V30 1414 H 135.956 2.67265 -2.61763 0
M  V30 1415 H 137.289 3.53014 -3.4299 0
M  V30 1416 N 138.941 1.26152 0.944643 0
M  V30 1417 C 139.851 1.09176 2.07648 0
M  V30 1418 C 140.867 0.0261935 1.7398 0
M  V30 1419 O 142.043 0.229208 2.00091 0
M  V30 1420 C 139.108 0.722915 3.39079 0
M  V30 1421 C 138.169 1.86752 3.86552 0
M  V30 1422 C 137.402 1.51617 5.11711 0
M  V30 1423 O 137.625 0.416331 5.68879 0
M  V30 1424 O 136.559 2.34975 5.54139 0
M  V30 1425 H 140.385 2.0412 2.24875 0
M  V30 1426 H 137.97 1.05182 1.061 0
M  V30 1427 H 139.852 0.529787 4.18056 0
M  V30 1428 H 138.527 -0.197159 3.23099 0
M  V30 1429 H 137.434 2.11558 3.08535 0
M  V30 1430 H 138.767 2.76719 4.07047 0
M  V30 1431 N 140.419 -1.14872 1.07899 0
M  V30 1432 C 141.382 -2.17986 0.708161 0
M  V30 1433 C 142.382 -1.58775 -0.25442 0
M  V30 1434 O 143.572 -1.74166 -0.034645 0
M  V30 1435 C 140.704 -3.40871 0.0446929 0
M  V30 1436 H 141.897 -2.52306 1.62116 0
M  V30 1437 H 139.45 -1.2943 0.876218 0
M  V30 1438 H 140.185 -3.12124 -0.880281 0
M  V30 1439 H 139.97 -3.8511 0.737091 0
M  V30 1440 H 141.46 -4.17121 -0.19991 0
M  V30 1441 N 141.898 -0.863906 -1.31812 0
M  V30 1442 C 143.123 -0.48527 -2.01643 0
M  V30 1443 C 143.548 0.913058 -1.64453 0
M  V30 1444 O 142.906 1.6014 -0.849985 0
M  V30 1445 C 142.954 -0.642625 -3.54828 0
M  V30 1446 O 142.058 0.320659 -4.11151 0
M  V30 1447 H 141.399 -0.193793 -0.635091 0
M  V30 1448 H 143.929 -1.16565 -1.68148 0
M  V30 1449 H 143.939 -0.533628 -4.04495 0
M  V30 1450 H 142.614 -1.66227 -3.81237 0
M  V30 1451 H 141.191 0.167126 -3.72525 0
M  V30 1452 N 143.376 1.44774 -0.622745 0
M  V30 1453 C 144.324 2.32387 0.0994683 0
M  V30 1454 C 145.318 1.46859 0.844326 0
M  V30 1455 O 146.524 1.63254 0.758174 0
M  V30 1456 H 142.899 0.750273 0.0509291 0
M  V30 1457 H 144.87 2.91062 -0.65767 0
M  V30 1458 C 143.619 3.30723 1.07319 0
M  V30 1459 H 142.942 3.96541 0.509462 0
M  V30 1460 H 144.382 3.94725 1.54817 0
M  V30 1461 C 142.841 2.59021 2.15429 0
M  V30 1462 O 143.371 2.38286 3.23393 0
M  V30 1463 N 141.577 2.189 1.91131 0
M  V30 1464 H 141.124 2.35964 1.03337 0
M  V30 1465 H 141.082 1.71251 2.63668 0
M  V30 1466 N 144.854 0.36279 1.53368 0
M  V30 1467 C 146.101 -0.227776 2.01215 0
M  V30 1468 C 146.429 -1.49003 1.25014 0
M  V30 1469 O 145.684 -1.92876 0.331236 0
M  V30 1470 C 145.983 -0.568417 3.52851 0
M  V30 1471 C 145.649 0.59918 4.46901 0
M  V30 1472 C 144.311 0.919559 4.72332 0
M  V30 1473 C 146.663 1.38156 5.02556 0
M  V30 1474 C 143.991 2.02434 5.5067 0
M  V30 1475 C 146.343 2.47674 5.821 0
M  V30 1476 C 145.007 2.8025 6.05819 0
M  V30 1477 H 144.277 -0.083349 0.736297 0
M  V30 1478 H 146.924 0.494677 1.85001 0
M  V30 1479 H 145.229 -1.37185 3.66998 0
M  V30 1480 H 146.926 -1.03756 3.87344 0
M  V30 1481 H 143.516 0.339437 4.27254 0
M  V30 1482 H 147.7 1.14729 4.82857 0
M  V30 1483 H 142.956 2.28075 5.67267 0
M  V30 1484 H 147.13 3.08716 6.24234 0
M  V30 1485 H 144.757 3.65979 6.66306 0
M  V30 1486 N 146.332 -1.57332 0.0918853 0
M  V30 1487 C 147.748 -1.57389 -0.264766 0
M  V30 1488 C 147.948 -1.10281 -1.68643 0
M  V30 1489 O 147.004 -0.777801 -2.40222 0
M  V30 1490 C 148.317 -3.00648 -0.0561195 0
M  V30 1491 C 149.865 -3.12754 -0.124116 0
M  V30 1492 C 150.34 -4.57965 0.0564972 0
M  V30 1493 N 151.831 -4.632 0.00155611 0
M  V30 1494 C 152.566 -5.73281 0.116598 0
M  V30 1495 N 152.062 -6.92208 0.286294 0
M  V30 1496 N 153.855 -5.6207 0.0580973 0
M  V30 1497 H 146.006 -1.86262 1.02079 0
M  V30 1498 H 148.269 -0.859579 0.399786 0
M  V30 1499 H 147.975 -3.393 0.925669 0
M  V30 1500 H 147.849 -3.68623 -0.799823 0
M  V30 1501 H 150.236 -2.73976 -1.09641 0
M  V30 1502 H 150.317 -2.47377 0.651024 0
M  V30 1503 H 149.961 -4.97436 1.02564 0
M  V30 1504 H 149.891 -5.21399 -0.738297 0
M  V30 1505 H 152.382 -3.77686 -0.127192 0
M  V30 1506 H 152.695 -7.71934 0.365676 0
M  V30 1507 H 151.04 -6.94254 0.32192 0
M  V30 1508 H 154.231 -4.68043 -0.0733204 0
M  V30 1509 H 154.404 -6.47824 0.151203 0
M  V30 1510 N 147.81 0.181792 -1.56548 0
M  V30 1511 C 149.035 0.920019 -1.85877 0
M  V30 1512 C 149.46 1.75494 -0.677021 0
M  V30 1513 O 148.818 1.77399 0.374056 0
M  V30 1514 C 148.866 1.78112 -3.13542 0
M  V30 1515 O 147.97 2.88152 -2.95029 0
M  V30 1516 H 147.311 0.258334 -0.611686 0
M  V30 1517 H 149.841 0.183092 -2.03779 0
M  V30 1518 H 149.851 2.18314 -3.44678 0
M  V30 1519 H 148.526 1.16777 -3.99169 0
M  V30 1520 H 147.103 2.51609 -2.75222 0
M  V30 1521 N 149.288 1.51039 0.449983 0
M  V30 1522 C 150.236 1.71995 1.5659 0
M  V30 1523 C 151.23 0.586029 1.5894 0
M  V30 1524 O 152.436 0.76709 1.62837 0
M  V30 1525 H 148.811 0.543233 0.520001 0
M  V30 1526 H 150.782 2.65562 1.36085 0
M  V30 1527 C 149.531 1.8506 2.9436 0
M  V30 1528 H 148.854 2.71712 2.93279 0
M  V30 1529 H 150.294 2.0374 3.71842 0
M  V30 1530 C 148.753 0.607277 3.31382 0
M  V30 1531 O 149.283 -0.243903 4.00959 0
M  V30 1532 N 147.489 0.455073 2.87015 0
M  V30 1533 H 147.036 1.14879 2.30566 0
M  V30 1534 H 146.994 -0.375611 3.12148 0
M  V30 1535 N 150.766 -0.704594 1.40972 0
M  V30 1536 C 152.013 -1.46458 1.39844 0
M  V30 1537 C 152.341 -1.94499 0.00447594 0
M  V30 1538 O 151.596 -1.69275 -0.982057 0
M  V30 1539 C 151.895 -2.698 2.34399 0
M  V30 1540 C 151.561 -2.40464 3.81429 0
M  V30 1541 C 150.223 -2.32174 4.21484 0
M  V30 1542 C 152.575 -2.16086 4.74296 0
M  V30 1543 C 149.903 -1.97589 5.52427 0
M  V30 1544 C 152.255 -1.83011 6.05549 0
M  V30 1545 C 150.919 -1.7321 6.44635 0
M  V30 1546 H 150.189 -0.535927 0.511725 0
M  V30 1547 H 152.836 -0.806124 1.73706 0
M  V30 1548 H 151.141 -3.40536 1.93759 0
M  V30 1549 H 152.838 -3.27919 2.30804 0
M  V30 1550 H 149.428 -2.47808 3.49699 0
M  V30 1551 H 153.612 -2.2144 4.4416 0
M  V30 1552 H 148.868 -1.88547 5.81601 0
M  V30 1553 H 153.042 -1.63164 6.77016 0
M  V30 1554 H 150.669 -1.46179 7.46013 0
M  V30 1555 N 152.244 -1.26651 -0.937939 0
M  V30 1556 C 153.492 -1.12165 -1.68118 0
M  V30 1557 C 153.813 0.334983 -1.92101 0
M  V30 1558 O 153.083 1.23583 -1.52 0
M  V30 1559 H 151.663 -0.412093 -0.623048 0
M  V30 1560 H 154.325 -1.59027 -1.12678 0
M  V30 1561 H 153.421 -1.64289 -2.6536 0
M  V30 1562 N 153.722 1.14298 -1.08507 0
M  V30 1563 C 154.952 1.88945 -0.835663 0
M  V30 1564 C 155.36 1.78894 0.615928 0
M  V30 1565 O 154.703 1.1468 1.43506 0
M  V30 1566 C 154.765 3.39585 -1.17994 0
M  V30 1567 C 154.429 3.7342 -2.63451 0
M  V30 1568 C 155.426 3.73454 -3.61702 0
M  V30 1569 C 153.111 4.03368 -2.99332 0
M  V30 1570 C 155.105 4.02961 -4.93864 0
M  V30 1571 C 152.792 4.32538 -4.31687 0
M  V30 1572 C 153.79 4.32318 -5.28763 0
M  V30 1573 O 153.478 4.6078 -6.58739 0
M  V30 1574 H 153.21 0.605307 -0.300965 0
M  V30 1575 H 155.764 1.45673 -1.44806 0
M  V30 1576 H 153.994 3.83315 -0.51055 0
M  V30 1577 H 155.683 3.9554 -0.911182 0
M  V30 1578 H 156.449 3.50403 -3.35325 0
M  V30 1579 H 152.328 4.02692 -2.24411 0
M  V30 1580 H 155.872 4.02704 -5.69627 0
M  V30 1581 H 151.769 4.55059 -4.57812 0
M  V30 1582 H 152.537 4.78492 -6.64069 0
M  V30 1583 N 155.201 0.870884 1.31352 0
M  V30 1584 C 156.149 0.316445 2.30437 0
M  V30 1585 C 157.143 -0.568965 1.59559 0
M  V30 1586 O 158.349 -0.454964 1.74155 0
M  V30 1587 H 154.724 0.0836521 0.747333 0
M  V30 1588 H 156.695 1.16606 2.74673 0
M  V30 1589 C 155.444 -0.46635 3.44558 0
M  V30 1590 H 154.767 0.205687 3.99271 0
M  V30 1591 H 156.207 -0.819614 4.16003 0
M  V30 1592 C 154.666 -1.65797 2.9328 0
M  V30 1593 O 155.196 -2.75728 2.92125 0
M  V30 1594 N 153.402 -1.49041 2.4947 0
M  V30 1595 H 152.949 -0.59612 2.50608 0
M  V30 1596 H 152.907 -2.28911 2.15516 0
M  V30 1597 N 156.679 -1.44442 0.630414 0
M  V30 1598 C 157.928 -2.01267 0.132073 0
M  V30 1599 C 158.241 -1.50172 -1.25331 0
M  V30 1600 O 159.447 -1.9912 -1.84562 0
M  V30 1601 C 157.903 -3.59422 0.185362 0
M  V30 1602 C 157.511 -4.19514 1.57201 0
M  V30 1603 C 159.255 -4.23724 -0.256553 0
M  V30 1604 C 157.162 -5.69891 1.58045 0
M  V30 1605 H 156.092 -0.752619 0.0456092 0
M  V30 1606 H 158.743 -1.65666 0.789106 0
M  V30 1607 H 157.125 -3.92318 -0.538759 0
M  V30 1608 H 158.299 -3.98156 2.31966 0
M  V30 1609 H 156.614 -3.67496 1.95795 0
M  V30 1610 H 159.211 -5.34019 -0.269767 0
M  V30 1611 H 159.554 -3.96013 -1.28372 0
M  V30 1612 H 160.087 -3.95629 0.41505 0
M  V30 1613 H 156.826 -6.02336 2.58597 0
M  V30 1614 H 156.346 -5.93373 0.875725 0
M  V30 1615 H 158.025 -6.33515 1.31408 0
M  V30 1616 N 158.157 -0.370918 -1.53173 0
M  V30 1617 C 159.568 0.107139 -1.86392 0
M  V30 1618 C 159.919 1.47714 -1.29132 0
M  V30 1619 O 159.044 2.07464 -0.615439 0
M  V30 1620 C 159.639 0.201187 -3.38202 0
M  V30 1621 C 158.198 0.623507 -3.712 0
M  V30 1622 C 157.345 -0.225978 -2.76378 0
M  V30 1623 H 160.296 -0.58951 -1.47345 0
M  V30 1624 H 160.317 1.02377 -3.66468 0
M  V30 1625 H 159.829 -0.796058 -3.79848 0
M  V30 1626 H 157.93 1.62879 -3.35114 0
M  V30 1627 H 158.043 0.394414 -4.77474 0
M  V30 1628 H 156.407 0.305962 -2.52856 0
M  V30 1629 H 157.19 -1.22086 -3.20858 0
M  V30 1630 N 159.635 1.57281 -0.100228 0
M  V30 1631 C 160.565 2.17328 0.853857 0
M  V30 1632 C 161.546 1.10804 1.2906 0
M  V30 1633 O 162.731 1.38963 1.35657 0
M  V30 1634 C 159.861 2.75772 2.11109 0
M  V30 1635 C 158.815 3.87713 1.81279 0
M  V30 1636 C 158.141 4.32882 3.13874 0
M  V30 1637 C 159.441 5.10677 1.09574 0
M  V30 1638 H 161.135 2.97305 0.353545 0
M  V30 1639 H 158.681 1.43009 0.168612 0
M  V30 1640 H 160.634 3.16433 2.78296 0
M  V30 1641 H 159.358 1.93057 2.63432 0
M  V30 1642 H 158.017 3.476 1.16489 0
M  V30 1643 H 157.665 3.47051 3.64095 0
M  V30 1644 H 157.365 5.08358 2.94696 0
M  V30 1645 H 158.889 4.7618 3.82211 0
M  V30 1646 H 160.303 5.48474 1.66879 0
M  V30 1647 H 158.7 5.91615 1.00557 0
M  V30 1648 H 159.77 4.84835 0.0793299 0
M  V30 1649 N 161.113 -0.173488 1.56642 0
M  V30 1650 C 162.06 -1.21482 1.96242 0
M  V30 1651 C 163.03 -1.44104 0.826027 0
M  V30 1652 O 164.215 -1.5688 1.08597 0
M  V30 1653 C 161.355 -2.54964 2.32567 0
M  V30 1654 C 160.468 -2.39739 3.59373 0
M  V30 1655 C 159.603 -3.66072 3.84921 0
M  V30 1656 C 158.642 -3.45771 5.05083 0
M  V30 1657 N 157.779 -4.64169 5.26775 0
M  V30 1658 H 162.619 -0.870123 2.85014 0
M  V30 1659 H 160.156 -0.418245 1.41029 0
M  V30 1660 H 162.114 -3.32758 2.5165 0
M  V30 1661 H 160.744 -2.87433 1.46908 0
M  V30 1662 H 159.796 -1.53131 3.48217 0
M  V30 1663 H 161.108 -2.20683 4.47326 0
M  V30 1664 H 160.262 -4.52303 4.0436 0
M  V30 1665 H 159.001 -3.88105 2.9534 0
M  V30 1666 H 158.006 -2.57927 4.85545 0
M  V30 1667 H 159.231 -3.25163 5.96193 0
M  V30 1668 H 157.177 -4.86425 4.40144 0
M  V30 1669 H 157.094 -4.48019 6.08946 0
M  V30 1670 H 158.362 -5.51689 5.5069 0
M  V30 1671 N 162.591 -1.51276 -0.441967 0
M  V30 1672 C 163.541 -1.6864 -1.53442 0
M  V30 1673 C 164.525 -0.540444 -1.51552 0
M  V30 1674 O 165.717 -0.796157 -1.58083 0
M  V30 1675 C 162.846 -1.8106 -2.91672 0
M  V30 1676 C 161.932 -3.01424 -2.98336 0
M  V30 1677 N 162.323 -4.2467 -2.74752 0
M  V30 1678 C 160.621 -3.00584 -3.29493 0
M  V30 1679 C 161.322 -5.05891 -2.87139 0
M  V30 1680 N 160.298 -4.40442 -3.18609 0
M  V30 1681 H 164.1 -2.61598 -1.33954 0
M  V30 1682 H 161.614 -1.4886 -0.6492 0
M  V30 1683 H 163.611 -1.91609 -3.70259 0
M  V30 1684 H 162.271 -0.892795 -3.12185 0
M  V30 1685 H 163.282 -4.53691 -2.49769 0
M  V30 1686 H 159.959 -2.18417 -3.55809 0
M  V30 1687 H 161.349 -6.13983 -2.72899 0
M  V30 1688 N 164.069 0.697108 -1.41344 0
M  V30 1689 C 164.999 1.82353 -1.45841 0
M  V30 1690 C 165.98 1.67115 -0.317247 0
M  V30 1691 O 167.165 1.86871 -0.528474 0
M  V30 1692 C 164.295 3.20476 -1.33838 0
M  V30 1693 C 163.249 3.50415 -2.4575 0
M  V30 1694 C 162.575 4.87878 -2.18813 0
M  V30 1695 C 163.875 3.49546 -3.88091 0
M  V30 1696 H 165.569 1.78846 -2.40113 0
M  V30 1697 H 163.115 0.859028 -1.15571 0
M  V30 1698 H 165.068 3.98988 -1.35596 0
M  V30 1699 H 163.792 3.24604 -0.360498 0
M  V30 1700 H 162.451 2.74253 -2.43271 0
M  V30 1701 H 162.099 4.8863 -1.19371 0
M  V30 1702 H 161.799 5.08875 -2.93803 0
M  V30 1703 H 163.323 5.68702 -2.22284 0
M  V30 1704 H 164.737 4.18066 -3.92293 0
M  V30 1705 H 163.134 3.82075 -4.62751 0
M  V30 1706 H 164.204 2.48552 -4.16353 0
M  V30 1707 N 165.547 1.27147 0.931209 0
M  V30 1708 C 166.51 1.09615 2.01289 0
M  V30 1709 C 167.51 0.0412581 1.60747 0
M  V30 1710 O 168.7 0.285545 1.71844 0
M  V30 1711 C 165.832 0.669447 3.34262 0
M  V30 1712 H 167.025 2.05662 2.18273 0
M  V30 1713 H 164.578 1.09885 1.11153 0
M  V30 1714 H 165.313 -0.292572 3.22978 0
M  V30 1715 H 165.098 1.43127 3.65044 0
M  V30 1716 H 166.588 0.568921 4.13706 0
M  V30 1717 N 167.025 -1.13721 1.09112 0
M  V30 1718 C 168.302 -1.81155 0.737706 0
M  V30 1719 C 168.682 -1.96253 -0.777683 0
M  V30 1720 O 168.03 -1.52807 -1.69889 0
M  V30 1721 C 168.24 -3.16392 1.47299 0
M  V30 1722 C 169.588 -3.91787 1.63671 0
M  V30 1723 O 170.612 -3.26005 1.43524 0
M  V30 1724 O 169.471 -5.0977 1.96969 0
M  V30 1725 H 166.565 -0.783518 0.26463 0
M  V30 1726 H 169.111 -1.20676 1.19312 0
M  V30 1727 H 167.883 -3.0061 2.50498 0
M  V30 1728 H 167.506 -3.8457 1.00953 0
M  V30 1729 N 168.503 -0.877838 -1.30888 0
M  V30 1730 C 169.919 -0.570844 -1.49042 0
M  V30 1731 C 170.119 0.893159 -1.80624 0
M  V30 1732 O 169.175 1.67485 -1.88958 0
M  V30 1733 C 170.488 -1.47784 -2.61878 0
M  V30 1734 C 172.036 -1.48071 -2.75761 0
M  V30 1735 C 172.511 -2.37347 -3.91702 0
M  V30 1736 N 174.002 -2.35271 -3.99001 0
M  V30 1737 C 174.737 -3.01063 -4.88004 0
M  V30 1738 N 174.233 -3.76055 -5.81854 0
M  V30 1739 N 176.026 -2.90332 -4.81315 0
M  V30 1740 H 168.177 -1.82502 -1.0866 0
M  V30 1741 H 170.44 -0.780797 -0.537644 0
M  V30 1742 H 170.146 -2.51993 -2.45341 0
M  V30 1743 H 170.02 -1.18215 -3.58197 0
M  V30 1744 H 172.407 -0.446166 -2.91708 0
M  V30 1745 H 172.488 -1.81668 -1.80085 0
M  V30 1746 H 172.132 -3.40883 -3.76512 0
M  V30 1747 H 172.062 -2.01071 -4.86701 0
M  V30 1748 H 174.553 -1.80768 -3.3186 0
M  V30 1749 H 174.866 -4.23366 -6.46514 0
M  V30 1750 H 173.211 -3.80163 -5.81808 0
M  V30 1751 H 176.402 -2.31278 -4.06974 0
M  V30 1752 H 176.575 -3.41885 -5.50471 0
M  V30 1753 N 169.982 1.44106 -0.638065 0
M  V30 1754 C 171.228 2.02277 -0.145546 0
M  V30 1755 C 171.561 1.50125 1.23191 0
M  V30 1756 O 170.836 0.688133 1.8192 0
M  V30 1757 C 171.119 3.59829 -0.139791 0
M  V30 1758 C 170.972 4.22247 -1.55008 0
M  V30 1759 C 172.291 4.36873 0.531966 0
M  V30 1760 H 169.41 0.734992 -0.0543632 0
M  V30 1761 H 172.052 1.71592 -0.815863 0
M  V30 1762 H 170.202 3.86102 0.431007 0
M  V30 1763 H 171.874 4.07057 -2.1703 0
M  V30 1764 H 170.117 3.79476 -2.10191 0
M  V30 1765 H 170.788 5.31284 -1.49804 0
M  V30 1766 H 173.264 4.16074 0.0464781 0
M  V30 1767 H 172.14 5.4657 0.505206 0
M  V30 1768 H 172.401 4.11995 1.60352 0
M  V30 1769 N 171.46 0.379036 1.52974 0
M  V30 1770 C 172.423 -0.448865 2.24762 0
M  V30 1771 C 173.423 -0.998689 1.26027 0
M  V30 1772 O 174.613 -0.882313 1.50203 0
M  V30 1773 C 171.745 -1.62872 2.99476 0
M  V30 1774 H 172.938 0.179491 2.99362 0
M  V30 1775 H 170.491 0.13096 1.5575 0
M  V30 1776 H 171.226 -2.29479 2.29151 0
M  V30 1777 H 171.011 -1.24128 3.71934 0
M  V30 1778 H 172.501 -2.2151 3.5401 0
M  V30 1779 N 172.938 -1.57226 0.108567 0
M  V30 1780 C 173.871 -2.10447 -0.882464 0
M  V30 1781 C 174.849 -1.01829 -1.26766 0
M  V30 1782 O 176.033 -1.29415 -1.37054 0
M  V30 1783 C 173.16 -2.59258 -2.17952 0
M  V30 1784 C 172.206 -3.79662 -1.94318 0
M  V30 1785 S 173.039 -5.22586 -1.16892 0
M  V30 1786 C 174.195 -5.74758 -2.47799 0
M  V30 1787 H 174.428 -2.94178 -0.429745 0
M  V30 1788 H 171.961 -1.54043 -0.105 0
M  V30 1789 H 173.919 -2.88036 -2.92482 0
M  V30 1790 H 172.58 -1.75728 -2.60343 0
M  V30 1791 H 171.773 -4.11928 -2.90399 0
M  V30 1792 H 171.375 -3.51446 -1.27913 0
M  V30 1793 H 173.667 -5.83846 -3.43701 0
M  V30 1794 H 174.61 -6.73027 -2.20093 0
M  V30 1795 H 175.018 -5.02763 -2.56689 0
M  V30 1796 N 174.416 0.165178 -1.56732 0
M  V30 1797 C 175.646 0.894919 -1.86212 0
M  V30 1798 C 176.054 1.76066 -0.692627 0
M  V30 1799 O 175.397 1.80387 0.347303 0
M  V30 1800 C 175.459 1.8174 -3.10179 0
M  V30 1801 C 175.123 1.13064 -4.42793 0
M  V30 1802 C 176.12 0.493169 -5.17556 0
M  V30 1803 C 173.805 1.12556 -4.89527 0
M  V30 1804 C 175.799 -0.140209 -6.37246 0
M  V30 1805 C 173.486 0.488366 -6.09145 0
M  V30 1806 C 174.484 -0.143411 -6.82849 0
M  V30 1807 O 174.172 -0.77055 -8.00199 0
M  V30 1808 H 173.904 0.265114 -0.621844 0
M  V30 1809 H 176.458 0.168242 -2.0471 0
M  V30 1810 H 174.688 2.58455 -2.87642 0
M  V30 1811 H 176.377 2.4175 -3.26055 0
M  V30 1812 H 177.143 0.489023 -4.82528 0
M  V30 1813 H 173.022 1.60672 -4.32094 0
M  V30 1814 H 176.566 -0.633932 -6.94714 0
M  V30 1815 H 172.463 0.490116 -6.43637 0
M  V30 1816 H 173.231 -0.670408 -8.1575 0
M  V30 1817 N 175.894 1.51508 0.433938 0
M  V30 1818 C 177.14 1.64588 1.18484 0
M  V30 1819 C 177.473 0.362666 1.90784 0
M  V30 1820 O 176.748 -0.637892 1.83742 0
M  V30 1821 C 177.031 2.85149 2.19913 0
M  V30 1822 C 176.884 4.23456 1.51674 0
M  V30 1823 C 178.203 3.01227 3.20858 0
M  V30 1824 H 175.322 0.598994 0.429389 0
M  V30 1825 H 177.964 1.84002 0.473647 0
M  V30 1826 H 176.114 2.68729 2.80566 0
M  V30 1827 H 177.786 4.51552 0.943322 0
M  V30 1828 H 176.029 4.25998 0.819035 0
M  V30 1829 H 176.7 5.03812 2.2556 0
M  V30 1830 H 179.176 3.16382 2.70263 0
M  V30 1831 H 178.052 3.87141 3.89118 0
M  V30 1832 H 178.313 2.13447 3.8716 0
M  V30 1833 N 177.372 -0.689602 1.41712 0
M  V30 1834 C 178.322 -1.79571 1.40493 0
M  V30 1835 C 179.306 -1.58473 0.278409 0
M  V30 1836 O 180.498 -1.69204 0.519532 0
M  V30 1837 C 177.627 -3.17923 1.29536 0
M  V30 1838 C 176.713 -3.44695 2.47075 0
M  V30 1839 N 177.104 -3.42132 3.72531 0
M  V30 1840 C 175.402 -3.75269 2.41017 0
M  V30 1841 C 176.103 -3.67976 4.50521 0
M  V30 1842 N 175.079 -3.88014 3.80718 0
M  V30 1843 H 178.881 -1.75961 2.35404 0
M  V30 1844 H 176.395 -0.889839 1.35851 0
M  V30 1845 H 178.392 -3.97167 1.26745 0
M  V30 1846 H 177.052 -3.22741 0.356153 0
M  V30 1847 H 178.063 -3.22375 4.05333 0
M  V30 1848 H 174.74 -3.87421 1.55599 0
M  V30 1849 H 176.13 -3.7208 5.59469 0
M  V30 1850 N 178.85 -1.27639 -0.924453 0
M  V30 1851 C 179.813 -1.10681 -2.00705 0
M  V30 1852 C 180.813 -0.0497823 -1.60723 0
M  V30 1853 O 182.003 -0.294654 -1.7169 0
M  V30 1854 C 179.135 -0.687164 -3.33902 0
M  V30 1855 H 180.328 -2.06817 -2.17179 0
M  V30 1856 H 177.881 -1.10473 -1.10569 0
M  V30 1857 H 178.616 0.275439 -3.23128 0
M  V30 1858 H 178.401 -1.45061 -3.6428 0
M  V30 1859 H 179.891 -0.590853 -4.13399 0
M  V30 1860 N 180.328 1.1314 -1.09713 0
M  V30 1861 C 181.558 1.88048 -0.855656 0
M  V30 1862 C 181.966 1.79537 0.596919 0
M  V30 1863 O 181.309 1.16196 1.42282 0
M  V30 1864 C 181.371 3.38314 -1.21589 0
M  V30 1865 C 181.035 3.70605 -2.67397 0
M  V30 1866 C 182.032 3.69596 -3.65643 0
M  V30 1867 C 179.717 4.0017 -3.03593 0
M  V30 1868 C 181.711 3.977 -4.9811 0
M  V30 1869 C 179.398 4.27935 -4.36251 0
M  V30 1870 C 180.396 4.26685 -5.33318 0
M  V30 1871 O 180.084 4.53767 -6.63589 0
M  V30 1872 H 179.816 0.60208 -0.307368 0
M  V30 1873 H 182.37 1.44128 -1.46343 0
M  V30 1874 H 180.6 3.82752 -0.551177 0
M  V30 1875 H 182.289 3.94552 -0.953083 0
M  V30 1876 H 183.055 3.46826 -3.39023 0
M  V30 1877 H 178.934 4.00289 -2.2867 0
M  V30 1878 H 182.478 3.9664 -5.73866 0
M  V30 1879 H 178.375 4.50178 -4.62613 0
M  V30 1880 H 179.143 4.71422 -6.69107 0
M  V30 1881 N 181.806 0.884767 1.30421 0
M  V30 1882 C 183.034 0.518044 2.0031 0
M  V30 1883 C 183.449 -0.893408 1.66324 0
M  V30 1884 O 182.806 -1.5875 0.900262 0
M  V30 1885 C 182.857 0.682997 3.54989 0
M  V30 1886 O 182.578 2.03888 3.87764 0
M  V30 1887 C 184.079 0.31924 4.42149 0
M  V30 1888 H 181.299 0.200265 0.640418 0
M  V30 1889 H 183.843 1.19001 1.6631 0
M  V30 1890 H 181.998 0.0584052 3.87356 0
M  V30 1891 H 182.412 2.05735 4.82466 0
M  V30 1892 H 183.886 0.485555 5.4986 0
M  V30 1893 H 184.363 -0.742717 4.32875 0
M  V30 1894 H 184.969 0.920147 4.15227 0
M  V30 1895 N 183.284 -1.43765 0.645699 0
M  V30 1896 C 184.214 -2.33471 -0.0370477 0
M  V30 1897 C 185.195 -1.49042 -0.819779 0
M  V30 1898 O 186.38 -1.77726 -0.782758 0
M  V30 1899 C 183.51 -3.32311 -1.0093 0
M  V30 1900 C 182.464 -4.2667 -0.337201 0
M  V30 1901 C 181.79 -5.1549 -1.42037 0
M  V30 1902 C 183.09 -5.16657 0.765706 0
M  V30 1903 H 184.784 -2.90809 0.712069 0
M  V30 1904 H 182.33 -1.39834 0.343876 0
M  V30 1905 H 184.283 -3.9396 -1.49578 0
M  V30 1906 H 183.007 -2.73213 -1.78948 0
M  V30 1907 H 181.666 -3.66374 0.128771 0
M  V30 1908 H 181.314 -4.52735 -2.1918 0
M  V30 1909 H 181.014 -5.79438 -0.975966 0
M  V30 1910 H 182.538 -5.80012 -1.90838 0
M  V30 1911 H 183.952 -5.72158 0.361702 0
M  V30 1912 H 182.349 -5.89286 1.13413 0
M  V30 1913 H 183.419 -4.56796 1.62683 0
M  V30 1914 N 184.763 -0.387143 -1.52771 0
M  V30 1915 C 185.993 0.195585 -2.05672 0
M  V30 1916 C 186.401 1.41241 -1.25887 0
M  V30 1917 O 185.744 1.81265 -0.298081 0
M  V30 1918 C 185.806 0.632327 -3.53895 0
M  V30 1919 C 185.47 -0.470739 -4.54569 0
M  V30 1920 C 186.467 -1.32746 -5.02667 0
M  V30 1921 C 184.152 -0.637151 -4.98243 0
M  V30 1922 C 186.146 -2.33574 -5.93061 0
M  V30 1923 C 183.833 -1.64877 -5.88438 0
M  V30 1924 C 184.831 -2.49649 -6.35739 0
M  V30 1925 O 184.519 -3.49082 -7.24153 0
M  V30 1926 H 184.251 0.033658 -0.675162 0
M  V30 1927 H 186.805 -0.550221 -1.97893 0
M  V30 1928 H 185.035 1.43008 -3.59285 0
M  V30 1929 H 186.724 1.14048 -3.89548 0
M  V30 1930 H 187.49 -1.21019 -4.69659 0
M  V30 1931 H 183.369 0.0129567 -4.60998 0
M  V30 1932 H 186.913 -2.99777 -6.29904 0
M  V30 1933 H 182.81 -1.76643 -6.2086 0
M  V30 1934 H 183.578 -3.45065 -7.42208 0
M  V30 1935 N 186.241 1.57166 -0.116904 0
M  V30 1936 C 187.466 1.999 0.55271 0
M  V30 1937 C 187.891 0.996039 1.59564 0
M  V30 1938 O 187.249 -0.032556 1.81271 0
M  V30 1939 C 187.297 3.4152 1.15742 0
M  V30 1940 O 186.401 3.44106 2.27299 0
M  V30 1941 H 185.742 0.649447 0.138258 0
M  V30 1942 H 188.272 2.03573 -0.204759 0
M  V30 1943 H 188.282 3.79684 1.49346 0
M  V30 1944 H 186.957 4.14034 0.393493 0
M  V30 1945 H 185.534 3.17759 1.9515 0
M  V30 1946 N 187.719 -0.156864 1.56817 0
M  V30 1947 C 188.682 -1.17781 1.96622 0
M  V30 1948 C 189.682 -1.36401 0.851555 0
M  V30 1949 O 190.872 -1.33561 1.11836 0
M  V30 1950 C 188.004 -2.54008 2.27361 0
M  V30 1951 H 189.197 -0.836564 2.87996 0
M  V30 1952 H 186.75 -0.39985 1.51099 0
M  V30 1953 H 187.485 -2.9312 1.38748 0
M  V30 1954 H 187.27 -2.41856 3.08623 0
M  V30 1955 H 188.76 -3.27558 2.59029 0
M  V30 1956 N 189.197 -1.51736 -0.425897 0
M  V30 1957 C 190.443 -1.65214 -1.1761 0
M  V30 1958 C 190.776 -0.372778 -1.90589 0
M  V30 1959 O 190.051 0.628139 -1.84078 0
M  V30 1960 C 190.334 -2.86312 -2.18398 0
M  V30 1961 C 190.187 -4.24254 -1.49426 0
M  V30 1962 C 191.506 -3.02925 -3.19256 0
M  V30 1963 H 188.625 -0.601263 -0.426206 0
M  V30 1964 H 191.267 -1.8425 -0.463882 0
M  V30 1965 H 189.417 -2.70213 -2.79137 0
M  V30 1966 H 191.089 -4.52046 -0.919362 0
M  V30 1967 H 189.332 -4.26426 -0.796432 0
M  V30 1968 H 190.003 -5.05001 -2.22885 0
M  V30 1969 H 192.479 -3.1781 -2.68581 0
M  V30 1970 H 191.355 -3.89199 -3.8706 0
M  V30 1971 H 191.616 -2.15497 -3.86023 0
M  V30 1972 N 190.675 0.682077 -1.42076 0
M  V30 1973 C 192.091 0.994324 -1.24841 0
M  V30 1974 C 192.291 2.0096 -0.147389 0
M  V30 1975 O 191.347 2.47822 0.483782 0
M  V30 1976 C 192.66 1.50607 -2.60265 0
M  V30 1977 C 194.208 1.62421 -2.6756 0
M  V30 1978 C 194.683 2.16994 -4.03333 0
M  V30 1979 N 196.174 2.24337 -4.0525 0
M  V30 1980 C 196.909 2.67621 -5.07116 0
M  V30 1981 N 196.405 3.1041 -6.19368 0
M  V30 1982 N 198.198 2.67305 -4.94474 0
M  V30 1983 H 190.349 0.00973908 -2.12398 0
M  V30 1984 H 192.612 0.0668593 -0.945639 0
M  V30 1985 H 192.318 0.834583 -3.41654 0
M  V30 1986 H 192.192 2.48602 -2.83684 0
M  V30 1987 H 194.579 2.28678 -1.86521 0
M  V30 1988 H 194.66 0.629352 -2.47937 0
M  V30 1989 H 194.304 1.51349 -4.84826 0
M  V30 1990 H 194.234 3.17258 -4.20304 0
M  V30 1991 H 196.725 1.94158 -3.24209 0
M  V30 1992 H 197.038 3.42103 -6.92954 0
M  V30 1993 H 195.383 3.08286 -6.22884 0
M  V30 1994 H 198.574 2.33233 -4.05857 0
M  V30 1995 H 198.747 3.00718 -5.73997 0
M  V30 1996 N 192.153 1.28127 0.917671 0
M  V30 1997 C 193.564 1.13622 1.48145 0
M  V30 1998 C 193.915 -0.275207 1.9426 0
M  V30 1999 O 193.04 -1.1691 1.82102 0
M  V30 2000 C 193.635 2.05648 2.69248 0
M  V30 2001 C 192.194 1.95219 3.21818 0
M  V30 2002 C 191.341 1.97618 1.94532 0
M  V30 2003 H 194.292 1.40874 0.730772 0
M  V30 2004 H 194.313 1.61818 3.44377 0
M  V30 2005 H 193.825 3.08365 2.35653 0
M  V30 2006 H 191.926 0.955244 3.60147 0
M  V30 2007 H 192.039 2.81976 3.87333 0
M  V30 2008 H 190.403 1.41973 2.11461 0
M  V30 2009 H 191.186 3.02007 1.63238 0
M  V30 2010 N 193.631 -1.12557 1.10312 0
M  V30 2011 C 194.878 -1.84038 0.844759 0
M  V30 2012 C 195.206 -1.84026 -0.629668 0
M  V30 2013 O 194.461 -1.28026 -1.48013 0
M  V30 2014 C 194.76 -3.31462 1.33669 0
M  V30 2015 C 194.426 -3.51647 2.82232 0
M  V30 2016 C 193.088 -3.56864 3.22802 0
M  V30 2017 C 195.44 -3.58867 3.77974 0
M  V30 2018 C 192.768 -3.66844 4.57867 0
M  V30 2019 C 195.12 -3.70375 5.1284 0
M  V30 2020 C 193.784 -3.73848 5.52986 0
M  V30 2021 H 193.054 -0.673444 0.309119 0
M  V30 2022 H 195.701 -1.32824 1.37949 0
M  V30 2023 H 194.006 -3.85091 0.721949 0
M  V30 2024 H 195.703 -3.85236 1.11329 0
M  V30 2025 H 192.293 -3.48249 2.49842 0
M  V30 2026 H 196.477 -3.54107 3.47738 0
M  V30 2027 H 191.733 -3.67804 4.88396 0
M  V30 2028 H 195.907 -3.74904 5.86873 0
M  V30 2029 H 193.534 -3.81333 6.57639 0
M  V30 2030 N 195.109 -0.891671 -1.2995 0
M  V30 2031 C 196.357 -0.512486 -1.95494 0
M  V30 2032 C 196.678 0.942776 -1.70695 0
M  V30 2033 O 195.948 1.66374 -1.03424 0
M  V30 2034 H 194.528 -0.186533 -0.723336 0
M  V30 2035 H 197.19 -1.13621 -1.58355 0
M  V30 2036 H 196.286 -0.688342 -3.04415 0
M  V30 2037 N 196.587 1.43421 -0.653314 0
M  V30 2038 C 197.827 2.03689 -0.170346 0
M  V30 2039 C 198.191 1.50427 1.19314 0
M  V30 2040 O 199.392 2.0234 1.76952 0
M  V30 2041 C 197.663 3.56946 -0.180183 0
M  V30 2042 S 199.222 4.38171 0.234925 0
M  V30 2043 H 196.04 0.707345 -0.0719976 0
M  V30 2044 H 198.642 1.75486 -0.86167 0
M  V30 2045 H 197.346 3.93212 -1.17526 0
M  V30 2046 H 196.877 3.89791 0.531675 0
M  V30 2047 H 198.892 4.73808 1.47378 0
M  V30 2048 N 198.065 0.39524 1.52563 0
M  V30 2049 C 199.29 -0.187456 2.06551 0
M  V30 2050 C 199.715 -1.39249 1.26457 0
M  V30 2051 O 199.073 -1.78947 0.291151 0
M  V30 2052 C 199.121 -0.529985 3.56684 0
M  V30 2053 O 198.225 -1.62307 3.79118 0
M  V30 2054 H 197.566 -0.0202537 0.663691 0
M  V30 2055 H 200.096 0.564426 1.96661 0
M  V30 2056 H 200.106 -0.792598 4.00227 0
M  V30 2057 H 198.781 0.350987 4.14416 0
M  V30 2058 H 197.358 -1.3537 3.47461 0
M  V30 2059 N 199.544 -1.57102 0.125237 0
M  V30 2060 C 200.791 -1.95407 -0.531248 0
M  V30 2061 C 201.119 -1.0089 -1.66287 0
M  V30 2062 O 200.374 -0.0339431 -1.95671 0
M  V30 2063 C 200.673 -3.40096 -1.09862 0
M  V30 2064 C 200.339 -4.50815 -0.0876989 0
M  V30 2065 C 199.001 -4.80824 0.19026 0
M  V30 2066 C 201.353 -5.17724 0.600902 0
M  V30 2067 C 198.681 -5.75058 1.163 0
M  V30 2068 C 201.033 -6.13005 1.56231 0
M  V30 2069 C 199.697 -6.41403 1.8482 0
M  V30 2070 H 198.967 -0.715046 -0.194397 0
M  V30 2071 H 201.614 -1.90373 0.207463 0
M  V30 2072 H 199.919 -3.41855 -1.91422 0
M  V30 2073 H 201.616 -3.6705 -1.61478 0
M  V30 2074 H 198.206 -4.27444 -0.314528 0
M  V30 2075 H 202.39 -4.94691 0.399333 0
M  V30 2076 H 197.646 -5.95362 1.39117 0
M  V30 2077 H 201.82 -6.63934 2.10153 0
M  V30 2078 H 199.447 -7.14229 2.60349 0
M  V30 2079 N 201.022 0.148545 -1.56898 0
M  V30 2080 C 201.955 1.21293 -1.93296 0
M  V30 2081 C 202.933 1.41637 -0.798599 0
M  V30 2082 O 204.117 1.56275 -1.05406 0
M  V30 2083 C 201.244 2.5721 -2.20365 0
M  V30 2084 C 200.29 2.53469 -3.4301 0
M  V30 2085 S 201.123 2.00315 -4.96623 0
M  V30 2086 C 202.279 3.37964 -5.26812 0
M  V30 2087 H 202.512 0.902393 -2.83274 0
M  V30 2088 H 200.045 0.354094 -1.50285 0
M  V30 2089 H 202.003 3.35427 -2.36641 0
M  V30 2090 H 200.664 2.85454 -1.31054 0
M  V30 2091 H 199.857 3.53518 -3.59223 0
M  V30 2092 H 199.459 1.83359 -3.25968 0
M  V30 2093 H 201.751 4.34066 -5.20185 0
M  V30 2094 H 202.694 3.26606 -6.28279 0
M  V30 2095 H 203.102 3.35028 -4.54331 0
M  V30 2096 N 202.5 1.5196 0.417844 0
M  V30 2097 C 203.43 1.77634 1.51554 0
M  V30 2098 C 204.411 0.626918 1.58126 0
M  V30 2099 O 205.596 0.871632 1.7354 0
M  V30 2100 C 202.726 1.91911 2.8946 0
M  V30 2101 C 201.68 3.07463 2.97743 0
M  V30 2102 C 201.006 3.06951 4.37819 0
M  V30 2103 C 202.306 4.47082 2.70027 0
M  V30 2104 H 204 2.6955 1.3032 0
M  V30 2105 H 201.546 1.29706 0.625492 0
M  V30 2106 H 203.499 2.08455 3.6623 0
M  V30 2107 H 202.223 0.966598 3.11969 0
M  V30 2108 H 200.882 2.90656 2.23416 0
M  V30 2109 H 200.53 2.09438 4.57323 0
M  V30 2110 H 200.23 3.84556 4.44286 0
M  V30 2111 H 201.754 3.25613 5.16535 0
M  V30 2112 H 203.168 4.6414 3.36522 0
M  V30 2113 H 201.565 5.2654 2.87881 0
M  V30 2114 H 202.635 4.55777 1.65514 0
M  V30 2115 N 203.978 -0.674533 1.42435 0
M  V30 2116 C 205.226 -1.43175 1.42637 0
M  V30 2117 C 205.547 -1.94951 0.0438992 0
M  V30 2118 O 204.817 -1.7308 -0.917607 0
M  V30 2119 H 203.397 -0.531307 0.525092 0
M  V30 2120 H 206.059 -0.797006 1.77859 0
M  V30 2121 H 205.155 -2.28463 2.12629 0
M  V30 2122 N 205.456 -1.28612 -0.910864 0
M  V30 2123 C 206.681 -1.1891 -1.69927 0
M  V30 2124 C 207.106 0.248372 -1.86453 0
M  V30 2125 O 206.464 1.17961 -1.37676 0
M  V30 2126 C 206.512 -1.89578 -3.06745 0
M  V30 2127 O 205.616 -1.20521 -3.94396 0
M  V30 2128 H 204.957 -0.412632 -0.520222 0
M  V30 2129 H 207.487 -1.69985 -1.1387 0
M  V30 2130 H 207.497 -1.97597 -3.56958 0
M  V30 2131 H 206.172 -2.94136 -2.94035 0
M  V30 2132 H 204.749 -1.20684 -3.52831 0
M  V30 2133 N 206.934 1.1197 -1.10907 0
M  V30 2134 C 208.164 1.8713 -0.875553 0
M  V30 2135 C 208.572 1.8016 0.577843 0
M  V30 2136 O 207.915 1.17699 1.41042 0
M  V30 2137 C 207.977 3.37005 -1.2517 0
M  V30 2138 C 207.641 3.67748 -2.71313 0
M  V30 2139 C 208.638 3.65698 -3.69542 0
M  V30 2140 C 206.323 3.96928 -3.07821 0
M  V30 2141 C 208.317 3.92395 -5.023 0
M  V30 2142 C 206.004 4.23284 -4.40765 0
M  V30 2143 C 207.002 4.21005 -5.37814 0
M  V30 2144 O 206.69 4.46704 -6.68364 0
M  V30 2145 H 206.422 0.598786 -0.313737 0
M  V30 2146 H 208.976 1.42568 -1.47863 0
M  V30 2147 H 207.206 3.82146 -0.591741 0
M  V30 2148 H 208.895 3.93519 -0.994877 0
M  V30 2149 H 209.661 3.43211 -3.42682 0
M  V30 2150 H 205.54 3.97841 -2.32902 0
M  V30 2151 H 209.084 3.90531 -5.78041 0
M  V30 2152 H 204.981 4.45246 -4.67361 0
M  V30 2153 H 205.749 4.64299 -6.74069 0
M  V30 2154 N 208.412 0.89855 1.29475 0
M  V30 2155 C 209.637 0.538561 2.00285 0
M  V30 2156 C 210.062 -0.869135 1.66816 0
M  V30 2157 O 209.42 -1.57831 0.892145 0
M  V30 2158 C 209.468 0.736475 3.52999 0
M  V30 2159 O 208.572 -0.211537 4.11857 0
M  V30 2160 H 207.913 0.210563 0.62973 0
M  V30 2161 H 210.443 1.20982 1.64998 0
M  V30 2162 H 210.453 0.640685 4.02938 0
M  V30 2163 H 209.128 1.76276 3.76696 0
M  V30 2164 H 207.705 -0.0682991 3.72837 0
M  V30 2165 N 209.89 -1.43072 0.660911 0
M  V30 2166 C 211.136 -2.0202 0.177708 0
M  V30 2167 C 211.469 -1.52066 -1.20787 0
M  V30 2168 O 210.744 -0.716987 -1.80802 0
M  V30 2169 C 211.027 -3.59561 0.197019 0
M  V30 2170 C 210.88 -4.19727 1.61706 0
M  V30 2171 C 212.199 -4.37664 -0.462396 0
M  V30 2172 H 209.318 -0.734034 0.0660494 0
M  V30 2173 H 211.96 -1.70272 0.843058 0
M  V30 2174 H 210.11 -3.86739 -0.369527 0
M  V30 2175 H 211.782 -4.03553 2.23479 0
M  V30 2176 H 210.025 -3.76084 2.16201 0
M  V30 2177 H 210.696 -5.28834 1.58237 0
M  V30 2178 H 213.172 -4.16095 0.0197215 0
M  V30 2179 H 212.048 -5.47305 -0.418188 0
M  V30 2180 H 212.309 -4.14493 -1.53778 0
M  V30 2181 N 211.368 -0.403325 -1.52352 0
M  V30 2182 C 212.316 0.439752 -2.28405 0
M  V30 2183 C 213.31 1.05089 -1.32863 0
M  V30 2184 O 214.516 0.989759 -1.50345 0
M  V30 2185 H 210.891 0.160587 -0.734653 0
M  V30 2186 H 212.862 -0.222983 -2.97566 0
M  V30 2187 C 211.611 1.54736 -3.11371 0
M  V30 2188 H 210.934 1.08643 -3.84755 0
M  V30 2189 H 212.374 2.1112 -3.67701 0
M  V30 2190 C 210.833 2.51141 -2.24566 0
M  V30 2191 O 211.363 3.54887 -1.88196 0
M  V30 2192 N 209.569 2.21213 -1.8845 0
M  V30 2193 H 209.116 1.36878 -2.18225 0
M  V30 2194 H 209.074 2.85963 -1.30662 0
M  V30 2195 N 212.846 1.57033 -0.133567 0
M  V30 2196 C 214.123 1.87256 0.56522 0
M  V30 2197 C 214.503 1.03726 1.83859 0
M  V30 2198 O 213.851 0.120247 2.28183 0
M  V30 2199 C 214.061 3.3865 0.843636 0
M  V30 2200 C 215.409 4.07574 1.19032 0
M  V30 2201 O 216.433 3.43752 0.933429 0
M  V30 2202 O 215.292 5.20259 1.67312 0
M  V30 2203 H 212.386 0.775678 0.286796 0
M  V30 2204 H 214.932 1.68855 -0.169168 0
M  V30 2205 H 213.704 3.91257 -0.0581149 0
M  V30 2206 H 213.327 3.62532 1.63268 0
M  V30 2207 N 214.325 -0.140222 1.56975 0
M  V30 2208 C 215.573 -0.850005 1.83356 0
M  V30 2209 C 215.894 -1.81399 0.71551 0
M  V30 2210 O 215.164 -1.94136 -0.262294 0
M  V30 2211 H 213.744 -0.316886 0.676456 0
M  V30 2212 H 216.406 -0.132608 1.94448 0
M  V30 2213 H 215.502 -1.40814 2.78528 0
M  V30 2214 N 215.803 -1.52179 -0.40978 0
M  V30 2215 C 216.766 -1.74853 -1.48186 0
M  V30 2216 C 217.766 -0.618417 -1.48433 0
M  V30 2217 O 218.956 -0.886286 -1.49969 0
M  V30 2218 C 216.088 -1.8303 -2.87598 0
M  V30 2219 H 217.281 -2.70559 -1.29374 0
M  V30 2220 H 214.834 -1.42586 -0.640233 0
M  V30 2221 H 215.569 -0.89236 -3.11781 0
M  V30 2222 H 215.354 -2.65187 -2.88822 0
M  V30 2223 H 216.844 -2.02316 -3.65319 0
M  V30 2224 N 217.281 0.66697 -1.42791 0
M  V30 2225 C 218.213 1.7925 -1.42836 0
M  V30 2226 C 219.226 1.59496 -0.326333 0
M  V30 2227 O 220.415 1.6847 -0.589916 0
M  V30 2228 C 217.515 3.16476 -1.21229 0
M  V30 2229 C 216.688 3.63011 -2.44013 0
M  V30 2230 C 215.747 4.78993 -2.17834 0
M  V30 2231 O 214.773 4.89137 -2.91091 0
M  V30 2232 N 215.975 5.68248 -1.18635 0
M  V30 2233 H 218.74 1.79695 -2.39854 0
M  V30 2234 H 216.301 0.850338 -1.37771 0
M  V30 2235 H 218.293 3.91734 -1.01621 0
M  V30 2236 H 216.863 3.10884 -0.32706 0
M  V30 2237 H 216.083 2.78346 -2.79137 0
M  V30 2238 H 217.371 3.90845 -3.25757 0
M  V30 2239 H 216.769 5.62712 -0.580615 0
M  V30 2240 H 215.326 6.43285 -1.05013 0
M  V30 2241 N 218.759 1.29093 0.90403 0
M  V30 2242 C 219.689 1.16401 2.02418 0
M  V30 2243 C 220.67 0.0593085 1.69997 0
M  V30 2244 O 221.855 0.238021 1.92736 0
M  V30 2245 C 218.985 0.835233 3.37107 0
M  V30 2246 C 217.939 1.89578 3.83724 0
M  V30 2247 C 217.265 1.42041 5.15489 0
M  V30 2248 C 218.565 3.30394 4.04521 0
M  V30 2249 H 220.259 2.10109 2.13295 0
M  V30 2250 H 217.805 1.01157 1.02486 0
M  V30 2251 H 219.758 0.733169 4.14973 0
M  V30 2252 H 218.482 -0.137543 3.2631 0
M  V30 2253 H 217.141 1.98715 3.08071 0
M  V30 2254 H 216.789 0.436426 5.01103 0
M  V30 2255 H 216.489 2.12964 5.4765 0
M  V30 2256 H 218.013 1.33176 5.959 0
M  V30 2257 H 219.427 3.24123 4.72882 0
M  V30 2258 H 217.824 3.99237 4.48029 0
M  V30 2259 H 218.894 3.73692 3.09002 0
M  V30 2260 N 220.237 -1.11381 1.11499 0
M  V30 2261 C 221.467 -1.86663 0.885464 0
M  V30 2262 C 221.875 -1.80464 -0.568281 0
M  V30 2263 O 221.218 -1.18445 -1.40415 0
M  V30 2264 C 221.28 -3.36337 1.26956 0
M  V30 2265 C 220.944 -3.66304 2.73259 0
M  V30 2266 C 221.941 -3.63733 3.71476 0
M  V30 2267 C 219.626 -3.9529 3.09921 0
M  V30 2268 C 221.62 -3.89725 5.04374 0
M  V30 2269 C 219.307 -4.20941 4.43004 0
M  V30 2270 C 220.305 -4.18147 5.40039 0
M  V30 2271 O 219.993 -4.43153 6.70724 0
M  V30 2272 H 219.725 -0.597114 0.316908 0
M  V30 2273 H 222.279 -1.41782 1.48617 0
M  V30 2274 H 220.509 -3.81826 0.611999 0
M  V30 2275 H 222.198 -3.92986 1.01573 0
M  V30 2276 H 222.964 -3.41389 3.44498 0
M  V30 2277 H 218.843 -3.966 2.35009 0
M  V30 2278 H 222.387 -3.8746 5.80104 0
M  V30 2279 H 218.284 -4.42761 4.69716 0
M  V30 2280 H 219.052 -4.60717 6.76522 0
M  V30 2281 N 221.715 -0.905404 -1.28997 0
M  V30 2282 C 222.648 -0.331959 -2.25773 0
M  V30 2283 C 223.626 0.559099 -1.52685 0
M  V30 2284 O 224.81 0.50463 -1.8162 0
M  V30 2285 C 221.937 0.526276 -3.34586 0
M  V30 2286 C 220.983 -0.298249 -4.25456 0
M  V30 2287 S 221.816 -1.69968 -5.0781 0
M  V30 2288 C 222.972 -0.848519 -6.20122 0
M  V30 2289 H 223.205 -1.15222 -2.74064 0
M  V30 2290 H 220.738 -0.706112 -1.37308 0
M  V30 2291 H 222.696 1.01565 -3.97737 0
M  V30 2292 H 221.357 1.32084 -2.84978 0
M  V30 2293 H 220.55 0.357607 -5.0273 0
M  V30 2294 H 220.152 -0.720968 -3.66985 0
M  V30 2295 H 222.444 -0.0744325 -6.77459 0
M  V30 2296 H 223.387 -1.59353 -6.89937 0
M  V30 2297 H 223.795 -0.400383 -5.63078 0
M  V30 2298 N 223.193 1.4272 -0.668489 0
M  V30 2299 C 224.442 2.00846 -0.185389 0
M  V30 2300 C 224.755 1.53442 1.21305 0
M  V30 2301 O 225.961 2.03944 1.79218 0
M  V30 2302 C 224.417 3.58805 -0.280591 0
M  V30 2303 C 224.025 4.15198 -1.68268 0
M  V30 2304 C 225.769 4.24255 0.14412 0
M  V30 2305 C 223.676 5.655 -1.73099 0
M  V30 2306 H 222.606 0.751145 -0.0655475 0
M  V30 2307 H 225.257 1.63516 -0.832752 0
M  V30 2308 H 223.639 3.93608 0.434553 0
M  V30 2309 H 224.813 3.91866 -2.42441 0
M  V30 2310 H 223.128 3.62176 -2.05469 0
M  V30 2311 H 225.725 5.34547 0.128086 0
M  V30 2312 H 226.068 3.99277 1.17827 0
M  V30 2313 H 226.601 3.94389 -0.519798 0
M  V30 2314 H 223.34 5.95268 -2.74475 0
M  V30 2315 H 222.86 5.90842 -1.03274 0
M  V30 2316 H 224.539 6.29808 -1.48158 0
M  V30 2317 N 224.671 0.411399 1.52136 0
M  V30 2318 C 225.948 -0.222308 1.94333 0
M  V30 2319 C 226.328 -1.6242 1.34844 0
M  V30 2320 O 225.676 -2.22384 0.525145 0
M  V30 2321 C 225.886 -0.226345 3.48265 0
M  V30 2322 C 227.234 -0.444592 4.22266 0
M  V30 2323 O 228.258 -0.305602 3.54887 0
M  V30 2324 O 227.117 -0.718749 5.41753 0
M  V30 2325 H 224.211 -0.143907 0.814383 0
M  V30 2326 H 226.757 0.467506 1.63133 0
M  V30 2327 H 225.529 0.75475 3.83952 0
M  V30 2328 H 225.152 -0.960163 3.85832 0
M  V30 2329 N 226.149 -1.5696 0.141893 0
M  V30 2330 C 227.56 -1.82797 -0.379776 0
M  V30 2331 C 227.911 -1.06033 -1.6508 0
M  V30 2332 O 227.036 -0.304011 -2.14254 0
M  V30 2333 C 227.631 -3.31578 -0.695802 0
M  V30 2334 C 226.19 -3.58014 -1.16201 0
M  V30 2335 C 225.337 -2.76699 -0.182455 0
M  V30 2336 H 228.288 -1.54406 0.366675 0
M  V30 2337 H 228.309 -3.47454 -1.55099 0
M  V30 2338 H 227.821 -3.87421 0.229449 0
M  V30 2339 H 225.922 -3.07553 -2.10338 0
M  V30 2340 H 226.035 -4.66501 -1.09151 0
M  V30 2341 H 224.399 -2.45618 -0.674072 0
M  V30 2342 H 225.182 -3.35311 0.736297 0
M  V30 2343 N 227.627 0.131896 -1.57047 0
M  V30 2344 C 228.852 0.860418 -1.8871 0
M  V30 2345 C 229.277 1.73251 -0.73251 0
M  V30 2346 O 228.635 1.785 0.317429 0
M  V30 2347 C 228.683 1.68047 -3.19049 0
M  V30 2348 O 227.787 2.7862 -3.04047 0
M  V30 2349 H 227.128 0.238743 -0.619595 0
M  V30 2350 H 229.658 0.118169 -2.04258 0
M  V30 2351 H 229.668 2.07238 -3.51449 0
M  V30 2352 H 228.343 1.04018 -4.02682 0
M  V30 2353 H 226.92 2.42726 -2.83088 0
M  V30 2354 N 229.106 1.52395 0.401703 0
M  V30 2355 C 230.354 1.66488 1.14569 0
M  V30 2356 C 230.675 0.400897 1.90835 0
M  V30 2357 O 229.945 -0.584415 1.8698 0
M  V30 2358 H 228.525 0.613672 0.425929 0
M  V30 2359 H 231.187 1.89464 0.457093 0
M  V30 2360 H 230.283 2.50942 1.85566 0
M  V30 2361 N 230.584 -0.659388 1.43143 0
M  V30 2362 C 231.83 -1.42145 1.44647 0
M  V30 2363 C 232.163 -1.9408 0.0681907 0
M  V30 2364 O 231.438 -1.71899 -0.910007 0
M  V30 2365 C 231.721 -2.60735 2.48373 0
M  V30 2366 C 231.574 -2.14332 3.95451 0
M  V30 2367 C 232.893 -3.62951 2.48906 0
M  V30 2368 H 230.012 -0.51552 0.526696 0
M  V30 2369 H 232.654 -0.748069 1.74654 0
M  V30 2370 H 230.804 -3.18184 2.22916 0
M  V30 2371 H 232.476 -1.61932 4.31944 0
M  V30 2372 H 230.719 -1.4576 4.08578 0
M  V30 2373 H 231.39 -2.99583 4.63631 0
M  V30 2374 H 233.866 -3.1525 2.71582 0
M  V30 2375 H 232.742 -4.43487 3.23435 0
M  V30 2376 H 233.003 -4.15126 1.52061 0
M  V30 2377 N 232.062 -1.29571 -0.897171 0
M  V30 2378 C 233.287 -1.20705 -1.68656 0
M  V30 2379 C 233.712 0.228582 -1.86706 0
M  V30 2380 O 233.07 1.16494 -1.3892 0
M  V30 2381 C 233.118 -1.9282 -3.04717 0
M  V30 2382 O 232.222 -1.24697 -3.93096 0
M  V30 2383 H 231.563 -0.418126 -0.515816 0
M  V30 2384 H 234.093 -1.71183 -1.12061 0
M  V30 2385 H 234.103 -2.01372 -3.54843 0
M  V30 2386 H 232.778 -2.97239 -2.90899 0
M  V30 2387 H 231.355 -1.2442 -3.51531 0
M  V30 2388 N 233.54 1.10788 -1.12088 0
M  V30 2389 C 234.77 1.86191 -0.895351 0
M  V30 2390 C 235.178 1.80763 0.558702 0
M  V30 2391 O 234.521 1.19188 1.39785 0
M  V30 2392 C 234.583 3.35659 -1.28737 0
M  V30 2393 C 234.247 3.64849 -2.75198 0
M  V30 2394 C 235.244 3.61757 -3.734 0
M  V30 2395 C 232.929 3.93641 -3.12013 0
M  V30 2396 C 234.923 3.87045 -5.06434 0
M  V30 2397 C 232.61 4.18585 -4.4523 0
M  V30 2398 C 233.608 4.15277 -5.42249 0
M  V30 2399 O 233.296 4.3959 -6.73065 0
M  V30 2400 H 233.028 0.595425 -0.32007 0
M  V30 2401 H 235.582 1.40992 -1.49367 0
M  V30 2402 H 233.812 3.81497 -0.63224 0
M  V30 2403 H 235.501 3.92441 -1.03656 0
M  V30 2404 H 236.267 3.39557 -3.46303 0
M  V30 2405 H 232.146 3.95348 -2.37109 0
M  V30 2406 H 235.69 3.84378 -5.82151 0
M  V30 2407 H 231.587 4.40264 -4.72057 0
M  V30 2408 H 232.355 4.57123 -6.78956 0
M  V30 2409 N 235.018 0.912232 1.28515 0
M  V30 2410 C 236.266 0.543523 1.94654 0
M  V30 2411 C 236.587 -0.9155 1.72173 0
M  V30 2412 O 235.857 -1.64708 1.06058 0
M  V30 2413 H 234.437 0.198017 0.720277 0
M  V30 2414 H 237.099 1.16126 1.56527 0
M  V30 2415 H 236.195 0.736684 3.03281 0
M  V30 2416 N 236.496 -1.42363 0.676048 0
M  V30 2417 C 237.726 -2.05561 0.206967 0
M  V30 2418 C 238.134 -1.50887 -1.14148 0
M  V30 2419 O 237.477 -0.643933 -1.72044 0
M  V30 2420 C 237.539 -3.5944 0.0659508 0
M  V30 2421 C 237.203 -4.36812 1.34331 0
M  V30 2422 C 238.2 -4.67383 2.27704 0
M  V30 2423 C 235.885 -4.76429 1.59125 0
M  V30 2424 C 237.879 -5.36509 3.44147 0
M  V30 2425 C 235.566 -5.45294 2.75857 0
M  V30 2426 C 236.564 -5.75259 3.68193 0
M  V30 2427 O 236.252 -6.42712 4.82883 0
M  V30 2428 H 235.984 -0.668872 0.0979084 0
M  V30 2429 H 238.538 -1.83467 0.923531 0
M  V30 2430 H 236.768 -3.80197 -0.706204 0
M  V30 2431 H 238.457 -4.0427 -0.363418 0
M  V30 2432 H 239.223 -4.37275 2.09799 0
M  V30 2433 H 235.102 -4.52498 0.881258 0
M  V30 2434 H 238.646 -5.59814 4.16238 0
M  V30 2435 H 234.543 -5.7482 2.93688 0
M  V30 2436 H 235.311 -6.61204 4.82444 0
M  V30 2437 N 237.974 -0.419461 -1.51915 0
M  V30 2438 C 239.22 0.145505 -2.02879 0
M  V30 2439 C 239.575 1.41926 -1.29903 0
M  V30 2440 O 238.868 1.87383 -0.399782 0
M  V30 2441 C 239.062 0.437067 -3.54717 0
M  V30 2442 C 238.891 -0.806877 -4.42402 0
M  V30 2443 C 237.661 -1.33514 -4.87342 0
M  V30 2444 C 239.859 -1.68796 -4.85811 0
M  V30 2445 N 237.841 -2.53349 -5.59185 0
M  V30 2446 C 239.212 -2.73247 -5.56539 0
M  V30 2447 C 241.267 -1.70449 -4.67816 0
M  V30 2448 C 239.97 -3.79276 -6.11181 0
M  V30 2449 C 241.996 -2.75403 -5.23361 0
M  V30 2450 C 241.358 -3.78575 -5.9402 0
M  V30 2451 H 237.457 0.0145424 -0.781865 0
M  V30 2452 H 240.041 -0.576126 -1.85981 0
M  V30 2453 H 238.212 1.12774 -3.71667 0
M  V30 2454 H 239.944 0.99182 -3.92358 0
M  V30 2455 H 236.699 -0.891657 -4.65131 0
M  V30 2456 H 237.123 -3.14066 -5.99743 0
M  V30 2457 H 241.765 -0.920209 -4.12664 0
M  V30 2458 H 239.483 -4.58554 -6.65397 0
M  V30 2459 H 243.069 -2.77603 -5.113 0
M  V30 2460 H 241.949 -4.58453 -6.36231 0
M  V30 2461 N 239.452 1.56882 -0.150215 0
M  V30 2462 C 240.7 1.9584 0.499105 0
M  V30 2463 C 241.021 1.03623 1.65188 0
M  V30 2464 O 240.291 0.0984084 1.95653 0
M  V30 2465 H 238.871 0.723119 0.187373 0
M  V30 2466 H 241.533 1.9358 -0.226466 0
M  V30 2467 H 240.629 2.99638 0.873122 0
M  V30 2468 N 240.93 -0.123565 1.57115 0
M  V30 2469 C 242.17 -0.838097 1.86428 0
M  V30 2470 C 242.534 -1.77266 0.737611 0
M  V30 2471 O 243.735 -2.52842 0.912389 0
M  V30 2472 C 242.006 -1.57219 3.20962 0
M  V30 2473 S 243.565 -2.32893 3.71896 0
M  V30 2474 H 240.383 -0.279811 0.653626 0
M  V30 2475 H 242.985 -0.0967034 1.95261 0
M  V30 2476 H 241.689 -0.877522 4.00909 0
M  V30 2477 H 241.22 -2.35405 3.15195 0
M  V30 2478 H 243.235 -3.5853 3.43032 0
M  V30 2479 N 242.408 -1.52605 -0.393616 0
M  V30 2480 C 243.371 -1.76415 -1.46323 0
M  V30 2481 C 244.371 -0.634126 -1.47768 0
M  V30 2482 O 245.561 -0.902142 -1.4902 0
M  V30 2483 C 242.693 -1.8607 -2.85641 0
M  V30 2484 H 243.886 -2.71916 -1.26498 0
M  V30 2485 H 241.439 -1.43257 -0.625073 0
M  V30 2486 H 242.174 -0.925378 -3.10817 0
M  V30 2487 H 241.959 -2.68235 -2.85993 0
M  V30 2488 H 243.449 -2.06179 -3.63153 0
M  V30 2489 N 243.887 0.651787 -1.4349 0
M  V30 2490 C 245.136 1.40754 -1.44469 0
M  V30 2491 C 245.449 1.95463 -0.0731845 0
M  V30 2492 O 246.655 2.71471 0.0395721 0
M  V30 2493 C 245.111 2.54735 -2.5424 0
M  V30 2494 C 244.719 2.06628 -3.97504 0
M  V30 2495 C 246.463 3.32092 -2.64414 0
M  V30 2496 C 244.37 3.17829 -4.98737 0
M  V30 2497 H 243.3 0.528862 -0.53742 0
M  V30 2498 H 245.951 0.703365 -1.69485 0
M  V30 2499 H 244.333 3.2763 -2.22428 0
M  V30 2500 H 245.507 1.40734 -4.38783 0
M  V30 2501 H 243.822 1.42146 -3.91387 0
M  V30 2502 H 246.419 4.14952 -3.37223 0
M  V30 2503 H 246.762 3.80217 -1.69532 0
M  V30 2504 H 247.295 2.66279 -2.95534 0
M  V30 2505 H 244.034 2.74671 -5.95177 0
M  V30 2506 H 243.554 3.82429 -4.62069 0
M  V30 2507 H 245.233 3.82937 -5.21505 0
M  V30 2508 N 245.365 1.30045 0.890287 0
M  V30 2509 C 246.613 1.18327 1.63839 0
M  V30 2510 C 246.934 -0.263455 1.93212 0
M  V30 2511 O 246.204 -1.17856 1.56482 0
M  V30 2512 H 244.784 0.434933 0.607324 0
M  V30 2513 H 247.446 1.631 1.06698 0
M  V30 2514 H 246.542 1.74024 2.59079 0
M  V30 2515 N 246.843 -1.10192 1.12674 0
M  V30 2516 C 247.79 -2.16606 0.796906 0
M  V30 2517 C 248.76 -1.64394 -0.237476 0
M  V30 2518 O 249.945 -1.90474 -0.111484 0
M  V30 2519 C 247.085 -3.44116 0.26043 0
M  V30 2520 C 246.198 -4.10268 1.35293 0
M  V30 2521 C 245.333 -5.25507 0.775621 0
M  V30 2522 C 244.372 -5.83567 1.84706 0
M  V30 2523 N 243.509 -6.90179 1.28829 0
M  V30 2524 H 248.349 -2.44163 1.70846 0
M  V30 2525 H 245.886 -1.19846 0.85295 0
M  V30 2526 H 247.844 -4.17143 -0.0686814 0
M  V30 2527 H 246.474 -3.16901 -0.614274 0
M  V30 2528 H 245.526 -3.35184 1.79877 0
M  V30 2529 H 246.838 -4.4946 2.16303 0
M  V30 2530 H 245.992 -6.05398 0.397327 0
M  V30 2531 H 244.731 -4.87656 -0.0656581 0
M  V30 2532 H 243.736 -5.02344 2.23452 0
M  V30 2533 H 244.961 -6.23482 2.69161 0
M  V30 2534 H 242.907 -6.54322 0.468881 0
M  V30 2535 H 242.824 -7.28097 2.03497 0
M  V30 2536 H 244.092 -7.73844 0.937311 0
M  V30 2537 N 248.321 -0.919034 -1.28029 0
M  V30 2538 C 249.284 -0.416182 -2.2539 0
M  V30 2539 C 250.284 0.460438 -1.54067 0
M  V30 2540 O 251.474 0.262744 -1.72207 0
M  V30 2541 C 248.606 0.402707 -3.38513 0
M  V30 2542 H 249.799 -1.27629 -2.71387 0
M  V30 2543 H 247.352 -0.698919 -1.39803 0
M  V30 2544 H 248.087 1.282 -2.97885 0
M  V30 2545 H 247.872 -0.225698 -3.9145 0
M  V30 2546 H 249.362 0.745191 -4.10897 0
M  V30 2547 N 249.799 1.42003 -0.683588 0
M  V30 2548 C 251.215 1.55625 -0.353976 0
M  V30 2549 C 251.415 1.66151 1.14 0
M  V30 2550 O 250.471 1.63329 1.92561 0
M  V30 2551 C 251.784 2.80171 -1.092 0
M  V30 2552 C 253.332 2.93954 -1.07518 0
M  V30 2553 C 253.807 4.21372 -1.79471 0
M  V30 2554 N 255.298 4.28303 -1.76381 0
M  V30 2555 C 256.033 5.25729 -2.28904 0
M  V30 2556 N 255.529 6.29254 -2.89846 0
M  V30 2557 N 257.322 5.17586 -2.19228 0
M  V30 2558 H 249.473 1.33415 -1.6527 0
M  V30 2559 H 251.736 0.64282 -0.696769 0
M  V30 2560 H 251.442 2.78561 -2.14701 0
M  V30 2561 H 251.316 3.7133 -0.662862 0
M  V30 2562 H 253.703 2.95086 -0.028475 0
M  V30 2563 H 253.784 2.04002 -1.54328 0
M  V30 2564 H 253.428 4.21001 -2.84114 0
M  V30 2565 H 253.358 5.10275 -1.30104 0
M  V30 2566 H 255.849 3.54119 -1.31939 0
M  V30 2567 H 256.162 6.99964 -3.27522 0
M  V30 2568 H 254.507 6.29791 -2.93919 0
M  V30 2569 H 257.698 4.35631 -1.71299 0
M  V30 2570 H 257.871 5.93348 -2.60466 0
M  V30 2571 N 251.277 0.427512 1.51691 0
M  V30 2572 C 252.209 -0.424521 2.25234 0
M  V30 2573 C 253.222 -0.994671 1.2888 0
M  V30 2574 O 254.411 -0.890483 1.54702 0
M  V30 2575 C 251.511 -1.60479 2.98496 0
M  V30 2576 C 250.684 -1.15527 4.21868 0
M  V30 2577 C 249.743 -2.20454 4.77793 0
M  V30 2578 O 248.769 -1.8029 5.39893 0
M  V30 2579 N 249.971 -3.52831 4.60967 0
M  V30 2580 H 252.736 0.205749 2.98993 0
M  V30 2581 H 250.297 0.255867 1.59865 0
M  V30 2582 H 252.289 -2.30276 3.32799 0
M  V30 2583 H 250.859 -2.14061 2.27809 0
M  V30 2584 H 250.079 -0.284736 3.9317 0
M  V30 2585 H 251.367 -0.832173 5.01949 0
M  V30 2586 H 250.765 -3.88201 4.11481 0
M  V30 2587 H 249.322 -4.18551 4.99658 0
M  V30 2588 N 252.755 -1.56801 0.158532 0
M  V30 2589 C 253.718 -2.16138 -0.762705 0
M  V30 2590 C 254.718 -1.1061 -1.16713 0
M  V30 2591 O 255.908 -1.36191 -1.08617 0
M  V30 2592 C 253.04 -2.73386 -2.03649 0
M  V30 2593 H 254.233 -2.98886 -0.246354 0
M  V30 2594 H 251.786 -1.56035 -0.0909744 0
M  V30 2595 H 252.521 -1.94335 -2.59623 0
M  V30 2596 H 252.306 -3.50601 -1.75559 0
M  V30 2597 H 253.796 -3.19065 -2.6942 0
M  V30 2598 N 254.233 0.115231 -1.57178 0
M  V30 2599 C 255.196 1.12526 -1.99676 0
M  V30 2600 C 256.196 1.34095 -0.88742 0
M  V30 2601 O 257.386 1.30548 -1.15337 0
M  V30 2602 C 254.518 2.4789 -2.34015 0
M  V30 2603 H 255.711 0.759912 -2.90113 0
M  V30 2604 H 253.264 0.359648 -1.52106 0
M  V30 2605 H 253.999 2.89339 -1.4647 0
M  V30 2606 H 253.784 2.33588 -3.14927 0
M  V30 2607 H 255.274 3.20575 -2.67622 0
M  V30 2608 N 255.711 1.52812 0.385517 0
M  V30 2609 C 256.658 1.77838 1.47113 0
M  V30 2610 C 257.628 0.621757 1.54024 0
M  V30 2611 O 258.813 0.861846 1.70226 0
M  V30 2612 C 255.953 1.95618 2.84302 0
M  V30 2613 C 255.066 3.23316 2.86515 0
M  V30 2614 C 254.201 3.31394 4.15152 0
M  V30 2615 C 253.24 4.53201 4.1143 0
M  V30 2616 N 252.377 4.58542 5.3168 0
M  V30 2617 H 257.217 2.70482 1.25073 0
M  V30 2618 H 254.754 1.34006 0.606692 0
M  V30 2619 H 256.712 2.03912 3.63972 0
M  V30 2620 H 255.342 1.06331 3.04784 0
M  V30 2621 H 254.394 3.24076 1.99195 0
M  V30 2622 H 255.706 4.13045 2.79634 0
M  V30 2623 H 254.86 3.3889 5.03228 0
M  V30 2624 H 253.599 2.39645 4.24761 0
M  V30 2625 H 252.604 4.45827 3.21742 0
M  V30 2626 H 253.829 5.46271 4.03442 0
M  V30 2627 H 251.775 3.69686 5.41912 0
M  V30 2628 H 251.692 5.42148 5.26889 0
M  V30 2629 H 252.96 4.70296 6.21644 0
M  V30 2630 N 257.189 -0.644168 1.43834 0
M  V30 2631 C 258.417 -1.43147 1.49387 0
M  V30 2632 C 258.832 -1.88452 0.114583 0
M  V30 2633 O 258.189 -1.60047 -0.876989 0
M  V30 2634 C 258.24 -2.66046 2.44748 0
M  V30 2635 O 257.961 -2.22633 3.77314 0
M  V30 2636 C 259.462 -3.59311 2.59635 0
M  V30 2637 H 256.682 -0.439447 0.507077 0
M  V30 2638 H 259.226 -0.78895 1.88669 0
M  V30 2639 H 257.381 -3.26418 2.08638 0
M  V30 2640 H 257.795 -3.02216 4.28679 0
M  V30 2641 H 259.269 -4.42187 3.30416 0
M  V30 2642 H 259.746 -4.07259 1.64427 0
M  V30 2643 H 260.352 -3.04816 2.96593 0
M  V30 2644 N 258.668 -1.30515 -0.883378 0
M  V30 2645 C 259.578 -1.18959 -2.02203 0
M  V30 2646 C 260.594 -0.109172 -1.73657 0
M  V30 2647 O 261.77 -0.324413 -1.9877 0
M  V30 2648 C 258.835 -0.883871 -3.35244 0
M  V30 2649 C 257.896 -2.04982 -3.77201 0
M  V30 2650 C 257.129 -1.75859 -5.03894 0
M  V30 2651 O 257.352 -0.687276 -5.66244 0
M  V30 2652 O 256.286 -2.61146 -5.42297 0
M  V30 2653 H 260.112 -2.14616 -2.1488 0
M  V30 2654 H 257.697 -1.10124 -1.0096 0
M  V30 2655 H 259.579 -0.728644 -4.15053 0
M  V30 2656 H 258.254 0.0427798 -3.23672 0
M  V30 2657 H 257.161 -2.26038 -2.9809 0
M  V30 2658 H 258.494 -2.95825 -3.93381 0
M  V30 2659 N 260.146 1.09593 -1.13257 0
M  V30 2660 C 261.395 1.81105 -0.887917 0
M  V30 2661 C 261.708 1.86563 0.587672 0
M  V30 2662 O 262.914 2.54367 0.949204 0
M  V30 2663 C 261.37 3.25338 -1.53895 0
M  V30 2664 C 260.978 3.28151 -3.04994 0
M  V30 2665 C 262.722 4.01617 -1.37492 0
M  V30 2666 C 260.629 4.66897 -3.6299 0
M  V30 2667 H 259.559 0.678661 -0.328534 0
M  V30 2668 H 262.21 1.23183 -1.36008 0
M  V30 2669 H 260.592 3.8331 -0.994446 0
M  V30 2670 H 261.766 2.79953 -3.66009 0
M  V30 2671 H 260.081 2.65361 -3.20893 0
M  V30 2672 H 262.678 5.04119 -1.78235 0
M  V30 2673 H 263.021 4.15072 -0.31957 0
M  V30 2674 H 263.554 3.50082 -1.88912 0
M  V30 2675 H 260.293 4.58643 -4.68323 0
M  V30 2676 H 259.813 5.15426 -3.06752 0
M  V30 2677 H 261.492 5.3587 -3.62563 0
M  V30 2678 N 261.624 0.925811 1.2754 0
M  V30 2679 C 262.534 0.428993 2.30644 0
M  V30 2680 C 263.55 -0.489387 1.66976 0
M  V30 2681 O 264.726 -0.372653 1.97922 0
M  V30 2682 C 261.791 -0.311967 3.45294 0
M  V30 2683 C 260.852 0.641098 4.24486 0
M  V30 2684 C 260.085 -0.0645955 5.33661 0
M  V30 2685 O 260.308 -1.28429 5.55754 0
M  V30 2686 O 259.242 0.606265 5.98839 0
M  V30 2687 H 263.068 1.28504 2.75173 0
M  V30 2688 H 260.653 0.691086 1.32455 0
M  V30 2689 H 262.535 -0.729972 4.15029 0
M  V30 2690 H 261.21 -1.14365 3.02824 0
M  V30 2691 H 260.117 1.10874 3.57292 0
M  V30 2692 H 261.45 1.43995 4.70666 0
M  V30 2693 N 263.102 -1.41638 0.69111 0
M  V30 2694 C 264.049 -2.30789 0.0229705 0
M  V30 2695 C 265.019 -1.46863 -0.775911 0
M  V30 2696 O 266.204 -1.75661 -0.74485 0
M  V30 2697 C 263.344 -3.32868 -0.910666 0
M  V30 2698 C 262.457 -4.31875 -0.103874 0
M  V30 2699 C 261.592 -5.21024 -1.03475 0
M  V30 2700 C 260.631 -6.11702 -0.220598 0
M  V30 2701 N 259.768 -6.93349 -1.10504 0
M  V30 2702 H 264.608 -2.87366 0.788978 0
M  V30 2703 H 262.145 -1.41535 0.400794 0
M  V30 2704 H 264.103 -3.90596 -1.46597 0
M  V30 2705 H 262.733 -2.77851 -1.64312 0
M  V30 2706 H 261.785 -3.76131 0.568285 0
M  V30 2707 H 263.097 -4.96003 0.527504 0
M  V30 2708 H 262.251 -5.83565 -1.65943 0
M  V30 2709 H 260.99 -4.57112 -1.69999 0
M  V30 2710 H 259.995 -5.48215 0.417187 0
M  V30 2711 H 261.22 -6.77668 0.440784 0
M  V30 2712 H 259.166 -6.3205 -1.75638 0
M  V30 2713 H 259.083 -7.54146 -0.529125 0
M  V30 2714 H 260.351 -7.60362 -1.71667 0
M  V30 2715 N 264.58 -0.43555 -1.51462 0
M  V30 2716 C 265.51 0.367376 -2.30592 0
M  V30 2717 C 266.491 1.02263 -1.35928 0
M  V30 2718 O 267.676 1.02661 -1.64847 0
M  V30 2719 C 264.806 1.46983 -3.14664 0
M  V30 2720 C 263.76 0.938161 -4.17591 0
M  V30 2721 C 263.086 2.13622 -4.90173 0
M  V30 2722 C 264.386 -0.0261621 -5.22293 0
M  V30 2723 H 266.08 -0.292969 -2.97963 0
M  V30 2724 H 263.626 -0.14234 -1.43295 0
M  V30 2725 H 265.579 2.03873 -3.688 0
M  V30 2726 H 264.303 2.15843 -2.4511 0
M  V30 2727 H 262.962 0.391481 -3.64504 0
M  V30 2728 H 262.61 2.81098 -4.17124 0
M  V30 2729 H 262.31 1.78688 -5.59772 0
M  V30 2730 H 263.834 2.7107 -5.47132 0
M  V30 2731 H 265.248 0.452384 -5.71512 0
M  V30 2732 H 263.645 -0.287992 -5.99409 0
M  V30 2733 H 264.715 -0.963391 -4.75233 0
M  V30 2734 N 266.058 1.56714 -0.166846 0
M  V30 2735 C 266.99 2.14914 0.796537 0
M  V30 2736 C 268.003 1.10357 1.19688 0
M  V30 2737 O 269.192 1.37561 1.13751 0
M  V30 2738 C 266.292 2.67326 2.08303 0
M  V30 2739 C 265.465 3.96493 1.84696 0
M  V30 2740 C 264.524 4.34014 2.97521 0
M  V30 2741 O 263.55 5.01973 2.6835 0
M  V30 2742 N 264.752 3.95208 4.25196 0
M  V30 2743 H 267.517 2.98205 0.299006 0
M  V30 2744 H 265.078 1.61892 0.0160839 0
M  V30 2745 H 267.07 2.89428 2.82867 0
M  V30 2746 H 265.64 1.88649 2.4926 0
M  V30 2747 H 264.86 3.82814 0.940602 0
M  V30 2748 H 266.148 4.8086 1.66285 0
M  V30 2749 H 265.546 3.40487 4.51758 0
M  V30 2750 H 264.103 4.2232 4.96477 0
M  V30 2751 N 267.536 -0.106894 1.57237 0
M  V30 2752 C 268.469 -1.16125 1.96444 0
M  V30 2753 C 269.447 -1.3947 0.835871 0
M  V30 2754 O 270.631 -1.53425 1.09513 0
M  V30 2755 C 267.758 -2.51277 2.27107 0
M  V30 2756 C 266.804 -2.44285 3.4961 0
M  V30 2757 S 267.637 -1.87077 5.01759 0
M  V30 2758 C 268.793 -3.23877 5.35588 0
M  V30 2759 H 269.026 -0.826971 2.85567 0
M  V30 2760 H 266.559 -0.314124 1.51171 0
M  V30 2761 H 268.517 -3.29035 2.45451 0
M  V30 2762 H 267.178 -2.81879 1.38576 0
M  V30 2763 H 266.371 -3.4387 3.68469 0
M  V30 2764 H 265.973 -1.74652 3.30715 0
M  V30 2765 H 268.265 -4.20122 5.31511 0
M  V30 2766 H 269.208 -3.09833 6.36717 0
M  V30 2767 H 269.616 -3.22864 4.63054 0
M  V30 2768 N 269.014 -1.53014 -0.377408 0
M  V30 2769 C 269.961 -1.78616 -1.46168 0
M  V30 2770 C 270.931 -0.629917 -1.53692 0
M  V30 2771 O 272.116 -0.870861 -1.69766 0
M  V30 2772 C 269.256 -1.97123 -2.8326 0
M  V30 2773 C 268.369 -3.24831 -2.84796 0
M  V30 2774 C 267.504 -3.33591 -4.13389 0
M  V30 2775 C 266.543 -4.55377 -4.09021 0
M  V30 2776 N 265.68 -4.61355 -5.29241 0
M  V30 2777 H 270.52 -2.71142 -1.23637 0
M  V30 2778 H 268.057 -1.34326 -0.599577 0
M  V30 2779 H 270.015 -2.05839 -3.62886 0
M  V30 2780 H 268.645 -1.07946 -3.04216 0
M  V30 2781 H 267.697 -3.25128 -1.97474 0
M  V30 2782 H 269.009 -4.14523 -2.77439 0
M  V30 2783 H 268.163 -3.41554 -5.01424 0
M  V30 2784 H 266.902 -2.41894 -4.23484 0
M  V30 2785 H 265.907 -4.47527 -3.19373 0
M  V30 2786 H 267.132 -5.48402 -4.00539 0
M  V30 2787 H 265.078 -3.72554 -5.39944 0
M  V30 2788 H 264.995 -5.44935 -5.24006 0
M  V30 2789 H 266.263 -4.73586 -6.19141 0
M  V30 2790 N 270.492 0.636531 -1.44174 0
M  V30 2791 C 271.402 1.77754 -1.53103 0
M  V30 2792 C 272.418 1.68928 -0.417034 0
M  V30 2793 O 273.594 1.89801 -0.6736 0
M  V30 2794 C 270.659 3.14115 -1.46741 0
M  V30 2795 C 269.72 3.34612 -2.68948 0
M  V30 2796 C 268.953 4.64467 -2.6288 0
M  V30 2797 O 269.176 5.44919 -1.68581 0
M  V30 2798 O 268.11 4.87049 -3.53648 0
M  V30 2799 H 271.936 1.73174 -2.49489 0
M  V30 2800 H 269.521 0.79709 -1.2636 0
M  V30 2801 H 271.403 3.95412 -1.45696 0
M  V30 2802 H 270.078 3.19249 -0.534975 0
M  V30 2803 H 268.985 2.53014 -2.75562 0
M  V30 2804 H 270.318 3.34336 -3.61221 0
M  V30 2805 N 271.97 1.30982 0.876444 0
M  V30 2806 C 272.903 1.12414 1.98591 0
M  V30 2807 C 273.881 0.0294078 1.62573 0
M  V30 2808 O 275.065 0.184598 1.87594 0
M  V30 2809 C 272.192 0.716276 3.3104 0
M  V30 2810 C 271.238 1.81311 3.86042 0
M  V30 2811 S 272.071 3.41727 4.1229 0
M  V30 2812 C 273.227 3.02863 5.47745 0
M  V30 2813 H 273.46 2.06338 2.14037 0
M  V30 2814 H 270.993 1.15393 1.02586 0
M  V30 2815 H 272.951 0.487697 4.07593 0
M  V30 2816 H 271.612 -0.203749 3.13438 0
M  V30 2817 H 270.805 1.48021 4.81774 0
M  V30 2818 H 270.407 1.99641 3.16259 0
M  V30 2819 H 272.699 2.51353 6.29148 0
M  V30 2820 H 273.642 3.97533 5.8598 0
M  V30 2821 H 274.05 2.40487 5.10711 0
M  V30 2822 N 273.449 -1.08991 1.13837 0
M  V30 2823 C 274.677 -1.85011 0.926202 0
M  V30 2824 C 275.092 -1.8135 -0.525127 0
M  V30 2825 O 274.449 -1.21287 -1.36366 0
M  V30 2826 C 274.5 -3.32802 1.41155 0
M  V30 2827 O 274.221 -3.36444 2.80601 0
M  V30 2828 C 275.722 -4.25649 1.23847 0
M  V30 2829 H 272.942 -0.584249 0.32999 0
M  V30 2830 H 275.486 -1.37688 1.51202 0
M  V30 2831 H 273.641 -3.77536 0.868631 0
M  V30 2832 H 274.055 -4.28657 3.02248 0
M  V30 2833 H 275.529 -5.27485 1.62675 0
M  V30 2834 H 276.006 -4.38828 0.18065 0
M  V30 2835 H 276.612 -3.86735 1.76964 0
M  V30 2836 N 274.927 -0.932562 -1.27047 0
M  V30 2837 C 276.167 -0.582919 -1.95912 0
M  V30 2838 C 276.531 0.860629 -1.71631 0
M  V30 2839 O 277.732 1.31878 -2.34225 0
M  V30 2840 C 276.003 -0.905673 -3.45734 0
M  V30 2841 S 277.562 -0.665277 -4.33727 0
M  V30 2842 H 274.38 -0.215 -0.677714 0
M  V30 2843 H 276.982 -1.20204 -1.54179 0
M  V30 2844 H 275.686 -1.95386 -3.60905 0
M  V30 2845 H 275.217 -0.275939 -3.92431 0
M  V30 2846 H 277.232 0.474635 -4.93925 0
M  V30 2847 N 276.405 1.4127 -0.698611 0
M  V30 2848 C 277.821 1.55241 -0.370462 0
M  V30 2849 C 278.021 1.67351 1.12231 0
M  V30 2850 O 277.077 1.65363 1.90818 0
M  V30 2851 C 278.39 2.78997 -1.12165 0
M  V30 2852 C 279.938 2.92797 -1.1063 0
M  V30 2853 C 280.413 4.19445 -1.8393 0
M  V30 2854 N 281.904 4.26409 -1.80914 0
M  V30 2855 C 282.639 5.23271 -2.34467 0
M  V30 2856 N 282.135 6.26145 -2.96504 0
M  V30 2857 N 283.928 5.15232 -2.24706 0
M  V30 2858 H 276.079 1.31654 -1.66676 0
M  V30 2859 H 278.342 0.635393 -0.703548 0
M  V30 2860 H 278.048 2.76268 -2.17644 0
M  V30 2861 H 277.922 3.70606 -0.702209 0
M  V30 2862 H 280.309 2.95039 -0.0597713 0
M  V30 2863 H 280.39 2.02353 -1.56483 0
M  V30 2864 H 280.034 4.17964 -2.88563 0
M  V30 2865 H 279.964 5.08866 -1.35509 0
M  V30 2866 H 282.455 3.527 -1.35687 0
M  V30 2867 H 282.768 6.96451 -3.34927 0
M  V30 2868 H 281.113 6.26638 -3.00583 0
M  V30 2869 H 284.304 4.33789 -1.7591 0
M  V30 2870 H 284.477 5.90552 -2.66745 0
M  V30 2871 N 277.883 0.443576 1.51229 0
M  V30 2872 C 279.16 -0.181038 1.9476 0
M  V30 2873 C 279.54 -1.59523 1.38259 0
M  V30 2874 O 278.888 -2.2122 0.572198 0
M  V30 2875 C 279.098 -0.152422 3.48667 0
M  V30 2876 C 280.446 -0.354923 4.23114 0
M  V30 2877 O 281.47 -0.230257 3.55455 0
M  V30 2878 O 280.329 -0.603674 5.43156 0
M  V30 2879 H 277.423 -0.1266 0.817252 0
M  V30 2880 H 279.969 0.502004 1.62105 0
M  V30 2881 H 278.741 0.836022 3.82265 0
M  V30 2882 H 278.364 -0.878107 3.87782 0
M  V30 2883 N 279.361 -1.56624 0.175154 0
M  V30 2884 C 280.61 -1.96173 -0.468921 0
M  V30 2885 C 280.923 -1.06401 -1.64128 0
M  V30 2886 O 282.129 -1.35648 -2.35185 0
M  V30 2887 C 280.585 -3.48833 -0.885633 0
M  V30 2888 C 280.193 -4.47237 0.261343 0
M  V30 2889 C 281.937 -3.97194 -1.49791 0
M  V30 2890 C 279.844 -5.9114 -0.175214 0
M  V30 2891 H 278.774 -0.732455 -0.178958 0
M  V30 2892 H 281.425 -1.81591 0.263997 0
M  V30 2893 H 279.807 -3.58848 -1.67464 0
M  V30 2894 H 280.981 -4.4894 1.03871 0
M  V30 2895 H 279.296 -4.08956 0.783827 0
M  V30 2896 H 281.893 -5.02167 -1.83665 0
M  V30 2897 H 282.236 -3.40351 -2.39722 0
M  V30 2898 H 282.769 -3.90212 -0.773267 0
M  V30 2899 H 279.508 -6.51865 0.689414 0
M  V30 2900 H 279.028 -5.92735 -0.91786 0
M  V30 2901 H 280.707 -6.44044 -0.617792 0
M  V30 2902 N 280.839 0.0985539 -1.57292 0
M  V30 2903 C 282.085 0.803867 -1.86188 0
M  V30 2904 C 282.418 1.78549 -0.763794 0
M  V30 2905 O 281.693 1.93153 0.22855 0
M  V30 2906 C 281.976 1.53568 -3.25713 0
M  V30 2907 C 281.829 0.572277 -4.46145 0
M  V30 2908 C 283.148 2.48708 -3.63087 0
M  V30 2909 H 280.267 0.290781 -0.677211 0
M  V30 2910 H 282.909 0.0675783 -1.8988 0
M  V30 2911 H 281.059 2.16332 -3.22696 0
M  V30 2912 H 282.731 -0.0480894 -4.61275 0
M  V30 2913 H 280.974 -0.114618 -4.33649 0
M  V30 2914 H 281.645 1.12139 -5.40489 0
M  V30 2915 H 284.121 1.96039 -3.67026 0
M  V30 2916 H 282.997 2.96932 -4.61652 0
M  V30 2917 H 283.258 3.32309 -2.91588 0
M  V30 2918 N 282.317 1.53212 0.369288 0
M  V30 2919 C 283.264 1.79388 1.45219 0
M  V30 2920 C 284.234 0.638059 1.53356 0
M  V30 2921 O 285.419 0.879852 1.69302 0
M  V30 2922 C 282.559 1.98623 2.82211 0
M  V30 2923 C 281.672 3.26337 2.8307 0
M  V30 2924 C 280.807 3.35779 4.11614 0
M  V30 2925 C 279.846 4.5754 4.06601 0
M  V30 2926 N 278.983 4.64155 5.26787 0
M  V30 2927 H 283.823 2.71794 1.22198 0
M  V30 2928 H 281.36 1.34642 0.592444 0
M  V30 2929 H 283.318 2.07761 3.61789 0
M  V30 2930 H 281.948 1.09558 3.03639 0
M  V30 2931 H 281 3.26171 1.95747 0
M  V30 2932 H 282.312 4.15988 2.75237 0
M  V30 2933 H 281.466 3.44208 4.99606 0
M  V30 2934 H 280.205 2.44137 4.22195 0
M  V30 2935 H 279.21 4.49215 3.16996 0
M  V30 2936 H 280.435 5.50519 3.97625 0
M  V30 2937 H 278.381 3.75413 5.3796 0
M  V30 2938 H 278.298 5.47706 5.21109 0
M  V30 2939 H 279.566 4.76863 6.16621 0
M  V30 2940 N 283.795 -0.628877 1.44509 0
M  V30 2941 C 284.705 -1.7694 1.54044 0
M  V30 2942 C 285.721 -1.68705 0.425987 0
M  V30 2943 O 286.897 -1.89442 0.683656 0
M  V30 2944 C 283.962 -3.13332 1.48405 0
M  V30 2945 C 283.023 -3.33181 2.70719 0
M  V30 2946 C 282.256 -4.63067 2.6534 0
M  V30 2947 O 282.479 -5.44017 1.71469 0
M  V30 2948 O 281.413 -4.85167 3.56226 0
M  V30 2949 H 285.239 -1.71848 2.50403 0
M  V30 2950 H 282.824 -0.790378 1.26781 0
M  V30 2951 H 284.706 -3.94634 1.47791 0
M  V30 2952 H 283.381 -3.1896 0.551898 0
M  V30 2953 H 282.288 -2.51549 2.769 0
M  V30 2954 H 283.621 -3.32416 3.62988 0
M  V30 2955 N 285.273 -1.31445 -0.869486 0
M  V30 2956 C 286.519 -1.21337 -1.62496 0
M  V30 2957 C 286.852 0.227872 -1.92858 0
M  V30 2958 O 286.127 1.16094 -1.56053 0
M  V30 2959 C 286.41 -2.05814 -2.95487 0
M  V30 2960 C 286.263 -3.5824 -2.72 0
M  V30 2961 C 287.582 -1.9079 -3.96594 0
M  V30 2962 H 284.701 -0.442135 -0.589649 0
M  V30 2963 H 287.343 -1.6124 -1.00507 0
M  V30 2964 H 285.493 -1.71913 -3.48394 0
M  V30 2965 H 287.165 -4.0228 -2.25762 0
M  V30 2966 H 285.408 -3.81647 -2.06224 0
M  V30 2967 H 286.079 -4.12657 -3.66631 0
M  V30 2968 H 288.555 -2.20459 -3.52898 0
M  V30 2969 H 287.431 -2.52199 -4.87531 0
M  V30 2970 H 287.692 -0.871341 -4.33428 0
M  V30 2971 N 286.751 1.08385 -1.14413 0
M  V30 2972 C 287.714 2.13486 -0.834048 0
M  V30 2973 C 288.714 1.59988 0.161418 0
M  V30 2974 O 289.904 1.74071 -0.0669575 0
M  V30 2975 C 287.036 3.4003 -0.243354 0
M  V30 2976 H 288.229 2.42425 -1.7655 0
M  V30 2977 H 285.782 1.24101 -0.950189 0
M  V30 2978 H 286.517 3.16726 0.696807 0
M  V30 2979 H 286.302 3.80157 -0.960367 0
M  V30 2980 H 287.792 4.17577 -0.0436242 0
M  V30 2981 N 288.23 0.939286 1.26551 0
M  V30 2982 C 289.177 0.446088 2.26448 0
M  V30 2983 C 290.147 -0.493234 1.58608 0
M  V30 2984 O 291.332 -0.409857 1.86346 0
M  V30 2985 C 288.472 -0.284375 3.43926 0
M  V30 2986 C 287.585 0.690399 4.26448 0
M  V30 2987 C 286.72 -0.0610712 5.31165 0
M  V30 2988 C 285.759 0.905649 6.05363 0
M  V30 2989 N 284.896 0.186055 7.01853 0
M  V30 2990 H 289.736 1.30291 2.68008 0
M  V30 2991 H 287.273 0.65371 1.31776 0
M  V30 2992 H 289.231 -0.724313 4.10864 0
M  V30 2993 H 287.861 -1.10535 3.03285 0
M  V30 2994 H 286.913 1.24885 3.59316 0
M  V30 2995 H 288.225 1.42873 4.779 0
M  V30 2996 H 287.379 -0.56038 6.04106 0
M  V30 2997 H 286.118 -0.832297 4.80546 0
M  V30 2998 H 285.123 1.4161 5.3125 0
M  V30 2999 H 286.348 1.67685 6.58072 0
M  V30 3000 H 284.294 -0.566714 6.53548 0
M  V30 3001 H 284.211 0.863752 7.51049 0
M  V30 3002 H 285.479 -0.292221 7.78952 0
M  V30 3003 N 289.708 -1.40897 0.706093 0
M  V30 3004 C 290.957 -2.00284 0.238574 0
M  V30 3005 C 291.27 -1.56604 -1.17194 0
M  V30 3006 O 292.476 -2.08624 -1.73748 0
M  V30 3007 C 290.932 -3.57934 0.375623 0
M  V30 3008 C 290.54 -4.10591 1.79217 0
M  V30 3009 C 292.284 -4.24488 -0.0315857 0
M  V30 3010 C 290.191 -5.60712 1.88032 0
M  V30 3011 H 289.121 -0.749144 0.0854398 0
M  V30 3012 H 291.772 -1.61251 0.875813 0
M  V30 3013 H 290.154 -3.94622 -0.330042 0
M  V30 3014 H 291.328 -3.85301 2.52745 0
M  V30 3015 H 289.643 -3.56601 2.15 0
M  V30 3016 H 292.24 -5.34698 0.0136842 0
M  V30 3017 H 292.583 -4.02261 -1.072 0
M  V30 3018 H 293.116 -3.92873 0.624181 0
M  V30 3019 H 289.855 -5.87781 2.90161 0
M  V30 3020 H 289.375 -5.87896 1.18903 0
M  V30 3021 H 291.054 -6.25658 1.64805 0
M  V30 3022 N 291.186 -0.45159 -1.50991 0
M  V30 3023 C 292.435 0.111653 -2.01391 0
M  V30 3024 C 292.748 1.42529 -1.33959 0
M  V30 3025 O 293.954 2.07232 -1.75405 0
M  V30 3026 C 292.41 0.249514 -3.59034 0
M  V30 3027 C 292.018 -1.05453 -4.35412 0
M  V30 3028 C 293.762 0.765762 -4.17536 0
M  V30 3029 C 291.669 -0.881529 -5.84793 0
M  V30 3030 H 290.599 0.0455022 -0.752626 0
M  V30 3031 H 293.25 -0.583524 -1.73975 0
M  V30 3032 H 291.632 1.00803 -3.82955 0
M  V30 3033 H 292.806 -1.82248 -4.23229 0
M  V30 3034 H 291.121 -1.50039 -3.88429 0
M  V30 3035 H 293.718 0.911913 -5.26866 0
M  V30 3036 H 294.061 1.75201 -3.77638 0
M  V30 3037 H 294.594 0.0651744 -3.97747 0
M  V30 3038 H 291.333 -1.84057 -6.29129 0
M  V30 3039 H 290.853 -0.153625 -5.99603 0
M  V30 3040 H 292.532 -0.540363 -6.4474 0
M  V30 3041 N 292.664 1.56529 -0.183458 0
M  V30 3042 C 293.894 2.01331 0.463612 0
M  V30 3043 C 294.302 1.06278 1.5653 0
M  V30 3044 O 293.645 0.0577976 1.83609 0
M  V30 3045 C 293.707 3.42547 1.09096 0
M  V30 3046 C 293.371 4.56817 0.129442 0
M  V30 3047 C 294.368 5.15734 -0.656807 0
M  V30 3048 C 292.053 5.02295 0.02174 0
M  V30 3049 C 294.047 6.1857 -1.53784 0
M  V30 3050 C 291.734 6.04978 -0.862864 0
M  V30 3051 C 292.732 6.62988 -1.64123 0
M  V30 3052 O 292.42 7.63677 -2.51103 0
M  V30 3053 H 292.152 0.664917 0.121907 0
M  V30 3054 H 294.706 2.034 -0.285954 0
M  V30 3055 H 292.936 3.37428 1.88889 0
M  V30 3056 H 294.625 3.71228 1.64148 0
M  V30 3057 H 295.391 4.81473 -0.583839 0
M  V30 3058 H 291.27 4.56847 0.617392 0
M  V30 3059 H 294.814 6.63777 -2.14583 0
M  V30 3060 H 290.711 6.38663 -0.93699 0
M  V30 3061 H 291.479 7.81049 -2.44753 0
M  V30 3062 N 294.142 -0.090211 1.57342 0
M  V30 3063 C 295.391 -0.791531 1.8552 0
M  V30 3064 C 295.704 -1.79659 0.773441 0
M  V30 3065 O 296.91 -2.54616 0.942497 0
M  V30 3066 C 295.366 -1.45856 3.2902 0
M  V30 3067 C 294.974 -0.493017 4.45279 0
M  V30 3068 C 296.718 -2.14332 3.66418 0
M  V30 3069 C 294.625 -1.16491 5.79814 0
M  V30 3070 H 293.555 -0.299356 0.692027 0
M  V30 3071 H 296.206 -0.0445343 1.83446 0
M  V30 3072 H 294.588 -2.25318 3.2565 0
M  V30 3073 H 295.762 0.270464 4.60006 0
M  V30 3074 H 294.077 0.0863061 4.16311 0
M  V30 3075 H 296.674 -2.65344 4.64216 0
M  V30 3076 H 297.017 -2.93447 2.95287 0
M  V30 3077 H 297.55 -1.41724 3.71698 0
M  V30 3078 H 294.289 -0.41447 6.54188 0
M  V30 3079 H 293.809 -1.8997 5.68921 0
M  V30 3080 H 295.488 -1.69001 6.24538 0
M  V30 3081 N 295.62 -1.53406 -0.361157 0
M  V30 3082 C 296.866 -1.70054 -1.10496 0
M  V30 3083 C 297.199 -0.453278 -1.88836 0
M  V30 3084 O 296.474 0.5495 -1.86576 0
M  V30 3085 C 296.757 -2.95317 -2.06058 0
M  V30 3086 C 296.61 -4.3021 -1.31298 0
M  V30 3087 C 297.929 -3.16193 -3.06121 0
M  V30 3088 H 295.048 -0.618799 -0.400321 0
M  V30 3089 H 297.69 -1.86052 -0.385318 0
M  V30 3090 H 295.84 -2.81809 -2.67425 0
M  V30 3091 H 297.512 -4.55538 -0.726807 0
M  V30 3092 H 295.755 -4.29421 -0.614853 0
M  V30 3093 H 296.426 -5.14 -2.01265 0
M  V30 3094 H 298.902 -3.28916 -2.5486 0
M  V30 3095 H 297.778 -4.05266 -3.70204 0
M  V30 3096 H 298.039 -2.31676 -3.76535 0
M  V30 3097 N 297.098 0.621204 -1.44841 0
M  V30 3098 C 298.048 1.72663 -1.48901 0
M  V30 3099 C 299.032 1.56964 -0.353702 0
M  V30 3100 O 300.224 1.66532 -0.599669 0
M  V30 3101 C 297.353 3.11381 -1.44557 0
M  V30 3102 C 296.439 3.32514 -2.6324 0
M  V30 3103 N 296.83 3.23969 -3.8843 0
M  V30 3104 C 295.128 3.63343 -2.58647 0
M  V30 3105 C 295.829 3.46062 -4.67564 0
M  V30 3106 N 294.805 3.69407 -3.98797 0
M  V30 3107 H 298.607 1.64529 -2.43531 0
M  V30 3108 H 296.121 0.82401 -1.39942 0
M  V30 3109 H 298.118 3.90667 -1.4555 0
M  V30 3110 H 296.778 3.20674 -0.509731 0
M  V30 3111 H 297.789 3.02669 -4.20252 0
M  V30 3112 H 294.466 3.79556 -1.73906 0
M  V30 3113 H 295.856 3.44963 -5.76585 0
M  V30 3114 N 298.576 1.31904 0.862503 0
M  V30 3115 C 299.853 1.12644 1.59908 0
M  V30 3116 C 300.233 -0.316104 2.0872 0
M  V30 3117 O 299.581 -1.31145 1.87118 0
M  V30 3118 C 299.791 2.1472 2.7513 0
M  V30 3119 C 301.139 2.47637 3.44907 0
M  V30 3120 O 302.163 2.13205 2.85346 0
M  V30 3121 O 301.022 3.06632 4.52371 0
M  V30 3122 H 298.116 0.43416 0.703871 0
M  V30 3123 H 300.662 1.43408 0.907314 0
M  V30 3124 H 299.434 3.1172 2.3653 0
M  V30 3125 H 299.057 1.84905 3.51989 0
M  V30 3126 N 300.054 -1.07777 1.14986 0
M  V30 3127 C 300.964 -2.18404 0.856546 0
M  V30 3128 C 301.98 -1.73211 -0.165485 0
M  V30 3129 O 303.156 -2.01399 0.00755219 0
M  V30 3130 C 300.221 -3.44977 0.34526 0
M  V30 3131 C 299.282 -4.0476 1.43065 0
M  V30 3132 C 298.515 -5.25291 0.943663 0
M  V30 3133 O 298.738 -5.70004 -0.212426 0
M  V30 3134 O 297.672 -5.76638 1.72547 0
M  V30 3135 H 301.498 -2.45978 1.78125 0
M  V30 3136 H 299.083 -1.17033 0.928631 0
M  V30 3137 H 300.965 -4.21348 0.0663671 0
M  V30 3138 H 299.64 -3.18965 -0.551631 0
M  V30 3139 H 298.547 -3.29949 1.76309 0
M  V30 3140 H 299.88 -4.35035 2.30229 0
M  V30 3141 N 301.532 -0.945985 -1.26051 0
M  V30 3142 C 302.778 -0.597002 -1.93814 0
M  V30 3143 C 303.111 0.862484 -1.73997 0
M  V30 3144 O 302.386 1.61769 -1.07986 0
M  V30 3145 C 302.669 -0.945937 -3.47454 0
M  V30 3146 C 302.522 -2.46052 -3.76535 0
M  V30 3147 C 303.841 -0.464785 -4.37639 0
M  V30 3148 H 300.96 -0.218366 -0.703907 0
M  V30 3149 H 303.602 -1.18107 -1.48831 0
M  V30 3150 H 301.752 -0.448902 -3.85898 0
M  V30 3151 H 303.424 -3.03065 -3.47778 0
M  V30 3152 H 301.667 -2.90194 -3.22444 0
M  V30 3153 H 302.338 -2.65517 -4.83947 0
M  V30 3154 H 304.814 -0.891016 -4.06448 0
M  V30 3155 H 303.69 -0.737712 -5.4392 0
M  V30 3156 H 303.951 0.635274 -4.37512 0
M  V30 3157 N 303.011 1.40521 -0.713556 0
M  V30 3158 C 303.958 2.30723 -0.059684 0
M  V30 3159 C 304.928 1.48079 0.752448 0
M  V30 3160 O 306.113 1.76823 0.71681 0
M  V30 3161 C 303.253 3.34274 0.857594 0
M  V30 3162 C 302.366 4.31986 0.0351536 0
M  V30 3163 C 301.501 5.22605 0.951724 0
M  V30 3164 C 300.54 6.11976 0.123253 0
M  V30 3165 N 299.677 6.9502 0.99459 0
M  V30 3166 H 304.517 2.86074 -0.834596 0
M  V30 3167 H 302.054 1.40879 -0.42326 0
M  V30 3168 H 304.012 3.92879 1.40364 0
M  V30 3169 H 302.642 2.8043 1.59871 0
M  V30 3170 H 301.694 3.7518 -0.628052 0
M  V30 3171 H 303.006 4.95101 -0.606347 0
M  V30 3172 H 302.16 5.86131 1.56638 0
M  V30 3173 H 300.899 4.59759 1.62705 0
M  V30 3174 H 299.904 5.47482 -0.50435 0
M  V30 3175 H 301.129 6.76881 -0.548539 0
M  V30 3176 H 299.075 6.34764 1.6556 0
M  V30 3177 H 298.992 7.54892 0.40908 0
M  V30 3178 H 300.26 7.62997 1.59549 0
M  V30 3179 N 304.489 0.459591 1.5075 0
M  V30 3180 C 305.766 -0.160371 1.94941 0
M  V30 3181 C 306.146 -1.58048 1.39943 0
M  V30 3182 O 305.494 -2.206 0.595629 0
M  V30 3183 C 305.704 -0.115432 3.48809 0
M  V30 3184 C 307.052 -0.310026 4.23467 0
M  V30 3185 O 308.076 -0.192543 3.55679 0
M  V30 3186 O 306.935 -0.546031 5.43765 0
M  V30 3187 H 304.029 -0.117925 0.818549 0
M  V30 3188 H 306.575 0.519169 1.61563 0
M  V30 3189 H 305.347 0.87652 3.81357 0
M  V30 3190 H 304.97 -0.836928 3.88692 0
M  V30 3191 N 305.967 -1.56429 0.191757 0
M  V30 3192 C 306.914 -2.18936 -0.730454 0
M  V30 3193 C 307.884 -1.13557 -1.21219 0
M  V30 3194 O 309.069 -1.41794 -1.27668 0
M  V30 3195 C 306.209 -2.85013 -1.9458 0
M  V30 3196 C 305.322 -4.04909 -1.50574 0
M  V30 3197 C 304.457 -4.58853 -2.67634 0
M  V30 3198 C 303.496 -5.71114 -2.20217 0
M  V30 3199 N 302.633 -6.19478 -3.30442 0
M  V30 3200 H 307.473 -2.97389 -0.190664 0
M  V30 3201 H 305.01 -1.46869 -0.0823694 0
M  V30 3202 H 306.968 -3.21492 -2.65893 0
M  V30 3203 H 305.598 -2.09129 -2.45896 0
M  V30 3204 H 304.65 -3.74115 -0.688605 0
M  V30 3205 H 305.962 -4.86113 -1.11784 0
M  V30 3206 H 305.116 -4.97619 -3.47074 0
M  V30 3207 H 303.855 -3.76749 -3.09696 0
M  V30 3208 H 302.86 -5.31879 -1.3923 0
M  V30 3209 H 304.085 -6.55033 -1.79189 0
M  V30 3210 H 302.031 -5.40297 -3.72041 0
M  V30 3211 H 301.948 -6.95725 -2.9581 0
M  V30 3212 H 303.216 -6.62898 -4.10106 0
M  V30 3213 N 307.445 0.0818655 -1.57387 0
M  V30 3214 C 308.408 1.08265 -2.02018 0
M  V30 3215 C 309.408 1.32183 -0.915664 0
M  V30 3216 O 310.598 1.28073 -1.18081 0
M  V30 3217 C 307.73 2.42871 -2.39221 0
M  V30 3218 H 308.923 0.698204 -2.91659 0
M  V30 3219 H 306.476 0.327303 -1.52835 0
M  V30 3220 H 307.211 2.86167 -1.52575 0
M  V30 3221 H 306.996 2.26855 -3.19811 0
M  V30 3222 H 308.486 3.14826 -2.74362 0
M  V30 3223 N 308.923 1.53595 0.353017 0
M  V30 3224 C 310.17 1.70385 1.09431 0
M  V30 3225 C 310.498 0.462113 1.88931 0
M  V30 3226 O 309.753 -0.556074 1.87633 0
M  V30 3227 C 310.052 2.91313 2.07054 0
M  V30 3228 C 309.718 4.27308 1.43939 0
M  V30 3229 C 308.38 4.64287 1.26454 0
M  V30 3230 C 310.732 5.11829 0.983883 0
M  V30 3231 C 308.06 5.83412 0.620226 0
M  V30 3232 C 310.412 6.31611 0.353516 0
M  V30 3233 C 309.076 6.67293 0.166272 0
M  V30 3234 H 308.346 0.623484 0.400436 0
M  V30 3235 H 310.993 1.87799 0.374655 0
M  V30 3236 H 309.298 2.68463 2.85368 0
M  V30 3237 H 310.995 3.01497 2.64387 0
M  V30 3238 H 307.585 3.98198 1.58543 0
M  V30 3239 H 311.769 4.838 1.10685 0
M  V30 3240 H 307.025 6.09639 0.463681 0
M  V30 3241 H 311.199 6.964 -0.00757555 0
M  V30 3242 H 308.826 7.59461 -0.335047 0
M  V30 3243 N 310.401 -0.613514 1.45168 0
M  V30 3244 C 311.311 -1.75296 1.55912 0
M  V30 3245 C 312.327 -1.68244 0.443856 0
M  V30 3246 O 313.503 -1.88706 0.70371 0
M  V30 3247 C 310.568 -3.1174 1.5172 0
M  V30 3248 C 309.629 -3.30291 2.74238 0
M  V30 3249 C 308.862 -4.60226 2.70236 0
M  V30 3250 O 309.085 -5.42168 1.77229 0
M  V30 3251 O 308.019 -4.81361 3.61352 0
M  V30 3252 H 311.845 -1.69183 2.52212 0
M  V30 3253 H 309.43 -0.776886 1.27612 0
M  V30 3254 H 311.312 -3.93044 1.51968 0
M  V30 3255 H 309.987 -3.18357 0.585697 0
M  V30 3256 H 308.894 -2.48598 2.79553 0
M  V30 3257 H 310.227 -3.28547 3.66494 0
M  V30 3258 N 311.879 -1.3236 -0.855495 0
M  V30 3259 C 312.809 -1.23833 -1.97958 0
M  V30 3260 C 313.79 -0.122361 -1.69659 0
M  V30 3261 O 314.975 -0.30939 -1.9172 0
M  V30 3262 C 312.105 -0.959772 -3.33775 0
M  V30 3263 C 311.059 -2.03689 -3.76424 0
M  V30 3264 C 310.385 -1.61075 -5.09862 0
M  V30 3265 C 311.685 -3.4518 -3.9198 0
M  V30 3266 H 313.379 -2.1788 -2.0535 0
M  V30 3267 H 310.925 -1.04891 -0.986605 0
M  V30 3268 H 312.878 -0.886678 -4.11966 0
M  V30 3269 H 311.602 0.0163404 -3.26596 0
M  V30 3270 H 310.261 -2.10012 -3.00484 0
M  V30 3271 H 309.909 -0.622107 -4.99138 0
M  V30 3272 H 309.609 -2.33143 -5.39368 0
M  V30 3273 H 311.133 -1.55201 -5.90546 0
M  V30 3274 H 312.547 -3.4145 -4.60526 0
M  V30 3275 H 310.944 -4.1559 -4.32903 0
M  V30 3276 H 312.014 -3.84903 -2.94919 0
M  V30 3277 N 313.357 1.07166 -1.15556 0
M  V30 3278 C 314.267 2.17947 -0.868116 0
M  V30 3279 C 315.283 1.73297 0.156297 0
M  V30 3280 O 316.459 2.01392 -0.0182327 0
M  V30 3281 C 313.524 3.44789 -0.36355 0
M  V30 3282 C 312.585 4.03996 -1.45209 0
M  V30 3283 C 311.818 5.24783 -0.971508 0
M  V30 3284 O 312.041 5.70109 0.182194 0
M  V30 3285 O 310.975 5.75715 -1.75603 0
M  V30 3286 H 314.801 2.4503 -1.79427 0
M  V30 3287 H 312.386 1.16539 -0.934824 0
M  V30 3288 H 314.268 4.21307 -0.0887113 0
M  V30 3289 H 312.943 3.19253 0.534708 0
M  V30 3290 H 311.85 3.29009 -1.78056 0
M  V30 3291 H 313.183 4.33808 -2.32533 0
M  V30 3292 N 314.835 0.952656 1.25548 0
M  V30 3293 C 315.765 0.489287 2.28316 0
M  V30 3294 C 316.746 -0.463359 1.63667 0
M  V30 3295 O 317.931 -0.36274 1.90782 0
M  V30 3296 C 315.061 -0.235603 3.465 0
M  V30 3297 C 314.015 0.631593 4.23314 0
M  V30 3298 C 313.341 -0.223923 5.34231 0
M  V30 3299 C 314.641 1.90871 4.86174 0
M  V30 3300 H 316.335 1.34822 2.67326 0
M  V30 3301 H 313.881 0.649728 1.28509 0
M  V30 3302 H 315.834 -0.570882 4.17515 0
M  V30 3303 H 314.558 -1.12877 3.06474 0
M  V30 3304 H 313.217 0.949929 3.54079 0
M  V30 3305 H 312.865 -1.11678 4.90446 0
M  V30 3306 H 312.565 0.35299 5.86539 0
M  V30 3307 H 314.089 -0.554214 6.0808 0
M  V30 3308 H 315.503 1.63997 5.49343 0
M  V30 3309 H 313.9 2.43112 5.4865 0
M  V30 3310 H 314.97 2.61304 4.08471 0
M  V30 3311 N 316.313 -1.40141 0.720998 0
M  V30 3312 C 317.538 -2.05618 0.271258 0
M  V30 3313 C 317.963 -1.53978 -1.08039 0
M  V30 3314 O 317.321 -0.677463 -1.68167 0
M  V30 3315 C 317.369 -3.59609 0.267197 0
M  V30 3316 O 316.473 -4.05526 -0.749814 0
M  V30 3317 H 315.814 -0.651904 0.126162 0
M  V30 3318 H 318.344 -1.79439 0.982997 0
M  V30 3319 H 318.354 -4.0786 0.106744 0
M  V30 3320 H 317.029 -3.96559 1.25354 0
M  V30 3321 H 315.606 -3.68722 -0.556644 0
M  V30 3322 N 317.792 -0.46758 -1.50504 0
M  V30 3323 C 319.038 0.0808869 -2.03239 0
M  V30 3324 C 319.393 1.37721 -1.34353 0
M  V30 3325 O 318.686 1.86016 -0.459194 0
M  V30 3326 C 318.88 0.323995 -3.55928 0
M  V30 3327 C 318.709 -0.947215 -4.39611 0
M  V30 3328 C 317.479 -1.48951 -4.82848 0
M  V30 3329 C 319.677 -1.84166 -4.80195 0
M  V30 3330 N 317.659 -2.71011 -5.50842 0
M  V30 3331 C 319.03 -2.90815 -5.47564 0
M  V30 3332 C 321.085 -1.85246 -4.62156 0
M  V30 3333 C 319.788 -3.98529 -5.98805 0
M  V30 3334 C 321.814 -2.91914 -5.14335 0
M  V30 3335 C 321.176 -3.97282 -5.81676 0
M  V30 3336 H 317.275 -0.0103394 -0.781932 0
M  V30 3337 H 319.859 -0.635003 -1.84054 0
M  V30 3338 H 318.03 1.00892 -3.75067 0
M  V30 3339 H 319.762 0.866492 -3.95315 0
M  V30 3340 H 316.517 -1.03918 -4.62058 0
M  V30 3341 H 316.941 -3.32988 -5.89447 0
M  V30 3342 H 321.583 -1.05103 -4.09528 0
M  V30 3343 H 319.301 -4.79491 -6.50472 0
M  V30 3344 H 322.887 -2.93729 -5.0221 0
M  V30 3345 H 321.767 -4.78462 -6.21324 0
M  V30 3346 N 319.27 1.56325 -0.20005 0
M  V30 3347 C 320.516 1.98012 0.438059 0
M  V30 3348 C 320.849 1.08702 1.60927 0
M  V30 3349 O 320.124 0.140064 1.93995 0
M  V30 3350 C 320.407 3.48841 0.893419 0
M  V30 3351 C 320.26 4.48928 -0.279947 0
M  V30 3352 C 321.579 4.03498 1.75719 0
M  V30 3353 H 318.698 0.719918 0.157757 0
M  V30 3354 H 321.34 1.87743 -0.291968 0
M  V30 3355 H 319.49 3.57723 1.51547 0
M  V30 3356 H 321.162 4.52079 -0.91772 0
M  V30 3357 H 319.405 4.23694 -0.930919 0
M  V30 3358 H 320.076 5.5194 0.0812601 0
M  V30 3359 H 322.552 3.97427 1.23253 0
M  V30 3360 H 321.428 5.09393 2.04476 0
M  V30 3361 H 321.689 3.4906 2.71311 0
M  V30 3362 N 320.748 -0.0735177 1.57428 0
M  V30 3363 C 321.996 -0.771472 1.86796 0
M  V30 3364 C 322.317 -1.78201 0.791804 0
M  V30 3365 O 321.587 -1.95074 -0.179718 0
M  V30 3366 H 320.167 -0.28791 0.689287 0
M  V30 3367 H 322.829 -0.0500161 1.94836 0
M  V30 3368 H 321.925 -1.28874 2.8425 0
M  V30 3369 N 322.226 -1.5378 -0.344866 0
M  V30 3370 C 323.136 -1.84667 -1.4469 0
M  V30 3371 C 324.152 -0.736704 -1.57635 0
M  V30 3372 O 325.328 -1.02888 -1.73136 0
M  V30 3373 C 322.393 -2.04869 -2.79696 0
M  V30 3374 C 321.454 -3.28731 -2.76106 0
M  V30 3375 C 320.687 -3.4796 -4.04673 0
M  V30 3376 O 320.91 -2.71052 -5.01883 0
M  V30 3377 O 319.844 -4.41383 -4.09224 0
M  V30 3378 H 323.67 -2.78334 -1.21506 0
M  V30 3379 H 321.255 -1.39418 -0.536921 0
M  V30 3380 H 323.137 -2.19609 -3.59652 0
M  V30 3381 H 321.812 -1.14391 -3.02814 0
M  V30 3382 H 320.719 -3.19396 -1.94774 0
M  V30 3383 H 322.052 -4.19198 -2.57941 0
M  V30 3384 N 323.704 0.605807 -1.45491 0
M  V30 3385 C 324.634 1.72709 -1.57143 0
M  V30 3386 C 325.615 1.6476 -0.422884 0
M  V30 3387 O 326.8 1.83132 -0.646247 0
M  V30 3388 C 323.93 3.11316 -1.53948 0
M  V30 3389 C 322.884 3.34077 -2.67537 0
M  V30 3390 C 322.21 4.72975 -2.49397 0
M  V30 3391 C 323.51 3.24158 -4.09535 0
M  V30 3392 H 325.204 1.63214 -2.51001 0
M  V30 3393 H 322.75 0.78379 -1.208 0
M  V30 3394 H 324.703 3.89557 -1.60696 0
M  V30 3395 H 323.427 3.21655 -0.566205 0
M  V30 3396 H 322.086 2.58227 -2.6022 0
M  V30 3397 H 321.734 4.8005 -1.50205 0
M  V30 3398 H 321.434 4.8916 -3.25571 0
M  V30 3399 H 322.958 5.53414 -2.58002 0
M  V30 3400 H 324.372 3.92271 -4.18086 0
M  V30 3401 H 322.769 3.51872 -4.86113 0
M  V30 3402 H 323.839 2.2157 -4.31317 0
M  V30 3403 N 325.182 1.32811 0.848464 0
M  V30 3404 C 326.41 1.26739 1.63538 0
M  V30 3405 C 326.825 -0.163484 1.88091 0
M  V30 3406 O 326.182 -1.10258 1.45429 0
M  V30 3407 C 326.233 2.03013 2.99112 0
M  V30 3408 O 325.954 3.40518 2.75643 0
M  V30 3409 C 327.455 2.04038 3.93552 0
M  V30 3410 H 324.675 0.437024 0.509167 0
M  V30 3411 H 327.219 1.75033 1.05753 0
M  V30 3412 H 325.374 1.58426 3.53525 0
M  V30 3413 H 325.788 3.79635 3.61908 0
M  V30 3414 H 327.262 2.61877 4.85926 0
M  V30 3415 H 327.739 1.0282 4.26995 0
M  V30 3416 H 328.345 2.486 3.45077 0
M  V30 3417 N 326.66 -1.06551 1.16123 0
M  V30 3418 C 327.608 -2.16063 0.861371 0
M  V30 3419 C 328.602 -1.6856 -0.168517 0
M  V30 3420 O 329.808 -1.79986 -0.0227579 0
M  V30 3421 H 326.183 -0.705278 0.260934 0
M  V30 3422 H 328.154 -2.38567 1.79244 0
M  V30 3423 C 326.903 -3.45661 0.376018 0
M  V30 3424 H 326.226 -3.82604 1.15992 0
M  V30 3425 H 327.666 -4.23504 0.204951 0
M  V30 3426 C 326.125 -3.24546 -0.903954 0
M  V30 3427 O 326.655 -3.49865 -1.97377 0
M  V30 3428 N 324.861 -2.77992 -0.846679 0
M  V30 3429 H 324.408 -2.57589 0.0241017 0
M  V30 3430 H 324.366 -2.64244 -1.70359 0
M  V30 3431 N 328.138 -0.959301 -1.25041 0
M  V30 3432 C 329.386 -0.615393 -1.92503 0
M  V30 3433 C 329.707 0.850969 -1.75452 0
M  V30 3434 O 328.977 1.60658 -1.12098 0
M  V30 3435 H 327.557 -0.224613 -0.712431 0
M  V30 3436 H 330.219 -1.21855 -1.5211 0
M  V30 3437 H 329.315 -0.848738 -3.00338 0
M  V30 3438 N 329.616 1.39756 -0.72842 0
M  V30 3439 C 331.032 1.5442 -0.403308 0
M  V30 3440 C 331.232 1.69694 1.08656 0
M  V30 3441 O 330.288 1.69373 1.87267 0
M  V30 3442 C 331.601 2.76555 -1.18058 0
M  V30 3443 C 333.149 2.90384 -1.16815 0
M  V30 3444 C 333.624 4.15449 -1.92785 0
M  V30 3445 N 335.115 4.22475 -1.89918 0
M  V30 3446 C 335.85 5.1818 -2.45514 0
M  V30 3447 N 335.346 6.19714 -3.09719 0
M  V30 3448 N 337.139 5.1035 -2.35584 0
M  V30 3449 H 329.29 1.28089 -1.69431 0
M  V30 3450 H 331.553 0.620327 -0.716867 0
M  V30 3451 H 331.259 2.7159 -2.23455 0
M  V30 3452 H 331.133 3.69033 -0.780662 0
M  V30 3453 H 333.52 2.94846 -0.12234 0
M  V30 3454 H 333.601 1.98988 -1.6074 0
M  V30 3455 H 333.245 4.11749 -2.97364 0
M  V30 3456 H 333.175 5.05877 -1.46272 0
M  V30 3457 H 335.666 3.49743 -1.43138 0
M  V30 3458 H 335.979 6.8919 -3.49625 0
M  V30 3459 H 334.324 6.20121 -3.13807 0
M  V30 3460 H 337.515 4.2996 -1.85072 0
M  V30 3461 H 337.688 5.84761 -2.79211 0
M  V30 3462 N 331.094 0.475555 1.50254 0
M  V30 3463 C 332.044 -0.335025 2.25525 0
M  V30 3464 C 333.028 -0.957625 1.29299 0
M  V30 3465 O 334.22 -0.869436 1.54175 0
M  V30 3466 C 331.349 -1.41385 3.12834 0
M  V30 3467 C 330.435 -0.798762 4.1651 0
M  V30 3468 N 330.826 0.0835815 5.05731 0
M  V30 3469 C 329.124 -1.06221 4.33166 0
M  V30 3470 C 329.825 0.433113 5.80085 0
M  V30 3471 N 328.801 -0.1928 5.43258 0
M  V30 3472 H 332.603 0.344612 2.91873 0
M  V30 3473 H 330.117 0.289986 1.5979 0
M  V30 3474 H 332.114 -2.00777 3.65368 0
M  V30 3475 H 330.774 -2.09543 2.48036 0
M  V30 3476 H 331.785 0.452715 5.15918 0
M  V30 3477 H 328.462 -1.73844 3.79585 0
M  V30 3478 H 329.852 1.15346 6.61925 0
M  V30 3479 N 332.573 -1.56217 0.208337 0
M  V30 3480 C 333.483 -2.23316 -0.718836 0
M  V30 3481 C 334.499 -1.23648 -1.22422 0
M  V30 3482 O 335.675 -1.56423 -1.26861 0
M  V30 3483 C 332.74 -2.88968 -1.91568 0
M  V30 3484 C 331.801 -4.03943 -1.45357 0
M  V30 3485 C 331.034 -4.66455 -2.59337 0
M  V30 3486 O 331.257 -4.27919 -3.77149 0
M  V30 3487 O 330.191 -5.55686 -2.31293 0
M  V30 3488 H 334.017 -3.03182 -0.177315 0
M  V30 3489 H 331.602 -1.49384 -0.0215402 0
M  V30 3490 H 333.484 -3.30455 -2.61491 0
M  V30 3491 H 332.159 -2.12071 -2.44556 0
M  V30 3492 H 331.066 -3.67052 -0.722746 0
M  V30 3493 H 332.399 -4.82543 -0.970219 0
M  V30 3494 N 334.051 0.0651679 -1.57465 0
M  V30 3495 C 335.3 0.761916 -1.86756 0
M  V30 3496 C 335.613 1.78406 -0.801925 0
M  V30 3497 O 336.819 2.53084 -0.982885 0
M  V30 3498 C 335.275 1.40603 -3.31299 0
M  V30 3499 C 334.883 0.422115 -4.46007 0
M  V30 3500 C 336.627 2.08476 -3.69781 0
M  V30 3501 C 334.534 1.07252 -5.81593 0
M  V30 3502 H 333.464 0.288308 -0.696702 0
M  V30 3503 H 336.115 0.015344 -1.83494 0
M  V30 3504 H 334.497 2.20109 -3.29193 0
M  V30 3505 H 335.671 -0.343613 -4.59517 0
M  V30 3506 H 333.986 -0.152527 -4.16121 0
M  V30 3507 H 336.583 2.57925 -4.68379 0
M  V30 3508 H 336.926 2.88712 -2.99919 0
M  V30 3509 H 337.459 1.35792 -3.73905 0
M  V30 3510 H 334.198 0.310342 -6.54765 0
M  V30 3511 H 333.718 1.80895 -5.71872 0
M  V30 3512 H 335.397 1.59043 -6.27148 0
M  V30 3513 N 335.529 1.53961 0.336706 0
M  V30 3514 C 336.775 1.7179 1.07777 0
M  V30 3515 C 337.108 0.483263 1.88091 0
M  V30 3516 O 336.383 -0.519747 1.87427 0
M  V30 3517 C 336.666 2.98558 2.01334 0
M  V30 3518 C 336.519 4.32245 1.24437 0
M  V30 3519 C 337.838 3.21023 3.01052 0
M  V30 3520 H 334.957 0.625089 0.390426 0
M  V30 3521 H 337.599 1.86641 0.35567 0
M  V30 3522 H 335.749 2.86028 2.62908 0
M  V30 3523 H 337.421 4.56637 0.654243 0
M  V30 3524 H 335.664 4.30344 0.546458 0
M  V30 3525 H 336.335 5.17137 1.93063 0
M  V30 3526 H 338.811 3.32929 2.49595 0
M  V30 3527 H 337.687 4.11104 3.6371 0
M  V30 3528 H 337.948 2.37637 3.72802 0
M  V30 3529 N 337.007 -0.598083 1.45811 0
M  V30 3530 C 338.418 -1.18011 1.44673 0
M  V30 3531 C 338.769 -1.95378 0.179364 0
M  V30 3532 O 337.894 -2.04124 -0.718509 0
M  V30 3533 C 338.489 -2.14677 2.62105 0
M  V30 3534 C 337.048 -2.68236 2.64057 0
M  V30 3535 C 336.195 -1.43816 2.37091 0
M  V30 3536 H 339.146 -0.38686 1.53913 0
M  V30 3537 H 339.167 -2.97878 2.36746 0
M  V30 3538 H 338.679 -1.5834 3.5433 0
M  V30 3539 H 336.78 -3.28486 1.75864 0
M  V30 3540 H 336.893 -3.12021 3.63566 0
M  V30 3541 H 335.257 -1.731 1.86838 0
M  V30 3542 H 336.04 -0.893333 3.31473 0
M  V30 3543 N 338.485 -1.33259 -0.841409 0
M  V30 3544 C 339.432 -1.23302 -1.95103 0
M  V30 3545 C 340.402 -0.112204 -1.65721 0
M  V30 3546 O 341.587 -0.290038 -1.88583 0
M  V30 3547 C 338.727 -0.975583 -3.31023 0
M  V30 3548 C 337.84 -2.18243 -3.72819 0
M  V30 3549 C 336.975 -1.85936 -4.97595 0
M  V30 3550 C 336.014 -3.02866 -5.3192 0
M  V30 3551 N 335.151 -2.70565 -6.47873 0
M  V30 3552 H 339.991 -2.18207 -2.02952 0
M  V30 3553 H 337.528 -1.0851 -0.993173 0
M  V30 3554 H 339.486 -0.80677 -4.09325 0
M  V30 3555 H 338.116 -0.0632755 -3.22738 0
M  V30 3556 H 337.168 -2.46107 -2.90061 0
M  V30 3557 H 338.48 -3.05666 -3.94169 0
M  V30 3558 H 337.634 -1.65684 -5.83638 0
M  V30 3559 H 336.373 -0.957452 -4.78209 0
M  V30 3560 H 335.378 -3.23736 -4.44382 0
M  V30 3561 H 336.603 -3.93809 -5.53255 0
M  V30 3562 H 334.549 -1.8293 -6.29978 0
M  V30 3563 H 334.466 -3.51519 -6.69306 0
M  V30 3564 H 335.734 -2.53774 -7.37034 0
M  V30 3565 N 339.963 1.05934 -1.16686 0
M  V30 3566 C 341.24 1.75643 -0.860747 0
M  V30 3567 C 341.62 2.01144 0.640641 0
M  V30 3568 O 340.968 1.64147 1.58959 0
M  V30 3569 C 341.178 3.05493 -1.68745 0
M  V30 3570 C 342.526 3.79581 -1.90271 0
M  V30 3571 O 343.55 3.15344 -1.65641 0
M  V30 3572 O 342.409 4.9499 -2.31618 0
M  V30 3573 H 339.503 0.763426 -0.317977 0
M  V30 3574 H 342.049 1.1217 -1.27342 0
M  V30 3575 H 340.821 2.8264 -2.70611 0
M  V30 3576 H 340.444 3.76702 -1.27206 0
M  V30 3577 N 341.441 0.965919 1.2453 0
M  V30 3578 C 342.69 0.622437 1.91856 0
M  V30 3579 C 343.003 -0.846006 1.76358 0
M  V30 3580 O 344.209 -1.29993 2.38357 0
M  V30 3581 C 342.665 1.0626 3.43856 0
M  V30 3582 C 342.273 2.55437 3.68043 0
M  V30 3583 C 344.017 0.792183 4.17043 0
M  V30 3584 C 341.924 2.93196 5.13605 0
M  V30 3585 H 340.854 0.229092 0.718354 0
M  V30 3586 H 343.505 1.17189 1.41206 0
M  V30 3587 H 341.887 0.441476 3.93531 0
M  V30 3588 H 343.061 3.22665 3.28974 0
M  V30 3589 H 341.376 2.8007 3.08139 0
M  V30 3590 H 343.973 1.05031 5.24283 0
M  V30 3591 H 344.316 -0.271584 4.15413 0
M  V30 3592 H 344.849 1.37419 3.73311 0
M  V30 3593 H 341.588 3.98636 5.20355 0
M  V30 3594 H 341.108 2.30651 5.53679 0
M  V30 3595 H 342.787 2.83004 5.81823 0
M  V30 3596 N 342.919 -1.39368 0.735821 0
M  V30 3597 C 344.335 -1.54204 0.411492 0
M  V30 3598 C 344.535 -1.70268 -1.07755 0
M  V30 3599 O 343.591 -1.70364 -1.86366 0
M  V30 3600 C 344.904 -2.75925 1.19523 0
M  V30 3601 C 346.452 -2.89761 1.18354 0
M  V30 3602 C 346.927 -4.14421 1.94986 0
M  V30 3603 N 348.418 -4.21462 1.92156 0
M  V30 3604 C 349.153 -5.16871 2.48258 0
M  V30 3605 N 348.649 -6.18063 3.13001 0
M  V30 3606 N 350.442 -5.09093 2.38287 0
M  V30 3607 H 342.593 -1.27189 1.70108 0
M  V30 3608 H 344.856 -0.616517 0.720147 0
M  V30 3609 H 344.562 -2.70401 2.24892 0
M  V30 3610 H 344.436 -3.68614 0.800222 0
M  V30 3611 H 346.823 -2.94777 0.137975 0
M  V30 3612 H 346.904 -1.98133 1.61793 0
M  V30 3613 H 346.548 -4.10166 2.99543 0
M  V30 3614 H 346.478 -5.05095 1.48953 0
M  V30 3615 H 348.969 -3.48979 1.44991 0
M  V30 3616 H 349.282 -6.87326 3.53275 0
M  V30 3617 H 347.627 -6.18448 3.17091 0
M  V30 3618 H 350.818 -4.28973 1.8735 0
M  V30 3619 H 350.991 -5.83272 2.82308 0
M  V30 3620 N 344.397 -0.483516 -1.5 0
M  V30 3621 C 345.307 0.309172 -2.32554 0
M  V30 3622 C 346.323 0.984159 -1.43493 0
M  V30 3623 O 347.499 0.969399 -1.76535 0
M  V30 3624 C 344.564 1.36979 -3.18493 0
M  V30 3625 C 343.625 0.710095 -4.23387 0
M  V30 3626 C 342.858 1.72018 -5.05218 0
M  V30 3627 O 343.081 2.94813 -4.88305 0
M  V30 3628 O 342.015 1.28515 -5.8802 0
M  V30 3629 H 345.841 -0.366064 -3.01486 0
M  V30 3630 H 343.426 -0.24514 -1.47375 0
M  V30 3631 H 345.308 1.98385 -3.71781 0
M  V30 3632 H 343.983 2.02828 -2.52275 0
M  V30 3633 H 342.89 0.0567539 -3.74057 0
M  V30 3634 H 344.223 0.0943557 -4.9211 0
M  V30 3635 N 345.875 1.56104 -0.216619 0
M  V30 3636 C 346.785 2.23694 0.706982 0
M  V30 3637 C 347.801 1.24295 1.21765 0
M  V30 3638 O 348.977 1.57094 1.2603 0
M  V30 3639 C 346.042 2.8998 1.90033 0
M  V30 3640 C 345.103 4.04708 1.43213 0
M  V30 3641 C 344.336 4.67824 2.56859 0
M  V30 3642 O 344.559 4.29913 3.74874 0
M  V30 3643 O 343.493 5.56905 2.28343 0
M  V30 3644 H 347.319 3.03272 0.161235 0
M  V30 3645 H 344.904 1.49394 0.0136177 0
M  V30 3646 H 346.786 3.31837 2.59735 0
M  V30 3647 H 345.461 2.13365 2.43428 0
M  V30 3648 H 344.368 3.6743 0.70327 0
M  V30 3649 H 345.701 4.83051 0.944615 0
M  V30 3650 N 347.353 -0.0568162 1.57498 0
M  V30 3651 C 348.316 -1.05038 2.03715 0
M  V30 3652 C 349.316 -1.30709 0.936577 0
M  V30 3653 O 350.506 -1.26178 1.20103 0
M  V30 3654 C 347.638 -2.39034 2.43055 0
M  V30 3655 H 348.831 -0.651715 2.92733 0
M  V30 3656 H 346.384 -0.302947 1.53336 0
M  V30 3657 H 347.119 -2.83703 1.57108 0
M  V30 3658 H 346.904 -2.21739 3.2338 0
M  V30 3659 H 348.394 -3.10421 2.79336 0
M  V30 3660 N 348.832 -1.54138 -0.328536 0
M  V30 3661 C 349.742 -1.86192 -1.42723 0
M  V30 3662 C 350.758 -0.753382 -1.56844 0
M  V30 3663 O 351.934 -1.04718 -1.72035 0
M  V30 3664 C 348.999 -2.07824 -2.77507 0
M  V30 3665 C 348.06 -3.31641 -2.72603 0
M  V30 3666 C 347.293 -3.52232 -4.00959 0
M  V30 3667 O 347.516 -2.7636 -4.9898 0
M  V30 3668 O 346.45 -4.45699 -4.0452 0
M  V30 3669 H 350.276 -2.79608 -1.18547 0
M  V30 3670 H 347.861 -1.3998 -0.522104 0
M  V30 3671 H 349.743 -2.23411 -3.57303 0
M  V30 3672 H 348.418 -1.17596 -3.01584 0
M  V30 3673 H 347.325 -3.21444 -1.91376 0
M  V30 3674 H 348.658 -4.2191 -2.53481 0
M  V30 3675 N 350.31 0.590341 -1.46126 0
M  V30 3676 C 351.257 1.69994 -1.56111 0
M  V30 3677 C 352.227 1.61065 -0.405867 0
M  V30 3678 O 353.412 1.8039 -0.621613 0
M  V30 3679 C 350.552 3.08326 -1.55013 0
M  V30 3680 C 349.665 3.27936 -2.81215 0
M  V30 3681 C 348.8 4.56473 -2.71673 0
M  V30 3682 C 347.839 4.694 -3.92849 0
M  V30 3683 N 346.976 5.89254 -3.81738 0
M  V30 3684 H 351.816 1.60797 -2.50895 0
M  V30 3685 H 349.353 0.783799 -1.24479 0
M  V30 3686 H 351.311 3.88383 -1.52362 0
M  V30 3687 H 349.941 3.16439 -0.637667 0
M  V30 3688 H 348.993 2.41536 -2.93879 0
M  V30 3689 H 350.305 3.33357 -3.71045 0
M  V30 3690 H 349.459 5.44748 -2.67085 0
M  V30 3691 H 348.198 4.53477 -1.7947 0
M  V30 3692 H 347.203 3.79544 -3.97777 0
M  V30 3693 H 348.428 4.7418 -4.86138 0
M  V30 3694 H 346.374 5.87271 -2.92317 0
M  V30 3695 H 346.291 5.95911 -4.65217 0
M  V30 3696 H 347.559 6.79981 -3.81112 0
M  V30 3697 N 351.788 1.33704 0.83433 0
M  V30 3698 C 353.018 1.28281 1.6195 0
M  V30 3699 C 353.426 -0.147603 1.88623 0
M  V30 3700 O 352.769 -1.1016 1.47005 0
M  V30 3701 C 352.831 1.99386 2.99141 0
M  V30 3702 C 352.495 3.48681 2.95416 0
M  V30 3703 C 353.492 4.438 2.70809 0
M  V30 3704 C 351.177 3.90925 3.15409 0
M  V30 3705 C 353.171 5.79138 2.66229 0
M  V30 3706 C 350.858 5.26366 3.10454 0
M  V30 3707 C 351.856 6.20284 2.85895 0
M  V30 3708 O 351.544 7.53245 2.80852 0
M  V30 3709 H 351.276 0.44315 0.510484 0
M  V30 3710 H 353.83 1.76711 1.04702 0
M  V30 3711 H 352.06 1.45554 3.58261 0
M  V30 3712 H 353.749 1.87403 3.60049 0
M  V30 3713 H 354.515 4.12485 2.5511 0
M  V30 3714 H 350.394 3.18229 3.33543 0
M  V30 3715 H 353.938 6.52416 2.4698 0
M  V30 3716 H 349.835 5.57304 3.25703 0
M  V30 3717 H 350.603 7.62846 2.96661 0
M  V30 3718 N 353.266 -1.05314 1.17247 0
M  V30 3719 C 354.229 -2.112 0.890357 0
M  V30 3720 C 355.229 -1.60359 -0.118943 0
M  V30 3721 O 356.419 -1.73833 0.113086 0
M  V30 3722 C 353.551 -3.39266 0.333422 0
M  V30 3723 H 354.744 -2.37659 1.82916 0
M  V30 3724 H 352.297 -1.21538 0.982758 0
M  V30 3725 H 353.032 -3.18462 -0.612587 0
M  V30 3726 H 352.817 -3.77477 1.06082 0
M  V30 3727 H 354.307 -4.17315 0.154322 0
M  V30 3728 N 354.744 -0.972509 -1.24016 0
M  V30 3729 C 355.691 -0.505969 -2.25186 0
M  V30 3730 C 356.661 0.451009 -1.5986 0
M  V30 3731 O 357.846 0.360307 -1.87367 0
M  V30 3732 C 354.986 0.193089 -3.44559 0
M  V30 3733 C 354.099 -0.803222 -4.24467 0
M  V30 3734 C 353.234 -0.0797793 -5.3114 0
M  V30 3735 C 352.273 -1.06583 -6.02749 0
M  V30 3736 N 351.41 -0.372074 -7.01113 0
M  V30 3737 H 356.25 -1.37351 -2.64459 0
M  V30 3738 H 353.787 -0.688419 -1.29997 0
M  V30 3739 H 355.745 0.615125 -4.1264 0
M  V30 3740 H 354.375 1.02455 -3.06109 0
M  V30 3741 H 353.427 -1.34368 -3.55878 0
M  V30 3742 H 354.739 -1.55494 -4.73944 0
M  V30 3743 H 353.893 0.400015 -6.0538 0
M  V30 3744 H 352.632 0.704597 -4.82583 0
M  V30 3745 H 351.637 -1.55645 -5.27309 0
M  V30 3746 H 352.862 -1.85074 -6.53395 0
M  V30 3747 H 350.808 0.393238 -6.5482 0
M  V30 3748 H 350.725 -1.06258 -7.48495 0
M  V30 3749 H 351.993 0.0855932 -7.79453 0
M  V30 3750 N 356.222 1.38976 -0.743202 0
M  V30 3751 C 357.132 2.3434 -0.110399 0
M  V30 3752 C 358.148 1.58741 0.712559 0
M  V30 3753 O 359.324 1.9099 0.639125 0
M  V30 3754 C 356.389 3.37812 0.780012 0
M  V30 3755 C 355.45 4.29263 -0.0561319 0
M  V30 3756 C 354.683 5.27793 0.791875 0
M  V30 3757 O 354.906 5.33043 2.03031 0
M  V30 3758 O 353.84 6.01512 0.216183 0
M  V30 3759 H 357.666 2.90129 -0.897714 0
M  V30 3760 H 355.251 1.40643 -0.503966 0
M  V30 3761 H 357.133 4.01194 1.28923 0
M  V30 3762 H 355.808 2.84395 1.546 0
M  V30 3763 H 354.715 3.69076 -0.611056 0
M  V30 3764 H 356.048 4.85907 -0.784531 0
M  V30 3765 N 357.7 0.491464 1.49741 0
M  V30 3766 C 358.925 -0.0557177 2.07325 0
M  V30 3767 C 359.35 -1.30925 1.35056 0
M  V30 3768 O 358.708 -1.76733 0.404365 0
M  V30 3769 C 358.756 -0.302074 3.59333 0
M  V30 3770 O 357.86 -1.37868 3.88672 0
M  V30 3771 H 357.201 0.0219956 0.663636 0
M  V30 3772 H 359.731 0.688352 1.92673 0
M  V30 3773 H 359.741 -0.536464 4.04458 0
M  V30 3774 H 358.416 0.61383 4.11345 0
M  V30 3775 H 356.993 -1.12999 3.55367 0
M  V30 3776 N 359.178 -1.55987 0.224894 0
M  V30 3777 C 360.108 -2.23426 -0.678457 0
M  V30 3778 C 361.089 -1.20709 -1.19847 0
M  V30 3779 O 362.274 -1.49304 -1.24186 0
M  V30 3780 C 359.404 -2.91676 -1.88527 0
M  V30 3781 C 358.358 -4.00893 -1.49896 0
M  V30 3782 C 357.684 -4.56455 -2.78483 0
M  V30 3783 C 358.984 -5.17769 -0.686461 0
M  V30 3784 H 360.678 -2.99175 -0.116173 0
M  V30 3785 H 358.224 -1.43897 -0.054436 0
M  V30 3786 H 360.177 -3.37547 -2.5227 0
M  V30 3787 H 358.901 -2.1338 -2.47258 0
M  V30 3788 H 357.56 -3.55758 -0.884985 0
M  V30 3789 H 357.208 -3.74886 -3.35365 0
M  V30 3790 H 356.908 -5.30169 -2.53368 0
M  V30 3791 H 358.432 -5.05047 -3.43162 0
M  V30 3792 H 359.846 -5.60001 -1.22767 0
M  V30 3793 H 358.243 -5.97735 -0.532259 0
M  V30 3794 H 359.313 -4.83932 0.306196 0
M  V30 3795 N 360.656 0.0484629 -1.57525 0
M  V30 3796 C 361.603 1.05504 -2.05275 0
M  V30 3797 C 362.573 1.37084 -0.937927 0
M  V30 3798 O 363.758 1.47754 -1.2072 0
M  V30 3799 C 360.898 2.35676 -2.52093 0
M  V30 3800 C 360.011 2.10423 -3.77288 0
M  V30 3801 C 359.146 3.34327 -4.12794 0
M  V30 3802 C 358.185 3.04542 -5.30962 0
M  V30 3803 N 357.322 4.20841 -5.61994 0
M  V30 3804 H 362.162 0.640885 -2.91027 0
M  V30 3805 H 359.699 0.304854 -1.43906 0
M  V30 3806 H 361.657 3.11709 -2.77297 0
M  V30 3807 H 360.287 2.7485 -1.69285 0
M  V30 3808 H 359.339 1.24976 -3.59284 0
M  V30 3809 H 360.651 1.84438 -4.63448 0
M  V30 3810 H 359.805 4.1874 -4.39024 0
M  V30 3811 H 358.544 3.63408 -3.25247 0
M  V30 3812 H 357.549 2.18528 -5.04505 0
M  V30 3813 H 358.774 2.76758 -6.20146 0
M  V30 3814 H 356.72 4.4991 -4.77406 0
M  V30 3815 H 356.637 3.98212 -6.42622 0
M  V30 3816 H 357.905 5.06184 -5.92789 0
M  V30 3817 N 362.134 1.5431 0.320358 0
M  V30 3818 C 363.044 1.86946 1.41734 0
M  V30 3819 C 364.06 0.761689 1.56443 0
M  V30 3820 O 365.236 1.05629 1.71477 0
M  V30 3821 C 362.301 2.09293 2.76401 0
M  V30 3822 C 361.362 3.33082 2.70841 0
M  V30 3823 C 360.595 3.54353 3.99086 0
M  V30 3824 O 360.818 2.79002 4.97508 0
M  V30 3825 O 359.752 4.47838 4.0215 0
M  V30 3826 H 363.578 2.80232 1.17062 0
M  V30 3827 H 361.163 1.40255 0.514673 0
M  V30 3828 H 363.045 2.25303 3.56113 0
M  V30 3829 H 361.72 1.19194 3.00956 0
M  V30 3830 H 360.627 3.22454 1.89668 0
M  V30 3831 H 361.96 4.23249 2.5124 0
M  V30 3832 N 363.613 -0.582584 1.46437 0
M  V30 3833 C 364.523 -1.71949 1.59595 0
M  V30 3834 C 365.539 -1.67264 0.479443 0
M  V30 3835 O 366.715 -1.87171 0.743579 0
M  V30 3836 C 363.78 -3.08452 1.58298 0
M  V30 3837 C 362.841 -3.244 2.81182 0
M  V30 3838 C 362.074 -4.54391 2.79937 0
M  V30 3839 O 362.297 -5.38287 1.8869 0
M  V30 3840 O 361.231 -4.73588 3.71481 0
M  V30 3841 H 365.057 -1.63795 2.55744 0
M  V30 3842 H 362.642 -0.749643 1.29231 0
M  V30 3843 H 364.524 -3.89732 1.60271 0
M  V30 3844 H 363.199 -3.17043 0.653094 0
M  V30 3845 H 362.106 -2.42613 2.84763 0
M  V30 3846 H 363.439 -3.20699 3.7338 0
M  V30 3847 N 365.091 -1.34144 -0.827227 0
M  V30 3848 C 366.368 -1.16844 -1.56865 0
M  V30 3849 C 366.748 0.260654 -2.09485 0
M  V30 3850 O 366.096 1.26138 -1.9053 0
M  V30 3851 C 366.306 -2.21939 -2.6934 0
M  V30 3852 C 367.654 -2.56695 -3.3822 0
M  V30 3853 O 368.678 -2.20695 -2.79593 0
M  V30 3854 O 367.537 -3.18518 -4.44082 0
M  V30 3855 H 364.631 -0.452669 -0.692112 0
M  V30 3856 H 367.177 -1.45763 -0.868973 0
M  V30 3857 H 365.949 -3.17882 -2.28182 0
M  V30 3858 H 365.572 -1.94172 -3.46962 0
M  V30 3859 N 366.569 1.04691 -1.17803 0
M  V30 3860 C 367.479 2.16057 -0.914151 0
M  V30 3861 C 368.495 1.73589 0.119503 0
M  V30 3862 O 369.671 2.01308 -0.0609468 0
M  V30 3863 C 366.736 3.4394 -0.436603 0
M  V30 3864 C 365.797 4.00825 -1.53746 0
M  V30 3865 C 365.03 5.22604 -1.0826 0
M  V30 3866 O 365.253 5.70367 0.0612244 0
M  V30 3867 O 364.187 5.7186 -1.87775 0
M  V30 3868 H 368.013 2.41169 -1.84584 0
M  V30 3869 H 365.598 1.1453 -0.959334 0
M  V30 3870 H 367.48 4.21024 -0.178057 0
M  V30 3871 H 366.155 3.20316 0.466869 0
M  V30 3872 H 365.062 3.25158 -1.84995 0
M  V30 3873 H 366.395 4.28778 -2.41683 0
M  V30 3874 N 368.047 0.979072 1.23499 0
M  V30 3875 C 369.272 0.664845 1.96455 0
M  V30 3876 C 369.697 -0.761287 1.72006 0
M  V30 3877 O 369.055 -1.51837 0.990713 0
M  V30 3878 C 369.103 0.959479 3.47601 0
M  V30 3879 O 368.207 0.0508168 4.12369 0
M  V30 3880 H 367.548 0.250185 0.615064 0
M  V30 3881 H 370.078 1.31231 1.5697 0
M  V30 3882 H 370.088 0.895642 3.98048 0
M  V30 3883 H 368.763 1.99876 3.64723 0
M  V30 3884 H 367.34 0.16895 3.72517 0
M  V30 3885 N 369.525 -1.3858 0.750561 0
M  V30 3886 C 370.802 -1.94231 0.231009 0
M  V30 3887 C 371.182 -1.68611 -1.27018 0
M  V30 3888 O 370.53 -1.02296 -2.04323 0
M  V30 3889 C 370.74 -3.44123 0.581428 0
M  V30 3890 C 372.088 -4.2116 0.539389 0
M  V30 3891 O 373.112 -3.52391 0.519541 0
M  V30 3892 O 371.971 -5.43749 0.54765 0
M  V30 3893 H 369.065 -0.825639 0.0474263 0
M  V30 3894 H 371.611 -1.4799 0.830478 0
M  V30 3895 H 370.383 -3.56267 1.61833 0
M  V30 3896 H 370.006 -3.97573 -0.0462047 0
M  V30 3897 N 371.003 -0.499398 -1.49478 0
M  V30 3898 C 372.28 0.108629 -1.95298 0
M  V30 3899 C 372.66 1.54282 -1.44084 0
M  V30 3900 O 372.008 2.18944 -0.653908 0
M  V30 3901 C 372.218 0.0229111 -3.48992 0
M  V30 3902 C 373.566 0.197643 -4.2414 0
M  V30 3903 O 374.59 0.0981735 -3.56065 0
M  V30 3904 O 373.449 0.401669 -5.45022 0
M  V30 3905 H 370.543 0.096181 -0.821388 0
M  V30 3906 H 373.089 -0.561822 -1.6013 0
M  V30 3907 H 371.861 -0.977321 -3.78899 0
M  V30 3908 H 371.484 0.733579 -3.90774 0
M  V30 3909 N 372.481 1.55866 -0.233164 0
M  V30 3910 C 373.758 1.90471 0.444988 0
M  V30 3911 C 374.138 1.15209 1.7689 0
M  V30 3912 O 373.486 0.265119 2.26957 0
M  V30 3913 C 373.696 3.4333 0.626559 0
M  V30 3914 C 375.044 4.14319 0.92871 0
M  V30 3915 O 376.068 3.48993 0.712926 0
M  V30 3916 O 374.927 5.29846 1.33887 0
M  V30 3917 H 372.021 0.792347 0.236885 0
M  V30 3918 H 374.567 1.67437 -0.276211 0
M  V30 3919 H 373.339 3.90095 -0.306822 0
M  V30 3920 H 372.962 3.72181 1.39881 0
M  V30 3921 N 373.959 -0.0401083 1.57549 0
M  V30 3922 C 374.907 -1.06264 2.06908 0
M  V30 3923 C 375.901 -1.38132 0.980608 0
M  V30 3924 O 377.107 -1.37167 1.16556 0
M  V30 3925 H 373.482 -0.360166 0.660139 0
M  V30 3926 H 375.453 -0.620445 2.91878 0
M  V30 3927 C 374.202 -2.35846 2.55483 0
M  V30 3928 H 373.525 -2.12183 3.38849 0
M  V30 3929 H 374.965 -3.05765 2.93741 0
M  V30 3930 C 373.424 -3.0404 1.45126 0
M  V30 3931 O 373.954 -3.93424 0.811216 0
M  V30 3932 N 372.16 -2.65184 1.18852 0
M  V30 3933 H 371.707 -1.92584 1.71083 0
M  V30 3934 H 371.665 -3.1113 0.452244 0
M  V30 3935 N 375.437 -1.54477 -0.31217 0
M  V30 3936 C 376.37 -1.79519 -1.40884 0
M  V30 3937 C 377.348 -0.645753 -1.49227 0
M  V30 3938 O 378.532 -0.884468 -1.66461 0
M  V30 3939 C 375.659 -1.92194 -2.78889 0
M  V30 3940 C 374.705 -3.14555 -2.88023 0
M  V30 3941 S 375.538 -4.72893 -2.51262 0
M  V30 3942 C 376.694 -4.8849 -3.91317 0
M  V30 3943 H 376.927 -2.72256 -1.19432 0
M  V30 3944 H 374.46 -1.45746 -0.509654 0
M  V30 3945 H 376.418 -2.00182 -3.58382 0
M  V30 3946 H 375.079 -1.00414 -2.97617 0
M  V30 3947 H 374.272 -3.20193 -3.89221 0
M  V30 3948 H 373.874 -3.04955 -2.16514 0
M  V30 3949 H 376.166 -4.71826 -4.86196 0
M  V30 3950 H 377.109 -5.90588 -3.90656 0
M  V30 3951 H 377.517 -4.16715 -3.80801 0
M  V30 3952 O 376.954 0.458097 -1.54867 0
M  V30 3953 H 377.645 1.11218 -1.58588 0
M  V30 END ATOM
M  V30 BEGIN BOND
M  V30 END BOND
M  V30 END CTAB
M  END
$$$$
