drugbank_target|P25786 Proteasome subunit alpha type-1 (DB08515)
 OpenBabel12092120433D

  0  0  0     0  0            999 V3000
M  V30 BEGIN CTAB
M  V30 COUNTS 4124 4165 0 0 0
M  V30 BEGIN ATOM
M  V30 1 H -0.908 1.98254 -0.117106 0
M  V30 2 N 0 1.576 0 0
M  V30 3 C 0.933 2.03868 1.02534 0
M  V30 4 C 1.911 0.928543 1.3348 0
M  V30 5 O 3.095 1.19667 1.45644 0
M  V30 6 C 0.222 2.43627 2.35294 0
M  V30 7 C -0.732 3.65373 2.2001 0
M  V30 8 S 0.101 5.13292 1.52614 0
M  V30 9 C 1.257 5.56322 2.86805 0
M  V30 10 H 1.49 2.90518 0.631377 0
M  V30 11 H -0.977 1.52953 0.210867 0
M  V30 12 H 0.981 2.67203 3.11629 0
M  V30 13 H -0.358 1.57376 2.7183 0
M  V30 14 H -1.165 3.90944 3.18086 0
M  V30 15 H -1.563 3.418 1.51819 0
M  V30 16 H 0.729 5.58782 3.83104 0
M  V30 17 H 1.672 6.56266 2.65933 0
M  V30 18 H 2.08 4.83886 2.90714 0
M  V30 19 N 1.4781 -0.272755 1.55222 0
M  V30 20 C 2.7251 -1.00433 1.7584 0
M  V30 21 C 3.0531 -1.86275 0.559629 0
M  V30 22 O 2.3081 -1.90269 -0.457857 0
M  V30 23 C 2.6071 -1.91642 3.01675 0
M  V30 24 C 2.2731 -1.21548 4.34208 0
M  V30 25 C 0.9351 -1.02166 4.70229 0
M  V30 26 C 3.2871 -0.716684 5.16249 0
M  V30 27 C 0.6151 -0.316334 5.85847 0
M  V30 28 C 2.9671 -0.0249476 6.32595 0
M  V30 29 C 1.6311 0.180579 6.67256 0
M  V30 30 H 0.9011 -0.367509 0.643443 0
M  V30 31 H 3.5481 -0.276596 1.89492 0
M  V30 32 H 1.8531 -2.71037 2.82924 0
M  V30 33 H 3.5501 -2.48369 3.14824 0
M  V30 34 H 0.1401 -1.37645 4.05896 0
M  V30 35 H 4.3241 -0.854047 4.88896 0
M  V30 36 H -0.4199 -0.146378 6.11225 0
M  V30 37 H 3.7541 0.369311 6.9542 0
M  V30 38 H 1.3811 0.729098 7.56696 0
M  V30 39 N 2.9562 -1.48159 -0.537278 0
M  V30 40 C 4.3722 -1.34118 -0.865129 0
M  V30 41 C 4.5722 -0.346678 -1.98495 0
M  V30 42 O 3.6282 0.234715 -2.51407 0
M  V30 43 C 4.9412 -2.73963 -1.23954 0
M  V30 44 C 6.4892 -2.82397 -1.34984 0
M  V30 45 C 6.9642 -4.22928 -1.75772 0
M  V30 46 N 8.4552 -4.25566 -1.82887 0
M  V30 47 C 9.1902 -5.31235 -2.15817 0
M  V30 48 N 8.6862 -6.47189 -2.47222 0
M  V30 49 N 10.4792 -5.18624 -2.16761 0
M  V30 50 H 2.6302 -2.1144 0.201715 0
M  V30 51 H 4.8932 -0.947598 0.0275949 0
M  V30 52 H 4.5992 -3.48264 -0.490381 0
M  V30 53 H 4.4732 -3.0702 -2.19132 0
M  V30 54 H 6.8602 -2.08356 -2.08978 0
M  V30 55 H 6.9412 -2.5297 -0.379448 0
M  V30 56 H 6.5852 -4.97482 -1.02341 0
M  V30 57 H 6.5152 -4.49794 -2.73848 0
M  V30 58 H 9.0062 -3.41924 -1.60924 0
M  V30 59 H 9.3192 -7.23564 -2.71433 0
M  V30 60 H 7.6642 -6.50476 -2.44757 0
M  V30 61 H 10.8552 -4.27056 -1.91679 0
M  V30 62 H 11.0282 -6.01078 -2.42093 0
M  V30 63 N 4.4343 0.785586 -1.36625 0
M  V30 64 C 5.3823 1.91978 -1.31329 0
M  V30 65 C 6.3763 1.68162 -0.204416 0
M  V30 66 O 7.5823 1.76122 -0.371645 0
M  V30 67 H 3.9573 0.631087 -0.408942 0
M  V30 68 H 5.9283 1.93562 -2.27104 0
M  V30 69 C 4.6773 3.29055 -1.12329 0
M  V30 70 H 4.0003 3.4795 -1.96903 0
M  V30 71 H 5.4403 4.08756 -1.12671 0
M  V30 72 C 3.8993 3.36461 0.171861 0
M  V30 73 O 4.4293 3.84576 1.16035 0
M  V30 74 N 2.6353 2.89782 0.217846 0
M  V30 75 H 2.1823 2.50819 -0.587183 0
M  V30 76 H 2.1403 2.95119 1.08408 0
M  V30 77 N 5.9124 1.20967 1.01018 0
M  V30 78 C 6.8444 0.922059 2.09835 0
M  V30 79 C 7.8574 -0.0927106 1.62536 0
M  V30 80 O 9.0464 0.139127 1.77957 0
M  V30 81 C 6.1464 0.362004 3.36961 0
M  V30 82 C 5.3194 1.42986 4.13369 0
M  V30 83 C 4.3784 0.879976 5.1879 0
M  V30 84 O 3.4044 1.56219 5.47343 0
M  V30 85 N 4.6064 -0.307396 5.79686 0
M  V30 86 H 7.3714 1.8588 2.35093 0
M  V30 87 H 4.9324 1.11422 1.1746 0
M  V30 88 H 6.9244 -0.0201474 4.04695 0
M  V30 89 H 5.4944 -0.479437 3.08902 0
M  V30 90 H 4.7144 1.98608 3.40512 0
M  V30 91 H 6.0024 2.14885 4.61196 0
M  V30 92 H 5.4004 -0.878796 5.58832 0
M  V30 93 H 3.9574 -0.631115 6.48737 0
M  V30 94 N 7.3905 -1.2043 1.01659 0
M  V30 95 C 8.6205 -1.93496 0.724081 0
M  V30 96 C 9.0285 -1.74998 -0.71918 0
M  V30 97 O 8.3715 -1.06118 -1.49949 0
M  V30 98 C 8.4335 -3.45886 0.97994 0
M  V30 99 C 8.0975 -3.88145 2.41232 0
M  V30 100 C 9.0945 -3.93907 3.39313 0
M  V30 101 C 6.7795 -4.20134 2.75305 0
M  V30 102 C 8.7735 -4.31069 4.6953 0
M  V30 103 C 6.4605 -4.56971 4.05735 0
M  V30 104 C 7.4585 -4.62411 5.02658 0
M  V30 105 O 7.1465 -4.98403 6.30754 0
M  V30 106 H 6.8785 -0.621824 0.265162 0
M  V30 107 H 9.4325 -1.53867 1.36066 0
M  V30 108 H 7.6625 -3.85639 0.286198 0
M  V30 109 H 9.3515 -4.0018 0.679021 0
M  V30 110 H 10.1175 -3.69357 3.14325 0
M  V30 111 H 5.9965 -4.1509 2.00551 0
M  V30 112 H 9.5405 -4.3523 5.45179 0
M  V30 113 H 5.4375 -4.80977 4.30502 0
M  V30 114 H 6.2055 -5.16395 6.35042 0
M  V30 115 N 8.8686 -0.792821 -1.36206 0
M  V30 116 C 10.1456 -0.290627 -1.93429 0
M  V30 117 C 10.5256 1.21773 -1.72437 0
M  V30 118 O 9.8736 2.0108 -1.08531 0
M  V30 119 C 10.0836 -0.686973 -3.42172 0
M  V30 120 C 11.4316 -0.668643 -4.19302 0
M  V30 121 O 12.4556 -0.627658 -3.50626 0
M  V30 122 O 11.3146 -0.714597 -5.41808 0
M  V30 123 H 8.4086 -0.0727927 -0.82379 0
M  V30 124 H 10.9546 -0.875593 -1.45367 0
M  V30 125 H 9.7266 -1.72711 -3.51122 0
M  V30 126 H 9.3496 -0.0760733 -3.97527 0
M  V30 127 N 10.3467 1.47872 -0.545128 0
M  V30 128 C 11.2947 2.31533 0.222512 0
M  V30 129 C 12.2887 1.42177 0.920985 0
M  V30 130 O 13.4947 1.59005 0.843645 0
M  V30 131 H 9.8697 0.746519 0.0906278 0
M  V30 132 H 11.8407 2.94139 -0.50246 0
M  V30 133 C 10.5897 3.2457 1.24699 0
M  V30 134 H 9.9127 3.93283 0.718944 0
M  V30 135 H 11.3527 3.85963 1.75523 0
M  V30 136 C 9.8117 2.47237 2.28856 0
M  V30 137 O 10.3417 2.20808 3.35569 0
M  V30 138 N 8.5477 2.08461 2.02466 0
M  V30 139 H 8.0947 2.30155 1.157 0
M  V30 140 H 8.0527 1.57033 2.72375 0
M  V30 141 N 11.8248 0.280983 1.55075 0
M  V30 142 C 13.1018 -0.386207 1.91749 0
M  V30 143 C 13.4818 -1.73264 1.20594 0
M  V30 144 O 12.8298 -2.26034 0.334784 0
M  V30 145 C 13.0398 -0.520687 3.45094 0
M  V30 146 C 14.3878 -0.800865 4.16979 0
M  V30 147 O 15.4118 -0.605271 3.5102 0
M  V30 148 O 14.2708 -1.1753 5.33712 0
M  V30 149 H 11.3648 -0.212408 0.799257 0
M  V30 150 H 13.9108 0.327568 1.66509 0
M  V30 151 H 12.6828 0.426633 3.88967 0
M  V30 152 H 12.3058 -1.2837 3.76307 0
M  V30 153 N 13.3029 -1.57598 0.00835791 0
M  V30 154 C 14.5489 -1.91211 -0.675732 0
M  V30 155 C 14.8819 -0.883139 -1.72958 0
M  V30 156 O 14.1569 0.097016 -1.94258 0
M  V30 157 C 14.4399 -3.35379 -1.31123 0
M  V30 158 C 14.2929 -4.48999 -0.268356 0
M  V30 159 C 15.6119 -3.7912 -2.23508 0
M  V30 160 H 12.7309 -0.695374 -0.244179 0
M  V30 161 H 15.3729 -1.89901 0.0613655 0
M  V30 162 H 13.5229 -3.36626 -1.93946 0
M  V30 163 H 15.1949 -4.59887 0.360844 0
M  V30 164 H 13.4379 -4.31873 0.408482 0
M  V30 165 H 14.1089 -5.46851 -0.752218 0
M  V30 166 H 16.5849 -3.79477 -1.70693 0
M  V30 167 H 15.4609 -4.80729 -2.64936 0
M  V30 168 H 15.7219 -3.13455 -3.11766 0
M  V30 169 N 14.781 0.264519 -1.55364 0
M  V30 170 C 16.009 1.013 -1.80405 0
M  V30 171 C 16.424 1.79618 -0.581622 0
M  V30 172 O 15.781 1.76879 0.449468 0
M  V30 173 C 15.832 1.96487 -3.03439 0
M  V30 174 O 15.553 1.21341 -4.20961 0
M  V30 175 C 17.054 2.83079 -3.41147 0
M  V30 176 H 14.274 0.298875 -0.600762 0
M  V30 177 H 16.818 0.292736 -2.02394 0
M  V30 178 H 14.973 2.63965 -2.83551 0
M  V30 179 H 15.387 1.85573 -4.90574 0
M  V30 180 H 16.861 3.4565 -4.30384 0
M  V30 181 H 17.338 3.53286 -2.60932 0
M  V30 182 H 17.944 2.2108 -3.63323 0
M  V30 183 N 16.2591 1.48442 0.529413 0
M  V30 184 C 17.5051 1.5672 1.28711 0
M  V30 185 C 17.8381 0.2406 1.92704 0
M  V30 186 O 17.1131 -0.753454 1.79313 0
M  V30 187 C 17.3961 2.70587 2.37603 0
M  V30 188 C 17.2491 4.12953 1.78297 0
M  V30 189 C 18.5681 2.80212 3.39366 0
M  V30 190 H 15.6871 0.570474 0.466613 0
M  V30 191 H 18.3291 1.80617 0.589706 0
M  V30 192 H 16.4791 2.50342 2.97088 0
M  V30 193 H 18.1511 4.44639 1.22858 0
M  V30 194 H 16.3941 4.19927 1.0883 0
M  V30 195 H 17.0651 4.88448 2.57144 0
M  V30 196 H 19.5411 2.98553 2.89836 0
M  V30 197 H 18.4171 3.61611 4.12951 0
M  V30 198 H 18.6781 1.88393 3.99951 0
M  V30 199 N 17.7372 -0.778329 1.37039 0
M  V30 200 C 18.9832 -1.53817 1.33086 0
M  V30 201 C 19.3382 -1.92208 -0.0860346 0
M  V30 202 O 18.6312 -1.60713 -1.04316 0
M  V30 203 C 18.8252 -2.81845 2.19768 0
M  V30 204 C 18.6542 -2.55967 3.69744 0
M  V30 205 C 17.4242 -2.50428 4.38878 0
M  V30 206 C 19.6222 -2.2441 4.62758 0
M  V30 207 N 17.6042 -2.16564 5.74433 0
M  V30 208 C 18.9752 -2.0063 5.86641 0
M  V30 209 C 21.0302 -2.1051 4.5121 0
M  V30 210 C 19.7332 -1.64354 7.00272 0
M  V30 211 C 21.7592 -1.75634 5.64718 0
M  V30 212 C 21.1212 -1.52709 6.87648 0
M  V30 213 H 17.2202 -0.563434 0.542279 0
M  V30 214 H 19.8042 -0.908617 1.72198 0
M  V30 215 H 17.9752 -3.42649 1.82883 0
M  V30 216 H 19.7072 -3.47682 2.07122 0
M  V30 217 H 16.4622 -2.66056 3.91805 0
M  V30 218 H 16.8862 -2.02348 6.46053 0
M  V30 219 H 21.5282 -2.26919 3.56746 0
M  V30 220 H 19.2462 -1.46683 7.94676 0
M  V30 221 H 22.8322 -1.65546 5.57751 0
M  V30 222 H 21.7122 -1.2612 7.73992 0
M  V30 223 N 19.2153 -1.21501 -1.00376 0
M  V30 224 C 20.4403 -1.05977 -1.78279 0
M  V30 225 C 20.8653 0.385994 -1.84097 0
M  V30 226 O 20.2233 1.27849 -1.28547 0
M  V30 227 C 20.2713 -1.66302 -3.19963 0
M  V30 228 O 19.3753 -0.909333 -4.0225 0
M  V30 229 H 18.7163 -0.372906 -0.549397 0
M  V30 230 H 21.2463 -1.6107 -1.26165 0
M  V30 231 H 21.2563 -1.70574 -3.70632 0
M  V30 232 H 19.9313 -2.71515 -3.15043 0
M  V30 233 H 18.5083 -0.941795 -3.60811 0
M  V30 234 N 20.6934 1.19889 -1.02296 0
M  V30 235 C 22.1044 1.71124 -0.746568 0
M  V30 236 C 22.4554 1.81939 0.734335 0
M  V30 237 O 21.5804 1.48639 1.57275 0
M  V30 238 C 22.1754 3.10804 -1.34857 0
M  V30 239 C 20.7344 3.59323 -1.1209 0
M  V30 240 C 19.8814 2.3635 -1.45031 0
M  V30 241 H 22.8324 1.04813 -1.19163 0
M  V30 242 H 22.8534 3.73186 -0.742437 0
M  V30 243 H 22.3654 3.029 -2.42638 0
M  V30 244 H 20.4664 3.7255 -0.0610337 0
M  V30 245 H 20.5794 4.4378 -1.80544 0
M  V30 246 H 18.9434 2.39399 -0.869487 0
M  V30 247 H 19.7264 2.31081 -2.53883 0
M  V30 248 N 22.1715 0.800033 1.35784 0
M  V30 249 C 23.1035 0.163596 2.28615 0
M  V30 250 C 24.1165 -0.633317 1.49976 0
M  V30 251 O 25.3055 -0.466754 1.72289 0
M  V30 252 C 22.4055 -0.790958 3.29541 0
M  V30 253 C 21.5785 -0.0418255 4.3738 0
M  V30 254 C 20.6375 -0.91389 5.18203 0
M  V30 255 O 19.6635 -0.367234 5.68014 0
M  V30 256 N 20.8655 -2.23682 5.35674 0
M  V30 257 H 23.6305 0.96105 2.83873 0
M  V30 258 H 21.1915 0.654894 1.48063 0
M  V30 259 H 23.1835 -1.37844 3.80501 0
M  V30 260 H 21.7535 -1.48925 2.74846 0
M  V30 261 H 20.9735 0.726813 3.87442 0
M  V30 262 H 22.2615 0.474719 5.06581 0
M  V30 263 H 21.6595 -2.70497 4.96838 0
M  V30 264 H 20.2165 -2.77369 5.89839 0
M  V30 265 N 23.6496 -1.47581 0.552962 0
M  V30 266 C 24.8976 -2.02082 0.0272703 0
M  V30 267 C 25.2186 -1.4301 -1.32563 0
M  V30 268 O 24.4886 -0.603745 -1.86365 0
M  V30 269 H 23.0686 -0.746966 0.00709182 0
M  V30 270 H 25.7306 -1.81033 0.722008 0
M  V30 271 H 24.8266 -3.12034 -0.0639951 0
M  V30 272 N 25.1277 -0.289203 -1.54924 0
M  V30 273 C 26.5437 0.0645403 -1.59469 0
M  V30 274 C 26.7437 1.53419 -1.30632 0
M  V30 275 O 25.7997 2.2852 -1.074 0
M  V30 276 C 27.1127 -0.32278 -2.98963 0
M  V30 277 C 28.6607 -0.270564 -3.11828 0
M  V30 278 C 29.1357 -0.632532 -4.53611 0
M  V30 279 N 30.6267 -0.584617 -4.59496 0
M  V30 280 C 31.3617 -0.837314 -5.67254 0
M  V30 281 N 30.8577 -1.15536 -6.83098 0
M  V30 282 N 32.6507 -0.765166 -5.56868 0
M  V30 283 H 24.8017 -1.24714 -1.71931 0
M  V30 284 H 27.0647 -0.504809 -0.802416 0
M  V30 285 H 26.7707 -1.34541 -3.24948 0
M  V30 286 H 26.6447 0.32944 -3.75759 0
M  V30 287 H 29.0317 0.742805 -2.85598 0
M  V30 288 H 29.1127 -0.957242 -2.37214 0
M  V30 289 H 28.7567 -1.64365 -4.80569 0
M  V30 290 H 28.6867 0.07609 -5.26545 0
M  V30 291 H 31.1777 -0.349248 -3.76283 0
M  V30 292 H 31.4907 -1.33447 -7.61191 0
M  V30 293 H 29.8357 -1.19328 -6.84679 0
M  V30 294 H 33.0267 -0.516432 -4.65243 0
M  V30 295 H 33.1997 -0.965477 -6.40767 0
M  V30 296 N 26.6058 1.57591 -0.0167156 0
M  V30 297 C 27.8548 1.90461 0.663877 0
M  V30 298 C 28.1678 0.893515 1.73999 0
M  V30 299 O 29.3738 1.11302 2.47637 0
M  V30 300 C 27.8298 3.38155 1.23204 0
M  V30 301 C 27.4378 4.47597 0.189866 0
M  V30 302 C 29.1818 3.80111 1.88986 0
M  V30 303 C 27.0888 5.86379 0.768964 0
M  V30 304 H 26.0188 0.710738 0.251729 0
M  V30 305 H 28.6698 1.83326 -0.0799926 0
M  V30 306 H 27.0518 3.40182 2.02712 0
M  V30 307 H 28.2258 4.57112 -0.581846 0
M  V30 308 H 26.5408 4.14766 -0.368475 0
M  V30 309 H 29.1378 4.81145 2.33247 0
M  V30 310 H 29.4808 3.14511 2.72743 0
M  V30 311 H 30.0138 3.80454 1.16187 0
M  V30 312 H 26.7528 6.55493 -0.0301957 0
M  V30 313 H 26.2728 5.80496 1.50945 0
M  V30 314 H 27.9518 6.34563 1.26251 0
M  V30 315 N 28.0839 -0.256276 1.55502 0
M  V30 316 C 29.0339 -1.31981 1.85916 0
M  V30 317 C 30.0179 -1.43927 0.719296 0
M  V30 318 O 31.2099 -1.47326 0.981019 0
M  V30 319 C 28.3389 -2.67703 2.14918 0
M  V30 320 C 27.4249 -2.59801 3.35208 0
M  V30 321 N 27.8159 -2.21524 4.54709 0
M  V30 322 C 26.1139 -2.90832 3.38131 0
M  V30 323 C 26.8149 -2.24024 5.36832 0
M  V30 324 N 25.7909 -2.63158 4.75656 0
M  V30 325 H 29.5929 -1.01423 2.75845 0
M  V30 326 H 27.1069 -0.464911 1.55603 0
M  V30 327 H 29.1039 -3.44445 2.34869 0
M  V30 328 H 27.7639 -2.99137 1.26282 0
M  V30 329 H 28.7749 -1.93223 4.80505 0
M  V30 330 H 25.4519 -3.26867 2.59739 0
M  V30 331 H 26.8419 -1.9685 6.42417 0
M  V30 332 N 29.562 -1.4872 -0.521534 0
M  V30 333 C 30.494 -1.59968 -1.64143 0
M  V30 334 C 31.507 -0.483463 -1.55456 0
M  V30 335 O 32.696 -0.75467 -1.61762 0
M  V30 336 C 29.796 -1.52127 -3.02838 0
M  V30 337 C 28.969 -2.78932 -3.36921 0
M  V30 338 C 28.028 -2.64428 -4.54933 0
M  V30 339 O 27.054 -3.38331 -4.57735 0
M  V30 340 N 28.256 -1.74606 -5.53618 0
M  V30 341 H 31.021 -2.56548 -1.54929 0
M  V30 342 H 28.582 -1.45551 -0.708988 0
M  V30 343 H 30.574 -1.40106 -3.79674 0
M  V30 344 H 29.144 -0.634868 -3.06085 0
M  V30 345 H 28.364 -3.05455 -2.4918 0
M  V30 346 H 29.652 -3.63041 -3.56481 0
M  V30 347 H 29.05 -1.13782 -5.54139 0
M  V30 348 H 27.607 -1.6852 -6.29638 0
M  V30 349 N 31.0401 0.771051 -1.3745 0
M  V30 350 C 32.2891 1.52491 -1.3202 0
M  V30 351 C 32.6021 1.9538 0.0927347 0
M  V30 352 O 33.8081 2.70159 0.269503 0
M  V30 353 C 32.2641 2.75366 -2.31736 0
M  V30 354 C 31.8721 2.39573 -3.78562 0
M  V30 355 C 33.6161 3.53307 -2.35318 0
M  V30 356 C 31.5231 3.58954 -4.70007 0
M  V30 357 H 30.4531 0.572506 -0.490666 0
M  V30 358 H 33.1041 0.844474 -1.62914 0
M  V30 359 H 31.4861 3.45303 -1.93861 0
M  V30 360 H 32.6601 1.77415 -4.25277 0
M  V30 361 H 30.9751 1.74805 -3.77932 0
M  V30 362 H 33.5721 4.42039 -3.00842 0
M  V30 363 H 33.9151 3.93217 -1.36698 0
M  V30 364 H 34.4481 2.90367 -2.71904 0
M  V30 365 H 31.1871 3.24125 -5.69757 0
M  V30 366 H 30.7071 4.20214 -4.27996 0
M  V30 367 H 32.3861 4.25758 -4.87175 0
M  V30 368 N 32.5182 1.22032 0.997298 0
M  V30 369 C 33.4282 1.00271 2.12092 0
M  V30 370 C 34.4442 -0.047621 1.73935 0
M  V30 371 O 35.6202 0.144136 2.00884 0
M  V30 372 C 32.6852 0.578449 3.4184 0
M  V30 373 C 31.7462 1.70189 3.94125 0
M  V30 374 C 30.9792 1.29778 5.17681 0
M  V30 375 O 31.2022 0.174676 5.70132 0
M  V30 376 O 30.1362 2.11261 5.63607 0
M  V30 377 H 33.9622 1.94398 2.3333 0
M  V30 378 H 31.5472 1.00587 1.10465 0
M  V30 379 H 33.4292 0.351998 4.19927 0
M  V30 380 H 32.1042 -0.334019 3.21972 0
M  V30 381 H 31.0112 1.98282 3.1723 0
M  V30 382 H 32.3442 2.59206 4.18417 0
M  V30 383 N 33.9963 -1.19345 1.0293 0
M  V30 384 C 35.2263 -1.92717 0.744563 0
M  V30 385 C 35.6343 -1.75751 -0.700579 0
M  V30 386 O 34.9773 -1.07703 -1.48815 0
M  V30 387 C 35.0393 -3.44828 1.01657 0
M  V30 388 C 34.7033 -3.85564 2.45335 0
M  V30 389 C 35.7003 -3.90286 3.43472 0
M  V30 390 C 33.3853 -4.1719 2.79746 0
M  V30 391 C 35.3793 -4.26065 4.74075 0
M  V30 392 C 33.0663 -4.52642 4.10559 0
M  V30 393 C 34.0643 -4.57054 5.07534 0
M  V30 394 O 33.7523 -4.91685 6.36004 0
M  V30 395 H 33.4843 -0.618977 0.271742 0
M  V30 396 H 36.0383 -1.52415 1.37691 0
M  V30 397 H 34.2683 -3.85314 0.327084 0
M  V30 398 H 35.9573 -3.99437 0.721427 0
M  V30 399 H 36.7233 -3.66002 3.18225 0
M  V30 400 H 32.6023 -4.1294 2.04943 0
M  V30 401 H 36.1463 -4.29423 5.49765 0
M  V30 402 H 32.0433 -4.76383 4.35579 0
M  V30 403 H 32.8113 -5.09631 6.40483 0
M  V30 404 N 35.4744 -0.807222 -1.35358 0
M  V30 405 C 36.4374 -0.223665 -2.28106 0
M  V30 406 C 37.4374 0.589354 -1.4961 0
M  V30 407 O 38.6274 0.407745 -1.69361 0
M  V30 408 C 35.7594 0.688149 -3.33882 0
M  V30 409 H 36.9524 -1.04169 -2.81227 0
M  V30 410 H 34.5054 -0.577921 -1.45223 0
M  V30 411 H 35.2404 1.52984 -2.85948 0
M  V30 412 H 35.0254 0.10687 -3.91954 0
M  V30 413 H 36.5154 1.09075 -4.03104 0
M  V30 414 N 36.9525 1.47285 -0.560781 0
M  V30 415 C 37.8855 2.27009 0.232821 0
M  V30 416 C 38.8635 1.34273 0.917039 0
M  V30 417 O 40.0475 1.63659 0.935315 0
M  V30 418 C 37.1745 3.11406 1.33206 0
M  V30 419 C 36.2205 4.19746 0.756019 0
M  V30 420 S 37.0535 5.34003 -0.400165 0
M  V30 421 C 38.2095 6.21964 0.700805 0
M  V30 422 H 38.4425 2.93971 -0.443683 0
M  V30 423 H 35.9755 1.50446 -0.347181 0
M  V30 424 H 37.9335 3.60601 1.96156 0
M  V30 425 H 36.5945 2.438 1.98041 0
M  V30 426 H 35.7875 4.78541 1.5816 0
M  V30 427 H 35.3895 3.73451 0.202619 0
M  V30 428 H 37.6815 6.58529 1.59202 0
M  V30 429 H 38.6245 7.07941 0.150126 0
M  V30 430 H 39.0325 5.5566 0.995083 0
M  V30 431 N 38.4306 0.297415 1.54768 0
M  V30 432 C 39.3406 -0.58983 2.27064 0
M  V30 433 C 40.3566 -1.15144 1.30453 0
M  V30 434 O 41.5326 -1.17699 1.63428 0
M  V30 435 C 38.5976 -1.74714 2.9946 0
M  V30 436 C 37.6586 -1.21997 4.11601 0
M  V30 437 C 36.8916 -2.32212 4.80535 0
M  V30 438 O 37.1146 -3.52036 4.48806 0
M  V30 439 O 36.0486 -1.99106 5.68014 0
M  V30 440 H 39.8746 -0.00348199 3.037 0
M  V30 441 H 37.4596 0.0640035 1.49263 0
M  V30 442 H 39.3416 -2.42147 3.44881 0
M  V30 443 H 38.0166 -2.32016 2.25722 0
M  V30 444 H 36.9236 -0.511458 3.70587 0
M  V30 445 H 38.2566 -0.692419 4.87305 0
M  V30 446 N 39.9087 -1.5758 0.0250728 0
M  V30 447 C 40.8717 -2.08896 -0.943139 0
M  V30 448 C 41.8717 -1.00321 -1.25668 0
M  V30 449 O 43.0617 -1.26495 -1.19769 0
M  V30 450 C 40.1937 -2.55143 -2.26086 0
M  V30 451 H 41.3867 -2.95723 -0.498775 0
M  V30 452 H 38.9397 -1.54703 -0.222888 0
M  V30 453 H 39.6747 -1.71633 -2.75159 0
M  V30 454 H 39.4597 -3.34461 -2.04641 0
M  V30 455 H 40.9497 -2.95083 -2.95492 0
M  V30 456 N 41.3868 0.248026 -1.55636 0
M  V30 457 C 42.6328 0.97767 -1.77678 0
M  V30 458 C 42.9658 1.85016 -0.590135 0
M  V30 459 O 42.2408 1.90095 0.411611 0
M  V30 460 C 42.5238 1.83914 -3.09593 0
M  V30 461 C 42.3768 0.99491 -4.38659 0
M  V30 462 C 43.6958 2.82183 -3.37729 0
M  V30 463 H 40.8148 0.354005 -0.646413 0
M  V30 464 H 43.4568 0.248253 -1.88371 0
M  V30 465 H 41.6068 2.46104 -3.00608 0
M  V30 466 H 43.2788 0.391789 -4.59633 0
M  V30 467 H 41.5218 0.299231 -4.32767 0
M  V30 468 H 42.1928 1.63145 -5.2734 0
M  V30 469 H 44.6688 2.30129 -3.4667 0
M  V30 470 H 43.5448 3.39582 -4.31249 0
M  V30 471 H 43.8058 3.58588 -2.58586 0
M  V30 472 N 42.8649 1.48995 0.513639 0
M  V30 473 C 43.8119 1.6473 1.61656 0
M  V30 474 C 44.7819 0.488984 1.58739 0
M  V30 475 O 45.9669 0.714478 1.76918 0
M  V30 476 C 43.1069 1.7082 2.99858 0
M  V30 477 C 42.2199 2.9787 3.12885 0
M  V30 478 C 41.3549 2.95017 4.41744 0
M  V30 479 C 40.3939 4.16702 4.48359 0
M  V30 480 N 39.5309 4.11832 5.68629 0
M  V30 481 H 44.3709 2.58909 1.47547 0
M  V30 482 H 41.9079 1.28382 0.71808 0
M  V30 483 H 43.8659 1.72331 3.79944 0
M  V30 484 H 42.4959 0.801181 3.12699 0
M  V30 485 H 41.5479 3.06029 2.25944 0
M  V30 486 H 42.8599 3.8786 3.13633 0
M  V30 487 H 42.0139 2.95021 5.30139 0
M  V30 488 H 40.7529 2.02784 4.43542 0
M  V30 489 H 39.7579 4.16955 3.58369 0
M  V30 490 H 40.9829 5.10113 4.48287 0
M  V30 491 H 38.9289 3.22428 5.71293 0
M  V30 492 H 38.8459 4.95543 5.7094 0
M  V30 493 H 40.1139 4.1592 6.59266 0
M  V30 494 N 44.343 -0.763751 1.37857 0
M  V30 495 C 45.275 -1.88664 1.30148 0
M  V30 496 C 46.288 -1.61365 0.215685 0
M  V30 497 O 47.477 -1.72134 0.472459 0
M  V30 498 C 44.577 -3.24075 0.991396 0
M  V30 499 C 43.75 -3.78958 2.18426 0
M  V30 500 C 42.809 -4.92862 1.8432 0
M  V30 501 O 41.835 -5.08027 2.56704 0
M  V30 502 N 43.037 -5.75071 0.792081 0
M  V30 503 H 45.802 -1.95791 2.26905 0
M  V30 504 H 43.363 -0.943226 1.31586 0
M  V30 505 H 45.355 -3.97804 0.743935 0
M  V30 506 H 43.925 -3.12399 0.112122 0
M  V30 507 H 43.145 -2.96913 2.59299 0
M  V30 508 H 44.433 -4.12357 2.98058 0
M  V30 509 H 43.831 -5.65375 0.191595 0
M  V30 510 H 42.388 -6.48991 0.60449 0
M  V30 511 N 45.8211 -1.22559 -0.990812 0
M  V30 512 C 47.0691 -1.04933 -1.72724 0
M  V30 513 C 47.3901 0.416158 -1.90508 0
M  V30 514 O 46.6601 1.29918 -1.46622 0
M  V30 515 H 45.2401 -0.385296 -0.639965 0
M  V30 516 H 47.9021 -1.54105 -1.19322 0
M  V30 517 H 46.9981 -1.52886 -2.72089 0
M  V30 518 N 47.2992 1.18797 -1.03562 0
M  V30 519 C 48.5242 1.9314 -0.755764 0
M  V30 520 C 48.9492 1.7537 0.68022 0
M  V30 521 O 48.3072 1.06046 1.47051 0
M  V30 522 C 48.3552 3.42747 -1.12058 0
M  V30 523 O 47.4592 4.11683 -0.243124 0
M  V30 524 H 46.8002 0.602724 -0.278604 0
M  V30 525 H 49.3302 1.50678 -1.3841 0
M  V30 526 H 49.3402 3.93437 -1.08035 0
M  V30 527 H 48.0152 3.55002 -2.16672 0
M  V30 528 H 46.5922 3.71323 -0.342539 0
M  V30 529 N 48.7773 0.814389 1.34928 0
M  V30 530 C 49.7403 0.235759 2.27984 0
M  V30 531 C 50.7403 -0.581412 1.49921 0
M  V30 532 O 51.9303 -0.398758 1.69575 0
M  V30 533 C 49.0623 -0.670433 3.34242 0
M  V30 534 H 50.2553 1.05659 2.80671 0
M  V30 535 H 47.8083 0.585614 1.44915 0
M  V30 536 H 48.5433 -1.51466 2.86755 0
M  V30 537 H 48.3283 -0.0860822 3.92005 0
M  V30 538 H 49.8183 -1.06935 4.03676 0
M  V30 539 N 50.2554 -1.46986 0.568584 0
M  V30 540 C 51.4834 -2.0683 0.0539956 0
M  V30 541 C 51.8984 -1.41953 -1.24478 0
M  V30 542 O 51.2554 -0.519933 -1.74937 0
M  V30 543 C 51.3064 -3.61254 -0.133362 0
M  V30 544 O 51.0274 -4.237 1.11399 0
M  V30 545 C 52.5284 -4.37992 -0.683927 0
M  V30 546 H 49.7484 -0.669058 0.0510141 0
M  V30 547 H 52.2924 -1.88824 0.785234 0
M  V30 548 H 50.4474 -3.78735 -0.81477 0
M  V30 549 H 50.8614 -5.16388 0.91888 0
M  V30 550 H 52.3354 -5.46684 -0.764263 0
M  V30 551 H 52.8124 -4.05058 -1.69778 0
M  V30 552 H 53.4184 -4.25283 -0.0378494 0
M  V30 553 N 51.7335 -0.305618 -1.54608 0
M  V30 554 C 52.9795 0.302746 -2.00528 0
M  V30 555 C 53.3125 1.53184 -1.19367 0
M  V30 556 O 52.5875 1.92598 -0.271321 0
M  V30 557 C 52.8705 0.654756 -3.54097 0
M  V30 558 C 52.7235 -0.583793 -4.45995 0
M  V30 559 C 54.0425 1.47947 -4.14487 0
M  V30 560 H 51.1615 0.108564 -0.72896 0
M  V30 561 H 53.8035 -0.418634 -1.85331 0
M  V30 562 H 51.9535 1.26935 -3.67178 0
M  V30 563 H 53.6255 -1.22224 -4.44814 0
M  V30 564 H 51.8685 -1.21615 -4.16404 0
M  V30 565 H 52.5395 -0.293287 -5.5122 0
M  V30 566 H 55.0155 0.96013 -4.04871 0
M  V30 567 H 53.8915 1.69454 -5.22088 0
M  V30 568 H 54.1525 2.47011 -3.66658 0
M  V30 569 N 53.2116 1.57565 -0.0334293 0
M  V30 570 C 54.4596 1.91598 0.642999 0
M  V30 571 C 54.7806 0.910847 1.7242 0
M  V30 572 O 54.0506 -0.0469931 1.95844 0
M  V30 573 H 52.6306 0.707228 0.240496 0
M  V30 574 H 55.2926 1.94726 -0.0822488 0
M  V30 575 H 54.3886 2.92336 1.09298 0
M  V30 576 N 54.6897 -0.239769 1.55765 0
M  V30 577 C 55.6197 -1.30052 1.9393 0
M  V30 578 C 56.6007 -1.49839 0.805132 0
M  V30 579 O 57.7857 -1.62328 1.06599 0
M  V30 580 C 54.9157 -2.65391 2.2402 0
M  V30 581 C 53.8697 -2.60289 3.39755 0
M  V30 582 C 53.1957 -3.99489 3.55405 0
M  V30 583 C 54.4957 -2.16654 4.75246 0
M  V30 584 H 56.1897 -0.983573 2.82783 0
M  V30 585 H 53.7357 -0.471701 1.36055 0
M  V30 586 H 55.6887 -3.3974 2.49308 0
M  V30 587 H 54.4127 -2.98736 1.32 0
M  V30 588 H 53.0717 -1.88398 3.14487 0
M  V30 589 H 52.7197 -4.30112 2.60793 0
M  V30 590 H 52.4197 -3.96962 4.33238 0
M  V30 591 H 53.9437 -4.75528 3.83022 0
M  V30 592 H 55.3577 -2.80737 4.99859 0
M  V30 593 H 53.7547 -2.25223 5.56232 0
M  V30 594 H 54.8247 -1.11835 4.71827 0
M  V30 595 N 56.1678 -1.49265 -0.50573 0
M  V30 596 C 57.1148 -1.65585 -1.6078 0
M  V30 597 C 58.0848 -0.497396 -1.58478 0
M  V30 598 O 59.2698 -0.72385 -1.76536 0
M  V30 599 C 56.4098 -1.72408 -2.98948 0
M  V30 600 C 55.5228 -2.99525 -3.11301 0
M  V30 601 C 54.6578 -2.97356 -4.40174 0
M  V30 602 C 53.6968 -4.19074 -4.46143 0
M  V30 603 N 52.8338 -4.14841 -5.66437 0
M  V30 604 H 57.6738 -2.59688 -1.46172 0
M  V30 605 H 55.2108 -1.28761 -0.711261 0
M  V30 606 H 57.1688 -1.74344 -3.79025 0
M  V30 607 H 55.7988 -0.817753 -3.1227 0
M  V30 608 H 54.8508 -3.07222 -2.24318 0
M  V30 609 H 56.1628 -3.89518 -3.11572 0
M  V30 610 H 55.3168 -2.97829 -5.28567 0
M  V30 611 H 54.0558 -2.05133 -4.42461 0
M  V30 612 H 53.0608 -4.1885 -3.56153 0
M  V30 613 H 54.2858 -5.12483 -4.45575 0
M  V30 614 H 52.2318 -3.25453 -5.69575 0
M  V30 615 H 52.1488 -4.98564 -5.68304 0
M  V30 616 H 53.4168 -4.1941 -6.57051 0
M  V30 617 N 57.6459 0.756429 -1.3826 0
M  V30 618 C 58.8709 1.55077 -1.37717 0
M  V30 619 C 59.2959 1.88073 0.03164 0
M  V30 620 O 58.6539 1.50364 1.01293 0
M  V30 621 C 58.7019 2.8283 -2.23695 0
M  V30 622 O 57.8059 3.77862 -1.6521 0
M  V30 623 H 57.1469 0.469152 -0.469885 0
M  V30 624 H 59.6769 0.935019 -1.81985 0
M  V30 625 H 59.6869 3.31783 -2.37453 0
M  V30 626 H 58.3619 2.58144 -3.2609 0
M  V30 627 H 56.9389 3.36555 -1.60578 0
M  V30 628 N 59.124 1.23083 0.984299 0
M  V30 629 C 60.071 1.00854 2.07598 0
M  V30 630 C 61.041 -0.0726709 1.65941 0
M  V30 631 O 62.226 0.0786535 1.90638 0
M  V30 632 C 59.366 0.601645 3.39815 0
M  V30 633 C 58.479 1.75456 3.94765 0
M  V30 634 C 57.614 1.29482 5.15177 0
M  V30 635 C 56.653 2.41873 5.62284 0
M  V30 636 N 55.79 1.96885 6.73929 0
M  V30 637 H 60.63 1.943 2.25946 0
M  V30 638 H 58.167 0.968001 1.10762 0
M  V30 639 H 60.125 0.346854 4.15756 0
M  V30 640 H 58.755 -0.295803 3.21442 0
M  V30 641 H 57.807 2.12346 3.15616 0
M  V30 642 H 59.119 2.59965 4.25699 0
M  V30 643 H 58.273 0.997923 5.98437 0
M  V30 644 H 57.012 0.420046 4.85888 0
M  V30 645 H 56.017 2.72342 4.77608 0
M  V30 646 H 57.242 3.29881 5.93595 0
M  V30 647 H 55.188 1.11782 6.46406 0
M  V30 648 H 55.105 2.74956 7.04227 0
M  V30 649 H 56.373 1.70289 7.60672 0
M  V30 650 N 60.6021 -1.18246 1.0419 0
M  V30 651 C 61.8301 -1.92195 0.766072 0
M  V30 652 C 62.2451 -1.76247 -0.676933 0
M  V30 653 O 61.6021 -1.09293 -1.46155 0
M  V30 654 C 61.6531 -3.43568 1.12442 0
M  V30 655 O 61.3741 -3.59015 2.51078 0
M  V30 656 C 62.8751 -4.34613 0.873275 0
M  V30 657 H 60.0951 -0.610114 0.279288 0
M  V30 658 H 62.6391 -1.50007 1.38989 0
M  V30 659 H 60.7941 -3.8354 0.545542 0
M  V30 660 H 61.2081 -4.5273 2.64831 0
M  V30 661 H 62.6821 -5.39374 1.17385 0
M  V30 662 H 63.1591 -4.38781 -0.191909 0
M  V30 663 H 63.7651 -4.00341 1.43551 0
M  V30 664 N 62.0802 -0.821533 -1.34494 0
M  V30 665 C 63.0302 -0.214793 -2.26986 0
M  V30 666 C 64.0142 0.620125 -1.4847 0
M  V30 667 O 65.2062 0.474933 -1.70509 0
M  V30 668 C 62.3352 0.623566 -3.37589 0
M  V30 669 C 61.4212 -0.221904 -4.23519 0
M  V30 670 N 61.8122 -1.29223 -4.89014 0
M  V30 671 C 60.1102 -0.00600922 -4.46 0
M  V30 672 C 60.8112 -1.80965 -5.52835 0
M  V30 673 N 59.7872 -1.11376 -5.32068 0
M  V30 674 H 63.5892 -1.03354 -2.75128 0
M  V30 675 H 61.1032 -0.6642 -1.48196 0
M  V30 676 H 63.1002 1.0744 -4.02818 0
M  V30 677 H 61.7602 1.44049 -2.90998 0
M  V30 678 H 62.7712 -1.67502 -4.90065 0
M  V30 679 H 59.4482 0.77886 -4.10171 0
M  V30 680 H 60.8382 -2.70502 -6.15043 0
M  V30 681 N 63.5583 1.46682 -0.576371 0
M  V30 682 C 64.5213 2.28707 0.150239 0
M  V30 683 C 65.5213 1.38035 0.824794 0
M  V30 684 O 66.7113 1.60476 0.677719 0
M  V30 685 C 63.8433 3.18248 1.22192 0
M  V30 686 H 65.0363 2.94423 -0.570521 0
M  V30 687 H 62.5893 1.52688 -0.334078 0
M  V30 688 H 63.3243 2.57265 1.97447 0
M  V30 689 H 63.1093 3.85 0.742812 0
M  V30 690 H 64.5993 3.80001 1.73172 0
M  V30 691 N 65.0364 0.313813 1.54444 0
M  V30 692 C 66.2824 -0.292108 2.00685 0
M  V30 693 C 66.6154 -1.52548 1.20177 0
M  V30 694 O 65.8904 -1.92452 0.281531 0
M  V30 695 C 66.1734 -0.635968 3.5444 0
M  V30 696 C 66.0264 0.607437 4.4568 0
M  V30 697 C 67.3454 -1.45747 4.15266 0
M  V30 698 H 64.4644 -0.104697 0.729526 0
M  V30 699 H 67.1064 0.428457 1.85106 0
M  V30 700 H 65.2564 -1.24986 3.67846 0
M  V30 701 H 66.9284 1.24581 4.44159 0
M  V30 702 H 65.1714 1.23822 4.15753 0
M  V30 703 H 65.8424 0.322515 5.51057 0
M  V30 704 H 68.3184 -0.938645 4.05375 0
M  V30 705 H 67.1944 -1.66683 5.2298 0
M  V30 706 H 67.4554 -2.45063 3.67963 0
M  V30 707 N 66.5145 -1.57545 0.0417849 0
M  V30 708 C 67.4445 -2.14009 -0.933929 0
M  V30 709 C 68.4255 -1.05938 -1.33083 0
M  V30 710 O 69.6105 -1.33833 -1.40721 0
M  V30 711 C 66.7405 -2.67747 -2.21199 0
M  V30 712 C 65.6945 -3.80718 -1.95544 0
M  V30 713 C 65.0205 -4.20935 -3.29724 0
M  V30 714 C 66.3205 -5.06258 -1.28452 0
M  V30 715 H 68.0145 -2.95788 -0.463645 0
M  V30 716 H 65.5605 -1.42285 -0.221573 0
M  V30 717 H 67.5135 -3.05886 -2.89848 0
M  V30 718 H 66.2375 -1.83147 -2.70416 0
M  V30 719 H 64.8965 -3.43037 -1.2931 0
M  V30 720 H 64.5445 -3.33298 -3.76724 0
M  V30 721 H 64.2445 -4.9707 -3.13361 0
M  V30 722 H 65.7685 -4.61666 -3.9962 0
M  V30 723 H 67.1825 -5.41903 -1.8712 0
M  V30 724 H 65.5795 -5.87475 -1.22445 0
M  V30 725 H 66.6495 -4.84207 -0.259219 0
M  V30 726 N 67.9926 0.231505 -1.5589 0
M  V30 727 C 69.2386 0.95877 -1.78705 0
M  V30 728 C 69.5716 1.8438 -0.609725 0
M  V30 729 O 68.8466 1.90521 0.391426 0
M  V30 730 C 69.1296 1.8062 -3.11526 0
M  V30 731 C 68.9826 0.948328 -4.39689 0
M  V30 732 C 70.3016 2.78585 -3.40703 0
M  V30 733 H 67.4206 0.347129 -0.650131 0
M  V30 734 H 70.0626 0.228259 -1.88624 0
M  V30 735 H 68.2126 2.42902 -3.03201 0
M  V30 736 H 69.8846 0.343016 -4.60023 0
M  V30 737 H 68.1276 0.253314 -4.3306 0
M  V30 738 H 68.7986 1.57543 -5.29041 0
M  V30 739 H 71.2746 2.26439 -3.49091 0
M  V30 740 H 70.1506 3.34988 -4.34826 0
M  V30 741 H 70.4116 3.55825 -2.62375 0
M  V30 742 N 69.4707 1.49531 0.497807 0
M  V30 743 C 70.4337 1.65916 1.58128 0
M  V30 744 C 71.4337 0.530825 1.51786 0
M  V30 745 O 72.6237 0.797342 1.54881 0
M  V30 746 C 69.7557 1.65951 2.9778 0
M  V30 747 H 70.9487 2.62556 1.44929 0
M  V30 748 H 68.5017 1.38611 0.722275 0
M  V30 749 H 69.2367 0.709065 3.16453 0
M  V30 750 H 69.0217 2.47897 3.03792 0
M  V30 751 H 70.5117 1.80673 3.76493 0
M  V30 752 N 70.9488 -0.749086 1.3866 0
M  V30 753 C 71.8788 -1.8764 1.38973 0
M  V30 754 C 72.8598 -1.68178 0.255004 0
M  V30 755 O 74.0448 -1.88704 0.458754 0
M  V30 756 C 71.1748 -3.25222 1.21851 0
M  V30 757 C 70.1288 -3.59295 2.32575 0
M  V30 758 C 69.4548 -4.95663 2.00555 0
M  V30 759 C 70.7548 -3.63709 3.7485 0
M  V30 760 H 72.4488 -1.87635 2.3331 0
M  V30 761 H 69.9948 -0.901329 1.12303 0
M  V30 762 H 71.9478 -4.03746 1.20695 0
M  V30 763 H 70.6718 -3.25719 0.239775 0
M  V30 764 H 69.3308 -2.83093 2.32925 0
M  V30 765 H 68.9788 -4.92724 1.01154 0
M  V30 766 H 68.6788 -5.19429 2.74714 0
M  V30 767 H 70.2028 -5.7656 2.01024 0
M  V30 768 H 71.6168 -4.32338 3.76506 0
M  V30 769 H 70.0138 -3.98986 4.48252 0
M  V30 770 H 71.0838 -2.63834 4.06841 0
M  V30 771 N 72.4269 -1.23603 -0.977757 0
M  V30 772 C 73.3739 -1.01954 -2.07061 0
M  V30 773 C 74.3439 0.0638697 -1.65977 0
M  V30 774 O 75.5289 -0.0887624 -1.90593 0
M  V30 775 C 72.6689 -0.619658 -3.39491 0
M  V30 776 C 71.7819 -1.77547 -3.93829 0
M  V30 777 C 70.9169 -1.32212 -5.14484 0
M  V30 778 C 69.9559 -2.44852 -5.60994 0
M  V30 779 N 69.0929 -2.00456 -6.72876 0
M  V30 780 H 73.9329 -1.95495 -2.24913 0
M  V30 781 H 71.4699 -0.973861 -1.10247 0
M  V30 782 H 73.4279 -0.368898 -4.15566 0
M  V30 783 H 72.0579 0.278752 -3.21594 0
M  V30 784 H 71.1099 -2.14016 -3.14486 0
M  V30 785 H 72.4219 -2.62219 -4.24314 0
M  V30 786 H 71.5759 -1.02965 -5.97899 0
M  V30 787 H 70.3149 -0.445808 -4.85658 0
M  V30 788 H 69.3199 -2.74871 -4.76157 0
M  V30 789 H 70.5449 -3.33024 -5.91837 0
M  V30 790 H 68.4909 -1.15208 -6.45804 0
M  V30 791 H 68.4079 -2.78687 -7.02759 0
M  V30 792 H 69.6759 -1.7432 -7.59758 0
M  V30 793 N 73.905 1.17692 -1.04816 0
M  V30 794 C 75.321 1.39863 -0.768794 0
M  V30 795 C 75.521 1.91118 0.638451 0
M  V30 796 O 74.577 2.10036 1.40146 0
M  V30 797 C 75.89 2.39274 -1.82122 0
M  V30 798 C 77.438 2.52987 -1.843 0
M  V30 799 C 77.913 3.55669 -2.88555 0
M  V30 800 N 79.404 3.63183 -2.87493 0
M  V30 801 C 80.139 4.42381 -3.64811 0
M  V30 802 N 79.635 5.25125 -4.51903 0
M  V30 803 N 81.428 4.37217 -3.53267 0
M  V30 804 H 73.579 0.82752 -1.95617 0
M  V30 805 H 75.842 0.426123 -0.846831 0
M  V30 806 H 75.548 2.08678 -2.83102 0
M  V30 807 H 75.422 3.38725 -1.65967 0
M  V30 808 H 77.809 2.82896 -0.839869 0
M  V30 809 H 77.89 1.53623 -2.04532 0
M  V30 810 H 77.534 3.26499 -3.89051 0
M  V30 811 H 77.464 4.54728 -2.65575 0
M  V30 812 H 79.955 3.04103 -2.24343 0
M  V30 813 H 80.268 5.82728 -5.07591 0
M  V30 814 H 78.613 5.24519 -4.55966 0
M  V30 815 H 81.804 3.71626 -2.84625 0
M  V30 816 H 81.977 4.98696 -4.13771 0
M  V30 817 N 75.3831 0.828654 1.34056 0
M  V30 818 C 76.3461 0.259927 2.27721 0
M  V30 819 C 77.3461 -0.565478 1.50529 0
M  V30 820 O 78.5361 -0.38075 1.69988 0
M  V30 821 C 75.6681 -0.634944 3.34935 0
M  V30 822 H 76.8611 1.0863 2.79534 0
M  V30 823 H 74.4141 0.600951 1.44285 0
M  V30 824 H 75.1491 -1.48416 2.88346 0
M  V30 825 H 74.9341 -0.0444999 3.92075 0
M  V30 826 H 76.4241 -1.02648 4.04788 0
M  V30 827 N 76.8612 -1.46375 0.584142 0
M  V30 828 C 77.7932 -2.28443 -0.186119 0
M  V30 829 C 78.8062 -1.38596 -0.854115 0
M  V30 830 O 79.9952 -1.63183 -0.723438 0
M  V30 831 C 77.0952 -3.13671 -1.28311 0
M  V30 832 C 76.2682 -4.31652 -0.706758 0
M  V30 833 C 75.3272 -4.98267 -1.69163 0
M  V30 834 O 74.3532 -5.55815 -1.22712 0
M  V30 835 N 75.5552 -4.95408 -3.02575 0
M  V30 836 H 78.3202 -2.9519 0.517986 0
M  V30 837 H 75.8812 -1.56303 0.42201 0
M  V30 838 H 77.8732 -3.55101 -1.94128 0
M  V30 839 H 76.4432 -2.48989 -1.89005 0
M  V30 840 H 75.6632 -3.93989 0.128908 0
M  V30 841 H 76.9512 -5.07906 -0.301506 0
M  V30 842 H 76.3492 -4.49902 -3.42936 0
M  V30 843 H 74.9062 -5.40774 -3.63877 0
M  V30 844 N 78.3393 -0.321999 -1.54275 0
M  V30 845 C 79.5643 0.285791 -2.05422 0
M  V30 846 C 79.9893 1.45124 -1.19669 0
M  V30 847 O 79.3473 1.80132 -0.205441 0
M  V30 848 C 79.3953 0.69956 -3.53749 0
M  V30 849 O 78.4993 1.8021 -3.70942 0
M  V30 850 H 77.8403 0.0518962 -0.661969 0
M  V30 851 H 80.3703 -0.469954 -1.9913 0
M  V30 852 H 80.3803 0.982649 -3.9599 0
M  V30 853 H 79.0553 -0.152864 -4.15619 0
M  V30 854 H 77.6323 1.51794 -3.40607 0
M  V30 855 N 79.8174 1.5752 -0.0501392 0
M  V30 856 C 80.7274 2.14952 0.939827 0
M  V30 857 C 81.7434 1.10706 1.34239 0
M  V30 858 O 82.9194 1.42869 1.41952 0
M  V30 859 C 79.9844 2.68232 2.19665 0
M  V30 860 C 79.0454 3.87272 1.85253 0
M  V30 861 C 78.2784 4.38002 3.04943 0
M  V30 862 O 78.5014 3.87811 4.18281 0
M  V30 863 O 77.4354 5.29602 2.86017 0
M  V30 864 H 81.2614 2.9986 0.481392 0
M  V30 865 H 78.8464 1.4841 0.171699 0
M  V30 866 H 80.7284 3.02475 2.93406 0
M  V30 867 H 79.4034 1.86395 2.64648 0
M  V30 868 H 78.3104 3.5792 1.0883 0
M  V30 869 H 79.6434 4.70336 1.4507 0
M  V30 870 N 81.2955 -0.223234 1.56011 0
M  V30 871 C 82.2255 -1.27988 1.95298 0
M  V30 872 C 83.2065 -1.48976 0.820979 0
M  V30 873 O 84.3915 -1.61188 1.08315 0
M  V30 874 C 81.5215 -2.63 2.26822 0
M  V30 875 C 80.4755 -2.56671 3.42497 0
M  V30 876 C 79.8015 -3.95697 3.59622 0
M  V30 877 C 81.1015 -2.11601 4.77517 0
M  V30 878 H 82.7955 -0.953525 2.8381 0
M  V30 879 H 80.3415 -0.457244 1.36548 0
M  V30 880 H 82.2945 -3.37077 2.52898 0
M  V30 881 H 81.0185 -2.9732 1.35161 0
M  V30 882 H 79.6775 -1.85051 3.16467 0
M  V30 883 H 79.3255 -4.27322 2.6534 0
M  V30 884 H 79.0255 -3.92345 4.37424 0
M  V30 885 H 80.5495 -4.71438 3.88044 0
M  V30 886 H 81.9635 -2.7542 5.02809 0
M  V30 887 H 80.3605 -2.19311 5.5859 0
M  V30 888 H 81.4305 -1.06824 4.72987 0
M  V30 889 N 82.7736 -1.49793 -0.48987 0
M  V30 890 C 83.7366 -1.66752 -1.57246 0
M  V30 891 C 84.7366 -0.538867 -1.51502 0
M  V30 892 O 85.9266 -0.805545 -1.54456 0
M  V30 893 C 83.0586 -1.67528 -2.96896 0
M  V30 894 H 84.2516 -2.63321 -1.43534 0
M  V30 895 H 81.8046 -1.38992 -0.714914 0
M  V30 896 H 82.5396 -0.725837 -3.16073 0
M  V30 897 H 82.3246 -2.49504 -3.02473 0
M  V30 898 H 83.8146 -1.82667 -3.7553 0
M  V30 899 N 84.2517 0.741722 -1.39055 0
M  V30 900 C 85.2147 1.83733 -1.37021 0
M  V30 901 C 86.2147 1.58542 -0.268534 0
M  V30 902 O 87.4047 1.66067 -0.526076 0
M  V30 903 C 84.5367 3.2141 -1.13617 0
M  V30 904 H 85.7297 1.86941 -2.34506 0
M  V30 905 H 83.2827 0.944676 -1.24521 0
M  V30 906 H 84.0177 3.23865 -0.167863 0
M  V30 907 H 83.8027 3.4109 -1.93391 0
M  V30 908 H 85.2927 4.01477 -1.14918 0
M  V30 909 N 85.7298 1.2412 0.971189 0
M  V30 910 C 86.6798 0.997551 2.05019 0
M  V30 911 C 87.6638 -0.0597747 1.60789 0
M  V30 912 O 88.8558 0.153516 1.76333 0
M  V30 913 C 85.9848 0.600557 3.38006 0
M  V30 914 C 85.0708 1.69377 3.88809 0
M  V30 915 N 85.4618 2.92586 4.12586 0
M  V30 916 C 83.7598 1.57048 4.17435 0
M  V30 917 C 84.4608 3.63431 4.54195 0
M  V30 918 N 83.4368 2.90979 4.59165 0
M  V30 919 H 87.2388 1.93316 2.21374 0
M  V30 920 H 84.7528 1.14194 1.1547 0
M  V30 921 H 86.7498 0.40725 4.14906 0
M  V30 922 H 85.4098 -0.327903 3.2304 0
M  V30 923 H 86.4208 3.288 4.00139 0
M  V30 924 H 83.0978 0.709798 4.11422 0
M  V30 925 H 84.4878 4.69102 4.81033 0
M  V30 926 N 87.2079 -1.17134 1.05439 0
M  V30 927 C 88.1399 -2.2078 0.615539 0
M  V30 928 C 89.1529 -1.59584 -0.322001 0
M  V30 929 O 90.3419 -1.78133 -0.114344 0
M  V30 930 C 87.4419 -3.38691 -0.118938 0
M  V30 931 C 86.6149 -4.29454 0.829924 0
M  V30 932 C 85.6739 -5.26024 0.136258 0
M  V30 933 O 84.6999 -5.63952 0.77115 0
M  V30 934 N 85.9019 -5.69487 -1.1254 0
M  V30 935 H 88.6669 -2.59052 1.50705 0
M  V30 936 H 86.2279 -1.32058 0.936603 0
M  V30 937 H 88.2199 -4.00329 -0.593179 0
M  V30 938 H 86.7899 -2.98996 -0.91215 0
M  V30 939 H 86.0099 -3.65211 1.48373 0
M  V30 940 H 87.2979 -4.86984 1.47392 0
M  V30 941 H 86.6959 -5.4075 -1.6615 0
M  V30 942 H 85.2529 -6.33257 -1.54366 0
M  V30 943 N 88.686 -0.835752 -1.33615 0
M  V30 944 C 89.633 -0.26473 -2.29277 0
M  V30 945 C 90.603 0.617712 -1.54187 0
M  V30 946 O 91.788 0.556641 -1.825 0
M  V30 947 C 88.928 0.556777 -3.40579 0
M  V30 948 C 88.041 -0.349339 -4.30585 0
M  V30 949 C 87.176 0.482969 -5.29 0
M  V30 950 C 86.215 -0.421732 -6.10645 0
M  V30 951 N 85.352 0.372262 -7.01112 0
M  V30 952 H 90.192 -1.08582 -2.77514 0
M  V30 953 H 87.729 -0.546927 -1.36554 0
M  V30 954 H 89.687 1.04852 -4.03809 0
M  V30 955 H 88.317 1.34286 -2.93542 0
M  V30 956 H 87.369 -0.959372 -3.68104 0
M  V30 957 H 88.681 -1.04445 -4.87742 0
M  V30 958 H 87.835 1.03866 -5.97743 0
M  V30 959 H 86.574 1.21153 -4.72412 0
M  V30 960 H 85.579 -0.989464 -5.40823 0
M  V30 961 H 86.804 -1.14861 -6.69316 0
M  V30 962 H 84.75 1.08426 -6.46977 0
M  V30 963 H 84.667 -0.264198 -7.55538 0
M  V30 964 H 85.935 0.910293 -7.74167 0
M  V30 965 N 90.1641 1.46063 -0.591896 0
M  V30 966 C 91.1111 2.30399 0.136069 0
M  V30 967 C 92.0811 1.41169 0.875238 0
M  V30 968 O 93.2661 1.70112 0.86409 0
M  V30 969 C 90.4061 3.25804 1.13781 0
M  V30 970 C 89.5191 4.30134 0.401137 0
M  V30 971 C 88.6541 5.12659 1.39121 0
M  V30 972 C 87.6931 6.0873 0.641462 0
M  V30 973 N 86.8301 6.8409 1.58004 0
M  V30 974 H 91.6701 2.92118 -0.589144 0
M  V30 975 H 89.2071 1.43959 -0.302342 0
M  V30 976 H 91.1651 3.79569 1.73156 0
M  V30 977 H 89.7951 2.65872 1.83062 0
M  V30 978 H 88.8471 3.79152 -0.307826 0
M  V30 979 H 90.1591 4.98458 -0.184565 0
M  V30 980 H 89.3131 5.70747 2.05749 0
M  V30 981 H 88.0521 4.44316 2.01084 0
M  V30 982 H 87.0571 5.49786 -0.0385419 0
M  V30 983 H 88.2821 6.79095 0.0270945 0
M  V30 984 H 86.2281 6.18449 2.18761 0
M  V30 985 H 86.1451 7.48709 1.04738 0
M  V30 986 H 87.4131 7.4673 2.23639 0
M  V30 987 N 91.6422 0.330177 1.54103 0
M  V30 988 C 92.8912 -0.271336 1.99867 0
M  V30 989 C 93.2042 -1.52723 1.22209 0
M  V30 990 O 94.4102 -2.20515 1.58383 0
M  V30 991 C 92.8662 -0.534032 3.55916 0
M  V30 992 C 92.4742 0.705193 4.42415 0
M  V30 993 C 94.2182 -1.09514 4.1013 0
M  V30 994 C 92.1252 0.414035 5.89949 0
M  V30 995 H 91.0552 -0.105166 0.74663 0
M  V30 996 H 93.7062 0.443429 1.78062 0
M  V30 997 H 92.0882 -1.30915 3.73734 0
M  V30 998 H 93.2622 1.4804 4.36372 0
M  V30 999 H 91.5772 1.18698 3.99124 0
M  V30 1000 H 94.1742 -1.3277 5.17954 0
M  V30 1001 H 94.5172 -2.04656 3.62521 0
M  V30 1002 H 95.0502 -0.381038 3.95971 0
M  V30 1003 H 91.7892 1.33481 6.41766 0
M  V30 1004 H 91.3092 -0.323336 5.98928 0
M  V30 1005 H 92.9882 0.0263105 6.46995 0
M  V30 1006 N 93.1203 -1.57491 0.0584922 0
M  V30 1007 C 94.0503 -2.14988 -0.911178 0
M  V30 1008 C 95.0313 -1.07343 -1.31952 0
M  V30 1009 O 96.2163 -1.35318 -1.39294 0
M  V30 1010 C 93.3463 -2.70078 -2.18347 0
M  V30 1011 C 92.3003 -3.82771 -1.91495 0
M  V30 1012 C 91.6263 -4.24408 -3.25241 0
M  V30 1013 C 92.9263 -5.07592 -1.23075 0
M  V30 1014 H 94.6203 -2.96263 -0.432246 0
M  V30 1015 H 92.1663 -1.42512 -0.206469 0
M  V30 1016 H 94.1193 -3.08943 -2.86587 0
M  V30 1017 H 92.8433 -1.86005 -2.68458 0
M  V30 1018 H 91.5023 -3.44389 -1.25664 0
M  V30 1019 H 91.1503 -3.37275 -3.73168 0
M  V30 1020 H 90.8503 -5.00366 -3.08071 0
M  V30 1021 H 92.3743 -4.65879 -3.94701 0
M  V30 1022 H 93.7883 -5.43857 -1.81362 0
M  V30 1023 H 92.1853 -5.88741 -1.16207 0
M  V30 1024 H 93.2553 -4.84454 -0.207847 0
M  V30 1025 N 94.5984 0.214957 -1.56127 0
M  V30 1026 C 95.5484 1.27006 -1.8935 0
M  V30 1027 C 96.5324 1.41969 -0.757202 0
M  V30 1028 O 97.7244 1.44673 -1.01973 0
M  V30 1029 C 94.8534 2.61911 -2.2194 0
M  V30 1030 C 93.9394 2.50822 -3.41978 0
M  V30 1031 N 94.3304 2.09391 -4.60423 0
M  V30 1032 C 92.6284 2.81765 -3.45723 0
M  V30 1033 C 93.3294 2.09712 -5.42582 0
M  V30 1034 N 92.3054 2.50454 -4.82466 0
M  V30 1035 H 96.1074 0.940734 -2.78437 0
M  V30 1036 H 93.6214 0.423492 -1.56781 0
M  V30 1037 H 95.6184 3.38096 -2.43919 0
M  V30 1038 H 94.2784 2.95684 -1.34169 0
M  V30 1039 H 95.2894 1.80416 -4.85459 0
M  V30 1040 H 91.9664 3.19865 -2.68314 0
M  V30 1041 H 93.3564 1.79748 -6.4741 0
M  V30 1042 N 96.0765 1.50051 0.48192 0
M  V30 1043 C 97.3225 1.60736 1.2366 0
M  V30 1044 C 97.6555 0.301786 1.91841 0
M  V30 1045 O 96.9305 -0.696025 1.8162 0
M  V30 1046 C 97.2135 2.78009 2.28874 0
M  V30 1047 C 97.0665 4.18416 1.65069 0
M  V30 1048 C 98.3855 2.90867 3.30279 0
M  V30 1049 H 95.5045 0.585031 0.448228 0
M  V30 1050 H 98.1465 1.82402 0.531946 0
M  V30 1051 H 96.2965 2.59667 2.88973 0
M  V30 1052 H 97.9685 4.48322 1.0865 0
M  V30 1053 H 96.2115 4.23177 0.954148 0
M  V30 1054 H 96.8825 4.96381 2.41474 0
M  V30 1055 H 99.3585 3.07623 2.80191 0
M  V30 1056 H 98.2345 3.74566 4.01238 0
M  V30 1057 H 98.4955 2.01021 3.93755 0
M  V30 1058 N 97.5546 -0.734337 1.39446 0
M  V30 1059 C 98.8316 -1.48579 1.27215 0
M  V30 1060 C 99.2116 -2.1077 -0.117968 0
M  V30 1061 O 98.5596 -1.98646 -1.12924 0
M  V30 1062 C 98.7696 -2.53667 2.39696 0
M  V30 1063 C 100.118 -3.20031 2.79044 0
M  V30 1064 O 101.142 -2.6398 2.39151 0
M  V30 1065 O 100.001 -4.21455 3.47905 0
M  V30 1066 H 97.0946 -0.659816 0.49857 0
M  V30 1067 H 99.6406 -0.768106 1.51322 0
M  V30 1068 H 98.4126 -2.06096 3.32626 0
M  V30 1069 H 98.0356 -3.32994 2.17258 0
M  V30 1070 N 99.0327 -1.24633 -0.964593 0
M  V30 1071 C 99.9807 -1.03917 -2.08096 0
M  V30 1072 C 100.975 0.0268581 -1.69379 0
M  V30 1073 O 102.181 -0.127952 -1.79545 0
M  V30 1074 H 98.5557 -0.319044 -0.680966 0
M  V30 1075 H 100.527 -1.98581 -2.22729 0
M  V30 1076 C 99.2757 -0.663983 -3.41301 0
M  V30 1077 H 98.5987 -1.47605 -3.71555 0
M  V30 1078 H 100.039 -0.558663 -4.20303 0
M  V30 1079 C 98.4977 0.629169 -3.30973 0
M  V30 1080 O 99.0277 1.67404 -3.65156 0
M  V30 1081 N 97.2337 0.611057 -2.84103 0
M  V30 1082 H 96.7807 -0.239593 -2.56483 0
M  V30 1083 H 96.7387 1.47647 -2.77575 0
M  V30 1084 N 100.511 1.16574 -1.06058 0
M  V30 1085 C 101.461 2.18854 -0.63929 0
M  V30 1086 C 102.445 1.57505 0.328798 0
M  V30 1087 O 103.637 1.76408 0.144623 0
M  V30 1088 C 100.766 3.43291 -0.0247203 0
M  V30 1089 C 99.8518 4.11722 -1.01716 0
M  V30 1090 N 100.243 4.55841 -2.19186 0
M  V30 1091 C 98.5408 4.37872 -0.847569 0
M  V30 1092 C 99.2418 5.08751 -2.82042 0
M  V30 1093 N 98.2178 5.01489 -2.09784 0
M  V30 1094 H 102.02 2.5068 -1.53417 0
M  V30 1095 H 99.5338 1.32999 -0.931935 0
M  V30 1096 H 101.531 4.15856 0.294915 0
M  V30 1097 H 100.191 3.12954 0.865448 0
M  V30 1098 H 101.202 4.49649 -2.56975 0
M  V30 1099 H 97.8788 4.17499 -0.00918848 0
M  V30 1100 H 99.2688 5.52944 -3.81709 0
M  V30 1101 N 101.989 0.842826 1.3317 0
M  V30 1102 C 103.238 0.436738 1.96915 0
M  V30 1103 C 103.551 -1.01025 1.67491 0
M  V30 1104 O 104.757 -1.5212 2.24881 0
M  V30 1105 C 103.213 0.730021 3.52418 0
M  V30 1106 C 102.821 2.19195 3.90714 0
M  V30 1107 C 104.565 0.391076 4.22695 0
M  V30 1108 C 102.472 2.42907 5.39212 0
M  V30 1109 H 101.402 0.15958 0.736919 0
M  V30 1110 H 104.053 1.03196 1.51733 0
M  V30 1111 H 102.435 0.0643755 3.95948 0
M  V30 1112 H 103.609 2.8984 3.58231 0
M  V30 1113 H 101.924 2.49425 3.33431 0
M  V30 1114 H 104.521 0.545817 5.31907 0
M  V30 1115 H 104.864 -0.666294 4.10933 0
M  V30 1116 H 105.397 1.01212 3.84709 0
M  V30 1117 H 102.136 3.47224 5.55982 0
M  V30 1118 H 101.656 1.76827 5.73142 0
M  V30 1119 H 103.335 2.2626 6.06148 0
M  V30 1120 N 103.467 -1.45747 0.599634 0
M  V30 1121 C 104.715 -2.01893 0.0915472 0
M  V30 1122 C 105.036 -1.47155 -1.27946 0
M  V30 1123 O 104.306 -0.66273 -1.84349 0
M  V30 1124 H 102.886 -0.746363 0.0308524 0
M  V30 1125 H 105.548 -1.78645 0.779237 0
M  V30 1126 H 104.644 -3.1208 0.0353086 0
M  V30 1127 N 104.945 -0.338344 -1.53925 0
M  V30 1128 C 106.194 0.260732 -2.00008 0
M  V30 1129 C 106.507 1.52073 -1.23017 0
M  V30 1130 O 107.713 2.19672 -1.5955 0
M  V30 1131 C 106.169 0.51515 -3.56194 0
M  V30 1132 C 105.777 -0.728645 -4.42035 0
M  V30 1133 C 107.521 1.07337 -4.10706 0
M  V30 1134 C 105.428 -0.445315 -5.89721 0
M  V30 1135 H 104.358 0.101205 -0.747177 0
M  V30 1136 H 107.009 -0.452866 -1.77824 0
M  V30 1137 H 105.391 1.28932 -3.74423 0
M  V30 1138 H 106.565 -1.50352 -4.35581 0
M  V30 1139 H 104.88 -1.20813 -3.98489 0
M  V30 1140 H 107.477 1.30022 -5.18651 0
M  V30 1141 H 107.82 2.0273 -3.63602 0
M  V30 1142 H 108.353 0.360034 -3.96167 0
M  V30 1143 H 105.092 -1.36883 -6.41049 0
M  V30 1144 H 104.612 0.291569 -5.99091 0
M  V30 1145 H 106.291 -0.0606218 -6.46972 0
M  V30 1146 N 106.423 1.57458 -0.0668435 0
M  V30 1147 C 107.648 1.9804 0.616027 0
M  V30 1148 C 108.073 0.944771 1.62652 0
M  V30 1149 O 107.431 -0.0902094 1.81075 0
M  V30 1150 C 107.479 3.37665 1.26549 0
M  V30 1151 O 106.583 3.36701 2.38131 0
M  V30 1152 H 105.924 0.644719 0.158849 0
M  V30 1153 H 108.454 2.04121 -0.139891 0
M  V30 1154 H 108.464 3.7474 1.6135 0
M  V30 1155 H 107.139 4.12573 0.525016 0
M  V30 1156 H 105.716 3.1139 2.0516 0
M  V30 1157 N 107.901 -0.206675 1.56239 0
M  V30 1158 C 109.15 -0.926964 1.79138 0
M  V30 1159 C 109.463 -1.84901 0.638043 0
M  V30 1160 O 110.669 -2.60906 0.751033 0
M  V30 1161 C 109.125 -1.6986 3.17294 0
M  V30 1162 C 108.733 -0.821956 4.40395 0
M  V30 1163 C 110.477 -2.40922 3.4951 0
M  V30 1164 C 108.384 -1.59179 5.69575 0
M  V30 1165 H 107.314 -0.349864 0.667915 0
M  V30 1166 H 109.965 -0.180487 1.8261 0
M  V30 1167 H 108.347 -2.48853 3.08039 0
M  V30 1168 H 109.521 -0.0715019 4.60745 0
M  V30 1169 H 107.836 -0.222741 4.15804 0
M  V30 1170 H 110.433 -2.99047 4.43255 0
M  V30 1171 H 110.776 -3.14542 2.72707 0
M  V30 1172 H 111.309 -1.68905 3.60161 0
M  V30 1173 H 108.048 -0.898589 6.49312 0
M  V30 1174 H 107.568 -2.31648 5.53262 0
M  V30 1175 H 109.247 -2.14862 6.10281 0
M  V30 1176 N 109.379 -1.50304 -0.473955 0
M  V30 1177 C 110.342 -1.6841 -1.55469 0
M  V30 1178 C 111.342 -0.554905 -1.50922 0
M  V30 1179 O 112.532 -0.821882 -1.53593 0
M  V30 1180 C 109.664 -1.70667 -2.95102 0
M  V30 1181 H 110.857 -2.64828 -1.40733 0
M  V30 1182 H 108.41 -1.39742 -0.700132 0
M  V30 1183 H 109.145 -0.75932 -3.15285 0
M  V30 1184 H 108.93 -2.52698 -2.9981 0
M  V30 1185 H 110.42 -1.8664 -3.73571 0
M  V30 1186 N 110.857 0.726932 -1.39834 0
M  V30 1187 C 112.105 1.4837 -1.37225 0
M  V30 1188 C 112.426 1.94979 0.0284857 0
M  V30 1189 O 111.696 1.69555 0.981213 0
M  V30 1190 H 110.276 0.55043 -0.505011 0
M  V30 1191 H 112.938 0.862468 -1.74778 0
M  V30 1192 H 112.034 2.36198 -2.04003 0
M  V30 1193 N 112.336 1.25143 0.95797 0
M  V30 1194 C 113.266 1.07711 2.07173 0
M  V30 1195 C 114.247 -0.0128462 1.70095 0
M  V30 1196 O 115.432 0.156061 1.93572 0
M  V30 1197 C 112.562 0.691503 3.40346 0
M  V30 1198 C 111.516 1.73132 3.9142 0
M  V30 1199 C 110.842 1.20049 5.21049 0
M  V30 1200 C 112.142 3.1294 4.1817 0
M  V30 1201 H 113.836 2.00873 2.22014 0
M  V30 1202 H 111.382 0.967191 1.06684 0
M  V30 1203 H 113.335 0.556505 4.17709 0
M  V30 1204 H 112.059 -0.275819 3.25433 0
M  V30 1205 H 110.718 1.8547 3.16222 0
M  V30 1206 H 110.366 0.223499 5.02503 0
M  V30 1207 H 110.066 1.89545 5.56189 0
M  V30 1208 H 111.59 1.07782 6.01012 0
M  V30 1209 H 113.004 3.03775 4.86203 0
M  V30 1210 H 111.401 3.79875 4.64559 0
M  V30 1211 H 112.471 3.6025 3.24573 0
M  V30 1212 N 113.814 -1.1601 1.06675 0
M  V30 1213 C 115.042 -1.90527 0.806667 0
M  V30 1214 C 115.457 -1.77643 -0.639396 0
M  V30 1215 O 114.814 -1.12369 -1.43803 0
M  V30 1216 C 114.865 -3.41106 1.19705 0
M  V30 1217 O 114.586 -3.53608 2.58636 0
M  V30 1218 C 116.087 -4.32663 0.965266 0
M  V30 1219 H 113.307 -0.604053 0.292166 0
M  V30 1220 H 115.851 -1.47026 1.4214 0
M  V30 1221 H 114.006 -3.82296 0.626774 0
M  V30 1222 H 114.42 -4.47011 2.74375 0
M  V30 1223 H 115.894 -5.36763 1.288 0
M  V30 1224 H 116.371 -4.39089 -0.0987936 0
M  V30 1225 H 116.977 -3.97206 1.52011 0
M  V30 1226 N 115.292 -0.849877 -1.32721 0
M  V30 1227 C 116.255 -0.296122 -2.27279 0
M  V30 1228 C 117.255 0.541458 -1.5141 0
M  V30 1229 O 118.445 0.353658 -1.70572 0
M  V30 1230 C 115.577 0.581579 -3.35902 0
M  V30 1231 H 116.77 -1.13064 -2.77771 0
M  V30 1232 H 114.323 -0.62383 -1.43311 0
M  V30 1233 H 115.058 1.43809 -2.9067 0
M  V30 1234 H 114.843 -0.0178814 -3.92096 0
M  V30 1235 H 116.333 0.961951 -4.0637 0
M  V30 1236 N 116.77 1.45427 -0.607355 0
M  V30 1237 C 118.047 1.9557 -0.0344566 0
M  V30 1238 C 118.427 1.54979 1.43334 0
M  V30 1239 O 117.775 0.812241 2.13576 0
M  V30 1240 C 117.985 3.48226 -0.232321 0
M  V30 1241 C 119.333 4.2445 -0.113001 0
M  V30 1242 O 120.357 3.55829 -0.162431 0
M  V30 1243 O 119.216 5.465 0.00209442 0
M  V30 1244 H 116.31 0.826222 0.0358667 0
M  V30 1245 H 118.856 1.55594 -0.6774 0
M  V30 1246 H 117.628 3.70739 -1.25174 0
M  V30 1247 H 117.251 3.95092 0.445896 0
M  V30 1248 N 118.248 0.346503 1.53744 0
M  V30 1249 C 119.211 -0.496439 2.23759 0
M  V30 1250 C 120.211 -1.0252 1.2388 0
M  V30 1251 O 121.401 -0.913974 1.48297 0
M  V30 1252 C 118.533 -1.69187 2.95954 0
M  V30 1253 H 119.726 0.115952 2.99676 0
M  V30 1254 H 117.279 0.0978939 1.55993 0
M  V30 1255 H 118.014 -2.34288 2.24231 0
M  V30 1256 H 117.799 -1.31989 3.69217 0
M  V30 1257 H 119.289 -2.28969 3.49232 0
M  V30 1258 N 119.726 -1.57421 0.075193 0
M  V30 1259 C 121.142 -1.57099 -0.281444 0
M  V30 1260 C 121.342 -1.08486 -1.69803 0
M  V30 1261 O 120.398 -0.752279 -2.41033 0
M  V30 1262 C 121.711 -3.00571 -0.0880041 0
M  V30 1263 C 123.259 -3.12605 -0.157281 0
M  V30 1264 C 123.734 -4.57999 0.0079207 0
M  V30 1265 N 125.225 -4.63176 -0.0475725 0
M  V30 1266 C 125.96 -5.73373 0.0557876 0
M  V30 1267 N 125.456 -6.92473 0.21286 0
M  V30 1268 N 127.249 -5.621 -0.00152098 0
M  V30 1269 H 119.4 -1.87335 1.00098 0
M  V30 1270 H 121.663 -0.86377 0.390646 0
M  V30 1271 H 121.369 -3.40262 0.889629 0
M  V30 1272 H 121.243 -3.67754 -0.838875 0
M  V30 1273 H 123.63 -2.72798 -1.1254 0
M  V30 1274 H 123.711 -2.48053 0.62475 0
M  V30 1275 H 123.355 -4.98496 0.972824 0
M  V30 1276 H 123.285 -5.20586 -0.793556 0
M  V30 1277 H 125.776 -3.7753 -0.167244 0
M  V30 1278 H 126.089 -7.72279 0.283781 0
M  V30 1279 H 124.434 -6.94556 0.248267 0
M  V30 1280 H 127.625 -4.67938 -0.122958 0
M  V30 1281 H 127.798 -6.47948 0.0824844 0
M  V30 1282 N 121.204 0.198386 -1.56346 0
M  V30 1283 C 122.134 1.24865 -1.9731 0
M  V30 1284 C 123.115 1.47651 -0.844576 0
M  V30 1285 O 124.3 1.59444 -1.10866 0
M  V30 1286 C 121.43 2.59358 -2.30977 0
M  V30 1287 C 120.384 2.5119 -3.46537 0
M  V30 1288 C 119.71 3.89926 -3.65871 0
M  V30 1289 C 121.01 2.03977 -4.80823 0
M  V30 1290 H 122.704 0.908252 -2.85291 0
M  V30 1291 H 120.25 0.435462 -1.37258 0
M  V30 1292 H 122.203 3.33011 -2.58228 0
M  V30 1293 H 120.927 2.95132 -1.39874 0
M  V30 1294 H 119.586 1.79993 -3.19371 0
M  V30 1295 H 119.234 4.23046 -2.72105 0
M  V30 1296 H 118.934 3.85336 -4.4361 0
M  V30 1297 H 120.458 4.65205 -3.95495 0
M  V30 1298 H 121.872 2.67386 -5.07127 0
M  V30 1299 H 120.269 2.10397 -5.62008 0
M  V30 1300 H 121.339 0.992861 -4.74626 0
M  V30 1301 N 122.682 1.50554 0.465978 0
M  V30 1302 C 123.612 1.72722 1.57128 0
M  V30 1303 C 124.593 0.576294 1.6004 0
M  V30 1304 O 125.778 0.81598 1.76225 0
M  V30 1305 C 122.908 1.82605 2.95419 0
M  V30 1306 C 121.862 2.97835 3.07373 0
M  V30 1307 C 121.188 2.92867 4.47363 0
M  V30 1308 C 122.488 4.38265 2.84114 0
M  V30 1309 H 124.182 2.65267 1.38829 0
M  V30 1310 H 121.728 1.2765 0.666441 0
M  V30 1311 H 123.681 1.96698 3.72677 0
M  V30 1312 H 122.405 0.866858 3.14886 0
M  V30 1313 H 121.064 2.83401 2.3255 0
M  V30 1314 H 120.712 1.94783 4.63755 0
M  V30 1315 H 120.412 3.70227 4.56296 0
M  V30 1316 H 121.936 3.09015 5.26633 0
M  V30 1317 H 123.35 4.53198 3.51118 0
M  V30 1318 H 121.747 5.17115 3.04487 0
M  V30 1319 H 122.817 4.50281 1.7993 0
M  V30 1320 N 124.16 -0.719506 1.40217 0
M  V30 1321 C 125.4 -1.49181 1.39729 0
M  V30 1322 C 125.764 -1.92 -0.00250614 0
M  V30 1323 O 126.965 -2.68473 -0.132479 0
M  V30 1324 C 125.236 -2.68767 2.35582 0
M  V30 1325 S 126.795 -3.58224 2.53418 0
M  V30 1326 H 123.613 -0.510091 0.495307 0
M  V30 1327 H 126.215 -0.841724 1.76452 0
M  V30 1328 H 124.919 -2.35475 3.36124 0
M  V30 1329 H 124.45 -3.38691 2.0013 0
M  V30 1330 H 126.465 -4.63033 1.78367 0
M  V30 1331 N 125.638 -1.25649 -0.95132 0
M  V30 1332 C 126.586 -1.06118 -2.06982 0
M  V30 1333 C 127.58 0.00889169 -1.69398 0
M  V30 1334 O 128.786 -0.146988 -1.79399 0
M  V30 1335 H 125.161 -0.326248 -0.677544 0
M  V30 1336 H 127.132 -2.00932 -2.2061 0
M  V30 1337 C 125.881 -0.700145 -3.40578 0
M  V30 1338 H 125.204 -1.51537 -3.69968 0
M  V30 1339 H 126.644 -0.603211 -4.19687 0
M  V30 1340 C 125.103 0.59403 -3.31622 0
M  V30 1341 O 125.633 1.63522 -3.66911 0
M  V30 1342 N 123.839 0.58089 -2.84735 0
M  V30 1343 H 123.386 -0.266783 -2.56215 0
M  V30 1344 H 123.344 1.44695 -2.79125 0
M  V30 1345 N 127.117 1.15442 -1.07289 0
M  V30 1346 C 128.364 1.86213 -0.795668 0
M  V30 1347 C 128.692 1.82291 0.678238 0
M  V30 1348 O 127.947 1.24057 1.51355 0
M  V30 1349 C 128.246 3.3489 -1.24834 0
M  V30 1350 C 127.912 3.59007 -2.72809 0
M  V30 1351 C 126.574 3.65298 -3.13227 0
M  V30 1352 C 128.926 3.68762 -3.68326 0
M  V30 1353 C 126.254 3.78854 -4.4798 0
M  V30 1354 C 128.606 3.83842 -5.0284 0
M  V30 1355 C 127.27 3.88378 -5.4288 0
M  V30 1356 H 126.54 0.681403 -0.291155 0
M  V30 1357 H 129.187 1.36435 -1.34379 0
M  V30 1358 H 127.492 3.8687 -0.619595 0
M  V30 1359 H 129.189 3.88052 -1.01076 0
M  V30 1360 H 125.779 3.5475 -2.40521 0
M  V30 1361 H 129.963 3.63202 -3.38227 0
M  V30 1362 H 125.219 3.80623 -4.78472 0
M  V30 1363 H 129.393 3.90332 -5.76727 0
M  V30 1364 H 127.02 3.98635 -6.47298 0
M  V30 1365 N 128.595 0.856903 1.32268 0
M  V30 1366 C 129.528 0.247937 2.26849 0
M  V30 1367 C 130.506 -0.615382 1.50505 0
M  V30 1368 O 131.69 -0.571689 1.79622 0
M  V30 1369 C 128.817 -0.650093 3.32403 0
M  V30 1370 C 127.863 0.140138 4.2627 0
M  V30 1371 S 128.696 1.51004 5.13769 0
M  V30 1372 C 129.852 0.61778 6.22844 0
M  V30 1373 H 130.085 1.04971 2.78152 0
M  V30 1374 H 127.618 0.654665 1.39834 0
M  V30 1375 H 129.576 -1.16256 3.93694 0
M  V30 1376 H 128.237 -1.4257 2.7988 0
M  V30 1377 H 127.43 -0.543945 5.01056 0
M  V30 1378 H 127.032 0.584267 3.69408 0
M  V30 1379 H 129.324 -0.177053 6.77269 0
M  V30 1380 H 130.267 1.33636 6.95375 0
M  V30 1381 H 130.675 0.191124 5.64176 0
M  V30 1382 N 130.073 -1.45103 0.615059 0
M  V30 1383 C 131.489 -1.57137 0.279322 0
M  V30 1384 C 131.689 -1.60523 -1.21797 0
M  V30 1385 O 130.745 -1.53956 -2.00134 0
M  V30 1386 C 132.058 -2.85062 0.957083 0
M  V30 1387 C 133.606 -2.98749 0.933706 0
M  V30 1388 C 134.081 -4.29455 1.59162 0
M  V30 1389 N 135.572 -4.36231 1.55746 0
M  V30 1390 C 136.307 -5.36051 2.0356 0
M  V30 1391 N 135.803 -6.42367 2.59494 0
M  V30 1392 N 137.596 -5.27456 1.94284 0
M  V30 1393 H 129.747 -1.41148 1.58717 0
M  V30 1394 H 132.01 -0.675331 0.665306 0
M  V30 1395 H 131.716 -2.88488 2.01166 0
M  V30 1396 H 131.59 -3.7407 0.48494 0
M  V30 1397 H 133.977 -2.94886 -0.112347 0
M  V30 1398 H 134.058 -2.11132 1.44419 0
M  V30 1399 H 133.702 -4.34077 2.63704 0
M  V30 1400 H 133.632 -5.15901 1.0561 0
M  V30 1401 H 136.123 -3.60011 1.14893 0
M  V30 1402 H 136.436 -7.14793 2.93752 0
M  V30 1403 H 134.781 -6.43097 2.63537 0
M  V30 1404 H 137.972 -4.43308 1.5032 0
M  V30 1405 H 138.145 -6.05099 2.3186 0
M  V30 1406 N 131.551 -0.354651 -1.53558 0
M  V30 1407 C 132.483 0.5315 -2.22952 0
M  V30 1408 C 133.496 1.05503 -1.23988 0
M  V30 1409 O 134.685 0.963279 -1.50277 0
M  V30 1410 C 131.785 1.74538 -2.90499 0
M  V30 1411 C 130.958 1.35524 -4.15875 0
M  V30 1412 C 130.017 2.42999 -4.66731 0
M  V30 1413 O 129.043 2.05844 -5.30676 0
M  V30 1414 N 130.245 3.74423 -4.43608 0
M  V30 1415 H 133.01 -0.0628615 -2.99634 0
M  V30 1416 H 130.571 -0.179302 -1.60904 0
M  V30 1417 H 132.563 2.45892 -3.21433 0
M  V30 1418 H 131.133 2.24686 -2.17336 0
M  V30 1419 H 130.353 0.471998 -3.91364 0
M  V30 1420 H 131.641 1.07071 -4.97406 0
M  V30 1421 H 131.039 4.07391 -3.92491 0
M  V30 1422 H 129.596 4.41913 -4.7912 0
M  V30 1423 N 133.029 1.57378 -0.0835403 0
M  V30 1424 C 133.939 2.16897 0.894021 0
M  V30 1425 C 134.955 1.13528 1.31861 0
M  V30 1426 O 136.131 1.45848 1.3889 0
M  V30 1427 C 133.196 2.72831 2.13925 0
M  V30 1428 C 132.257 3.91115 1.76997 0
M  V30 1429 C 131.49 4.44371 2.95584 0
M  V30 1430 O 131.713 3.96596 4.09961 0
M  V30 1431 O 130.647 5.35549 2.74719 0
M  V30 1432 H 134.473 3.00814 0.417679 0
M  V30 1433 H 132.058 1.48741 0.140181 0
M  V30 1434 H 133.94 3.0863 2.86924 0
M  V30 1435 H 132.615 1.91967 2.60635 0
M  V30 1436 H 131.522 3.60148 1.01214 0
M  V30 1437 H 132.855 4.73307 1.3506 0
M  V30 1438 N 134.507 -0.190092 1.56449 0
M  V30 1439 C 135.747 -0.916414 1.82705 0
M  V30 1440 C 136.111 -1.80235 0.661763 0
M  V30 1441 O 137.312 -2.56484 0.80433 0
M  V30 1442 C 135.583 -1.70691 3.14005 0
M  V30 1443 S 137.142 -2.48457 3.61683 0
M  V30 1444 H 133.96 -0.307281 0.64117 0
M  V30 1445 H 136.562 -0.179433 1.94675 0
M  V30 1446 H 135.266 -1.04677 3.96826 0
M  V30 1447 H 134.797 -2.48562 3.04927 0
M  V30 1448 H 136.812 -3.72756 3.27517 0
M  V30 1449 N 135.985 -1.50799 -0.457987 0
M  V30 1450 C 136.915 -1.73553 -1.5621 0
M  V30 1451 C 137.896 -0.584774 -1.59732 0
M  V30 1452 O 139.081 -0.825314 -1.7579 0
M  V30 1453 C 136.211 -1.84169 -2.94447 0
M  V30 1454 C 135.165 -2.99461 -3.0579 0
M  V30 1455 C 134.491 -2.95235 -4.45803 0
M  V30 1456 C 135.791 -4.39766 -2.81786 0
M  V30 1457 H 137.485 -2.66 -1.37421 0
M  V30 1458 H 135.031 -1.28002 -0.659662 0
M  V30 1459 H 136.984 -1.98672 -3.71628 0
M  V30 1460 H 135.708 -0.883545 -3.14422 0
M  V30 1461 H 134.367 -2.8463 -2.31044 0
M  V30 1462 H 134.015 -1.97239 -4.62715 0
M  V30 1463 H 133.715 -3.72642 -4.54326 0
M  V30 1464 H 135.239 -3.11803 -5.24987 0
M  V30 1465 H 136.653 -4.55054 -3.4871 0
M  V30 1466 H 135.05 -5.18722 -3.0174 0
M  V30 1467 H 136.12 -4.51229 -1.7754 0
M  V30 1468 N 137.463 0.71206 -1.40597 0
M  V30 1469 C 138.74 1.46536 -1.29563 0
M  V30 1470 C 139.12 2.10931 0.0844217 0
M  V30 1471 O 138.468 2.00418 1.0975 0
M  V30 1472 C 138.678 2.49821 -2.43701 0
M  V30 1473 C 140.026 3.15551 -2.841 0
M  V30 1474 O 141.05 2.60142 -2.4332 0
M  V30 1475 O 139.909 4.15867 -3.54566 0
M  V30 1476 H 137.003 0.651801 -0.509004 0
M  V30 1477 H 139.549 0.743935 -1.52524 0
M  V30 1478 H 138.321 2.00778 -3.35863 0
M  V30 1479 H 137.944 3.29495 -2.22528 0
M  V30 1480 N 138.941 1.26152 0.944643 0
M  V30 1481 C 140.166 1.14363 1.7302 0
M  V30 1482 C 140.591 -0.29772 1.85729 0
M  V30 1483 O 139.949 -1.2157 1.34501 0
M  V30 1484 C 139.997 1.81378 3.11664 0
M  V30 1485 O 139.101 1.10022 3.97453 0
M  V30 1486 H 138.442 0.398694 0.53098 0
M  V30 1487 H 140.972 1.66906 1.18337 0
M  V30 1488 H 140.982 1.88064 3.62072 0
M  V30 1489 H 139.657 2.86237 3.0173 0
M  V30 1490 H 138.234 1.11287 3.55907 0
M  V30 1491 N 140.419 -1.14872 1.07899 0
M  V30 1492 C 141.835 -1.37776 0.805606 0
M  V30 1493 C 142.035 -1.92743 -0.587555 0
M  V30 1494 O 141.091 -2.13678 -1.34528 0
M  V30 1495 C 142.404 -2.34361 1.88402 0
M  V30 1496 C 143.952 -2.48012 1.90942 0
M  V30 1497 C 144.427 -3.47893 2.97883 0
M  V30 1498 N 145.918 -3.55433 2.97021 0
M  V30 1499 C 146.653 -4.32553 3.76412 0
M  V30 1500 N 146.149 -5.12959 4.65666 0
M  V30 1501 N 147.942 -4.27697 3.64735 0
M  V30 1502 H 140.093 -0.775365 1.97742 0
M  V30 1503 H 142.356 -0.403521 0.857831 0
M  V30 1504 H 142.062 -2.01098 2.88535 0
M  V30 1505 H 141.936 -3.34206 1.74889 0
M  V30 1506 H 144.323 -2.8057 0.914579 0
M  V30 1507 H 144.404 -1.48147 2.08534 0
M  V30 1508 H 144.048 -3.16069 3.97571 0
M  V30 1509 H 143.978 -4.47527 2.77538 0
M  V30 1510 H 146.469 -2.98048 2.32326 0
M  V30 1511 H 146.782 -5.69065 5.22862 0
M  V30 1512 H 145.127 -5.12245 4.69712 0
M  V30 1513 H 148.318 -3.63949 2.94378 0
M  V30 1514 H 148.491 -4.8755 4.26848 0
M  V30 1515 N 141.898 -0.863906 -1.31812 0
M  V30 1516 C 143.145 -0.471836 -1.96926 0
M  V30 1517 C 143.473 0.974578 -1.68322 0
M  V30 1518 O 142.728 1.7003 -0.968933 0
M  V30 1519 C 143.027 -0.668547 -3.51091 0
M  V30 1520 C 142.693 -2.08683 -3.99703 0
M  V30 1521 C 141.355 -2.47471 -4.12688 0
M  V30 1522 C 143.707 -3.01207 -4.25351 0
M  V30 1523 C 141.035 -3.78037 -4.4867 0
M  V30 1524 C 143.387 -4.31282 -4.62794 0
M  V30 1525 C 142.051 -4.69992 -4.73987 0
M  V30 1526 H 141.321 -0.172657 -0.720604 0
M  V30 1527 H 143.968 -1.09573 -1.57054 0
M  V30 1528 H 142.273 0.0385252 -3.91781 0
M  V30 1529 H 143.97 -0.345102 -3.99512 0
M  V30 1530 H 140.56 -1.77566 -3.90087 0
M  V30 1531 H 144.744 -2.72469 -4.14819 0
M  V30 1532 H 140 -4.078 -4.55532 0
M  V30 1533 H 144.174 -5.03031 -4.81594 0
M  V30 1534 H 141.801 -5.71207 -5.01624 0
M  V30 1535 N 143.376 1.44774 -0.622745 0
M  V30 1536 C 144.622 2.0242 -0.124083 0
M  V30 1537 C 144.955 1.4881 1.24777 0
M  V30 1538 O 144.23 0.668799 1.8264 0
M  V30 1539 C 144.513 3.59957 -0.101619 0
M  V30 1540 C 144.366 4.23867 -1.50521 0
M  V30 1541 C 145.685 4.36284 0.578272 0
M  V30 1542 H 142.804 0.735528 -0.0465645 0
M  V30 1543 H 145.446 1.72447 -0.797617 0
M  V30 1544 H 143.596 3.85623 0.471934 0
M  V30 1545 H 145.268 4.09336 -2.12701 0
M  V30 1546 H 143.511 3.81684 -2.06154 0
M  V30 1547 H 144.182 5.32843 -1.4416 0
M  V30 1548 H 146.658 4.16001 0.0906057 0
M  V30 1549 H 145.534 5.46004 0.563149 0
M  V30 1550 H 145.795 4.10271 1.64713 0
M  V30 1551 N 144.854 0.36279 1.53368 0
M  V30 1552 C 146.101 -0.227776 2.01215 0
M  V30 1553 C 146.429 -1.49003 1.25014 0
M  V30 1554 O 145.684 -1.92876 0.331236 0
M  V30 1555 C 145.983 -0.568417 3.52851 0
M  V30 1556 C 145.649 0.59918 4.46901 0
M  V30 1557 C 144.311 0.919559 4.72332 0
M  V30 1558 C 146.663 1.38156 5.02556 0
M  V30 1559 C 143.991 2.02434 5.5067 0
M  V30 1560 C 146.343 2.47674 5.821 0
M  V30 1561 C 145.007 2.8025 6.05819 0
M  V30 1562 H 144.277 -0.083349 0.736297 0
M  V30 1563 H 146.924 0.494677 1.85001 0
M  V30 1564 H 145.229 -1.37185 3.66998 0
M  V30 1565 H 146.926 -1.03756 3.87344 0
M  V30 1566 H 143.516 0.339437 4.27254 0
M  V30 1567 H 147.7 1.14729 4.82857 0
M  V30 1568 H 142.956 2.28075 5.67267 0
M  V30 1569 H 147.13 3.08716 6.24234 0
M  V30 1570 H 144.757 3.65979 6.66306 0
M  V30 1571 N 146.332 -1.57332 0.0918853 0
M  V30 1572 C 147.609 -1.85691 -0.614668 0
M  V30 1573 C 147.989 -0.988146 -1.86545 0
M  V30 1574 O 147.337 -0.0597055 -2.28422 0
M  V30 1575 C 147.547 -3.36294 -0.933126 0
M  V30 1576 C 148.895 -4.04275 -1.29796 0
M  V30 1577 O 149.919 -3.41157 -1.02424 0
M  V30 1578 O 148.778 -5.1564 -1.81047 0
M  V30 1579 H 145.872 -0.767802 -0.307261 0
M  V30 1580 H 148.418 -1.69244 0.12434 0
M  V30 1581 H 147.19 -3.91273 -0.0456404 0
M  V30 1582 H 146.813 -3.58076 -1.72822 0
M  V30 1583 N 147.81 0.181792 -1.56548 0
M  V30 1584 C 149.226 0.53316 -1.50431 0
M  V30 1585 C 149.426 1.85184 -0.794297 0
M  V30 1586 O 148.482 2.50058 -0.350318 0
M  V30 1587 C 149.795 0.575597 -2.9514 0
M  V30 1588 C 151.343 0.663519 -3.05886 0
M  V30 1589 C 151.818 0.736946 -4.52032 0
M  V30 1590 N 153.309 0.800118 -4.56237 0
M  V30 1591 C 154.044 0.877327 -5.66649 0
M  V30 1592 N 153.54 0.916016 -6.86718 0
M  V30 1593 N 155.333 0.915542 -5.54594 0
M  V30 1594 H 147.484 -0.683025 -2.01118 0
M  V30 1595 H 149.747 -0.244988 -0.915797 0
M  V30 1596 H 149.453 -0.324482 -3.502 0
M  V30 1597 H 149.327 1.42572 -3.49218 0
M  V30 1598 H 151.714 1.55403 -2.50867 0
M  V30 1599 H 151.795 -0.21307 -2.54911 0
M  V30 1600 H 151.439 -0.149262 -5.07681 0
M  V30 1601 H 151.369 1.62953 -5.00753 0
M  V30 1602 H 153.86 0.778926 -3.69785 0
M  V30 1603 H 154.173 0.975813 -7.66614 0
M  V30 1604 H 152.518 0.884469 -6.89349 0
M  V30 1605 H 155.709 0.882245 -4.59711 0
M  V30 1606 H 155.882 0.972253 -6.40665 0
M  V30 1607 N 149.288 1.51039 0.449983 0
M  V30 1608 C 150.699 1.557 1.03026 0
M  V30 1609 C 151.05 0.372939 1.92623 0
M  V30 1610 O 150.175 -0.511771 2.10261 0
M  V30 1611 C 150.77 2.82171 1.87523 0
M  V30 1612 C 149.329 2.89444 2.40622 0
M  V30 1613 C 148.476 2.50228 1.19504 0
M  V30 1614 H 151.427 1.56999 0.231745 0
M  V30 1615 H 151.448 2.65219 2.72835 0
M  V30 1616 H 150.96 3.68331 1.22286 0
M  V30 1617 H 149.061 2.07685 3.0935 0
M  V30 1618 H 149.174 3.92816 2.74285 0
M  V30 1619 H 147.538 2.03139 1.53644 0
M  V30 1620 H 148.321 3.38719 0.558972 0
M  V30 1621 N 150.766 -0.704594 1.40972 0
M  V30 1622 C 151.696 -1.83124 1.44872 0
M  V30 1623 C 152.677 -1.67281 0.30838 0
M  V30 1624 O 153.862 -1.87149 0.518556 0
M  V30 1625 C 150.992 -3.21181 1.32136 0
M  V30 1626 C 149.946 -3.51714 2.43888 0
M  V30 1627 C 149.272 -4.89032 2.16222 0
M  V30 1628 C 150.572 -3.516 3.86232 0
M  V30 1629 H 152.266 -1.80117 2.39161 0
M  V30 1630 H 149.812 -0.865145 1.15114 0
M  V30 1631 H 151.765 -3.99702 1.33479 0
M  V30 1632 H 150.489 -3.24791 0.343279 0
M  V30 1633 H 149.148 -2.75539 2.41813 0
M  V30 1634 H 148.796 -4.89256 1.16778 0
M  V30 1635 H 148.496 -5.10426 2.911 0
M  V30 1636 H 150.02 -5.69873 2.19265 0
M  V30 1637 H 151.434 -4.2014 3.9007 0
M  V30 1638 H 149.831 -3.84523 4.60719 0
M  V30 1639 H 150.901 -2.50757 4.15029 0
M  V30 1640 N 152.244 -1.26651 -0.937939 0
M  V30 1641 C 153.655 -1.1125 -1.49934 0
M  V30 1642 C 154.006 0.306077 -1.93798 0
M  V30 1643 O 153.131 1.19792 -1.80219 0
M  V30 1644 C 153.726 -2.01339 -2.72485 0
M  V30 1645 C 152.285 -1.90074 -3.24883 0
M  V30 1646 C 151.432 -1.94498 -1.97651 0
M  V30 1647 H 154.383 -1.39693 -0.753091 0
M  V30 1648 H 154.404 -1.56319 -3.46907 0
M  V30 1649 H 153.916 -3.04577 -2.40529 0
M  V30 1650 H 152.017 -0.897827 -3.61621 0
M  V30 1651 H 152.13 -2.75778 -3.9177 0
M  V30 1652 H 150.494 -1.38591 -2.13693 0
M  V30 1653 H 151.277 -2.99372 -1.68022 0
M  V30 1654 N 153.722 1.14298 -1.08507 0
M  V30 1655 C 154.968 1.85633 -0.816581 0
M  V30 1656 C 155.301 1.82784 0.656021 0
M  V30 1657 O 154.576 1.25926 1.48233 0
M  V30 1658 C 154.859 3.34223 -1.34041 0
M  V30 1659 C 154.712 3.45639 -2.87843 0
M  V30 1660 C 156.031 4.29356 -0.9665 0
M  V30 1661 H 153.15 0.67402 -0.298104 0
M  V30 1662 H 155.792 1.34214 -1.34487 0
M  V30 1663 H 153.942 3.78144 -0.89104 0
M  V30 1664 H 155.614 3.10498 -3.41158 0
M  V30 1665 H 153.857 2.86817 -3.25451 0
M  V30 1666 H 154.528 4.50089 -3.19569 0
M  V30 1667 H 157.004 3.93457 -1.35391 0
M  V30 1668 H 155.88 5.3178 -1.3602 0
M  V30 1669 H 156.141 4.41919 0.126362 0
M  V30 1670 N 155.201 0.870884 1.31352 0
M  V30 1671 C 156.426 0.495957 2.01383 0
M  V30 1672 C 156.851 -0.904324 1.64935 0
M  V30 1673 O 156.209 -1.59687 0.858466 0
M  V30 1674 C 156.257 0.661433 3.54482 0
M  V30 1675 O 155.361 -0.298851 4.11316 0
M  V30 1676 H 154.702 0.197158 0.634054 0
M  V30 1677 H 157.232 1.17455 1.67527 0
M  V30 1678 H 157.242 0.555072 4.04207 0
M  V30 1679 H 155.917 1.68246 3.8035 0
M  V30 1680 H 154.494 -0.147368 3.72609 0
M  V30 1681 N 156.679 -1.44442 0.630414 0
M  V30 1682 C 158.095 -1.56832 0.295973 0
M  V30 1683 C 158.295 -1.61806 -1.20088 0
M  V30 1684 O 157.351 -1.5607 -1.9849 0
M  V30 1685 C 158.664 -2.84031 0.987264 0
M  V30 1686 C 160.212 -2.97742 0.96534 0
M  V30 1687 C 160.687 -4.27743 1.63708 0
M  V30 1688 N 162.178 -4.34555 1.60364 0
M  V30 1689 C 162.913 -5.33862 2.09234 0
M  V30 1690 N 162.409 -6.39578 2.66292 0
M  V30 1691 N 164.202 -5.25366 1.99867 0
M  V30 1692 H 156.353 -1.39457 1.60205 0
M  V30 1693 H 158.616 -0.668237 0.672431 0
M  V30 1694 H 158.322 -2.86338 2.04215 0
M  V30 1695 H 158.196 -3.73534 0.524588 0
M  V30 1696 H 160.583 -2.94989 -0.0810639 0
M  V30 1697 H 160.664 -2.09589 1.4665 0
M  V30 1698 H 160.308 -4.31255 2.68293 0
M  V30 1699 H 160.238 -5.14752 1.11076 0
M  V30 1700 H 162.729 -3.58772 1.18705 0
M  V30 1701 H 163.042 -7.11637 3.01317 0
M  V30 1702 H 161.387 -6.40265 2.70343 0
M  V30 1703 H 164.578 -4.41688 1.55013 0
M  V30 1704 H 164.751 -6.02606 2.38265 0
M  V30 1705 N 158.157 -0.370918 -1.53173 0
M  V30 1706 C 159.087 0.464847 -2.28826 0
M  V30 1707 C 160.068 1.07936 -1.31468 0
M  V30 1708 O 161.253 1.0956 -1.60344 0
M  V30 1709 C 158.383 1.60196 -3.08147 0
M  V30 1710 C 157.337 1.11443 -4.13237 0
M  V30 1711 C 156.663 2.3422 -4.80672 0
M  V30 1712 C 157.963 0.195384 -5.21934 0
M  V30 1713 H 159.657 -0.166329 -2.98938 0
M  V30 1714 H 157.203 -0.0814359 -1.4377 0
M  V30 1715 H 159.156 2.19332 -3.59822 0
M  V30 1716 H 157.88 2.26045 -2.35735 0
M  V30 1717 H 156.539 0.545727 -3.62515 0
M  V30 1718 H 156.187 2.98537 -4.04827 0
M  V30 1719 H 155.887 2.02269 -5.51689 0
M  V30 1720 H 157.411 2.94032 -5.35143 0
M  V30 1721 H 158.825 0.694375 -5.69079 0
M  V30 1722 H 157.222 -0.0335027 -6.00091 0
M  V30 1723 H 158.292 -0.760961 -4.78892 0
M  V30 1724 N 159.635 1.57281 -0.100228 0
M  V30 1725 C 160.881 1.94826 0.563101 0
M  V30 1726 C 161.214 0.982475 1.67514 0
M  V30 1727 O 160.489 0.0164069 1.94493 0
M  V30 1728 C 160.772 3.42453 1.11346 0
M  V30 1729 C 160.625 4.498 0.00612081 0
M  V30 1730 C 161.944 3.91506 2.01024 0
M  V30 1731 H 159.063 0.708428 0.203221 0
M  V30 1732 H 161.705 1.8922 -0.171979 0
M  V30 1733 H 159.855 3.47361 1.7399 0
M  V30 1734 H 161.527 4.57 -0.628357 0
M  V30 1735 H 159.77 4.28756 -0.659581 0
M  V30 1736 H 160.441 5.50306 0.432109 0
M  V30 1737 H 162.917 3.88784 1.48278 0
M  V30 1738 H 161.793 4.95358 2.36457 0
M  V30 1739 H 162.054 3.31099 2.92961 0
M  V30 1740 N 161.113 -0.173488 1.56642 0
M  V30 1741 C 162.338 -0.910149 1.86363 0
M  V30 1742 C 162.763 -1.75132 0.686318 0
M  V30 1743 O 162.121 -1.77595 -0.364643 0
M  V30 1744 C 162.169 -1.76447 3.14482 0
M  V30 1745 O 161.273 -2.86584 2.96553 0
M  V30 1746 H 160.614 -0.255086 0.613047 0
M  V30 1747 H 163.144 -0.172283 2.03873 0
M  V30 1748 H 163.154 -2.16483 3.45831 0
M  V30 1749 H 161.829 -1.14658 3.99783 0
M  V30 1750 H 160.406 -2.50146 2.76553 0
M  V30 1751 N 162.591 -1.51276 -0.441967 0
M  V30 1752 C 163.521 -1.752 -1.54361 0
M  V30 1753 C 164.502 -0.601682 -1.59103 0
M  V30 1754 O 165.687 -0.843913 -1.74905 0
M  V30 1755 C 162.817 -1.87282 -2.92477 0
M  V30 1756 C 161.771 -3.02687 -3.02596 0
M  V30 1757 C 161.097 -2.99947 -4.42647 0
M  V30 1758 C 162.397 -4.4273 -2.77106 0
M  V30 1759 H 164.091 -2.67442 -1.34592 0
M  V30 1760 H 161.637 -1.28694 -0.646048 0
M  V30 1761 H 163.59 -2.02602 -3.695 0
M  V30 1762 H 162.314 -0.916844 -3.13467 0
M  V30 1763 H 160.973 -2.87065 -2.28012 0
M  V30 1764 H 160.621 -2.02136 -4.60597 0
M  V30 1765 H 160.321 -3.77439 -4.50348 0
M  V30 1766 H 161.845 -3.17354 -5.2165 0
M  V30 1767 H 163.259 -4.58727 -3.43864 0
M  V30 1768 H 161.656 -5.21893 -2.96222 0
M  V30 1769 H 162.726 -4.53087 -1.72744 0
M  V30 1770 N 164.069 0.697108 -1.41344 0
M  V30 1771 C 165.318 1.45279 -1.39918 0
M  V30 1772 C 165.631 1.95597 -0.0109624 0
M  V30 1773 O 166.837 2.71208 0.125919 0
M  V30 1774 C 165.293 2.62695 -2.46007 0
M  V30 1775 C 164.901 2.19169 -3.90729 0
M  V30 1776 C 166.645 3.40336 -2.53715 0
M  V30 1777 C 164.552 3.33535 -4.88373 0
M  V30 1778 H 163.482 0.545692 -0.520323 0
M  V30 1779 H 166.133 0.756929 -1.67161 0
M  V30 1780 H 164.515 3.34541 -2.11892 0
M  V30 1781 H 165.689 1.54623 -4.34083 0
M  V30 1782 H 164.004 1.54525 -3.86666 0
M  V30 1783 H 166.601 4.2547 -3.2385 0
M  V30 1784 H 166.944 3.85418 -1.5735 0
M  V30 1785 H 167.477 2.75546 -2.86913 0
M  V30 1786 H 164.216 2.93468 -5.86137 0
M  V30 1787 H 163.736 3.96936 -4.49668 0
M  V30 1788 H 165.415 3.99335 -5.09059 0
M  V30 1789 N 165.547 1.27147 0.931209 0
M  V30 1790 C 166.795 1.13055 1.6752 0
M  V30 1791 C 167.116 -0.324791 1.92276 0
M  V30 1792 O 166.386 -1.22775 1.52654 0
M  V30 1793 H 164.966 0.415391 0.620854 0
M  V30 1794 H 167.628 1.59623 1.11833 0
M  V30 1795 H 166.724 1.65694 2.64485 0
M  V30 1796 N 167.025 -1.13721 1.09112 0
M  V30 1797 C 168.25 -1.89314 0.847053 0
M  V30 1798 C 168.675 -1.78416 -0.595774 0
M  V30 1799 O 168.033 -1.12942 -1.41823 0
M  V30 1800 C 168.081 -3.3701 1.28284 0
M  V30 1801 O 167.185 -4.10054 0.439267 0
M  V30 1802 H 166.526 -0.588745 0.307044 0
M  V30 1803 H 169.056 -1.43902 1.45442 0
M  V30 1804 H 169.066 -3.87834 1.26683 0
M  V30 1805 H 167.741 -3.4426 2.33363 0
M  V30 1806 H 166.318 -3.69266 0.519312 0
M  V30 1807 N 168.503 -0.877838 -1.30888 0
M  V30 1808 C 169.45 -0.337538 -2.28318 0
M  V30 1809 C 170.42 0.568346 -1.56074 0
M  V30 1810 O 171.605 0.498298 -1.84178 0
M  V30 1811 C 168.745 0.448142 -3.42178 0
M  V30 1812 C 167.858 -0.48615 -4.29256 0
M  V30 1813 C 166.993 0.314427 -5.30269 0
M  V30 1814 C 166.032 -0.615791 -6.08995 0
M  V30 1815 N 165.169 0.14902 -7.01942 0
M  V30 1816 H 170.009 -1.17356 -2.73919 0
M  V30 1817 H 167.546 -0.590094 -1.34745 0
M  V30 1818 H 169.504 0.919517 -4.06941 0
M  V30 1819 H 168.134 1.24879 -2.97666 0
M  V30 1820 H 167.186 -1.076 -3.64865 0
M  V30 1821 H 168.498 -1.19909 -4.84173 0
M  V30 1822 H 167.652 0.847969 -6.00745 0
M  V30 1823 H 166.391 1.06062 -4.76027 0
M  V30 1824 H 165.396 -1.16102 -5.37401 0
M  V30 1825 H 166.621 -1.36097 -6.65323 0
M  V30 1826 H 164.567 0.877884 -6.50099 0
M  V30 1827 H 164.484 -0.504433 -7.54315 0
M  V30 1828 H 165.752 0.663537 -7.76671 0
M  V30 1829 N 169.982 1.44106 -0.638065 0
M  V30 1830 C 171.21 2.06336 -0.152615 0
M  V30 1831 C 171.625 1.47731 1.17563 0
M  V30 1832 O 170.982 0.602806 1.72257 0
M  V30 1833 C 171.033 3.61479 -0.0391491 0
M  V30 1834 O 170.754 4.17903 -1.31487 0
M  V30 1835 C 172.255 4.40757 0.474176 0
M  V30 1836 H 169.475 0.665862 -0.0828776 0
M  V30 1837 H 172.019 1.84862 -0.87443 0
M  V30 1838 H 170.174 3.82191 0.633142 0
M  V30 1839 H 170.588 5.11416 -1.16421 0
M  V30 1840 H 172.062 5.49707 0.502562 0
M  V30 1841 H 172.539 4.12697 1.50258 0
M  V30 1842 H 173.145 4.24979 -0.165102 0
M  V30 1843 N 171.46 0.379036 1.52974 0
M  V30 1844 C 172.392 -0.495963 2.2377 0
M  V30 1845 C 173.405 -1.03517 1.25651 0
M  V30 1846 O 174.594 -0.939249 1.51791 0
M  V30 1847 C 171.694 -1.69894 2.93239 0
M  V30 1848 C 170.867 -1.2889 4.17979 0
M  V30 1849 C 169.926 -2.35543 4.70538 0
M  V30 1850 O 168.952 -1.97375 5.33883 0
M  V30 1851 N 170.154 -3.67318 4.49508 0
M  V30 1852 H 172.919 0.110523 2.99496 0
M  V30 1853 H 170.48 0.204878 1.60598 0
M  V30 1854 H 172.472 -2.40747 3.25304 0
M  V30 1855 H 171.042 -2.212 2.20883 0
M  V30 1856 H 170.262 -0.409676 3.92065 0
M  V30 1857 H 171.55 -0.991443 4.99047 0
M  V30 1858 H 170.948 -4.01095 3.98923 0
M  V30 1859 H 169.505 -4.34235 4.8609 0
M  V30 1860 N 172.938 -1.57226 0.108567 0
M  V30 1861 C 174.187 -1.94008 -0.551703 0
M  V30 1862 C 174.5 -0.993442 -1.68494 0
M  V30 1863 O 175.706 -1.25551 -2.40726 0
M  V30 1864 C 174.162 -3.44763 -1.03279 0
M  V30 1865 C 173.77 -4.47943 0.0714193 0
M  V30 1866 C 175.514 -3.90483 -1.66503 0
M  V30 1867 C 173.421 -5.89865 -0.425779 0
M  V30 1868 H 172.351 -0.724206 -0.209863 0
M  V30 1869 H 175.002 -1.82547 0.186741 0
M  V30 1870 H 173.384 -3.51422 -1.82533 0
M  V30 1871 H 174.558 -4.52942 0.847365 0
M  V30 1872 H 172.873 -4.11913 0.609669 0
M  V30 1873 H 175.47 -4.93925 -2.04798 0
M  V30 1874 H 175.813 -3.29877 -2.53942 0
M  V30 1875 H 176.346 -3.86581 -0.938074 0
M  V30 1876 H 173.085 -6.54202 0.412316 0
M  V30 1877 H 172.605 -5.88309 -1.16843 0
M  V30 1878 H 174.284 -6.40844 -0.890397 0
M  V30 1879 N 174.416 0.165178 -1.56732 0
M  V30 1880 C 175.827 0.727046 -1.71962 0
M  V30 1881 C 176.178 1.82508 -0.720078 0
M  V30 1882 O 175.303 2.16082 0.117242 0
M  V30 1883 C 175.898 1.32559 -3.11791 0
M  V30 1884 C 174.457 1.83422 -3.28684 0
M  V30 1885 C 173.604 0.715567 -2.67908 0
M  V30 1886 H 176.555 -0.0602896 -1.58585 0
M  V30 1887 H 176.576 2.19533 -3.10782 0
M  V30 1888 H 176.088 0.526195 -3.84516 0
M  V30 1889 H 174.189 2.65986 -2.60926 0
M  V30 1890 H 174.302 1.97543 -4.36478 0
M  V30 1891 H 172.666 1.13758 -2.27884 0
M  V30 1892 H 173.449 -0.0720836 -3.43224 0
M  V30 1893 N 175.894 1.51508 0.433938 0
M  V30 1894 C 177.122 1.68157 1.20543 0
M  V30 1895 C 177.537 0.380362 1.84929 0
M  V30 1896 O 176.894 -0.641446 1.70856 0
M  V30 1897 C 176.945 2.79965 2.28696 0
M  V30 1898 O 176.666 4.05045 1.66943 0
M  V30 1899 C 178.167 3.07912 3.18912 0
M  V30 1900 H 175.387 0.56421 0.363191 0
M  V30 1901 H 177.931 1.97941 0.513754 0
M  V30 1902 H 176.086 2.5277 2.93574 0
M  V30 1903 H 176.5 4.67165 2.38448 0
M  V30 1904 H 177.974 3.89719 3.90926 0
M  V30 1905 H 178.451 2.20456 3.79863 0
M  V30 1906 H 179.057 3.36779 2.59731 0
M  V30 1907 N 177.372 -0.689602 1.41712 0
M  V30 1908 C 178.304 -1.815 1.39966 0
M  V30 1909 C 179.317 -1.59995 0.300917 0
M  V30 1910 O 180.506 -1.69387 0.563039 0
M  V30 1911 C 177.606 -3.18364 1.16179 0
M  V30 1912 C 176.779 -3.66847 2.38206 0
M  V30 1913 C 175.838 -4.82398 2.10186 0
M  V30 1914 O 174.864 -4.93706 2.83272 0
M  V30 1915 N 176.066 -5.70064 1.0958 0
M  V30 1916 H 178.831 -1.83488 2.36965 0
M  V30 1917 H 176.392 -0.872149 1.36401 0
M  V30 1918 H 178.384 -3.93301 0.953756 0
M  V30 1919 H 176.954 -3.11365 0.27756 0
M  V30 1920 H 176.174 -2.82751 2.74673 0
M  V30 1921 H 177.462 -3.95978 3.19498 0
M  V30 1922 H 176.86 -5.63565 0.491019 0
M  V30 1923 H 175.417 -6.44874 0.947656 0
M  V30 1924 N 178.85 -1.27639 -0.924453 0
M  V30 1925 C 180.266 -1.05113 -1.20097 0
M  V30 1926 C 180.466 0.213262 -2.00368 0
M  V30 1927 O 179.522 0.91787 -2.35226 0
M  V30 1928 C 180.835 -2.29244 -1.94596 0
M  V30 1929 C 182.383 -2.34315 -2.07522 0
M  V30 1930 C 182.858 -3.58183 -2.85427 0
M  V30 1931 N 184.349 -3.5876 -2.92994 0
M  V30 1932 C 185.084 -4.51277 -3.53746 0
M  V30 1933 N 184.58 -5.54102 -4.15863 0
M  V30 1934 N 186.373 -4.38894 -3.51181 0
M  V30 1935 H 178.524 -2.08821 -0.388264 0
M  V30 1936 H 180.787 -0.918568 -0.234385 0
M  V30 1937 H 180.493 -3.21301 -1.43034 0
M  V30 1938 H 180.367 -2.34816 -2.95197 0
M  V30 1939 H 182.754 -1.42762 -2.58269 0
M  V30 1940 H 182.835 -2.32744 -1.06131 0
M  V30 1941 H 182.479 -4.50074 -2.35363 0
M  V30 1942 H 182.409 -3.57006 -3.8711 0
M  V30 1943 H 184.9 -2.84398 -2.4885 0
M  V30 1944 H 185.213 -6.20859 -4.60168 0
M  V30 1945 H 183.558 -5.57941 -4.144 0
M  V30 1946 H 186.749 -3.57772 -3.01856 0
M  V30 1947 H 186.922 -5.11186 -3.98237 0
M  V30 1948 N 180.328 1.1314 -1.09713 0
M  V30 1949 C 181.558 1.88048 -0.855656 0
M  V30 1950 C 181.966 1.79537 0.596919 0
M  V30 1951 O 181.309 1.16196 1.42282 0
M  V30 1952 C 181.371 3.38314 -1.21589 0
M  V30 1953 C 181.035 3.70605 -2.67397 0
M  V30 1954 C 182.032 3.69596 -3.65643 0
M  V30 1955 C 179.717 4.0017 -3.03593 0
M  V30 1956 C 181.711 3.977 -4.9811 0
M  V30 1957 C 179.398 4.27935 -4.36251 0
M  V30 1958 C 180.396 4.26685 -5.33318 0
M  V30 1959 O 180.084 4.53767 -6.63589 0
M  V30 1960 H 179.816 0.60208 -0.307368 0
M  V30 1961 H 182.37 1.44128 -1.46343 0
M  V30 1962 H 180.6 3.82752 -0.551177 0
M  V30 1963 H 182.289 3.94552 -0.953083 0
M  V30 1964 H 183.055 3.46826 -3.39023 0
M  V30 1965 H 178.934 4.00289 -2.2867 0
M  V30 1966 H 182.478 3.9664 -5.73866 0
M  V30 1967 H 178.375 4.50178 -4.62613 0
M  V30 1968 H 179.143 4.71422 -6.69107 0
M  V30 1969 N 181.806 0.884767 1.30421 0
M  V30 1970 C 183.054 0.502112 1.95763 0
M  V30 1971 C 183.375 -0.951815 1.70192 0
M  V30 1972 O 182.645 -1.6692 1.0254 0
M  V30 1973 H 181.225 0.182694 0.724315 0
M  V30 1974 H 183.887 1.1278 1.58955 0
M  V30 1975 H 182.983 0.672188 3.04775 0
M  V30 1976 N 183.284 -1.43765 0.645699 0
M  V30 1977 C 184.7 -1.56509 0.312591 0
M  V30 1978 C 184.9 -1.6307 -1.18365 0
M  V30 1979 O 183.956 -1.58167 -1.96824 0
M  V30 1980 C 185.269 -2.82968 1.01733 0
M  V30 1981 C 186.817 -2.96701 0.996865 0
M  V30 1982 C 187.292 -4.25982 1.68236 0
M  V30 1983 N 188.783 -4.32829 1.64964 0
M  V30 1984 C 189.518 -5.31613 2.14885 0
M  V30 1985 N 189.014 -6.36718 2.73061 0
M  V30 1986 N 190.807 -5.23217 2.05428 0
M  V30 1987 H 182.958 -1.3775 1.61675 0
M  V30 1988 H 185.221 -0.661067 0.679481 0
M  V30 1989 H 184.927 -2.84156 2.0724 0
M  V30 1990 H 184.801 -3.72957 0.564177 0
M  V30 1991 H 187.188 -2.95058 -0.0497719 0
M  V30 1992 H 187.269 -2.08022 1.48865 0
M  V30 1993 H 186.913 -4.28386 2.72852 0
M  V30 1994 H 186.843 -5.13545 1.16529 0
M  V30 1995 H 189.334 -3.57493 1.22503 0
M  V30 1996 H 189.647 -7.08401 3.08848 0
M  V30 1997 H 187.992 -6.37362 2.77118 0
M  V30 1998 H 191.183 -4.40019 1.59689 0
M  V30 1999 H 191.356 -6.00045 2.44643 0
M  V30 2000 N 184.763 -0.387143 -1.52771 0
M  V30 2001 C 186.179 -0.037007 -1.59557 0
M  V30 2002 C 186.379 1.44801 -1.40124 0
M  V30 2003 O 185.435 2.21227 -1.21716 0
M  V30 2004 C 186.748 -0.512256 -2.96305 0
M  V30 2005 C 188.296 -0.468328 -3.09476 0
M  V30 2006 C 188.771 -0.919731 -4.4867 0
M  V30 2007 N 190.262 -0.875656 -4.54848 0
M  V30 2008 C 190.997 -1.19637 -5.6078 0
M  V30 2009 N 190.493 -1.58745 -6.74368 0
M  V30 2010 N 192.286 -1.11776 -5.50874 0
M  V30 2011 H 184.437 -1.35395 -1.63652 0
M  V30 2012 H 186.7 -0.554818 -0.768688 0
M  V30 2013 H 186.406 -1.54935 -3.15734 0
M  V30 2014 H 186.28 0.089805 -3.77093 0
M  V30 2015 H 188.667 0.559671 -2.89744 0
M  V30 2016 H 188.748 -1.10616 -2.30646 0
M  V30 2017 H 188.392 -1.94595 -4.69143 0
M  V30 2018 H 188.322 -0.258927 -5.25963 0
M  V30 2019 H 190.813 -0.587843 -3.733 0
M  V30 2020 H 191.126 -1.81586 -7.51163 0
M  V30 2021 H 189.471 -1.6263 -6.75705 0
M  V30 2022 H 192.662 -0.811264 -4.61016 0
M  V30 2023 H 192.835 -1.37103 -6.3333 0
M  V30 2024 N 186.241 1.57166 -0.116904 0
M  V30 2025 C 187.652 1.82169 0.408809 0
M  V30 2026 C 188.003 1.03393 1.66746 0
M  V30 2027 O 187.128 0.269886 2.1471 0
M  V30 2028 C 187.723 3.30429 0.748466 0
M  V30 2029 C 186.282 3.5612 1.21882 0
M  V30 2030 C 185.429 2.76374 0.226452 0
M  V30 2031 H 188.38 1.5497 -0.342063 0
M  V30 2032 H 188.401 3.44943 1.60607 0
M  V30 2033 H 187.913 3.87737 -0.167784 0
M  V30 2034 H 186.014 3.04168 2.15204 0
M  V30 2035 H 186.127 4.64705 1.16559 0
M  V30 2036 H 184.491 2.44515 0.713063 0
M  V30 2037 H 185.274 3.3644 -0.682859 0
M  V30 2038 N 187.719 -0.156864 1.56817 0
M  V30 2039 C 188.949 -0.885031 1.86684 0
M  V30 2040 C 189.357 -1.75696 0.701954 0
M  V30 2041 O 188.7 -1.80569 -0.337732 0
M  V30 2042 C 188.762 -1.80092 3.11138 0
M  V30 2043 C 188.426 -1.10714 4.43386 0
M  V30 2044 C 189.423 -0.465714 5.1781 0
M  V30 2045 C 187.108 -1.09959 4.90117 0
M  V30 2046 C 189.102 0.174002 6.37162 0
M  V30 2047 C 186.789 -0.456055 6.09396 0
M  V30 2048 C 187.787 0.179622 6.82764 0
M  V30 2049 O 187.475 0.812975 7.99779 0
M  V30 2050 H 187.207 -0.261813 0.623242 0
M  V30 2051 H 189.761 -0.157383 2.04796 0
M  V30 2052 H 187.991 -2.56926 2.89009 0
M  V30 2053 H 189.68 -2.40018 3.27332 0
M  V30 2054 H 190.446 -0.463427 4.82781 0
M  V30 2055 H 186.325 -1.58378 4.3294 0
M  V30 2056 H 189.869 0.670765 6.94368 0
M  V30 2057 H 185.766 -0.455975 6.43888 0
M  V30 2058 H 186.534 0.71366 8.15383 0
M  V30 2059 N 189.197 -1.51736 -0.425897 0
M  V30 2060 C 190.445 -1.64644 -1.17204 0
M  V30 2061 C 190.766 -0.370486 -1.91448 0
M  V30 2062 O 190.036 0.614088 -1.86026 0
M  V30 2063 H 188.616 -0.606819 -0.435638 0
M  V30 2064 H 191.278 -1.88713 -0.487177 0
M  V30 2065 H 190.374 -2.47958 -1.89534 0
M  V30 2066 N 190.675 0.682077 -1.42076 0
M  V30 2067 C 191.921 1.44428 -1.42367 0
M  V30 2068 C 192.254 1.94164 -0.0373056 0
M  V30 2069 O 191.529 1.70429 0.937239 0
M  V30 2070 C 191.812 2.64654 -2.44194 0
M  V30 2071 C 191.665 2.20596 -3.91991 0
M  V30 2072 C 192.984 3.66865 -2.431 0
M  V30 2073 H 190.103 0.523834 -0.518428 0
M  V30 2074 H 192.745 0.77576 -1.73442 0
M  V30 2075 H 190.895 3.2169 -2.17826 0
M  V30 2076 H 192.567 1.68783 -4.29313 0
M  V30 2077 H 190.81 1.52242 -4.06208 0
M  V30 2078 H 191.481 3.06921 -4.58807 0
M  V30 2079 H 193.957 3.19531 -2.66532 0
M  V30 2080 H 192.833 4.48577 -3.16339 0
M  V30 2081 H 193.094 4.17493 -1.45437 0
M  V30 2082 N 192.153 1.28127 0.917671 0
M  V30 2083 C 193.401 1.14825 1.66312 0
M  V30 2084 C 193.722 -0.304379 1.9261 0
M  V30 2085 O 192.992 -1.21149 1.53947 0
M  V30 2086 H 191.572 0.421953 0.616413 0
M  V30 2087 H 194.234 1.608 1.10134 0
M  V30 2088 H 193.33 1.68489 2.62712 0
M  V30 2089 N 193.631 -1.12557 1.10312 0
M  V30 2090 C 194.561 -2.20341 0.772798 0
M  V30 2091 C 195.542 -1.68198 -0.25365 0
M  V30 2092 O 196.727 -1.93831 -0.119699 0
M  V30 2093 C 193.857 -3.46709 0.202443 0
M  V30 2094 C 192.811 -4.11996 1.15943 0
M  V30 2095 C 192.137 -5.328 0.450345 0
M  V30 2096 C 193.437 -4.5828 2.50552 0
M  V30 2097 H 195.131 -2.48229 1.674 0
M  V30 2098 H 192.677 -1.19308 0.806326 0
M  V30 2099 H 194.63 -4.2138 -0.0407752 0
M  V30 2100 H 193.354 -3.18245 -0.734001 0
M  V30 2101 H 192.013 -3.39305 1.38808 0
M  V30 2102 H 191.661 -5.00602 -0.490531 0
M  V30 2103 H 191.361 -5.7743 1.08851 0
M  V30 2104 H 192.885 -6.10219 0.215642 0
M  V30 2105 H 194.299 -5.2433 2.31843 0
M  V30 2106 H 192.696 -5.13683 3.10242 0
M  V30 2107 H 193.766 -3.72329 3.10643 0
M  V30 2108 N 195.109 -0.891671 -1.2995 0
M  V30 2109 C 196.039 -0.379797 -2.30391 0
M  V30 2110 C 197.02 0.540919 -1.6127 0
M  V30 2111 O 198.205 0.453352 -1.88834 0
M  V30 2112 C 195.335 0.400654 -3.44981 0
M  V30 2113 C 194.289 -0.428905 -4.25846 0
M  V30 2114 C 193.615 0.478557 -5.32554 0
M  V30 2115 C 194.915 -1.67458 -4.94727 0
M  V30 2116 H 196.609 -1.21914 -2.73454 0
M  V30 2117 H 194.155 -0.587675 -1.31462 0
M  V30 2118 H 196.108 0.769434 -4.14316 0
M  V30 2119 H 194.832 1.27371 -3.0074 0
M  V30 2120 H 193.491 -0.779911 -3.58208 0
M  V30 2121 H 193.139 1.34951 -4.84559 0
M  V30 2122 H 192.839 -0.0727433 -5.87555 0
M  V30 2123 H 194.363 0.843705 -6.04743 0
M  V30 2124 H 195.777 -1.376 -5.56542 0
M  V30 2125 H 194.174 -2.16659 -5.59624 0
M  V30 2126 H 195.244 -2.41518 -4.20473 0
M  V30 2127 N 196.587 1.43421 -0.653314 0
M  V30 2128 C 197.836 2.01032 -0.164076 0
M  V30 2129 C 198.149 1.52147 1.22926 0
M  V30 2130 O 199.355 2.02031 1.81371 0
M  V30 2131 C 197.811 3.59082 -0.24252 0
M  V30 2132 C 197.419 4.1696 -1.63855 0
M  V30 2133 C 199.163 4.24079 0.18911 0
M  V30 2134 C 197.07 5.67304 -1.67092 0
M  V30 2135 H 196 0.751798 -0.0575769 0
M  V30 2136 H 198.651 1.6439 -0.815362 0
M  V30 2137 H 197.033 3.93125 0.476276 0
M  V30 2138 H 198.207 3.94416 -2.38271 0
M  V30 2139 H 196.522 3.64335 -2.01616 0
M  V30 2140 H 199.119 5.34381 0.184775 0
M  V30 2141 H 199.462 3.98005 1.22056 0
M  V30 2142 H 199.995 3.94918 -0.477938 0
M  V30 2143 H 196.734 5.98145 -2.68146 0
M  V30 2144 H 196.254 5.91904 -0.970014 0
M  V30 2145 H 197.933 6.31344 -1.4147 0
M  V30 2146 N 198.065 0.39524 1.52563 0
M  V30 2147 C 199.028 -0.425001 2.25225 0
M  V30 2148 C 200.028 -0.985266 1.27079 0
M  V30 2149 O 201.218 -0.866332 1.5113 0
M  V30 2150 C 198.35 -1.59686 3.01186 0
M  V30 2151 H 199.543 0.211233 2.99155 0
M  V30 2152 H 197.096 0.147472 1.55603 0
M  V30 2153 H 197.831 -2.27035 2.31572 0
M  V30 2154 H 197.616 -1.20176 3.73229 0
M  V30 2155 H 199.106 -2.17743 3.5634 0
M  V30 2156 N 199.544 -1.57102 0.125237 0
M  V30 2157 C 200.792 -1.95021 -0.530198 0
M  V30 2158 C 201.113 -1.00982 -1.66816 0
M  V30 2159 O 200.383 -0.0672693 -1.95784 0
M  V30 2160 H 198.963 -0.720046 -0.198853 0
M  V30 2161 H 201.625 -1.93916 0.19564 0
M  V30 2162 H 200.721 -2.98211 -0.920681 0
M  V30 2163 N 201.022 0.148545 -1.56898 0
M  V30 2164 C 202.252 0.875118 -1.8715 0
M  V30 2165 C 202.66 1.75322 -0.711262 0
M  V30 2166 O 202.003 1.80745 0.328151 0
M  V30 2167 C 202.065 1.7844 -3.12089 0
M  V30 2168 C 201.729 1.08361 -4.43967 0
M  V30 2169 C 202.726 0.438247 -5.1805 0
M  V30 2170 C 200.411 1.07358 -4.90693 0
M  V30 2171 C 202.405 -0.20779 -6.37061 0
M  V30 2172 C 200.092 0.42373 -6.09629 0
M  V30 2173 C 201.09 -0.215829 -6.82659 0
M  V30 2174 O 200.778 -0.855378 -7.99336 0
M  V30 2175 H 200.51 0.258504 -0.624621 0
M  V30 2176 H 203.064 0.14652 -2.04877 0
M  V30 2177 H 201.294 2.55389 -2.90367 0
M  V30 2178 H 202.983 2.38279 -3.286 0
M  V30 2179 H 203.749 0.437817 -4.8302 0
M  V30 2180 H 199.628 1.5608 -4.33774 0
M  V30 2181 H 203.172 -0.70758 -6.94002 0
M  V30 2182 H 199.069 0.421822 -6.4412 0
M  V30 2183 H 199.837 -0.756892 -8.14993 0
M  V30 2184 N 202.5 1.5196 0.417844 0
M  V30 2185 C 203.777 1.56146 1.17803 0
M  V30 2186 C 204.157 0.337275 2.08388 0
M  V30 2187 O 203.505 -0.676447 2.18258 0
M  V30 2188 C 203.715 2.88566 1.96293 0
M  V30 2189 C 205.063 3.41244 2.52662 0
M  V30 2190 O 206.087 2.90247 2.06483 0
M  V30 2191 O 204.946 4.30273 3.36938 0
M  V30 2192 H 202.04 0.628598 0.537395 0
M  V30 2193 H 204.586 1.64283 0.425331 0
M  V30 2194 H 203.358 3.69116 1.2988 0
M  V30 2195 H 202.981 2.83681 2.78587 0
M  V30 2196 N 203.978 -0.674533 1.42435 0
M  V30 2197 C 205.255 -1.4305 1.33402 0
M  V30 2198 C 205.635 -2.11081 -0.0284674 0
M  V30 2199 O 204.983 -2.03257 -1.04397 0
M  V30 2200 C 205.193 -2.43272 2.50239 0
M  V30 2201 C 206.541 -3.07907 2.92367 0
M  V30 2202 O 207.565 -2.53599 2.50132 0
M  V30 2203 O 206.424 -4.0632 3.65467 0
M  V30 2204 H 203.518 -0.638076 0.526106 0
M  V30 2205 H 206.064 -0.703235 1.54443 0
M  V30 2206 H 204.836 -1.91803 3.41068 0
M  V30 2207 H 204.459 -3.23479 2.31186 0
M  V30 2208 N 205.456 -1.28612 -0.910864 0
M  V30 2209 C 206.389 -1.07109 -2.01502 0
M  V30 2210 C 207.367 0.013706 -1.62594 0
M  V30 2211 O 208.551 -0.134796 -1.88017 0
M  V30 2212 C 205.678 -0.628255 -3.32822 0
M  V30 2213 C 204.724 -1.71012 -3.90714 0
M  V30 2214 S 205.557 -3.30676 -4.21205 0
M  V30 2215 C 206.713 -2.88234 -5.55583 0
M  V30 2216 H 206.946 -2.00591 -2.19432 0
M  V30 2217 H 204.479 -1.12633 -1.05609 0
M  V30 2218 H 206.437 -0.37946 -4.08742 0
M  V30 2219 H 205.098 0.28678 -3.12788 0
M  V30 2220 H 204.291 -1.35195 -4.85529 0
M  V30 2221 H 203.893 -1.91186 -3.21441 0
M  V30 2222 H 206.185 -2.34584 -6.35591 0
M  V30 2223 H 207.128 -3.81857 -5.96314 0
M  V30 2224 H 207.536 -2.26862 -5.16908 0
M  V30 2225 N 206.934 1.1197 -1.10907 0
M  V30 2226 C 208.182 1.83225 -0.852819 0
M  V30 2227 C 208.503 1.84769 0.623341 0
M  V30 2228 O 207.773 1.3143 1.45269 0
M  V30 2229 H 206.353 0.67849 -0.312507 0
M  V30 2230 H 209.015 1.3556 -1.40033 0
M  V30 2231 H 208.111 2.87265 -1.22005 0
M  V30 2232 N 208.412 0.89855 1.29475 0
M  V30 2233 C 209.823 0.572537 1.77705 0
M  V30 2234 C 210.174 -0.911778 1.73727 0
M  V30 2235 O 209.299 -1.71288 1.32247 0
M  V30 2236 C 209.894 1.03252 3.22683 0
M  V30 2237 C 208.453 0.757687 3.68695 0
M  V30 2238 C 207.6 1.20787 2.49612 0
M  V30 2239 H 210.551 1.08139 1.16153 0
M  V30 2240 H 210.572 0.367307 3.78723 0
M  V30 2241 H 210.084 2.11285 3.25546 0
M  V30 2242 H 208.185 -0.310079 3.71308 0
M  V30 2243 H 208.298 1.35476 4.59547 0
M  V30 2244 H 206.662 0.626888 2.46865 0
M  V30 2245 H 207.445 2.29622 2.55203 0
M  V30 2246 N 209.89 -1.43072 0.660911 0
M  V30 2247 C 210.84 -2.27948 -0.04847 0
M  V30 2248 C 211.824 -1.40325 -0.787246 0
M  V30 2249 O 213.016 -1.63893 -0.668446 0
M  V30 2250 C 210.145 -3.28143 -1.00881 0
M  V30 2251 C 209.231 -4.23252 -0.268108 0
M  V30 2252 N 209.622 -5.00656 0.719528 0
M  V30 2253 C 207.92 -4.43092 -0.508493 0
M  V30 2254 C 208.621 -5.70019 1.15988 0
M  V30 2255 N 207.597 -5.41364 0.492584 0
M  V30 2256 H 211.399 -2.85213 0.709279 0
M  V30 2257 H 208.913 -1.54869 0.488822 0
M  V30 2258 H 210.91 -3.87736 -1.53188 0
M  V30 2259 H 209.57 -2.7244 -1.76654 0
M  V30 2260 H 210.581 -5.06115 1.09855 0
M  V30 2261 H 207.258 -3.98449 -1.24679 0
M  V30 2262 H 208.648 -6.4214 1.97751 0
M  V30 2263 N 211.368 -0.403325 -1.52352 0
M  V30 2264 C 212.617 0.175668 -2.00934 0
M  V30 2265 C 212.93 1.46718 -1.29356 0
M  V30 2266 O 214.136 2.12708 -1.68724 0
M  V30 2267 C 212.592 0.363612 -3.58058 0
M  V30 2268 C 212.2 -0.915472 -4.38547 0
M  V30 2269 C 213.944 0.89821 -4.14888 0
M  V30 2270 C 211.851 -0.695035 -5.87302 0
M  V30 2271 H 210.781 0.0694234 -0.750797 0
M  V30 2272 H 213.432 -0.527879 -1.75743 0
M  V30 2273 H 211.814 1.12935 -3.79555 0
M  V30 2274 H 212.988 -1.68691 -4.28812 0
M  V30 2275 H 211.303 -1.37606 -3.93006 0
M  V30 2276 H 213.9 1.07907 -5.23699 0
M  V30 2277 H 214.243 1.87126 -3.71873 0
M  V30 2278 H 214.776 0.191681 -3.97338 0
M  V30 2279 H 211.515 -1.63948 -6.34666 0
M  V30 2280 H 211.035 0.0372116 -5.99788 0
M  V30 2281 H 212.714 -0.33497 -6.46132 0
M  V30 2282 N 212.846 1.57033 -0.133567 0
M  V30 2283 C 214.093 1.95686 0.520877 0
M  V30 2284 C 214.421 1.0177 1.6575 0
M  V30 2285 O 213.676 0.0443195 1.9565 0
M  V30 2286 C 213.975 3.40674 1.08057 0
M  V30 2287 C 213.641 4.50855 0.0637899 0
M  V30 2288 C 212.303 4.80716 -0.215757 0
M  V30 2289 C 214.655 5.17398 -0.62835 0
M  V30 2290 C 211.983 5.74433 -1.19348 0
M  V30 2291 C 214.335 6.12167 -1.5948 0
M  V30 2292 C 212.999 6.40414 -1.88218 0
M  V30 2293 H 212.269 0.716067 0.190602 0
M  V30 2294 H 214.916 1.9026 -0.217556 0
M  V30 2295 H 213.221 3.42865 1.89606 0
M  V30 2296 H 214.918 3.67902 1.59529 0
M  V30 2297 H 211.508 4.27605 0.291855 0
M  V30 2298 H 215.692 4.94472 -0.425562 0
M  V30 2299 H 210.948 5.94616 -1.42272 0
M  V30 2300 H 215.122 6.6281 -2.13671 0
M  V30 2301 H 212.749 7.12838 -2.64133 0
M  V30 2302 N 214.325 -0.140222 1.56975 0
M  V30 2303 C 215.257 -1.19818 1.95388 0
M  V30 2304 C 216.27 -1.38816 0.850525 0
M  V30 2305 O 217.459 -1.38267 1.12891 0
M  V30 2306 C 214.559 -2.56189 2.21857 0
M  V30 2307 C 213.732 -2.58077 3.5315 0
M  V30 2308 C 212.791 -3.76037 3.6808 0
M  V30 2309 O 211.817 -3.60598 4.40406 0
M  V30 2310 N 213.019 -4.93763 3.05251 0
M  V30 2311 H 215.784 -0.871609 2.86746 0
M  V30 2312 H 213.345 -0.32972 1.58507 0
M  V30 2313 H 215.337 -3.33623 2.2908 0
M  V30 2314 H 213.907 -2.81111 1.36731 0
M  V30 2315 H 213.127 -1.6651 3.57307 0
M  V30 2316 H 214.415 -2.56377 4.39486 0
M  V30 2317 H 213.813 -5.09209 2.46419 0
M  V30 2318 H 212.37 -5.68949 3.18026 0
M  V30 2319 N 215.803 -1.52179 -0.40978 0
M  V30 2320 C 217.031 -1.70054 -1.17853 0
M  V30 2321 C 217.446 -0.409735 -1.843 0
M  V30 2322 O 216.803 0.614183 -1.71855 0
M  V30 2323 C 216.854 -2.83568 -2.24213 0
M  V30 2324 O 216.575 -4.0765 -1.60478 0
M  V30 2325 C 218.076 -3.12947 -3.13973 0
M  V30 2326 H 215.296 -0.569917 -0.354169 0
M  V30 2327 H 217.84 -1.98734 -0.482198 0
M  V30 2328 H 215.995 -2.57409 -2.89516 0
M  V30 2329 H 216.409 -4.70899 -2.30986 0
M  V30 2330 H 217.883 -3.95889 -3.84677 0
M  V30 2331 H 218.36 -2.26472 -3.76307 0
M  V30 2332 H 218.966 -3.40868 -2.5434 0
M  V30 2333 N 217.281 0.66697 -1.42791 0
M  V30 2334 C 218.521 1.43892 -1.4517 0
M  V30 2335 C 218.885 1.91877 -0.0687551 0
M  V30 2336 O 220.086 2.6878 0.0327455 0
M  V30 2337 C 218.357 2.59839 -2.45395 0
M  V30 2338 S 219.916 3.48572 -2.66539 0
M  V30 2339 H 216.734 0.491356 -0.513897 0
M  V30 2340 H 219.336 0.775656 -1.79454 0
M  V30 2341 H 218.04 2.22838 -3.44632 0
M  V30 2342 H 217.571 3.3103 -2.12562 0
M  V30 2343 H 219.586 4.56094 -1.95429 0
M  V30 2344 N 218.759 1.29093 0.90403 0
M  V30 2345 C 220.17 1.15186 1.46932 0
M  V30 2346 C 220.521 -0.254587 1.94541 0
M  V30 2347 O 219.646 -1.14972 1.83332 0
M  V30 2348 C 220.241 2.08492 2.67051 0
M  V30 2349 C 218.8 1.98621 3.19729 0
M  V30 2350 C 217.947 1.9967 1.92425 0
M  V30 2351 H 220.898 1.41641 0.715789 0
M  V30 2352 H 220.919 1.65461 3.42641 0
M  V30 2353 H 220.431 3.10847 2.3237 0
M  V30 2354 H 218.532 0.993389 3.59114 0
M  V30 2355 H 218.645 2.86068 3.8432 0
M  V30 2356 H 217.009 1.44208 2.09943 0
M  V30 2357 H 217.792 3.03721 1.60026 0
M  V30 2358 N 220.237 -1.11381 1.11499 0
M  V30 2359 C 221.462 -1.87475 0.887019 0
M  V30 2360 C 221.887 -1.79639 -0.557796 0
M  V30 2361 O 221.245 -1.15924 -1.39396 0
M  V30 2362 C 221.293 -3.34213 1.35403 0
M  V30 2363 O 220.397 -4.0903 0.526146 0
M  V30 2364 H 219.738 -0.582099 0.319463 0
M  V30 2365 H 222.268 -1.40785 1.48461 0
M  V30 2366 H 222.278 -3.8506 1.34881 0
M  V30 2367 H 220.953 -3.39232 2.40612 0
M  V30 2368 H 219.53 -3.68082 0.597522 0
M  V30 2369 N 221.715 -0.905404 -1.28997 0
M  V30 2370 C 222.678 -0.392253 -2.25819 0
M  V30 2371 C 223.678 0.476753 -1.5357 0
M  V30 2372 O 224.868 0.280994 -1.71919 0
M  V30 2373 C 222 0.438588 -3.38067 0
M  V30 2374 H 223.193 -1.24743 -2.72725 0
M  V30 2375 H 220.746 -0.684051 -1.40536 0
M  V30 2376 H 221.481 1.31352 -2.96508 0
M  V30 2377 H 221.266 -0.184167 -3.91667 0
M  V30 2378 H 222.756 0.78873 -4.10084 0
M  V30 2379 N 223.193 1.4272 -0.668489 0
M  V30 2380 C 224.141 2.32586 0.0254857 0
M  V30 2381 C 225.135 1.49471 0.797176 0
M  V30 2382 O 226.341 1.65583 0.705853 0
M  V30 2383 H 222.716 0.751514 0.0270339 0
M  V30 2384 H 224.687 2.88823 -0.749936 0
M  V30 2385 C 223.436 3.3397 0.967427 0
M  V30 2386 H 222.759 3.97961 0.383048 0
M  V30 2387 H 224.199 3.9945 1.42181 0
M  V30 2388 C 222.658 2.65744 2.0708 0
M  V30 2389 O 223.188 2.48454 3.15648 0
M  V30 2390 N 221.394 2.2487 1.8407 0
M  V30 2391 H 220.941 2.39132 0.95778 0
M  V30 2392 H 220.899 1.79552 2.58086 0
M  V30 2393 N 224.671 0.411399 1.52136 0
M  V30 2394 C 225.901 -0.16284 2.05957 0
M  V30 2395 C 226.309 -1.3922 1.28119 0
M  V30 2396 O 225.652 -1.80768 0.326881 0
M  V30 2397 C 225.714 -0.575946 3.54856 0
M  V30 2398 C 225.378 0.542998 4.53763 0
M  V30 2399 C 226.375 1.40726 5.00492 0
M  V30 2400 C 224.06 0.716337 4.97166 0
M  V30 2401 C 226.054 2.4298 5.8927 0
M  V30 2402 C 223.741 1.74218 5.8574 0
M  V30 2403 C 224.739 2.59731 6.31687 0
M  V30 2404 O 224.427 3.60558 7.18507 0
M  V30 2405 H 224.159 -0.0229125 0.675612 0
M  V30 2406 H 226.713 0.581634 1.96993 0
M  V30 2407 H 224.943 -1.37274 3.61515 0
M  V30 2408 H 226.632 -1.07836 3.91313 0
M  V30 2409 H 227.398 1.28476 4.67674 0
M  V30 2410 H 223.277 0.0603857 4.6096 0
M  V30 2411 H 226.821 3.0976 6.25055 0
M  V30 2412 H 222.718 1.86498 6.17971 0
M  V30 2413 H 223.486 3.56829 7.36624 0
M  V30 2414 N 226.149 -1.5696 0.141893 0
M  V30 2415 C 227.396 -1.9596 -0.510492 0
M  V30 2416 C 227.724 -1.02648 -1.65208 0
M  V30 2417 O 226.979 -0.0546947 -1.95624 0
M  V30 2418 C 227.278 -3.41242 -1.06249 0
M  V30 2419 C 226.944 -4.50882 -0.0398791 0
M  V30 2420 C 225.606 -4.80595 0.241247 0
M  V30 2421 C 227.958 -5.17058 0.65578 0
M  V30 2422 C 225.286 -5.73792 1.22393 0
M  V30 2423 C 227.638 -6.11313 1.62724 0
M  V30 2424 C 226.302 -6.39407 1.91612 0
M  V30 2425 H 225.572 -0.717068 -0.186802 0
M  V30 2426 H 228.219 -1.90142 0.227643 0
M  V30 2427 H 226.524 -3.43866 -1.87785 0
M  V30 2428 H 228.221 -3.68742 -1.57576 0
M  V30 2429 H 224.811 -4.27754 -0.269174 0
M  V30 2430 H 228.995 -4.94239 0.451779 0
M  V30 2431 H 224.251 -5.93853 1.45424 0
M  V30 2432 H 228.425 -6.61668 2.17183 0
M  V30 2433 H 226.052 -7.11427 2.6791 0
M  V30 2434 N 227.627 0.131896 -1.57047 0
M  V30 2435 C 228.904 0.871495 -1.75112 0
M  V30 2436 C 229.284 1.9866 -0.713949 0
M  V30 2437 O 228.632 2.26965 0.264447 0
M  V30 2438 C 228.842 1.40007 -3.19686 0
M  V30 2439 C 230.19 1.85752 -3.81813 0
M  V30 2440 O 231.214 1.49715 -3.23209 0
M  V30 2441 O 230.073 2.5226 -4.84796 0
M  V30 2442 H 227.167 0.412919 -0.716538 0
M  V30 2443 H 229.713 0.116641 -1.69299 0
M  V30 2444 H 228.485 0.599404 -3.86682 0
M  V30 2445 H 228.108 2.218 -3.29986 0
M  V30 2446 N 229.106 1.52395 0.401703 0
M  V30 2447 C 230.346 1.68498 1.15705 0
M  V30 2448 C 230.71 0.409748 1.87577 0
M  V30 2449 O 231.911 0.446983 2.65058 0
M  V30 2450 C 230.182 2.87789 2.11924 0
M  V30 2451 S 231.741 3.24415 2.95466 0
M  V30 2452 H 228.559 0.593267 0.391862 0
M  V30 2453 H 231.161 1.90408 0.443282 0
M  V30 2454 H 229.865 3.7884 1.57824 0
M  V30 2455 H 229.396 2.68175 2.87829 0
M  V30 2456 H 231.411 2.73614 4.13944 0
M  V30 2457 N 230.584 -0.659388 1.43143 0
M  V30 2458 C 232 -0.974337 1.26407 0
M  V30 2459 C 232.2 -2.007 0.179341 0
M  V30 2460 O 231.256 -2.4856 -0.444295 0
M  V30 2461 C 232.569 -1.46447 2.62628 0
M  V30 2462 C 234.117 -1.58144 2.7011 0
M  V30 2463 C 234.592 -2.1055 4.06734 0
M  V30 2464 N 236.083 -2.17861 4.08767 0
M  V30 2465 C 236.818 -2.59519 5.1131 0
M  V30 2466 N 236.314 -3.00518 6.24228 0
M  V30 2467 N 238.107 -2.59404 4.98664 0
M  V30 2468 H 230.258 0.0240528 2.12386 0
M  V30 2469 H 232.521 -0.0518065 0.946583 0
M  V30 2470 H 232.227 -0.780123 3.42939 0
M  V30 2471 H 232.101 -2.44058 2.87603 0
M  V30 2472 H 234.488 -2.25682 1.90136 0
M  V30 2473 H 234.569 -0.589828 2.48907 0
M  V30 2474 H 234.213 -1.43616 4.87172 0
M  V30 2475 H 234.143 -3.10531 4.25298 0
M  V30 2476 H 236.634 -1.88975 3.27257 0
M  V30 2477 H 236.947 -3.31036 6.98309 0
M  V30 2478 H 235.292 -2.98337 6.2771 0
M  V30 2479 H 238.483 -2.26747 4.09516 0
M  V30 2480 H 238.656 -2.91548 5.78709 0
M  V30 2481 N 232.062 -1.29571 -0.897171 0
M  V30 2482 C 233.025 -1.14913 -1.98312 0
M  V30 2483 C 234.025 -0.0838629 -1.60581 0
M  V30 2484 O 235.215 -0.331006 -1.71026 0
M  V30 2485 C 232.347 -0.757835 -3.3237 0
M  V30 2486 H 233.54 -2.11377 -2.12743 0
M  V30 2487 H 231.093 -1.12793 -1.08201 0
M  V30 2488 H 231.828 0.206837 -3.2364 0
M  V30 2489 H 231.613 -1.52755 -3.61121 0
M  V30 2490 H 233.103 -0.678408 -4.12053 0
M  V30 2491 N 233.54 1.10788 -1.12088 0
M  V30 2492 C 234.473 2.16237 -0.729168 0
M  V30 2493 C 235.451 1.60207 0.277921 0
M  V30 2494 O 236.635 1.87707 0.172737 0
M  V30 2495 C 233.762 3.38609 -0.0786848 0
M  V30 2496 C 232.808 4.13322 -1.05201 0
M  V30 2497 S 233.641 4.69371 -2.57781 0
M  V30 2498 C 234.797 5.95058 -1.94053 0
M  V30 2499 H 235.03 2.4913 -1.62239 0
M  V30 2500 H 232.563 1.22519 -0.939603 0
M  V30 2501 H 234.521 4.09473 0.290254 0
M  V30 2502 H 233.182 3.03962 0.791593 0
M  V30 2503 H 232.375 5.01051 -0.544433 0
M  V30 2504 H 231.977 3.48251 -1.36371 0
M  V30 2505 H 234.269 6.65278 -1.28107 0
M  V30 2506 H 235.212 6.50472 -2.79807 0
M  V30 2507 H 235.62 5.46918 -1.39787 0
M  V30 2508 N 235.018 0.912232 1.28515 0
M  V30 2509 C 236.243 0.559774 1.99703 0
M  V30 2510 C 236.668 -0.851393 1.67729 0
M  V30 2511 O 236.026 -1.56875 0.908834 0
M  V30 2512 C 236.074 0.773874 3.52198 0
M  V30 2513 O 235.178 -0.167842 4.12058 0
M  V30 2514 H 234.519 0.21723 0.627461 0
M  V30 2515 H 237.049 1.22725 1.63706 0
M  V30 2516 H 237.059 0.683386 4.02236 0
M  V30 2517 H 235.734 1.80261 3.74805 0
M  V30 2518 H 234.311 -0.0287509 3.72889 0
M  V30 2519 N 236.496 -1.42363 0.676048 0
M  V30 2520 C 237.745 -2.00745 0.196037 0
M  V30 2521 C 238.058 -1.54083 -1.20489 0
M  V30 2522 O 239.264 -2.04891 -1.78134 0
M  V30 2523 C 237.72 -3.58651 0.299616 0
M  V30 2524 C 237.328 -4.143 1.70468 0
M  V30 2525 C 239.072 -4.24326 -0.121619 0
M  V30 2526 C 236.979 -5.64574 1.76096 0
M  V30 2527 H 235.909 -0.750787 0.0695301 0
M  V30 2528 H 238.56 -1.63072 0.841412 0
M  V30 2529 H 236.942 -3.93833 -0.413673 0
M  V30 2530 H 238.116 -3.90575 2.44515 0
M  V30 2531 H 236.431 -3.61081 2.07387 0
M  V30 2532 H 239.028 -5.34607 -0.0997362 0
M  V30 2533 H 239.371 -3.99897 -1.15708 0
M  V30 2534 H 239.904 -3.94108 0.540706 0
M  V30 2535 H 236.643 -5.93804 2.77628 0
M  V30 2536 H 236.163 -5.90286 1.06406 0
M  V30 2537 H 237.842 -6.29013 1.51496 0
M  V30 2538 N 237.974 -0.419461 -1.51915 0
M  V30 2539 C 239.222 0.152637 -2.01523 0
M  V30 2540 C 239.543 1.44762 -1.30649 0
M  V30 2541 O 238.813 1.90997 -0.435535 0
M  V30 2542 H 237.393 0.0593966 -0.744635 0
M  V30 2543 H 240.055 -0.558073 -1.86739 0
M  V30 2544 H 239.151 0.341369 -3.10227 0
M  V30 2545 N 239.452 1.56882 -0.150215 0
M  V30 2546 C 240.415 2.1573 0.774157 0
M  V30 2547 C 241.415 1.0999 1.17298 0
M  V30 2548 O 242.605 1.35613 1.09338 0
M  V30 2549 C 239.737 2.72302 2.05096 0
M  V30 2550 H 240.93 2.98752 0.262201 0
M  V30 2551 H 238.483 1.55985 0.099248 0
M  V30 2552 H 239.218 1.92956 2.6065 0
M  V30 2553 H 239.003 3.49665 1.77416 0
M  V30 2554 H 240.493 3.17632 2.71109 0
M  V30 2555 N 240.93 -0.123565 1.57115 0
M  V30 2556 C 242.346 -0.476961 1.52306 0
M  V30 2557 C 242.546 -1.82109 0.86248 0
M  V30 2558 O 241.602 -2.48586 0.442884 0
M  V30 2559 C 242.915 -0.465661 2.97073 0
M  V30 2560 C 244.463 -0.549534 3.08138 0
M  V30 2561 C 244.938 -0.568669 4.54456 0
M  V30 2562 N 246.429 -0.630237 4.58892 0
M  V30 2563 C 247.164 -0.666415 5.69514 0
M  V30 2564 N 246.66 -0.660514 6.89644 0
M  V30 2565 N 248.453 -0.709077 5.5761 0
M  V30 2566 H 240.604 0.757198 1.98445 0
M  V30 2567 H 242.867 0.278808 0.906074 0
M  V30 2568 H 242.573 0.454232 3.48754 0
M  V30 2569 H 242.447 -1.29513 3.54269 0
M  V30 2570 H 244.834 -1.45985 2.56461 0
M  V30 2571 H 244.915 0.307532 2.53945 0
M  V30 2572 H 244.559 0.337581 5.06777 0
M  V30 2573 H 244.489 -1.44256 5.06456 0
M  V30 2574 H 246.98 -0.641146 3.72421 0
M  V30 2575 H 247.293 -0.690616 7.69708 0
M  V30 2576 H 245.638 -0.628012 6.92157 0
M  V30 2577 H 248.829 -0.711019 4.62668 0
M  V30 2578 H 249.002 -0.733804 6.43832 0
M  V30 2579 N 242.408 -1.52605 -0.393616 0
M  V30 2580 C 243.633 -1.71592 -1.16495 0
M  V30 2581 C 244.058 -0.43133 -1.83088 0
M  V30 2582 O 243.416 0.612523 -1.7064 0
M  V30 2583 C 243.464 -2.86318 -2.19213 0
M  V30 2584 O 242.568 -2.52969 -3.257 0
M  V30 2585 H 241.909 -0.570734 -0.33935 0
M  V30 2586 H 244.439 -1.99377 -0.459324 0
M  V30 2587 H 244.449 -3.1168 -2.63286 0
M  V30 2588 H 243.124 -3.79511 -1.7013 0
M  V30 2589 H 241.701 -2.38332 -2.86797 0
M  V30 2590 N 243.887 0.651787 -1.4349 0
M  V30 2591 C 244.819 1.77725 -1.44729 0
M  V30 2592 C 245.832 1.59141 -0.343231 0
M  V30 2593 O 247.021 1.67835 -0.607751 0
M  V30 2594 C 244.121 3.15172 -1.24579 0
M  V30 2595 C 243.294 3.60402 -2.47849 0
M  V30 2596 C 242.353 4.76656 -2.22902 0
M  V30 2597 O 241.379 4.86022 -2.96263 0
M  V30 2598 N 242.581 5.66958 -1.24656 0
M  V30 2599 H 245.346 1.77141 -2.41746 0
M  V30 2600 H 242.907 0.835678 -1.38665 0
M  V30 2601 H 244.899 3.90634 -1.0577 0
M  V30 2602 H 243.469 3.1052 -0.360015 0
M  V30 2603 H 242.689 2.75369 -2.82073 0
M  V30 2604 H 243.977 3.87368 -3.29884 0
M  V30 2605 H 243.375 5.62065 -0.640265 0
M  V30 2606 H 241.932 6.42135 -1.1183 0
M  V30 2607 N 245.365 1.30045 0.890287 0
M  V30 2608 C 246.59 1.21598 1.68014 0
M  V30 2609 C 247.015 -0.218678 1.86825 0
M  V30 2610 O 246.373 -1.15756 1.39536 0
M  V30 2611 C 246.421 1.94434 3.03691 0
M  V30 2612 O 245.525 1.2678 3.92429 0
M  V30 2613 H 244.866 0.420856 0.513592 0
M  V30 2614 H 247.396 1.71775 1.11151 0
M  V30 2615 H 247.406 2.03251 3.5377 0
M  V30 2616 H 246.081 2.98777 2.89318 0
M  V30 2617 H 244.658 1.26282 3.50866 0
M  V30 2618 N 246.843 -1.10192 1.12674 0
M  V30 2619 C 247.806 -2.14786 0.799979 0
M  V30 2620 C 248.806 -1.59711 -0.18685 0
M  V30 2621 O 249.996 -1.74156 0.0392558 0
M  V30 2622 C 247.128 -3.40374 0.189228 0
M  V30 2623 H 248.321 -2.45203 1.72671 0
M  V30 2624 H 245.874 -1.25597 0.930326 0
M  V30 2625 H 246.609 -3.15577 -0.747107 0
M  V30 2626 H 246.394 -3.81637 0.899766 0
M  V30 2627 H 247.884 -4.17594 -0.0228143 0
M  V30 2628 N 248.321 -0.919034 -1.28029 0
M  V30 2629 C 249.737 -0.617972 -1.4715 0
M  V30 2630 C 249.937 0.835242 -1.83374 0
M  V30 2631 O 248.993 1.61388 -1.94191 0
M  V30 2632 C 250.306 -1.56041 -2.57044 0
M  V30 2633 C 251.854 -1.56769 -2.7091 0
M  V30 2634 C 252.329 -2.49688 -3.83953 0
M  V30 2635 N 253.82 -2.47845 -3.91314 0
M  V30 2636 C 254.555 -3.16437 -4.78179 0
M  V30 2637 N 254.051 -3.94376 -5.69596 0
M  V30 2638 N 255.844 -3.05498 -4.71834 0
M  V30 2639 H 247.995 -1.85866 -1.02798 0
M  V30 2640 H 250.258 -0.797506 -0.512531 0
M  V30 2641 H 249.964 -2.59671 -2.372 0
M  V30 2642 H 249.838 -1.29551 -3.54255 0
M  V30 2643 H 252.225 -0.538745 -2.90141 0
M  V30 2644 H 252.306 -1.87305 -1.74214 0
M  V30 2645 H 251.95 -3.52688 -3.65477 0
M  V30 2646 H 251.88 -2.16453 -4.80058 0
M  V30 2647 H 254.371 -1.91234 -3.25941 0
M  V30 2648 H 254.684 -4.43721 -6.32718 0
M  V30 2649 H 253.029 -3.98481 -5.69419 0
M  V30 2650 H 256.22 -2.44108 -3.99411 0
M  V30 2651 H 256.393 -3.59225 -5.39316 0
M  V30 2652 N 249.799 1.42003 -0.683588 0
M  V30 2653 C 251.027 2.05746 -0.218182 0
M  V30 2654 C 251.442 1.51396 1.12804 0
M  V30 2655 O 250.799 0.657303 1.70252 0
M  V30 2656 C 250.85 3.61171 -0.154131 0
M  V30 2657 O 250.571 4.13508 -1.44716 0
M  V30 2658 C 252.072 4.42042 0.333713 0
M  V30 2659 H 249.292 0.662888 -0.10402 0
M  V30 2660 H 251.836 1.81987 -0.9328 0
M  V30 2661 H 249.991 3.84012 0.511231 0
M  V30 2662 H 250.405 5.07453 -1.32632 0
M  V30 2663 H 251.879 5.51028 0.327423 0
M  V30 2664 H 252.356 4.17269 1.37053 0
M  V30 2665 H 252.962 4.24239 -0.300222 0
M  V30 2666 N 251.277 0.427512 1.51691 0
M  V30 2667 C 252.507 -0.140986 2.06118 0
M  V30 2668 C 252.915 -1.37854 1.29588 0
M  V30 2669 O 252.258 -1.80411 0.346036 0
M  V30 2670 C 252.32 -0.538276 3.55447 0
M  V30 2671 C 251.984 0.591095 4.53161 0
M  V30 2672 C 252.981 1.46027 4.98971 0
M  V30 2673 C 250.666 0.769028 4.96378 0
M  V30 2674 C 252.66 2.49216 5.8666 0
M  V30 2675 C 250.347 1.80421 5.83859 0
M  V30 2676 C 251.345 2.66417 6.28897 0
M  V30 2677 O 251.033 3.68159 7.14643 0
M  V30 2678 H 250.765 -0.0157455 0.675817 0
M  V30 2679 H 253.319 0.602495 1.96365 0
M  V30 2680 H 251.549 -1.33432 3.6295 0
M  V30 2681 H 253.238 -1.0368 3.92435 0
M  V30 2682 H 254.004 1.33429 4.66285 0
M  V30 2683 H 249.883 0.109273 4.6087 0
M  V30 2684 H 253.427 3.16372 6.21735 0
M  V30 2685 H 249.324 1.93042 6.15959 0
M  V30 2686 H 250.092 3.64622 7.32798 0
M  V30 2687 N 252.755 -1.56801 0.158532 0
M  V30 2688 C 253.685 -2.20347 -0.772609 0
M  V30 2689 C 254.666 -1.15518 -1.24859 0
M  V30 2690 O 255.851 -1.43902 -1.30406 0
M  V30 2691 C 252.981 -2.83417 -2.00729 0
M  V30 2692 C 251.935 -3.94174 -1.66765 0
M  V30 2693 C 251.261 -4.44233 -2.97592 0
M  V30 2694 C 252.561 -5.14392 -0.905447 0
M  V30 2695 H 254.255 -2.98413 -0.242959 0
M  V30 2696 H 251.801 -1.43537 -0.115419 0
M  V30 2697 H 253.754 -3.26543 -2.6636 0
M  V30 2698 H 252.478 -2.02701 -2.56086 0
M  V30 2699 H 251.137 -3.51684 -1.03508 0
M  V30 2700 H 250.785 -3.60325 -3.50963 0
M  V30 2701 H 250.485 -5.18945 -2.75626 0
M  V30 2702 H 252.009 -4.90037 -3.64274 0
M  V30 2703 H 253.423 -5.5429 -1.46408 0
M  V30 2704 H 251.82 -5.9494 -0.7853 0
M  V30 2705 H 252.89 -4.84795 0.100668 0
M  V30 2706 N 254.233 0.115231 -1.57178 0
M  V30 2707 C 255.143 1.15994 -2.03918 0
M  V30 2708 C 256.159 1.45103 -0.960268 0
M  V30 2709 O 257.335 1.56144 -1.27204 0
M  V30 2710 C 254.4 2.46568 -2.43732 0
M  V30 2711 C 253.461 2.24822 -3.65723 0
M  V30 2712 C 252.694 3.4917 -4.03629 0
M  V30 2713 O 252.917 4.56623 -3.41835 0
M  V30 2714 O 251.851 3.39949 -4.96708 0
M  V30 2715 H 255.677 0.793019 -2.93164 0
M  V30 2716 H 253.262 0.3263 -1.45793 0
M  V30 2717 H 255.144 3.23492 -2.70057 0
M  V30 2718 H 253.819 2.82726 -1.57631 0
M  V30 2719 H 252.726 1.45744 -3.44542 0
M  V30 2720 H 254.059 1.93566 -4.52541 0
M  V30 2721 N 255.711 1.52812 0.385517 0
M  V30 2722 C 257.127 1.4214 0.725829 0
M  V30 2723 C 257.327 0.544589 1.94001 0
M  V30 2724 O 256.383 0.0193693 2.52493 0
M  V30 2725 C 257.696 2.85042 0.957668 0
M  V30 2726 C 259.244 2.94543 1.05892 0
M  V30 2727 C 259.719 4.38464 1.32337 0
M  V30 2728 N 261.21 4.41804 1.39151 0
M  V30 2729 C 261.945 5.5025 1.61285 0
M  V30 2730 N 261.441 6.68775 1.80866 0
M  V30 2731 N 263.234 5.37798 1.63492 0
M  V30 2732 H 255.385 2.08338 -0.413383 0
M  V30 2733 H 257.648 0.940016 -0.122775 0
M  V30 2734 H 257.354 3.51431 0.137568 0
M  V30 2735 H 257.228 3.27505 1.87137 0
M  V30 2736 H 259.615 2.28321 1.86959 0
M  V30 2737 H 259.696 2.55504 0.123057 0
M  V30 2738 H 259.34 5.05254 0.517793 0
M  V30 2739 H 259.27 4.75059 2.27214 0
M  V30 2740 H 261.761 3.56377 1.25713 0
M  V30 2741 H 262.074 7.47197 1.97271 0
M  V30 2742 H 260.419 6.71797 1.78083 0
M  V30 2743 H 263.61 4.44171 1.47749 0
M  V30 2744 H 263.783 6.22382 1.80402 0
M  V30 2745 N 257.189 -0.644168 1.43834 0
M  V30 2746 C 258.139 -1.7501 1.46135 0
M  V30 2747 C 259.123 -1.57507 0.328685 0
M  V30 2748 O 260.315 -1.67465 0.5731 0
M  V30 2749 C 257.444 -3.13641 1.39585 0
M  V30 2750 C 256.53 -3.3666 2.57916 0
M  V30 2751 N 256.921 -3.30107 3.83227 0
M  V30 2752 C 255.219 -3.67411 2.52834 0
M  V30 2753 C 255.92 -3.53456 4.61999 0
M  V30 2754 N 254.896 -3.75705 3.9287 0
M  V30 2755 H 258.698 -1.68382 2.40883 0
M  V30 2756 H 256.212 -0.846169 1.38614 0
M  V30 2757 H 258.209 -3.92933 1.39317 0
M  V30 2758 H 256.869 -3.21444 0.45865 0
M  V30 2759 H 257.88 -3.09316 4.15384 0
M  V30 2760 H 254.557 -3.82275 1.67845 0
M  V30 2761 H 255.947 -3.54093 5.71024 0
M  V30 2762 N 258.668 -1.30515 -0.883378 0
M  V30 2763 C 259.601 -1.11359 -1.99184 0
M  V30 2764 C 260.579 -0.0207858 -1.62587 0
M  V30 2765 O 261.763 -0.174646 -1.87689 0
M  V30 2766 C 258.89 -0.69871 -3.31415 0
M  V30 2767 C 257.936 -1.79261 -3.86998 0
M  V30 2768 S 258.769 -3.39536 -4.14096 0
M  V30 2769 C 259.925 -2.99954 -5.49344 0
M  V30 2770 H 260.158 -2.052 -2.15128 0
M  V30 2771 H 257.691 -1.14847 -1.03196 0
M  V30 2772 H 259.649 -0.466075 -4.07846 0
M  V30 2773 H 258.31 0.220368 -3.13326 0
M  V30 2774 H 257.503 -1.45464 -4.82552 0
M  V30 2775 H 257.105 -1.97961 -3.17313 0
M  V30 2776 H 259.397 -2.48013 -6.30473 0
M  V30 2777 H 260.34 -3.9442 -5.8808 0
M  V30 2778 H 260.748 -2.37775 -5.1198 0
M  V30 2779 N 260.146 1.09593 -1.13257 0
M  V30 2780 C 261.371 1.8604 -0.916732 0
M  V30 2781 C 261.796 1.80504 0.529146 0
M  V30 2782 O 261.154 1.18127 1.37534 0
M  V30 2783 C 261.202 3.32017 -1.40703 0
M  V30 2784 O 260.306 4.08141 -0.591153 0
M  V30 2785 H 259.647 0.576943 -0.328683 0
M  V30 2786 H 262.177 1.38405 -1.50682 0
M  V30 2787 H 262.187 3.82865 -1.4099 0
M  V30 2788 H 260.862 3.35361 -2.45979 0
M  V30 2789 H 259.439 3.67084 -0.656005 0
M  V30 2790 N 261.624 0.925811 1.2754 0
M  V30 2791 C 262.534 0.428993 2.30644 0
M  V30 2792 C 263.55 -0.489387 1.66976 0
M  V30 2793 O 264.726 -0.372653 1.97922 0
M  V30 2794 C 261.791 -0.311967 3.45294 0
M  V30 2795 C 260.852 0.641098 4.24486 0
M  V30 2796 C 260.085 -0.0645955 5.33661 0
M  V30 2797 O 260.308 -1.28429 5.55754 0
M  V30 2798 O 259.242 0.606265 5.98839 0
M  V30 2799 H 263.068 1.28504 2.75173 0
M  V30 2800 H 260.653 0.691086 1.32455 0
M  V30 2801 H 262.535 -0.729972 4.15029 0
M  V30 2802 H 261.21 -1.14365 3.02824 0
M  V30 2803 H 260.117 1.10874 3.57292 0
M  V30 2804 H 261.45 1.43995 4.70666 0
M  V30 2805 N 263.102 -1.41638 0.69111 0
M  V30 2806 C 264.349 -2.01299 0.220193 0
M  V30 2807 C 264.677 -1.54715 -1.17871 0
M  V30 2808 O 263.932 -0.747193 -1.80874 0
M  V30 2809 C 264.231 -3.56714 0.221277 0
M  V30 2810 C 263.897 -4.22792 1.56709 0
M  V30 2811 C 262.559 -4.40557 1.93554 0
M  V30 2812 C 264.911 -4.59883 2.45268 0
M  V30 2813 C 262.239 -4.92688 3.18552 0
M  V30 2814 C 264.591 -5.13403 3.69595 0
M  V30 2815 C 263.255 -5.29379 4.06589 0
M  V30 2816 H 262.525 -0.736606 0.0805743 0
M  V30 2817 H 265.172 -1.69598 0.889319 0
M  V30 2818 H 263.477 -3.8818 -0.531391 0
M  V30 2819 H 265.174 -4.00678 -0.160547 0
M  V30 2820 H 261.764 -4.09336 1.2705 0
M  V30 2821 H 265.948 -4.45817 2.18084 0
M  V30 2822 H 261.204 -5.03242 3.47214 0
M  V30 2823 H 265.378 -5.41084 4.38407 0
M  V30 2824 H 263.005 -5.69537 5.03519 0
M  V30 2825 N 264.58 -0.43555 -1.51462 0
M  V30 2826 C 265.513 0.421989 -2.24264 0
M  V30 2827 C 266.491 1.02619 -1.26127 0
M  V30 2828 O 267.675 1.069 -1.55257 0
M  V30 2829 C 264.802 1.588 -2.99166 0
M  V30 2830 C 263.848 1.10465 -4.11946 0
M  V30 2831 S 264.681 0.048146 -5.35478 0
M  V30 2832 C 265.837 1.21887 -6.13917 0
M  V30 2833 H 266.07 -0.196102 -2.96653 0
M  V30 2834 H 263.603 -0.220054 -1.52824 0
M  V30 2835 H 265.561 2.25647 -3.42919 0
M  V30 2836 H 264.222 2.1775 -2.26371 0
M  V30 2837 H 263.415 1.97654 -4.63626 0
M  V30 2838 H 263.017 0.51445 -3.70445 0
M  V30 2839 H 265.309 2.13756 -6.42895 0
M  V30 2840 H 266.252 0.742076 -7.04201 0
M  V30 2841 H 266.66 1.45663 -5.45383 0
M  V30 2842 N 266.058 1.56714 -0.166846 0
M  V30 2843 C 266.968 2.21331 0.777791 0
M  V30 2844 C 267.984 1.20358 1.25658 0
M  V30 2845 O 269.16 1.53005 1.30964 0
M  V30 2846 C 266.225 2.83787 1.99163 0
M  V30 2847 C 265.286 3.99947 1.56016 0
M  V30 2848 C 264.519 4.59415 2.71613 0
M  V30 2849 O 264.742 4.17769 3.88362 0
M  V30 2850 O 263.676 5.49359 2.45945 0
M  V30 2851 H 267.502 3.02605 0.257636 0
M  V30 2852 H 265.087 1.49275 0.0611393 0
M  V30 2853 H 266.969 3.23405 2.70161 0
M  V30 2854 H 265.644 2.05513 2.50092 0
M  V30 2855 H 264.551 3.65007 0.819809 0
M  V30 2856 H 265.884 4.79801 1.09782 0
M  V30 2857 N 267.536 -0.106894 1.57237 0
M  V30 2858 C 268.776 -0.818277 1.87306 0
M  V30 2859 C 269.14 -1.76474 0.756371 0
M  V30 2860 O 270.341 -2.5186 0.939155 0
M  V30 2861 C 268.612 -1.53806 3.22612 0
M  V30 2862 S 270.171 -2.28935 3.74345 0
M  V30 2863 H 266.989 -0.272862 0.656557 0
M  V30 2864 H 269.591 -0.075988 1.95352 0
M  V30 2865 H 268.295 -0.834951 4.01817 0
M  V30 2866 H 267.826 -2.32049 3.17674 0
M  V30 2867 H 269.841 -3.54871 3.46815 0
M  V30 2868 N 269.014 -1.53014 -0.377408 0
M  V30 2869 C 269.962 -1.7927 -1.48206 0
M  V30 2870 C 270.956 -0.661195 -1.55963 0
M  V30 2871 O 272.162 -0.843908 -1.58991 0
M  V30 2872 H 268.537 -0.567425 -0.493491 0
M  V30 2873 H 270.508 -2.71753 -1.2326 0
M  V30 2874 C 269.257 -1.98894 -2.85196 0
M  V30 2875 H 268.58 -2.85395 -2.79981 0
M  V30 2876 H 270.02 -2.21249 -3.61698 0
M  V30 2877 C 268.479 -0.764691 -3.28107 0
M  V30 2878 O 269.009 0.0523226 -4.01666 0
M  V30 2879 N 267.215 -0.591493 -2.84517 0
M  V30 2880 H 266.762 -1.25749 -2.24822 0
M  V30 2881 H 266.72 0.226253 -3.13585 0
M  V30 2882 N 270.492 0.636531 -1.44174 0
M  V30 2883 C 271.422 1.76003 -1.53444 0
M  V30 2884 C 272.403 1.65619 -0.387841 0
M  V30 2885 O 273.588 1.84461 -0.607257 0
M  V30 2886 C 270.718 3.14511 -1.4731 0
M  V30 2887 C 269.672 3.39677 -2.60391 0
M  V30 2888 C 268.998 4.78159 -2.39308 0
M  V30 2889 C 270.298 3.32772 -4.02567 0
M  V30 2890 H 271.992 1.68501 -2.47483 0
M  V30 2891 H 269.538 0.809237 -1.19111 0
M  V30 2892 H 271.491 3.92878 -1.52397 0
M  V30 2893 H 270.215 3.22783 -0.49785 0
M  V30 2894 H 268.874 2.63688 -2.54684 0
M  V30 2895 H 268.522 4.83128 -1.39988 0
M  V30 2896 H 268.222 4.95956 -3.15122 0
M  V30 2897 H 269.746 5.58762 -2.46205 0
M  V30 2898 H 271.16 4.01051 -4.09672 0
M  V30 2899 H 269.557 3.62104 -4.7854 0
M  V30 2900 H 270.627 2.30669 -4.2652 0
M  V30 2901 N 271.97 1.30982 0.876444 0
M  V30 2902 C 272.918 1.18006 2.00443 0
M  V30 2903 C 273.912 0.0898871 1.69161 0
M  V30 2904 O 275.118 0.251333 1.78237 0
M  V30 2905 H 271.493 0.365196 0.65737 0
M  V30 2906 H 273.464 2.13453 2.0852 0
M  V30 2907 C 272.213 0.897521 3.35916 0
M  V30 2908 H 271.536 1.7285 3.60504 0
M  V30 2909 H 272.976 0.846874 4.15456 0
M  V30 2910 C 271.435 -0.399674 3.34521 0
M  V30 2911 O 271.965 -1.41852 3.7582 0
M  V30 2912 N 270.171 -0.413893 2.87637 0
M  V30 2913 H 269.718 0.41571 2.54224 0
M  V30 2914 H 269.676 -1.28175 2.87086 0
M  V30 2915 N 273.449 -1.08991 1.13837 0
M  V30 2916 C 274.359 -2.19301 0.833333 0
M  V30 2917 C 275.375 -1.73026 -0.183847 0
M  V30 2918 O 276.551 -2.01395 -0.0138092 0
M  V30 2919 C 273.616 -3.45323 0.308651 0
M  V30 2920 C 272.677 -4.06255 1.38764 0
M  V30 2921 C 271.91 -5.26262 0.887896 0
M  V30 2922 O 272.133 -5.69747 -0.27287 0
M  V30 2923 O 271.067 -5.78435 1.66421 0
M  V30 2924 H 274.893 -2.47854 1.75506 0
M  V30 2925 H 272.478 -1.18012 0.916166 0
M  V30 2926 H 274.36 -4.21394 0.0216739 0
M  V30 2927 H 273.035 -3.18362 -0.585431 0
M  V30 2928 H 271.942 -3.318 1.72799 0
M  V30 2929 H 273.275 -4.37452 2.25602 0
M  V30 2930 N 274.927 -0.932562 -1.27047 0
M  V30 2931 C 275.857 -0.452902 -2.29066 0
M  V30 2932 C 276.838 0.489338 -1.62909 0
M  V30 2933 O 278.023 0.393046 -1.90181 0
M  V30 2934 C 275.153 0.290698 -3.46081 0
M  V30 2935 C 274.107 -0.564168 -4.24265 0
M  V30 2936 C 273.433 0.308886 -5.33807 0
M  V30 2937 C 274.733 -1.83112 -4.89149 0
M  V30 2938 H 276.427 -1.30552 -2.69437 0
M  V30 2939 H 273.973 -0.629201 -1.29526 0
M  V30 2940 H 275.926 0.637233 -4.16554 0
M  V30 2941 H 274.65 1.17738 -3.0464 0
M  V30 2942 H 273.309 -0.893477 -3.55545 0
M  V30 2943 H 272.957 1.19467 -4.88607 0
M  V30 2944 H 272.657 -0.259633 -5.87026 0
M  V30 2945 H 274.181 0.650884 -6.07121 0
M  V30 2946 H 275.595 -1.55236 -5.51883 0
M  V30 2947 H 273.992 -2.34353 -5.52448 0
M  V30 2948 H 275.062 -2.54772 -4.12576 0
M  V30 2949 N 276.405 1.4127 -0.698611 0
M  V30 2950 C 277.651 2.01478 -0.231207 0
M  V30 2951 C 277.984 1.55215 1.16713 0
M  V30 2952 O 277.259 0.764672 1.78838 0
M  V30 2953 C 277.542 3.58912 -0.292281 0
M  V30 2954 C 277.395 4.15293 -1.72778 0
M  V30 2955 C 278.714 4.38736 0.346194 0
M  V30 2956 H 275.833 0.732025 -0.0854878 0
M  V30 2957 H 278.475 1.67977 -0.887906 0
M  V30 2958 H 276.625 3.87582 0.26686 0
M  V30 2959 H 278.297 3.97486 -2.341 0
M  V30 2960 H 276.54 3.7022 -2.26096 0
M  V30 2961 H 277.211 5.24452 -1.72202 0
M  V30 2962 H 279.687 4.15897 -0.130035 0
M  V30 2963 H 278.563 5.48221 0.272932 0
M  V30 2964 H 278.824 4.18425 1.42734 0
M  V30 2965 N 277.883 0.443576 1.51229 0
M  V30 2966 C 278.83 -0.364716 2.279 0
M  V30 2967 C 279.8 -1.0114 1.31757 0
M  V30 2968 O 280.985 -1.02912 1.60667 0
M  V30 2969 C 278.125 -1.45644 3.12861 0
M  V30 2970 C 277.238 -0.827269 4.24005 0
M  V30 2971 C 276.373 -1.89456 4.96266 0
M  V30 2972 C 275.412 -1.24416 5.99322 0
M  V30 2973 N 274.549 -2.25309 6.64966 0
M  V30 2974 H 279.389 0.295464 2.96532 0
M  V30 2975 H 276.926 0.157554 1.46254 0
M  V30 2976 H 278.884 -2.10076 3.6045 0
M  V30 2977 H 277.514 -2.08616 2.46331 0
M  V30 2978 H 276.566 -0.0710839 3.80334 0
M  V30 2979 H 277.878 -0.312481 4.9782 0
M  V30 2980 H 277.032 -2.61535 5.47434 0
M  V30 2981 H 275.771 -2.4431 4.22095 0
M  V30 2982 H 274.776 -0.508868 5.4744 0
M  V30 2983 H 276.001 -0.702882 6.75453 0
M  V30 2984 H 273.947 -2.79231 5.93604 0
M  V30 2985 H 273.864 -1.78739 7.34567 0
M  V30 2986 H 275.132 -2.96853 7.20763 0
M  V30 2987 N 279.361 -1.56624 0.175154 0
M  V30 2988 C 280.311 -2.14747 -0.766004 0
M  V30 2989 C 281.295 -1.08275 -1.19018 0
M  V30 2990 O 282.487 -1.34388 -1.15191 0
M  V30 2991 C 279.616 -2.79478 -1.99366 0
M  V30 2992 C 278.702 -3.93114 -1.5913 0
M  V30 2993 N 279.093 -4.97752 -0.89872 0
M  V30 2994 C 277.391 -4.04345 -1.88204 0
M  V30 2995 C 278.092 -5.77473 -0.700012 0
M  V30 2996 N 277.068 -5.29207 -1.24263 0
M  V30 2997 H 280.87 -2.93015 -0.22793 0
M  V30 2998 H 278.384 -1.6238 -0.0253843 0
M  V30 2999 H 280.381 -3.19498 -2.67818 0
M  V30 3000 H 279.041 -2.02692 -2.53665 0
M  V30 3001 H 280.052 -5.14903 -0.556347 0
M  V30 3002 H 276.729 -3.38667 -2.44153 0
M  V30 3003 H 278.119 -6.71728 -0.152047 0
M  V30 3004 N 280.839 0.0985539 -1.57292 0
M  V30 3005 C 282.087 0.801092 -1.85545 0
M  V30 3006 C 282.408 1.79438 -0.763353 0
M  V30 3007 O 281.678 1.94763 0.21073 0
M  V30 3008 H 280.258 0.29884 -0.684619 0
M  V30 3009 H 282.92 0.0810064 -1.94732 0
M  V30 3010 H 282.016 1.3338 -2.82163 0
M  V30 3011 N 282.317 1.53212 0.369288 0
M  V30 3012 C 283.247 1.82365 1.45826 0
M  V30 3013 C 284.228 0.676907 1.56051 0
M  V30 3014 O 285.413 0.926401 1.70679 0
M  V30 3015 C 282.543 2.01023 2.83208 0
M  V30 3016 C 281.497 3.1678 2.8781 0
M  V30 3017 C 280.823 3.20724 4.27832 0
M  V30 3018 C 282.123 4.55447 2.55667 0
M  V30 3019 H 283.817 2.73559 1.21678 0
M  V30 3020 H 281.363 1.3163 0.583911 0
M  V30 3021 H 283.316 2.20001 3.59413 0
M  V30 3022 H 282.04 1.06536 3.08736 0
M  V30 3023 H 280.699 2.97616 2.14056 0
M  V30 3024 H 280.347 2.23882 4.50429 0
M  V30 3025 H 280.047 3.98496 4.31827 0
M  V30 3026 H 281.571 3.41881 5.05915 0
M  V30 3027 H 282.985 4.74611 3.21586 0
M  V30 3028 H 281.382 5.35432 2.70984 0
M  V30 3029 H 282.452 4.60812 1.5093 0
M  V30 3030 N 283.795 -0.628877 1.44509 0
M  V30 3031 C 285.211 -0.947305 1.28446 0
M  V30 3032 C 285.411 -2.00275 0.221872 0
M  V30 3033 O 284.467 -2.49447 -0.391471 0
M  V30 3034 C 285.78 -1.40843 2.65676 0
M  V30 3035 C 287.328 -1.52379 2.73404 0
M  V30 3036 C 287.803 -2.01875 4.11109 0
M  V30 3037 N 289.294 -2.09142 4.13296 0
M  V30 3038 C 290.029 -2.48615 5.16699 0
M  V30 3039 N 289.525 -2.87209 6.30462 0
M  V30 3040 N 291.318 -2.48768 5.04054 0
M  V30 3041 H 283.469 0.0690977 2.12288 0
M  V30 3042 H 285.732 -0.0317164 0.947469 0
M  V30 3043 H 285.438 -0.707206 3.44516 0
M  V30 3044 H 285.312 -2.37902 2.92716 0
M  V30 3045 H 287.699 -2.21598 1.9488 0
M  V30 3046 H 287.78 -0.536898 2.50102 0
M  V30 3047 H 287.424 -1.3325 4.90109 0
M  V30 3048 H 287.354 -3.0144 4.31789 0
M  V30 3049 H 289.845 -1.81991 3.31191 0
M  V30 3050 H 290.158 -3.16149 7.05174 0
M  V30 3051 H 288.503 -2.84955 6.33897 0
M  V30 3052 H 291.694 -2.18009 4.14234 0
M  V30 3053 H 291.867 -2.79207 5.84763 0
M  V30 3054 N 285.273 -1.31445 -0.869486 0
M  V30 3055 C 286.236 -1.19094 -1.9583 0
M  V30 3056 C 287.236 -0.117906 -1.60367 0
M  V30 3057 O 288.426 -0.367208 -1.70286 0
M  V30 3058 C 285.558 -0.828165 -3.30688 0
M  V30 3059 H 286.751 -2.15842 -2.08212 0
M  V30 3060 H 284.304 -1.15063 -1.05784 0
M  V30 3061 H 285.039 0.138142 -3.24006 0
M  V30 3062 H 284.824 -1.6038 -3.578 0
M  V30 3063 H 286.314 -0.765658 -4.10521 0
M  V30 3064 N 286.751 1.08385 -1.14413 0
M  V30 3065 C 287.681 2.17321 -0.854044 0
M  V30 3066 C 288.662 1.69024 0.191049 0
M  V30 3067 O 289.847 1.94141 0.0476779 0
M  V30 3068 C 286.977 3.45719 -0.330983 0
M  V30 3069 C 285.931 4.07409 -1.31155 0
M  V30 3070 C 285.257 5.30762 -0.64778 0
M  V30 3071 C 286.557 4.48665 -2.67388 0
M  V30 3072 H 288.251 2.41845 -1.76498 0
M  V30 3073 H 285.797 1.16233 -0.850051 0
M  V30 3074 H 287.75 4.21241 -0.115645 0
M  V30 3075 H 286.474 3.2075 0.615381 0
M  V30 3076 H 285.133 3.33919 -1.51306 0
M  V30 3077 H 284.781 5.02078 0.304398 0
M  V30 3078 H 284.481 5.72992 -1.30207 0
M  V30 3079 H 286.005 6.08998 -0.441972 0
M  V30 3080 H 287.419 5.15364 -2.51143 0
M  V30 3081 H 285.816 5.01814 -3.29093 0
M  V30 3082 H 286.886 3.60543 -3.24248 0
M  V30 3083 N 288.23 0.939286 1.26551 0
M  V30 3084 C 289.646 0.641304 1.46149 0
M  V30 3085 C 289.846 -0.805964 1.84679 0
M  V30 3086 O 288.902 -1.58278 1.96734 0
M  V30 3087 C 290.215 1.6011 2.54529 0
M  V30 3088 C 291.763 1.6106 2.68382 0
M  V30 3089 C 292.238 2.55765 3.79932 0
M  V30 3090 N 293.729 2.5404 3.87322 0
M  V30 3091 C 294.464 3.24004 4.73085 0
M  V30 3092 N 293.96 4.03388 5.63249 0
M  V30 3093 N 295.753 3.12965 4.66914 0
M  V30 3094 H 287.904 1.87478 0.998285 0
M  V30 3095 H 290.167 0.805559 0.499779 0
M  V30 3096 H 289.873 2.63412 2.33039 0
M  V30 3097 H 289.747 1.35171 3.52149 0
M  V30 3098 H 292.134 0.584835 2.89247 0
M  V30 3099 H 292.215 1.90053 1.71212 0
M  V30 3100 H 291.859 3.58458 3.5982 0
M  V30 3101 H 291.789 2.24063 4.76554 0
M  V30 3102 H 294.28 1.96396 3.22858 0
M  V30 3103 H 294.593 4.5373 6.25579 0
M  V30 3104 H 292.938 4.07489 5.63008 0
M  V30 3105 H 296.129 2.50432 3.95476 0
M  V30 3106 H 296.302 3.67759 5.33533 0
M  V30 3107 N 289.708 -1.40897 0.706093 0
M  V30 3108 C 290.618 -2.3455 0.0482286 0
M  V30 3109 C 291.634 -1.56796 -0.754396 0
M  V30 3110 O 292.81 -1.89228 -0.689538 0
M  V30 3111 C 289.875 -3.35625 -0.869303 0
M  V30 3112 C 288.936 -4.29261 -0.0576994 0
M  V30 3113 C 288.169 -5.25508 -0.931531 0
M  V30 3114 O 288.392 -5.27472 -2.17092 0
M  V30 3115 O 287.326 -6.00727 -0.375587 0
M  V30 3116 H 291.152 -2.92407 0.820476 0
M  V30 3117 H 288.737 -1.4193 0.4665 0
M  V30 3118 H 290.619 -3.97635 -1.39514 0
M  V30 3119 H 289.294 -2.80196 -1.62086 0
M  V30 3120 H 288.201 -3.70566 0.512988 0
M  V30 3121 H 289.534 -4.87817 0.655426 0
M  V30 3122 N 291.186 -0.45159 -1.50991 0
M  V30 3123 C 292.414 0.108334 -2.06616 0
M  V30 3124 C 292.829 1.35224 -1.31757 0
M  V30 3125 O 292.186 1.78475 -0.381174 0
M  V30 3126 C 292.237 0.41619 -3.59096 0
M  V30 3127 O 291.958 -0.778361 -4.3113 0
M  V30 3128 C 293.459 1.02523 -4.31282 0
M  V30 3129 H 290.679 0.00159995 -0.670998 0
M  V30 3130 H 293.223 -0.634771 -1.94399 0
M  V30 3131 H 291.378 1.10921 -3.71181 0
M  V30 3132 H 291.792 -0.511181 -5.22003 0
M  V30 3133 H 293.266 1.19053 -5.39009 0
M  V30 3134 H 293.743 2.01013 -3.905 0
M  V30 3135 H 294.349 0.371173 -4.23677 0
M  V30 3136 N 292.664 1.56529 -0.183458 0
M  V30 3137 C 293.594 2.21549 0.737456 0
M  V30 3138 C 294.575 1.17489 1.23005 0
M  V30 3139 O 295.76 1.45959 1.281 0
M  V30 3140 C 292.89 2.86575 1.96194 0
M  V30 3141 C 291.844 3.96778 1.60473 0
M  V30 3142 C 291.17 4.48911 2.90487 0
M  V30 3143 C 292.47 5.15767 0.823497 0
M  V30 3144 H 294.164 2.98761 0.195453 0
M  V30 3145 H 291.71 1.43702 0.0925686 0
M  V30 3146 H 293.663 3.30739 2.61131 0
M  V30 3147 H 292.387 2.06749 2.52828 0
M  V30 3148 H 291.046 3.53286 0.978997 0
M  V30 3149 H 290.694 3.65862 3.45186 0
M  V30 3150 H 290.394 5.23265 2.67335 0
M  V30 3151 H 291.918 4.95771 3.56432 0
M  V30 3152 H 293.332 5.56549 1.37571 0
M  V30 3153 H 291.729 5.96114 0.690551 0
M  V30 3154 H 292.799 4.84574 -0.177782 0
M  V30 3155 N 294.142 -0.090211 1.57342 0
M  V30 3156 C 295.553 -0.644173 1.75235 0
M  V30 3157 C 295.904 -1.78865 0.806335 0
M  V30 3158 O 295.029 -2.16395 -0.0140128 0
M  V30 3159 C 295.624 -1.17532 3.1776 0
M  V30 3160 C 294.183 -1.67531 3.37061 0
M  V30 3161 C 293.33 -0.58693 2.71017 0
M  V30 3162 H 296.281 0.135884 1.58117 0
M  V30 3163 H 296.302 -2.04455 3.20902 0
M  V30 3164 H 295.814 -0.342138 3.86589 0
M  V30 3165 H 293.915 -2.53234 2.73319 0
M  V30 3166 H 294.028 -1.76493 4.45406 0
M  V30 3167 H 292.392 -1.02756 2.33052 0
M  V30 3168 H 293.175 0.235758 3.4249 0
M  V30 3169 N 295.62 -1.53406 -0.361157 0
M  V30 3170 C 296.583 -1.79479 -1.42548 0
M  V30 3171 C 297.583 -0.665327 -1.4639 0
M  V30 3172 O 298.773 -0.933549 -1.47073 0
M  V30 3173 C 295.905 -1.92087 -2.8163 0
M  V30 3174 H 297.098 -2.74538 -1.20701 0
M  V30 3175 H 294.651 -1.4455 -0.594546 0
M  V30 3176 H 295.386 -0.991099 -3.08784 0
M  V30 3177 H 295.171 -2.74241 -2.80239 0
M  V30 3178 H 296.661 -2.13836 -3.58697 0
M  V30 3179 N 297.098 0.621204 -1.44841 0
M  V30 3180 C 298.008 1.7612 -1.5498 0
M  V30 3181 C 299.024 1.68477 -0.434927 0
M  V30 3182 O 300.2 1.89076 -0.693693 0
M  V30 3183 C 297.265 3.1254 -1.50065 0
M  V30 3184 C 296.326 3.31741 -2.72482 0
M  V30 3185 C 295.559 4.61653 -2.67792 0
M  V30 3186 O 295.782 5.431 -1.74352 0
M  V30 3187 O 294.716 4.83271 -3.58794 0
M  V30 3188 H 298.542 1.70518 -2.51311 0
M  V30 3189 H 296.127 0.783643 -1.27198 0
M  V30 3190 H 298.009 3.93844 -1.49882 0
M  V30 3191 H 296.684 3.18663 -0.568806 0
M  V30 3192 H 295.591 2.50077 -2.7823 0
M  V30 3193 H 296.924 3.30486 -3.64746 0
M  V30 3194 N 298.576 1.31904 0.862503 0
M  V30 3195 C 299.508 1.16005 1.97675 0
M  V30 3196 C 300.521 0.0971234 1.6251 0
M  V30 3197 O 301.71 0.345337 1.75128 0
M  V30 3198 C 298.81 0.751791 3.30456 0
M  V30 3199 C 297.983 1.90133 3.93914 0
M  V30 3200 C 297.042 1.4779 5.05019 0
M  V30 3201 O 296.068 2.18872 5.25437 0
M  V30 3202 N 297.27 0.369491 5.79323 0
M  V30 3203 H 300.035 2.11982 2.11857 0
M  V30 3204 H 297.596 1.24337 1.03691 0
M  V30 3205 H 299.588 0.451084 4.02178 0
M  V30 3206 H 298.158 -0.116593 3.12382 0
M  V30 3207 H 297.378 2.36896 3.15078 0
M  V30 3208 H 298.666 2.67111 4.33047 0
M  V30 3209 H 298.064 -0.222299 5.65263 0
M  V30 3210 H 296.621 0.128354 6.51674 0
M  V30 3211 N 300.054 -1.07777 1.14986 0
M  V30 3212 C 301.331 -1.7699 0.832695 0
M  V30 3213 C 301.711 -2.001 -0.672561 0
M  V30 3214 O 301.059 -1.61598 -1.6155 0
M  V30 3215 C 301.269 -3.08139 1.63863 0
M  V30 3216 C 302.617 -3.8256 1.84208 0
M  V30 3217 O 303.641 -3.17939 1.60603 0
M  V30 3218 O 302.5 -4.98612 2.23714 0
M  V30 3219 H 299.594 -0.768389 0.305791 0
M  V30 3220 H 302.14 -1.14182 1.25541 0
M  V30 3221 H 300.912 -2.86909 2.6608 0
M  V30 3222 H 300.535 -3.78678 1.21197 0
M  V30 3223 N 301.532 -0.945985 -1.26051 0
M  V30 3224 C 302.462 -0.477172 -2.28572 0
M  V30 3225 C 303.443 0.472032 -1.63419 0
M  V30 3226 O 304.628 0.372853 -1.90587 0
M  V30 3227 C 301.758 0.253975 -3.4637 0
M  V30 3228 C 300.712 -0.609135 -4.23643 0
M  V30 3229 C 300.038 0.252252 -5.34105 0
M  V30 3230 C 301.338 -1.8829 -4.8718 0
M  V30 3231 H 303.032 -1.33402 -2.68038 0
M  V30 3232 H 300.578 -0.642904 -1.28852 0
M  V30 3233 H 302.531 0.593016 -4.17207 0
M  V30 3234 H 301.255 1.145 -3.05871 0
M  V30 3235 H 299.914 -0.931138 -3.54578 0
M  V30 3236 H 299.562 1.14278 -4.89846 0
M  V30 3237 H 299.262 -0.32188 -5.86718 0
M  V30 3238 H 300.786 0.586454 -6.07777 0
M  V30 3239 H 302.2 -1.61081 -5.50205 0
M  V30 3240 H 300.597 -2.40199 -5.49931 0
M  V30 3241 H 301.667 -2.59134 -4.09851 0
M  V30 3242 N 303.011 1.40521 -0.713556 0
M  V30 3243 C 304.239 2.05237 -0.261775 0
M  V30 3244 C 304.654 1.53755 1.09567 0
M  V30 3245 O 304.011 0.693268 1.6882 0
M  V30 3246 C 304.062 3.60763 -0.230706 0
M  V30 3247 O 303.783 4.10345 -1.53455 0
M  V30 3248 C 305.284 4.42651 0.239874 0
M  V30 3249 H 302.504 0.660533 -0.118057 0
M  V30 3250 H 305.048 1.79967 -0.971192 0
M  V30 3251 H 303.203 3.8501 0.429661 0
M  V30 3252 H 303.617 5.04526 -1.43366 0
M  V30 3253 H 305.091 5.51599 0.210468 0
M  V30 3254 H 305.568 4.20082 1.28171 0
M  V30 3255 H 306.174 4.23507 -0.390142 0
M  V30 3256 N 304.489 0.459591 1.5075 0
M  V30 3257 C 305.717 -0.0973749 2.06671 0
M  V30 3258 C 306.132 -1.34524 1.32472 0
M  V30 3259 O 305.489 -1.7827 0.390634 0
M  V30 3260 C 305.54 -0.39714 3.59312 0
M  V30 3261 O 305.261 0.801214 4.30711 0
M  V30 3262 C 306.762 -1.00234 4.31819 0
M  V30 3263 H 303.982 0.00195854 0.670997 0
M  V30 3264 H 306.526 0.645072 1.94059 0
M  V30 3265 H 304.681 -1.08951 3.71764 0
M  V30 3266 H 305.095 0.538857 5.21725 0
M  V30 3267 H 306.569 -1.16193 5.39632 0
M  V30 3268 H 307.046 -1.98939 3.91561 0
M  V30 3269 H 307.652 -0.348699 4.23868 0
M  V30 3270 N 305.967 -1.56429 0.191757 0
M  V30 3271 C 306.914 -2.18936 -0.730454 0
M  V30 3272 C 307.884 -1.13557 -1.21219 0
M  V30 3273 O 309.069 -1.41794 -1.27668 0
M  V30 3274 C 306.209 -2.85013 -1.9458 0
M  V30 3275 C 305.322 -4.04909 -1.50574 0
M  V30 3276 C 304.457 -4.58853 -2.67634 0
M  V30 3277 C 303.496 -5.71114 -2.20217 0
M  V30 3278 N 302.633 -6.19478 -3.30442 0
M  V30 3279 H 307.473 -2.97389 -0.190664 0
M  V30 3280 H 305.01 -1.46869 -0.0823694 0
M  V30 3281 H 306.968 -3.21492 -2.65893 0
M  V30 3282 H 305.598 -2.09129 -2.45896 0
M  V30 3283 H 304.65 -3.74115 -0.688605 0
M  V30 3284 H 305.962 -4.86113 -1.11784 0
M  V30 3285 H 305.116 -4.97619 -3.47074 0
M  V30 3286 H 303.855 -3.76749 -3.09696 0
M  V30 3287 H 302.86 -5.31879 -1.3923 0
M  V30 3288 H 304.085 -6.55033 -1.79189 0
M  V30 3289 H 302.031 -5.40297 -3.72041 0
M  V30 3290 H 301.948 -6.95725 -2.9581 0
M  V30 3291 H 303.216 -6.62898 -4.10106 0
M  V30 3292 N 307.445 0.0818655 -1.57387 0
M  V30 3293 C 308.393 1.11712 -2.04018 0
M  V30 3294 C 309.387 1.40683 -0.94364 0
M  V30 3295 O 310.593 1.40209 -1.12878 0
M  V30 3296 H 306.968 0.377542 -0.650358 0
M  V30 3297 H 308.939 0.697614 -2.90131 0
M  V30 3298 C 307.688 2.42537 -2.49141 0
M  V30 3299 H 307.011 2.21092 -3.33104 0
M  V30 3300 H 308.451 3.13446 -2.85531 0
M  V30 3301 C 306.91 3.0778 -1.37014 0
M  V30 3302 O 307.44 3.95436 -0.706621 0
M  V30 3303 N 305.646 2.68242 -1.11779 0
M  V30 3304 H 305.193 1.97052 -1.65917 0
M  V30 3305 H 305.151 3.1222 -0.369594 0
M  V30 3306 N 308.923 1.53595 0.353017 0
M  V30 3307 C 310.169 1.70638 1.09593 0
M  V30 3308 C 310.502 0.463286 1.88593 0
M  V30 3309 O 309.777 -0.539597 1.86865 0
M  V30 3310 C 310.06 2.96406 2.04489 0
M  V30 3311 C 309.913 4.30901 1.29014 0
M  V30 3312 C 311.232 3.17812 3.0444 0
M  V30 3313 H 308.351 0.620913 0.397034 0
M  V30 3314 H 310.993 1.86254 0.375446 0
M  V30 3315 H 309.143 2.83223 2.65927 0
M  V30 3316 H 310.815 4.55917 0.702638 0
M  V30 3317 H 309.058 4.29741 0.592071 0
M  V30 3318 H 309.729 5.1506 1.98537 0
M  V30 3319 H 312.205 3.30263 2.53112 0
M  V30 3320 H 311.081 4.07223 3.6805 0
M  V30 3321 H 311.342 2.33669 3.75301 0
M  V30 3322 N 310.401 -0.613514 1.45168 0
M  V30 3323 C 311.626 -1.40437 1.52618 0
M  V30 3324 C 312.051 -1.87438 0.157707 0
M  V30 3325 O 311.409 -1.59791 -0.856537 0
M  V30 3326 C 311.457 -2.58894 2.51011 0
M  V30 3327 O 310.561 -3.59326 2.02382 0
M  V30 3328 H 309.902 -0.419506 0.514695 0
M  V30 3329 H 312.432 -0.747215 1.90467 0
M  V30 3330 H 312.442 -3.06214 2.69624 0
M  V30 3331 H 311.117 -2.24032 3.50403 0
M  V30 3332 H 309.694 -3.18695 1.93618 0
M  V30 3333 N 311.879 -1.3236 -0.855495 0
M  V30 3334 C 313.128 -1.22226 -1.60448 0
M  V30 3335 C 313.441 0.214733 -1.94418 0
M  V30 3336 O 314.647 0.437917 -2.67945 0
M  V30 3337 C 313.103 -2.14063 -2.89318 0
M  V30 3338 C 312.711 -3.62839 -2.62777 0
M  V30 3339 C 314.455 -2.12764 -3.67331 0
M  V30 3340 C 312.362 -4.4664 -3.87643 0
M  V30 3341 H 311.292 -0.453904 -0.602069 0
M  V30 3342 H 313.943 -1.57314 -0.944698 0
M  V30 3343 H 312.325 -1.71889 -3.5675 0
M  V30 3344 H 313.499 -4.1335 -2.03662 0
M  V30 3345 H 311.814 -3.66261 -1.98096 0
M  V30 3346 H 314.411 -2.72611 -4.59987 0
M  V30 3347 H 314.754 -1.11841 -4.00995 0
M  V30 3348 H 315.287 -2.53214 -3.06802 0
M  V30 3349 H 312.026 -5.48373 -3.5912 0
M  V30 3350 H 311.546 -4.0088 -4.46156 0
M  V30 3351 H 313.225 -4.59597 -4.55389 0
M  V30 3352 N 313.357 1.07166 -1.15556 0
M  V30 3353 C 314.605 1.79443 -0.929764 0
M  V30 3354 C 314.926 1.87246 0.544414 0
M  V30 3355 O 314.196 1.37473 1.39564 0
M  V30 3356 H 312.776 0.664625 -0.341003 0
M  V30 3357 H 315.438 1.29499 -1.45657 0
M  V30 3358 H 314.534 2.81832 -1.34079 0
M  V30 3359 N 314.835 0.952656 1.25548 0
M  V30 3360 C 316.084 0.602053 1.92505 0
M  V30 3361 C 316.397 -0.864663 1.75451 0
M  V30 3362 O 317.603 -1.32514 2.36965 0
M  V30 3363 C 316.059 1.02607 3.44963 0
M  V30 3364 C 315.667 2.51519 3.70732 0
M  V30 3365 C 317.411 0.747905 4.1786 0
M  V30 3366 C 315.318 2.87732 5.16686 0
M  V30 3367 H 314.248 0.22146 0.720744 0
M  V30 3368 H 316.899 1.15684 1.42441 0
M  V30 3369 H 315.281 0.399712 3.93978 0
M  V30 3370 H 316.455 3.19157 3.32378 0
M  V30 3371 H 314.77 2.76786 3.11092 0
M  V30 3372 H 317.367 0.994647 5.25367 0
M  V30 3373 H 317.71 -0.315629 4.15102 0
M  V30 3374 H 318.243 1.33452 3.74747 0
M  V30 3375 H 314.982 3.93095 5.24554 0
M  V30 3376 H 314.502 2.24765 5.56094 0
M  V30 3377 H 316.181 2.76817 5.84792 0
M  V30 3378 N 316.313 -1.40141 0.720998 0
M  V30 3379 C 317.559 -2.01084 0.263231 0
M  V30 3380 C 317.892 -1.57052 -1.14229 0
M  V30 3381 O 317.167 -0.793027 -1.77599 0
M  V30 3382 C 317.45 -3.58401 0.349344 0
M  V30 3383 C 317.303 -4.12491 1.79363 0
M  V30 3384 C 318.622 -4.39231 -0.276351 0
M  V30 3385 H 315.741 -0.730572 0.0971228 0
M  V30 3386 H 318.383 -1.66543 0.914518 0
M  V30 3387 H 316.533 -3.87958 -0.205165 0
M  V30 3388 H 318.205 -3.93711 2.40394 0
M  V30 3389 H 316.448 -3.66576 2.31958 0
M  V30 3390 H 317.119 -5.21646 1.80524 0
M  V30 3391 H 319.595 -4.15637 0.196184 0
M  V30 3392 H 318.471 -5.48586 -0.185681 0
M  V30 3393 H 318.732 -4.20643 -1.36059 0
M  V30 3394 N 317.792 -0.46758 -1.50504 0
M  V30 3395 C 319.04 0.0884469 -2.01906 0
M  V30 3396 C 319.361 1.40532 -1.35188 0
M  V30 3397 O 318.631 1.89515 -0.496079 0
M  V30 3398 H 317.211 0.0356765 -0.746148 0
M  V30 3399 H 319.873 -0.6172 -1.84869 0
M  V30 3400 H 318.969 0.2425 -3.11156 0
M  V30 3401 N 319.27 1.56325 -0.20005 0
M  V30 3402 C 320.217 2.1932 0.718833 0
M  V30 3403 C 321.187 1.14198 1.20615 0
M  V30 3404 O 322.372 1.42469 1.26914 0
M  V30 3405 C 319.512 2.86041 1.93066 0
M  V30 3406 C 318.625 4.05702 1.48425 0
M  V30 3407 C 317.76 4.60266 2.65196 0
M  V30 3408 C 316.799 5.72273 2.17185 0
M  V30 3409 N 315.936 6.21221 3.27152 0
M  V30 3410 H 320.776 2.97486 0.17489 0
M  V30 3411 H 318.313 1.46911 0.0745794 0
M  V30 3412 H 320.271 3.22897 2.64184 0
M  V30 3413 H 318.901 2.1043 2.44783 0
M  V30 3414 H 317.953 3.74475 0.668755 0
M  V30 3415 H 319.265 4.86699 1.09204 0
M  V30 3416 H 318.419 4.99453 3.4443 0
M  V30 3417 H 317.158 3.78386 3.07693 0
M  V30 3418 H 316.163 5.3261 1.36407 0
M  V30 3419 H 317.388 6.55974 1.75713 0
M  V30 3420 H 315.334 5.42263 3.69171 0
M  V30 3421 H 315.251 6.97284 2.92116 0
M  V30 3422 H 316.519 6.65063 4.06585 0
M  V30 3423 N 320.748 -0.0735177 1.57428 0
M  V30 3424 C 322.025 -0.805903 1.78226 0
M  V30 3425 C 322.405 -1.95874 0.787189 0
M  V30 3426 O 321.753 -2.2779 -0.180029 0
M  V30 3427 C 321.963 -1.28045 3.24662 0
M  V30 3428 C 323.311 -1.71453 3.88444 0
M  V30 3429 O 324.335 -1.37616 3.28543 0
M  V30 3430 O 323.194 -2.34093 4.93825 0
M  V30 3431 H 320.288 -0.386041 0.73137 0
M  V30 3432 H 322.834 -0.0537269 1.69615 0
M  V30 3433 H 321.606 -0.455476 3.8864 0
M  V30 3434 H 321.229 -2.094 3.37991 0
M  V30 3435 N 322.226 -1.5378 -0.344866 0
M  V30 3436 C 323.156 -1.84662 -1.42906 0
M  V30 3437 C 324.137 -0.701648 -1.54955 0
M  V30 3438 O 325.322 -0.953438 -1.69184 0
M  V30 3439 C 322.452 -2.05503 -2.79974 0
M  V30 3440 C 321.406 -3.21318 -2.82734 0
M  V30 3441 C 320.732 -3.2749 -4.22675 0
M  V30 3442 C 322.032 -4.59456 -2.48389 0
M  V30 3443 H 323.726 -2.75461 -1.17311 0
M  V30 3444 H 321.272 -1.32542 -0.562896 0
M  V30 3445 H 323.225 -2.25691 -3.55867 0
M  V30 3446 H 321.949 -1.11434 -3.07002 0
M  V30 3447 H 320.608 -3.00984 -2.09294 0
M  V30 3448 H 320.256 -2.31019 -4.4681 0
M  V30 3449 H 319.956 -4.05316 -4.25433 0
M  V30 3450 H 321.48 -3.49887 -5.00412 0
M  V30 3451 H 322.894 -4.79667 -3.13995 0
M  V30 3452 H 321.291 -5.39675 -2.62432 0
M  V30 3453 H 322.361 -4.63155 -1.4358 0
M  V30 3454 N 323.704 0.605807 -1.45491 0
M  V30 3455 C 324.614 1.74466 -1.56839 0
M  V30 3456 C 325.63 1.68006 -0.452772 0
M  V30 3457 O 326.806 1.8833 -0.713708 0
M  V30 3458 C 323.871 3.10931 -1.53371 0
M  V30 3459 C 322.932 3.28832 -2.75986 0
M  V30 3460 C 322.165 4.58787 -2.72673 0
M  V30 3461 O 322.388 5.4122 -1.80102 0
M  V30 3462 O 321.322 4.79438 -3.63899 0
M  V30 3463 H 325.148 1.67843 -2.53106 0
M  V30 3464 H 322.733 0.770108 -1.28022 0
M  V30 3465 H 324.615 3.92233 -1.54051 0
M  V30 3466 H 323.29 3.18042 -0.602572 0
M  V30 3467 H 322.197 2.47112 -2.80867 0
M  V30 3468 H 323.53 3.26599 -3.68231 0
M  V30 3469 N 325.182 1.32811 0.848464 0
M  V30 3470 C 326.429 1.23724 1.60308 0
M  V30 3471 C 326.757 -0.1994 1.93475 0
M  V30 3472 O 326.012 -1.15406 1.5805 0
M  V30 3473 C 326.311 2.04831 2.92881 0
M  V30 3474 C 325.977 3.54125 2.79117 0
M  V30 3475 C 324.639 3.94829 2.7507 0
M  V30 3476 C 326.991 4.49036 2.64606 0
M  V30 3477 C 324.319 5.28675 2.544 0
M  V30 3478 C 326.671 5.83033 2.4547 0
M  V30 3479 C 325.335 6.22931 2.39819 0
M  V30 3480 H 324.605 0.452737 0.586609 0
M  V30 3481 H 327.252 1.64301 0.983743 0
M  V30 3482 H 325.557 1.57001 3.58968 0
M  V30 3483 H 327.254 1.95164 3.50303 0
M  V30 3484 H 323.844 3.21801 2.83094 0
M  V30 3485 H 328.028 4.18505 2.66772 0
M  V30 3486 H 323.284 5.58637 2.48465 0
M  V30 3487 H 327.458 6.56186 2.33222 0
M  V30 3488 H 325.085 7.26584 2.23562 0
M  V30 3489 N 326.66 -1.06551 1.16123 0
M  V30 3490 C 327.888 -1.83005 0.965237 0
M  V30 3491 C 328.303 -1.82423 -0.486542 0
M  V30 3492 O 327.66 -1.24152 -1.33763 0
M  V30 3493 C 327.711 -3.29733 1.48183 0
M  V30 3494 O 327.432 -3.30416 2.87674 0
M  V30 3495 C 328.933 -4.22926 1.32848 0
M  V30 3496 H 326.153 -0.577118 0.342309 0
M  V30 3497 H 328.697 -1.3445 1.54089 0
M  V30 3498 H 326.852 -3.75609 0.948517 0
M  V30 3499 H 327.266 -4.22149 3.11272 0
M  V30 3500 H 328.74 -5.23916 1.73827 0
M  V30 3501 H 329.217 -4.38346 0.273692 0
M  V30 3502 H 329.823 -3.82894 1.85127 0
M  V30 3503 N 328.138 -0.959301 -1.25041 0
M  V30 3504 C 329.387 -0.612254 -1.92183 0
M  V30 3505 C 329.7 0.855347 -1.75907 0
M  V30 3506 O 330.906 1.31256 -2.37664 0
M  V30 3507 C 329.362 -1.04435 -3.44414 0
M  V30 3508 C 328.97 -2.53482 -3.69393 0
M  V30 3509 C 330.714 -0.770055 -4.17457 0
M  V30 3510 C 328.621 -2.90468 -5.15153 0
M  V30 3511 H 327.551 -0.225279 -0.719559 0
M  V30 3512 H 330.202 -1.16438 -1.41825 0
M  V30 3513 H 328.584 -0.4206 -3.9376 0
M  V30 3514 H 329.758 -3.20916 -3.30681 0
M  V30 3515 H 328.073 -2.78432 -3.0962 0
M  V30 3516 H 330.67 -1.02249 -5.24832 0
M  V30 3517 H 331.013 0.293611 -4.15263 0
M  V30 3518 H 331.546 -1.35437 -3.74034 0
M  V30 3519 H 328.285 -3.95871 -5.22462 0
M  V30 3520 H 327.805 -2.27711 -5.54894 0
M  V30 3521 H 329.484 -2.79914 -5.83315 0
M  V30 3522 N 329.616 1.39756 -0.72842 0
M  V30 3523 C 330.846 2.04651 -0.283117 0
M  V30 3524 C 331.254 1.5502 1.08469 0
M  V30 3525 O 330.597 0.707343 1.69536 0
M  V30 3526 C 330.659 3.58947 -0.199309 0
M  V30 3527 C 330.323 4.31525 -1.5045 0
M  V30 3528 C 331.32 4.5861 -2.44894 0
M  V30 3529 C 329.005 4.70195 -1.76698 0
M  V30 3530 C 330.999 5.23366 -3.63822 0
M  V30 3531 C 328.686 5.3468 -2.95906 0
M  V30 3532 C 329.684 5.61198 -3.89289 0
M  V30 3533 O 329.372 6.24347 -5.06404 0
M  V30 3534 H 329.104 0.664777 -0.122666 0
M  V30 3535 H 331.658 1.79913 -0.990987 0
M  V30 3536 H 329.888 3.82556 0.56461 0
M  V30 3537 H 331.577 4.0534 0.213125 0
M  V30 3538 H 332.343 4.29187 -2.25883 0
M  V30 3539 H 328.222 4.48916 -1.04859 0
M  V30 3540 H 331.766 5.4398 -4.36728 0
M  V30 3541 H 327.663 5.63524 -3.14819 0
M  V30 3542 H 328.431 6.42842 -5.06652 0
M  V30 3543 N 331.094 0.475555 1.50254 0
M  V30 3544 C 332.371 -0.139685 1.95101 0
M  V30 3545 C 332.751 -1.56555 1.41611 0
M  V30 3546 O 332.099 -2.19956 0.618993 0
M  V30 3547 C 332.309 -0.0784298 3.48912 0
M  V30 3548 C 333.657 -0.265095 4.23772 0
M  V30 3549 O 334.681 -0.154808 3.55863 0
M  V30 3550 O 333.54 -0.488327 5.44314 0
M  V30 3551 H 330.634 -0.109236 0.819754 0
M  V30 3552 H 333.18 0.536276 1.61004 0
M  V30 3553 H 331.952 0.916918 3.80405 0
M  V30 3554 H 331.575 -0.795655 3.89558 0
M  V30 3555 N 332.573 -1.56217 0.208337 0
M  V30 3556 C 333.85 -1.89739 -0.475234 0
M  V30 3557 C 334.23 -1.1238 -1.78701 0
M  V30 3558 O 333.578 -0.228979 -2.2735 0
M  V30 3559 C 333.788 -3.42289 -0.681101 0
M  V30 3560 C 335.136 -4.12789 -0.994507 0
M  V30 3561 O 336.16 -3.47814 -0.768357 0
M  V30 3562 O 335.019 -5.27649 -1.42299 0
M  V30 3563 H 332.113 -0.788478 -0.249461 0
M  V30 3564 H 334.659 -1.67855 0.249538 0
M  V30 3565 H 333.431 -3.90534 0.244722 0
M  V30 3566 H 333.054 -3.69909 -1.45785 0
M  V30 3567 N 334.051 0.0651679 -1.57465 0
M  V30 3568 C 335.328 0.79644 -1.78651 0
M  V30 3569 C 335.708 1.95454 -0.797566 0
M  V30 3570 O 335.056 2.27882 0.167946 0
M  V30 3571 C 335.266 1.26322 -3.25337 0
M  V30 3572 C 336.614 1.6939 -3.89348 0
M  V30 3573 O 337.638 1.35872 -3.29268 0
M  V30 3574 O 336.497 2.31471 -4.95059 0
M  V30 3575 H 333.591 0.382157 -0.733407 0
M  V30 3576 H 336.137 0.0447311 -1.69641 0
M  V30 3577 H 334.909 0.434859 -3.88876 0
M  V30 3578 H 334.532 2.07604 -3.39096 0
M  V30 3579 N 335.529 1.53961 0.336706 0
M  V30 3580 C 336.806 1.62171 1.09361 0
M  V30 3581 C 337.186 0.447263 2.06307 0
M  V30 3582 O 336.534 -0.559802 2.21537 0
M  V30 3583 C 336.744 2.98565 1.80721 0
M  V30 3584 C 338.092 3.54157 2.34218 0
M  V30 3585 O 339.116 3.00784 1.90807 0
M  V30 3586 O 337.975 4.47528 3.13657 0
M  V30 3587 H 335.069 0.6562 0.503319 0
M  V30 3588 H 337.615 1.66307 0.33765 0
M  V30 3589 H 336.387 3.75482 1.10132 0
M  V30 3590 H 336.01 2.9805 2.63158 0
M  V30 3591 N 337.007 -0.598083 1.45811 0
M  V30 3592 C 338.253 -1.35882 1.50545 0
M  V30 3593 C 338.586 -1.93616 0.150445 0
M  V30 3594 O 337.861 -1.75604 -0.83628 0
M  V30 3595 C 338.144 -2.49966 2.59208 0
M  V30 3596 C 337.997 -1.97367 4.04186 0
M  V30 3597 C 339.316 -3.52068 2.64076 0
M  V30 3598 H 336.435 -0.492717 0.548087 0
M  V30 3599 H 339.077 -0.673319 1.77669 0
M  V30 3600 H 337.227 -3.08443 2.3621 0
M  V30 3601 H 338.899 -1.43466 4.38423 0
M  V30 3602 H 337.142 -1.283 4.14393 0
M  V30 3603 H 337.813 -2.79649 4.75921 0
M  V30 3604 H 340.289 -3.03448 2.84708 0
M  V30 3605 H 339.165 -4.2937 3.41954 0
M  V30 3606 H 339.426 -4.08304 1.69531 0
M  V30 3607 N 338.485 -1.33259 -0.841409 0
M  V30 3608 C 339.71 -1.2775 -1.63385 0
M  V30 3609 C 340.135 0.149188 -1.87507 0
M  V30 3610 O 339.493 1.10498 -1.43736 0
M  V30 3611 C 339.541 -2.05571 -2.96265 0
M  V30 3612 O 338.645 -1.41257 -3.87453 0
M  V30 3613 H 337.986 -0.439627 -0.497618 0
M  V30 3614 H 340.516 -1.75782 -1.04699 0
M  V30 3615 H 340.526 -2.16241 -3.45982 0
M  V30 3616 H 339.201 -3.09309 -2.7803 0
M  V30 3617 H 337.778 -1.39217 -3.45938 0
M  V30 3618 N 339.963 1.05934 -1.16686 0
M  V30 3619 C 341.374 1.60263 -0.957745 0
M  V30 3620 C 341.725 1.89789 0.49745 0
M  V30 3621 O 340.85 1.67401 1.37135 0
M  V30 3622 C 341.445 2.91172 -1.73218 0
M  V30 3623 C 340.004 3.42188 -1.56794 0
M  V30 3624 C 339.151 2.16028 -1.73859 0
M  V30 3625 H 342.102 0.888392 -1.31504 0
M  V30 3626 H 342.123 3.60744 -1.21014 0
M  V30 3627 H 341.635 2.6965 -2.79124 0
M  V30 3628 H 339.736 3.68762 -0.533437 0
M  V30 3629 H 339.849 4.17273 -2.35414 0
M  V30 3630 H 338.213 2.26426 -1.16633 0
M  V30 3631 H 338.996 1.96985 -2.81161 0
M  V30 3632 N 341.441 0.965919 1.2453 0
M  V30 3633 C 342.688 0.626831 1.92554 0
M  V30 3634 C 343.016 -0.837739 1.75534 0
M  V30 3635 O 342.271 -1.61793 1.10098 0
M  V30 3636 C 342.57 0.945428 3.44669 0
M  V30 3637 C 342.236 2.39785 3.81856 0
M  V30 3638 C 340.898 2.79483 3.91718 0
M  V30 3639 C 343.25 3.34055 4.00071 0
M  V30 3640 C 340.578 4.12496 4.1721 0
M  V30 3641 C 342.93 4.66694 4.27059 0
M  V30 3642 C 341.594 5.06172 4.3514 0
M  V30 3643 H 340.864 0.229374 0.704605 0
M  V30 3644 H 343.511 1.21707 1.4785 0
M  V30 3645 H 341.816 0.272926 3.90848 0
M  V30 3646 H 343.513 0.661484 3.95507 0
M  V30 3647 H 340.103 2.08003 3.74743 0
M  V30 3648 H 344.287 3.04571 3.91855 0
M  V30 3649 H 339.543 4.42709 4.21685 0
M  V30 3650 H 343.717 5.3971 4.40097 0
M  V30 3651 H 341.344 6.09262 4.54646 0
M  V30 3652 N 342.919 -1.39368 0.735821 0
M  V30 3653 C 343.849 -2.33234 0.111506 0
M  V30 3654 C 344.83 -1.53954 -0.723334 0
M  V30 3655 O 346.015 -1.82344 -0.668147 0
M  V30 3656 C 343.145 -3.38057 -0.795917 0
M  V30 3657 C 342.099 -4.2795 -0.065172 0
M  V30 3658 C 341.425 -5.23479 -1.08967 0
M  V30 3659 C 342.725 -5.10741 1.09273 0
M  V30 3660 H 344.419 -2.85692 0.895571 0
M  V30 3661 H 341.965 -1.37364 0.432109 0
M  V30 3662 H 343.918 -4.02675 -1.24221 0
M  V30 3663 H 342.642 -2.8404 -1.61211 0
M  V30 3664 H 341.301 -3.64813 0.361511 0
M  V30 3665 H 340.949 -4.65758 -1.89944 0
M  V30 3666 H 340.649 -5.84472 -0.605489 0
M  V30 3667 H 342.173 -5.90974 -1.53565 0
M  V30 3668 H 343.587 -5.68699 0.724841 0
M  V30 3669 H 341.984 -5.8088 1.50659 0
M  V30 3670 H 343.054 -4.45525 1.91404 0
M  V30 3671 N 344.397 -0.483516 -1.5 0
M  V30 3672 C 345.307 0.309172 -2.32554 0
M  V30 3673 C 346.323 0.984159 -1.43493 0
M  V30 3674 O 347.499 0.969399 -1.76535 0
M  V30 3675 C 344.564 1.36979 -3.18493 0
M  V30 3676 C 343.625 0.710095 -4.23387 0
M  V30 3677 C 342.858 1.72018 -5.05218 0
M  V30 3678 O 343.081 2.94813 -4.88305 0
M  V30 3679 O 342.015 1.28515 -5.8802 0
M  V30 3680 H 345.841 -0.366064 -3.01486 0
M  V30 3681 H 343.426 -0.24514 -1.47375 0
M  V30 3682 H 345.308 1.98385 -3.71781 0
M  V30 3683 H 343.983 2.02828 -2.52275 0
M  V30 3684 H 342.89 0.0567539 -3.74057 0
M  V30 3685 H 344.223 0.0943557 -4.9211 0
M  V30 3686 N 345.875 1.56104 -0.216619 0
M  V30 3687 C 347.123 1.97781 0.415593 0
M  V30 3688 C 347.444 1.10536 1.60645 0
M  V30 3689 O 346.714 0.181303 1.95059 0
M  V30 3690 H 345.294 0.730415 0.156534 0
M  V30 3691 H 347.956 1.92445 -0.308366 0
M  V30 3692 H 347.052 3.03072 0.74525 0
M  V30 3693 N 347.353 -0.0568162 1.57498 0
M  V30 3694 C 348.283 -1.06593 2.0775 0
M  V30 3695 C 349.264 -1.39448 0.974082 0
M  V30 3696 O 350.449 -1.48815 1.24771 0
M  V30 3697 C 347.579 -2.37509 2.5339 0
M  V30 3698 C 346.533 -2.1897 3.67745 0
M  V30 3699 C 345.859 -3.55402 3.99492 0
M  V30 3700 C 347.159 -1.59859 4.97235 0
M  V30 3701 H 348.853 -0.647706 2.9231 0
M  V30 3702 H 346.399 -0.310116 1.40621 0
M  V30 3703 H 348.352 -3.08409 2.87162 0
M  V30 3704 H 347.076 -2.8134 1.65878 0
M  V30 3705 H 345.735 -1.50508 3.3428 0
M  V30 3706 H 345.383 -3.9683 3.09088 0
M  V30 3707 H 345.083 -3.43831 4.76502 0
M  V30 3708 H 346.607 -4.27708 4.35773 0
M  V30 3709 H 348.021 -2.20642 5.29141 0
M  V30 3710 H 346.418 -1.58942 5.78669 0
M  V30 3711 H 347.488 -0.561506 4.81638 0
M  V30 3712 N 348.832 -1.54138 -0.328536 0
M  V30 3713 C 349.742 -1.86192 -1.42723 0
M  V30 3714 C 350.758 -0.753382 -1.56844 0
M  V30 3715 O 351.934 -1.04718 -1.72035 0
M  V30 3716 C 348.999 -2.07824 -2.77507 0
M  V30 3717 C 348.06 -3.31641 -2.72603 0
M  V30 3718 C 347.293 -3.52232 -4.00959 0
M  V30 3719 O 347.516 -2.7636 -4.9898 0
M  V30 3720 O 346.45 -4.45699 -4.0452 0
M  V30 3721 H 350.276 -2.79608 -1.18547 0
M  V30 3722 H 347.861 -1.3998 -0.522104 0
M  V30 3723 H 349.743 -2.23411 -3.57303 0
M  V30 3724 H 348.418 -1.17596 -3.01584 0
M  V30 3725 H 347.325 -3.21444 -1.91376 0
M  V30 3726 H 348.658 -4.2191 -2.53481 0
M  V30 3727 N 350.31 0.590341 -1.46126 0
M  V30 3728 C 351.22 1.72793 -1.58681 0
M  V30 3729 C 352.236 1.67516 -0.470566 0
M  V30 3730 O 353.412 1.87562 -0.733642 0
M  V30 3731 C 350.477 3.09287 -1.5666 0
M  V30 3732 C 349.538 3.25886 -2.79458 0
M  V30 3733 C 348.771 4.55869 -2.77524 0
M  V30 3734 O 348.994 5.3928 -1.85832 0
M  V30 3735 O 347.928 4.75552 -3.68964 0
M  V30 3736 H 351.754 1.65149 -2.54872 0
M  V30 3737 H 349.339 0.756486 -1.28832 0
M  V30 3738 H 351.221 3.90577 -1.58202 0
M  V30 3739 H 349.896 3.17385 -0.636271 0
M  V30 3740 H 348.803 2.44119 -2.83472 0
M  V30 3741 H 350.136 3.22675 -3.71674 0
M  V30 3742 N 351.788 1.33704 0.83433 0
M  V30 3743 C 353.204 1.13137 1.12571 0
M  V30 3744 C 353.404 -0.0747261 2.01361 0
M  V30 3745 O 352.46 -0.753647 2.4099 0
M  V30 3746 C 353.773 2.42105 1.78342 0
M  V30 3747 C 355.321 2.48054 1.90888 0
M  V30 3748 C 355.796 3.76995 2.60075 0
M  V30 3749 N 357.287 3.78092 2.67584 0
M  V30 3750 C 358.022 4.74574 3.21818 0
M  V30 3751 N 357.518 5.81434 3.76705 0
M  V30 3752 N 359.311 4.62044 3.20112 0
M  V30 3753 H 351.462 2.11 0.243489 0
M  V30 3754 H 353.725 0.932532 0.17055 0
M  V30 3755 H 353.431 3.30391 1.20561 0
M  V30 3756 H 353.305 2.54594 2.7832 0
M  V30 3757 H 355.692 1.60215 2.47821 0
M  V30 3758 H 355.773 2.39502 0.898459 0
M  V30 3759 H 355.417 4.65219 2.03799 0
M  V30 3760 H 355.347 3.82825 3.61597 0
M  V30 3761 H 357.838 3.00865 2.28667 0
M  V30 3762 H 358.151 6.51084 4.16305 0
M  V30 3763 H 356.496 5.85163 3.7498 0
M  V30 3764 H 359.687 3.77716 2.76493 0
M  V30 3765 H 359.86 5.37406 3.62076 0
M  V30 3766 N 353.266 -1.05314 1.17247 0
M  V30 3767 C 354.677 -1.59753 0.96623 0
M  V30 3768 C 355.028 -1.9005 -0.487378 0
M  V30 3769 O 354.153 -1.68126 -1.36245 0
M  V30 3770 C 354.748 -2.90249 1.74759 0
M  V30 3771 C 353.307 -3.41352 1.58606 0
M  V30 3772 C 352.454 -2.15103 1.75002 0
M  V30 3773 H 355.405 -0.881406 1.31973 0
M  V30 3774 H 355.426 -3.60097 1.22925 0
M  V30 3775 H 354.938 -2.68166 2.8055 0
M  V30 3776 H 353.039 -3.68474 0.552985 0
M  V30 3777 H 353.152 -4.16019 2.37624 0
M  V30 3778 H 351.516 -2.25804 1.17833 0
M  V30 3779 H 352.299 -1.95491 2.82202 0
M  V30 3780 N 354.744 -0.972509 -1.24016 0
M  V30 3781 C 355.676 -0.464375 -2.24446 0
M  V30 3782 C 356.689 0.4295 -1.57032 0
M  V30 3783 O 357.878 0.234902 -1.76948 0
M  V30 3784 C 354.978 0.348385 -3.37105 0
M  V30 3785 C 354.151 -0.53673 -4.34094 0
M  V30 3786 C 353.21 0.220838 -5.25736 0
M  V30 3787 O 352.236 -0.386867 -5.67884 0
M  V30 3788 N 353.438 1.50907 -5.60542 0
M  V30 3789 H 356.203 -1.32788 -2.68677 0
M  V30 3790 H 353.764 -0.844877 -1.38107 0
M  V30 3791 H 355.756 0.863341 -3.95384 0
M  V30 3792 H 354.326 1.11285 -2.92121 0
M  V30 3793 H 353.546 -1.23261 -3.74433 0
M  V30 3794 H 354.834 -1.14022 -4.95859 0
M  V30 3795 H 354.232 2.02444 -5.28236 0
M  V30 3796 H 352.789 1.96962 -6.21329 0
M  V30 3797 N 356.222 1.38976 -0.743202 0
M  V30 3798 C 357.638 1.53984 -0.419664 0
M  V30 3799 C 357.838 1.70837 1.0685 0
M  V30 3800 O 356.894 1.7135 1.8546 0
M  V30 3801 C 358.207 2.75287 -1.20985 0
M  V30 3802 C 359.755 2.89129 -1.19889 0
M  V30 3803 C 360.23 4.13381 -1.97181 0
M  V30 3804 N 361.721 4.20437 -1.94389 0
M  V30 3805 C 362.456 5.15547 -2.50996 0
M  V30 3806 N 361.952 6.16395 -3.16274 0
M  V30 3807 N 363.745 5.07822 -2.40984 0
M  V30 3808 H 355.896 1.26285 -1.7078 0
M  V30 3809 H 358.159 0.612689 -0.723406 0
M  V30 3810 H 357.865 2.69204 -2.26323 0
M  V30 3811 H 357.739 3.68184 -0.819759 0
M  V30 3812 H 360.126 2.947 -0.153606 0
M  V30 3813 H 360.207 1.97272 -1.62841 0
M  V30 3814 H 359.851 4.08572 -3.01714 0
M  V30 3815 H 359.781 5.04298 -1.51629 0
M  V30 3816 H 362.272 3.48205 -1.46839 0
M  V30 3817 H 362.585 6.85443 -3.56915 0
M  V30 3818 H 360.93 6.16758 -3.20367 0
M  V30 3819 H 364.121 4.27973 -1.89622 0
M  V30 3820 H 364.294 5.81767 -2.85397 0
M  V30 3821 N 357.7 0.491464 1.49741 0
M  V30 3822 C 358.647 -0.292027 2.28945 0
M  V30 3823 C 359.617 -0.968973 1.34908 0
M  V30 3824 O 360.802 -0.97748 1.6386 0
M  V30 3825 C 357.942 -1.35617 3.17336 0
M  V30 3826 C 357.055 -0.691957 4.26422 0
M  V30 3827 C 356.19 -1.73572 5.02042 0
M  V30 3828 C 355.229 -1.05286 6.02977 0
M  V30 3829 N 354.366 -2.0404 6.71798 0
M  V30 3830 H 359.206 0.389654 2.95442 0
M  V30 3831 H 356.743 0.204003 1.45679 0
M  V30 3832 H 358.701 -1.98502 3.66951 0
M  V30 3833 H 357.331 -2.00674 2.52844 0
M  V30 3834 H 356.383 0.0499523 3.80367 0
M  V30 3835 H 357.695 -0.153946 4.98562 0
M  V30 3836 H 356.849 -2.43987 5.55478 0
M  V30 3837 H 355.588 -2.30757 4.29654 0
M  V30 3838 H 354.593 -0.334446 5.48782 0
M  V30 3839 H 355.818 -0.487636 6.77347 0
M  V30 3840 H 353.764 -2.60205 6.02187 0
M  V30 3841 H 353.681 -1.55279 7.39881 0
M  V30 3842 H 354.949 -2.73772 7.29842 0
M  V30 3843 N 359.178 -1.55987 0.224894 0
M  V30 3844 C 360.141 -2.19178 -0.670348 0
M  V30 3845 C 361.141 -1.15461 -1.11917 0
M  V30 3846 O 362.331 -1.40675 -1.02743 0
M  V30 3847 C 359.463 -2.81777 -1.9187 0
M  V30 3848 H 360.656 -2.99662 -0.119364 0
M  V30 3849 H 358.209 -1.5628 -0.0247128 0
M  V30 3850 H 358.944 -2.05172 -2.51147 0
M  V30 3851 H 358.729 -3.57732 -1.60531 0
M  V30 3852 H 360.219 -3.30205 -2.55645 0
M  V30 3853 N 360.656 0.0484629 -1.57525 0
M  V30 3854 C 361.588 1.08222 -2.02041 0
M  V30 3855 C 362.601 1.33621 -0.930012 0
M  V30 3856 O 363.79 1.3145 -1.20761 0
M  V30 3857 C 360.89 2.42818 -2.36416 0
M  V30 3858 C 360.063 2.37049 -3.67596 0
M  V30 3859 C 359.122 3.53937 -3.89378 0
M  V30 3860 O 358.148 3.34308 -4.60681 0
M  V30 3861 N 359.35 4.75126 -3.3352 0
M  V30 3862 H 362.115 0.702946 -2.9134 0
M  V30 3863 H 359.676 0.236745 -1.6016 0
M  V30 3864 H 361.668 3.197 -2.48141 0
M  V30 3865 H 360.238 2.72661 -1.52888 0
M  V30 3866 H 359.458 1.45395 -3.66407 0
M  V30 3867 H 360.746 2.30318 -4.53686 0
M  V30 3868 H 360.144 4.93976 -2.75688 0
M  V30 3869 H 358.701 5.49439 -3.50656 0
M  V30 3870 N 362.134 1.5431 0.320358 0
M  V30 3871 C 363.545 1.63872 0.894594 0
M  V30 3872 C 363.896 0.534847 1.88769 0
M  V30 3873 O 363.021 -0.331732 2.13842 0
M  V30 3874 C 363.616 2.97049 1.62934 0
M  V30 3875 C 362.175 3.08796 2.15226 0
M  V30 3876 C 361.322 2.59456 0.978671 0
M  V30 3877 H 364.273 1.58398 0.0978544 0
M  V30 3878 H 364.294 2.87388 2.49376 0
M  V30 3879 H 363.806 3.7737 0.906302 0
M  V30 3880 H 361.907 2.33156 2.90636 0
M  V30 3881 H 362.02 4.14649 2.40006 0
M  V30 3882 H 360.384 2.1543 1.35875 0
M  V30 3883 H 361.167 3.42237 0.269895 0
M  V30 3884 N 363.613 -0.582584 1.46437 0
M  V30 3885 C 364.576 -1.67366 1.56592 0
M  V30 3886 C 365.576 -1.54575 0.443072 0
M  V30 3887 O 366.766 -1.59191 0.707381 0
M  V30 3888 C 363.898 -3.06791 1.48634 0
M  V30 3889 H 365.091 -1.5972 2.5383 0
M  V30 3890 H 362.644 -0.800432 1.34249 0
M  V30 3891 H 363.379 -3.19993 0.526763 0
M  V30 3892 H 363.164 -3.17484 2.30101 0
M  V30 3893 H 364.654 -3.86218 1.58826 0
M  V30 3894 N 365.091 -1.34144 -0.827227 0
M  V30 3895 C 366.023 -1.21206 -1.9453 0
M  V30 3896 C 367.036 -0.140176 -1.62195 0
M  V30 3897 O 368.225 -0.391647 -1.7415 0
M  V30 3898 C 365.325 -0.839141 -3.28347 0
M  V30 3899 C 364.498 -2.0051 -3.88734 0
M  V30 3900 C 363.557 -1.61128 -5.00923 0
M  V30 3901 O 362.583 -2.32726 -5.19449 0
M  V30 3902 N 363.785 -0.522958 -5.7814 0
M  V30 3903 H 366.55 -2.17525 -2.06162 0
M  V30 3904 H 364.111 -1.27043 -1.00358 0
M  V30 3905 H 366.103 -0.557556 -4.00841 0
M  V30 3906 H 364.673 0.0337293 -3.12582 0
M  V30 3907 H 363.893 -2.45166 -3.08686 0
M  V30 3908 H 365.181 -2.78498 -4.25812 0
M  V30 3909 H 364.579 0.0723518 -5.65654 0
M  V30 3910 H 363.136 -0.301089 -6.51104 0
M  V30 3911 N 366.569 1.04691 -1.17803 0
M  V30 3912 C 367.98 1.59238 -0.974689 0
M  V30 3913 C 368.331 1.90306 0.477292 0
M  V30 3914 O 367.456 1.68846 1.35352 0
M  V30 3915 C 368.051 2.89318 -1.76296 0
M  V30 3916 C 366.61 3.40506 -1.60414 0
M  V30 3917 C 365.757 2.14172 -1.76141 0
M  V30 3918 H 368.708 0.874395 -1.32439 0
M  V30 3919 H 368.729 3.5944 -1.24833 0
M  V30 3920 H 368.241 2.66675 -2.81968 0
M  V30 3921 H 366.342 3.68175 -0.572519 0
M  V30 3922 H 366.455 4.14753 -2.39827 0
M  V30 3923 H 364.819 2.25176 -1.19028 0
M  V30 3924 H 365.602 1.93992 -2.83235 0
M  V30 3925 N 368.047 0.979072 1.23499 0
M  V30 3926 C 369.01 0.523244 2.23147 0
M  V30 3927 C 370.01 -0.386406 1.56088 0
M  V30 3928 O 371.2 -0.180283 1.73265 0
M  V30 3929 C 368.332 -0.240739 3.40049 0
M  V30 3930 H 369.525 1.40432 2.64989 0
M  V30 3931 H 367.078 0.764824 1.36309 0
M  V30 3932 H 367.813 -1.13841 3.03662 0
M  V30 3933 H 367.598 0.412207 3.89927 0
M  V30 3934 H 369.088 -0.548297 4.13985 0
M  V30 3935 N 369.525 -1.3858 0.750561 0
M  V30 3936 C 370.802 -1.94231 0.231009 0
M  V30 3937 C 371.182 -1.68611 -1.27018 0
M  V30 3938 O 370.53 -1.02296 -2.04323 0
M  V30 3939 C 370.74 -3.44123 0.581428 0
M  V30 3940 C 372.088 -4.2116 0.539389 0
M  V30 3941 O 373.112 -3.52391 0.519541 0
M  V30 3942 O 371.971 -5.43749 0.54765 0
M  V30 3943 H 369.065 -0.825639 0.0474263 0
M  V30 3944 H 371.611 -1.4799 0.830478 0
M  V30 3945 H 370.383 -3.56267 1.61833 0
M  V30 3946 H 370.006 -3.97573 -0.0462047 0
M  V30 3947 N 371.003 -0.499398 -1.49478 0
M  V30 3948 C 371.913 0.284489 -2.32869 0
M  V30 3949 C 372.929 0.968885 -1.44529 0
M  V30 3950 O 374.105 0.95062 -1.77553 0
M  V30 3951 C 371.17 1.33594 -3.19928 0
M  V30 3952 C 370.231 0.665149 -4.24116 0
M  V30 3953 C 369.464 1.6665 -5.07014 0
M  V30 3954 O 369.687 2.89618 -4.91404 0
M  V30 3955 O 368.621 1.22271 -5.8935 0
M  V30 3956 H 372.447 -0.39802 -3.01081 0
M  V30 3957 H 370.032 -0.260758 -1.47107 0
M  V30 3958 H 371.914 1.94431 -3.73864 0
M  V30 3959 H 370.589 2.0014 -2.54412 0
M  V30 3960 H 369.496 0.0170769 -3.74096 0
M  V30 3961 H 370.829 0.0421555 -4.92182 0
M  V30 3962 N 372.481 1.55866 -0.233164 0
M  V30 3963 C 373.892 1.847 0.272554 0
M  V30 3964 C 374.243 1.15477 1.58617 0
M  V30 3965 O 373.368 0.42841 2.12117 0
M  V30 3966 C 373.963 3.35071 0.501299 0
M  V30 3967 C 372.522 3.6418 0.951304 0
M  V30 3968 C 371.669 2.77292 0.0208209 0
M  V30 3969 H 374.62 1.52005 -0.456074 0
M  V30 3970 H 374.641 3.55906 1.34577 0
M  V30 3971 H 374.153 3.85424 -0.454936 0
M  V30 3972 H 372.254 3.19293 1.92049 0
M  V30 3973 H 372.367 4.72071 0.817675 0
M  V30 3974 H 370.731 2.49131 0.529723 0
M  V30 3975 H 371.514 3.30448 -0.93054 0
M  V30 3976 N 373.959 -0.0401083 1.57549 0
M  V30 3977 C 374.922 -1.02871 2.04817 0
M  V30 3978 C 375.922 -1.29708 0.950388 0
M  V30 3979 O 377.112 -1.24897 1.21435 0
M  V30 3980 C 374.244 -2.36443 2.45576 0
M  V30 3981 H 375.437 -0.620631 2.93408 0
M  V30 3982 H 372.99 -0.286667 1.53649 0
M  V30 3983 H 373.725 -2.82021 1.60108 0
M  V30 3984 H 373.51 -2.18296 3.25713 0
M  V30 3985 H 375 -3.07441 2.82612 0
M  V30 3986 N 375.437 -1.54477 -0.31217 0
M  V30 3987 C 376.347 -1.87695 -1.4074 0
M  V30 3988 C 377.363 -0.769975 -1.56036 0
M  V30 3989 O 378.539 -1.06537 -1.70915 0
M  V30 3990 C 375.604 -2.10755 -2.75287 0
M  V30 3991 C 374.665 -3.34514 -2.69071 0
M  V30 3992 C 373.898 -3.56465 -3.97201 0
M  V30 3993 O 374.121 -2.81637 -4.96021 0
M  V30 3994 O 373.055 -4.49964 -3.9977 0
M  V30 3995 H 376.881 -2.80849 -1.15574 0
M  V30 3996 H 374.466 -1.40526 -0.507228 0
M  V30 3997 H 376.348 -2.27188 -3.54913 0
M  V30 3998 H 375.023 -1.20788 -3.0032 0
M  V30 3999 H 373.93 -3.23456 -1.87955 0
M  V30 4000 H 375.263 -4.24575 -2.48992 0
M  V30 4001 N 376.915 0.57481 -1.46744 0
M  V30 4002 C 377.862 1.68329 -1.57905 0
M  V30 4003 C 378.832 1.60625 -0.422927 0
M  V30 4004 O 380.017 1.79721 -0.640711 0
M  V30 4005 C 377.157 3.06665 -1.58274 0
M  V30 4006 C 376.27 3.24935 -2.84678 0
M  V30 4007 C 375.405 4.53566 -2.76499 0
M  V30 4008 C 374.444 4.65207 -3.97806 0
M  V30 4009 N 373.581 5.85172 -3.87967 0
M  V30 4010 H 378.421 1.58127 -2.52587 0
M  V30 4011 H 375.958 0.770552 -1.25303 0
M  V30 4012 H 377.916 3.86745 -1.56473 0
M  V30 4013 H 376.546 3.15745 -0.671194 0
M  V30 4014 H 375.598 2.38405 -2.96424 0
M  V30 4015 H 376.91 3.29403 -3.7456 0
M  V30 4016 H 376.064 5.41885 -2.72848 0
M  V30 4017 H 374.803 4.51548 -1.8427 0
M  V30 4018 H 373.808 3.75304 -4.0178 0
M  V30 4019 H 375.033 4.68997 -4.9114 0
M  V30 4020 H 372.979 5.84137 -2.98529 0
M  V30 4021 H 372.896 5.90943 -4.71511 0
M  V30 4022 H 374.164 6.759 -3.88303 0
M  V30 4023 N 378.394 1.34581 0.820102 0
M  V30 4024 C 379.357 1.2628 1.91275 0
M  V30 4025 C 380.357 0.177344 1.59819 0
M  V30 4026 O 381.547 0.430156 1.68806 0
M  V30 4027 C 378.679 0.950327 3.27386 0
M  V30 4028 H 379.872 2.23421 2.00057 0
M  V30 4029 H 377.425 1.1891 1.0144 0
M  V30 4030 H 378.16 -0.0177938 3.24295 0
M  V30 4031 H 377.945 1.73549 3.51601 0
M  V30 4032 H 379.435 0.917492 4.07396 0
M  V30 4033 N 379.872 -1.04064 1.18357 0
M  V30 4034 C 381.149 -1.74252 0.888581 0
M  V30 4035 C 381.529 -2.02138 -0.60856 0
M  V30 4036 O 380.877 -1.66656 -1.56327 0
M  V30 4037 C 381.087 -3.0277 1.73584 0
M  V30 4038 C 382.435 -3.76506 1.96286 0
M  V30 4039 O 383.459 -3.12668 1.70637 0
M  V30 4040 O 382.318 -4.91243 2.39464 0
M  V30 4041 H 379.412 -0.758271 0.330082 0
M  V30 4042 H 381.958 -1.1013 1.2911 0
M  V30 4043 H 380.73 -2.78299 2.75073 0
M  V30 4044 H 380.353 -3.74631 1.33183 0
M  V30 4045 N 381.35 -0.985608 -1.22978 0
M  V30 4046 C 382.26 -0.538548 -2.28335 0
M  V30 4047 C 383.276 0.409163 -1.69121 0
M  V30 4048 O 384.452 0.277797 -1.99475 0
M  V30 4049 C 381.517 0.146867 -3.46389 0
M  V30 4050 C 380.578 -0.842896 -4.20944 0
M  V30 4051 C 379.811 -0.190095 -5.33361 0
M  V30 4052 O 380.034 1.01767 -5.61248 0
M  V30 4053 O 378.968 -0.891289 -5.95264 0
M  V30 4054 H 382.794 -1.41487 -2.68729 0
M  V30 4055 H 380.379 -0.753495 -1.29007 0
M  V30 4056 H 382.261 0.531125 -4.1804 0
M  V30 4057 H 380.936 0.997871 -3.07935 0
M  V30 4058 H 379.843 -1.27795 -3.51595 0
M  V30 4059 H 381.176 -1.66287 -4.6326 0
M  V30 4060 N 382.828 1.3818 -0.7579 0
M  V30 4061 C 384.239 1.82726 -0.383134 0
M  V30 4062 C 384.59 1.63214 1.08884 0
M  V30 4063 O 383.715 1.13566 1.84205 0
M  V30 4064 C 384.31 3.31728 -0.688631 0
M  V30 4065 C 382.869 3.74606 -0.367091 0
M  V30 4066 C 382.016 2.60896 -0.939599 0
M  V30 4067 H 384.967 1.26847 -0.953699 0
M  V30 4068 H 384.988 3.80487 0.0316492 0
M  V30 4069 H 384.5 3.45898 -1.76001 0
M  V30 4070 H 382.601 3.66013 0.697532 0
M  V30 4071 H 382.714 4.71215 -0.865658 0
M  V30 4072 H 381.078 2.52075 -0.3647 0
M  V30 4073 H 381.861 2.77864 -2.0161 0
M  V30 4074 N 384.306 0.507319 1.49211 0
M  V30 4075 C 385.239 -0.314509 2.26022 0
M  V30 4076 C 386.217 -0.964849 1.30879 0
M  V30 4077 O 387.401 -0.993707 1.6018 0
M  V30 4078 C 384.528 -1.44346 3.06402 0
M  V30 4079 C 383.574 -0.90685 4.16748 0
M  V30 4080 S 384.407 0.207392 5.35098 0
M  V30 4081 C 385.563 -0.924573 6.19033 0
M  V30 4082 H 385.796 0.337416 2.95379 0
M  V30 4083 H 383.329 0.292718 1.516 0
M  V30 4084 H 385.287 -2.09029 3.53295 0
M  V30 4085 H 383.948 -2.06702 2.36502 0
M  V30 4086 H 383.141 -1.75309 4.72528 0
M  V30 4087 H 382.743 -0.33712 3.72478 0
M  V30 4088 H 385.035 -1.82839 6.52362 0
M  V30 4089 H 385.978 -0.405248 7.06939 0
M  V30 4090 H 386.386 -1.19476 5.51712 0
M  V30 4091 N 385.784 -1.5574 0.241426 0
M  V30 4092 C 386.694 -2.2479 -0.671305 0
M  V30 4093 C 387.71 -1.26217 -1.19772 0
M  V30 4094 O 388.886 -1.59079 -1.23514 0
M  V30 4095 C 385.951 -2.92966 -1.85396 0
M  V30 4096 C 385.012 -4.06935 -1.36756 0
M  V30 4097 C 384.245 -4.71851 -2.49384 0
M  V30 4098 O 384.468 -4.35823 -3.67987 0
M  V30 4099 O 383.402 -5.60467 -2.19454 0
M  V30 4100 H 387.228 -3.0349 -0.112966 0
M  V30 4101 H 384.813 -1.49397 0.0101513 0
M  V30 4102 H 386.695 -3.35927 -2.54423 0
M  V30 4103 H 385.37 -2.17211 -2.40002 0
M  V30 4104 H 384.277 -3.68503 -0.644726 0
M  V30 4105 H 385.61 -4.84492 -0.867647 0
M  V30 4106 N 387.262 0.0317525 -1.57568 0
M  V30 4107 C 388.212 1.04101 -2.02847 0
M  V30 4108 C 389.196 1.3219 -0.917317 0
M  V30 4109 O 390.388 1.31819 -1.18121 0
M  V30 4110 C 387.517 2.34295 -2.5092 0
M  V30 4111 C 386.603 2.09308 -3.68851 0
M  V30 4112 N 386.994 1.5437 -4.81667 0
M  V30 4113 C 385.292 2.39604 -3.76172 0
M  V30 4114 C 385.993 1.45126 -5.63306 0
M  V30 4115 N 384.969 1.92589 -5.08341 0
M  V30 4116 H 388.771 0.610217 -2.87495 0
M  V30 4117 H 386.285 0.238108 -1.60645 0
M  V30 4118 H 388.282 3.07404 -2.81617 0
M  V30 4119 H 386.942 2.78055 -1.67677 0
M  V30 4120 H 387.953 1.22678 -5.03161 0
M  V30 4121 H 384.63 2.86457 -3.03724 0
M  V30 4122 H 386.02 1.03163 -6.63933 0
M  V30 4123 O 388.779 1.60553 0.174647 0
M  V30 4124 H 389.47 1.75876 0.811619 0
M  V30 END ATOM
M  V30 BEGIN BOND
M  V30 END BOND
M  V30 END CTAB
M  END
$$$$
