drugbank_target|P25815 Protein S100-P (DB01003)
 OpenBabel12092119493D

  0  0  0     0  0            999 V3000
M  V30 BEGIN CTAB
M  V30 COUNTS 1459 1468 0 0 0
M  V30 BEGIN ATOM
M  V30 1 H -0.908 1.98254 -0.117106 0
M  V30 2 N 0 1.576 0 0
M  V30 3 C 0.933 2.03868 1.02534 0
M  V30 4 C 1.911 0.928543 1.3348 0
M  V30 5 O 3.095 1.19667 1.45644 0
M  V30 6 C 0.222 2.43627 2.35294 0
M  V30 7 C -0.732 3.65373 2.2001 0
M  V30 8 S 0.101 5.13292 1.52614 0
M  V30 9 C 1.257 5.56322 2.86805 0
M  V30 10 H 1.49 2.90518 0.631377 0
M  V30 11 H -0.977 1.52953 0.210867 0
M  V30 12 H 0.981 2.67203 3.11629 0
M  V30 13 H -0.358 1.57376 2.7183 0
M  V30 14 H -1.165 3.90944 3.18086 0
M  V30 15 H -1.563 3.418 1.51819 0
M  V30 16 H 0.729 5.58782 3.83104 0
M  V30 17 H 1.672 6.56266 2.65933 0
M  V30 18 H 2.08 4.83886 2.90714 0
M  V30 19 N 1.4781 -0.272755 1.55222 0
M  V30 20 C 2.7061 -1.02255 1.79865 0
M  V30 21 C 3.1211 -1.79924 0.572088 0
M  V30 22 O 2.4781 -1.76638 -0.458842 0
M  V30 23 C 2.5291 -1.98094 3.02392 0
M  V30 24 O 2.2501 -1.23572 4.20311 0
M  V30 25 C 3.7511 -2.84884 3.39641 0
M  V30 26 H 0.9711 -0.302057 0.599168 0
M  V30 27 H 3.5151 -0.303465 2.02236 0
M  V30 28 H 1.6701 -2.65465 2.82147 0
M  V30 29 H 2.0841 -1.88172 4.89583 0
M  V30 30 H 3.5581 -3.47927 4.28545 0
M  V30 31 H 4.0351 -3.54665 2.59055 0
M  V30 32 H 4.6411 -2.23003 3.62146 0
M  V30 33 N 2.9562 -1.48159 -0.537278 0
M  V30 34 C 3.8662 -1.64807 -1.6696 0
M  V30 35 C 4.8822 -0.530651 -1.65711 0
M  V30 36 O 6.0582 -0.800784 -1.84796 0
M  V30 37 C 3.1232 -1.67708 -3.03438 0
M  V30 38 C 2.1842 -2.91025 -3.156 0
M  V30 39 C 1.4172 -2.93778 -4.45567 0
M  V30 40 O 1.6402 -2.05153 -5.3223 0
M  V30 41 O 0.5742 -3.85868 -4.61941 0
M  V30 42 H 4.4002 -2.6066 -1.55853 0
M  V30 43 H 1.9852 -1.31475 -0.709549 0
M  V30 44 H 3.8672 -1.7218 -3.84619 0
M  V30 45 H 2.5422 -0.750278 -3.14885 0
M  V30 46 H 1.4492 -2.92089 -2.33741 0
M  V30 47 H 2.7822 -3.83065 -3.09066 0
M  V30 48 N 4.4343 0.785586 -1.36625 0
M  V30 49 C 5.3643 1.91259 -1.33949 0
M  V30 50 C 6.3453 1.68795 -0.210325 0
M  V30 51 O 7.5303 1.89854 -0.408561 0
M  V30 52 C 4.6603 3.28339 -1.13186 0
M  V30 53 C 3.6143 3.65335 -2.22967 0
M  V30 54 C 2.9403 5.00806 -1.87342 0
M  V30 55 C 4.2403 3.7352 -3.65075 0
M  V30 56 H 5.9343 1.93755 -2.28253 0
M  V30 57 H 3.4803 0.930788 -1.09874 0
M  V30 58 H 5.4333 4.06804 -1.09948 0
M  V30 59 H 4.1573 3.2624 -0.153332 0
M  V30 60 H 2.8163 2.89169 -2.25337 0
M  V30 61 H 2.4643 4.95233 -0.880545 0
M  V30 62 H 2.1643 5.26529 -2.60846 0
M  V30 63 H 3.6883 5.81687 -1.85667 0
M  V30 64 H 5.1023 4.42168 -3.64911 0
M  V30 65 H 3.4993 4.10731 -4.37516 0
M  V30 66 H 4.5693 2.74527 -3.99703 0
M  V30 67 N 5.9124 1.20967 1.01018 0
M  V30 68 C 6.8224 0.980157 2.13143 0
M  V30 69 C 7.8384 -0.0660665 1.73875 0
M  V30 70 O 9.0144 0.122821 2.01025 0
M  V30 71 C 6.0794 0.54216 3.42435 0
M  V30 72 C 5.1404 1.65999 3.95908 0
M  V30 73 C 4.3734 1.2428 5.19028 0
M  V30 74 O 4.5964 0.114196 5.70286 0
M  V30 75 O 3.5304 2.05271 5.65816 0
M  V30 76 H 7.3564 1.91913 2.35379 0
M  V30 77 H 4.9414 0.994099 1.11526 0
M  V30 78 H 6.8234 0.30744 4.20277 0
M  V30 79 H 5.4984 -0.36815 3.216 0
M  V30 80 H 4.4054 1.94906 3.19316 0
M  V30 81 H 5.7384 2.54753 4.21143 0
M  V30 82 N 7.3905 -1.2043 1.01659 0
M  V30 83 C 8.6185 -1.93777 0.725132 0
M  V30 84 C 9.0335 -1.74772 -0.714166 0
M  V30 85 O 8.3905 -1.06169 -1.4844 0
M  V30 86 C 8.4415 -3.45876 1.05129 0
M  V30 87 O 8.1625 -3.6426 2.43406 0
M  V30 88 C 9.6635 -4.36368 0.780891 0
M  V30 89 H 6.8835 -0.615901 0.266284 0
M  V30 90 H 9.4275 -1.52922 1.35776 0
M  V30 91 H 7.5825 -3.8461 0.464065 0
M  V30 92 H 7.9965 -4.58246 2.55169 0
M  V30 93 H 9.4705 -5.41743 1.05918 0
M  V30 94 H 9.9475 -4.38275 -0.284937 0
M  V30 95 H 10.5535 -4.03296 1.35027 0
M  V30 96 N 8.8686 -0.792821 -1.36206 0
M  V30 97 C 9.8316 -0.199459 -2.2833 0
M  V30 98 C 10.8316 0.605189 -1.48977 0
M  V30 99 O 12.0216 0.425685 -1.68919 0
M  V30 100 C 9.1536 0.723523 -3.33134 0
M  V30 101 H 10.3466 -1.01181 -2.82316 0
M  V30 102 H 7.8996 -0.562485 -1.45828 0
M  V30 103 H 8.6346 1.56008 -2.84309 0
M  V30 104 H 8.4196 0.148436 -3.91819 0
M  V30 105 H 9.9096 1.13344 -4.01924 0
M  V30 106 N 10.3467 1.47872 -0.545128 0
M  V30 107 C 11.2797 2.2675 0.256885 0
M  V30 108 C 12.2577 1.33293 0.931228 0
M  V30 109 O 13.4417 1.62657 0.95262 0
M  V30 110 C 10.5687 3.09976 1.36501 0
M  V30 111 C 9.6147 4.1892 0.800496 0
M  V30 112 S 10.4477 5.34397 -0.343505 0
M  V30 113 C 11.6037 6.21186 0.766733 0
M  V30 114 H 11.8367 2.94425 -0.412479 0
M  V30 115 H 9.3697 1.50806 -0.331204 0
M  V30 116 H 11.3277 3.585 1.9997 0
M  V30 117 H 9.9887 2.41686 2.00616 0
M  V30 118 H 9.1817 4.76836 1.63227 0
M  V30 119 H 8.7837 3.73215 0.242217 0
M  V30 120 H 11.0757 6.56804 1.66178 0
M  V30 121 H 12.0187 7.07742 0.225204 0
M  V30 122 H 12.4267 5.54574 1.05396 0
M  V30 123 N 11.8248 0.280983 1.55075 0
M  V30 124 C 13.0728 -0.333455 1.9933 0
M  V30 125 C 13.3938 -1.55937 1.17085 0
M  V30 126 O 12.6638 -1.94143 0.261805 0
M  V30 127 H 11.2438 -0.126197 0.736263 0
M  V30 128 H 13.9058 0.387678 1.91005 0
M  V30 129 H 13.0018 -0.619292 3.05894 0
M  V30 130 N 13.3029 -1.57598 0.00835791 0
M  V30 131 C 14.2359 -2.04409 -1.01451 0
M  V30 132 C 15.2139 -0.935609 -1.32985 0
M  V30 133 O 16.3979 -1.20437 -1.45007 0
M  V30 134 C 13.5249 -2.44872 -2.33999 0
M  V30 135 C 12.5709 -3.66535 -2.18069 0
M  V30 136 S 13.4039 -5.14095 -1.4989 0
M  V30 137 C 14.5599 -5.57835 -2.8385 0
M  V30 138 H 14.7929 -2.90849 -0.615961 0
M  V30 139 H 12.3259 -1.53063 -0.202752 0
M  V30 140 H 14.2839 -2.68852 -3.10208 0
M  V30 141 H 12.9449 -1.58815 -2.70992 0
M  V30 142 H 12.1379 -3.92626 -3.16008 0
M  V30 143 H 11.7399 -3.426 -1.50004 0
M  V30 144 H 14.0319 -5.60806 -3.80136 0
M  V30 145 H 14.9749 -6.57667 -2.62449 0
M  V30 146 H 15.3829 -4.85421 -2.88144 0
M  V30 147 N 14.781 0.264519 -1.55364 0
M  V30 148 C 16.03 0.992812 -1.75574 0
M  V30 149 C 16.343 1.87142 -0.568979 0
M  V30 150 O 17.549 2.63513 -0.653682 0
M  V30 151 C 16.005 1.81519 -3.10771 0
M  V30 152 C 15.613 0.984839 -4.37041 0
M  V30 153 C 17.357 2.53727 -3.40327 0
M  V30 154 C 15.264 1.80209 -5.63275 0
M  V30 155 H 14.194 0.374412 -0.65447 0
M  V30 156 H 16.845 0.248138 -1.81815 0
M  V30 157 H 15.227 2.60115 -2.98591 0
M  V30 158 H 16.401 0.242455 -4.60162 0
M  V30 159 H 14.716 0.37691 -4.14691 0
M  V30 160 H 17.313 3.15292 -4.3185 0
M  V30 161 H 17.656 3.24447 -2.60845 0
M  V30 162 H 18.189 1.82156 -3.53644 0
M  V30 163 H 14.928 1.13896 -6.45529 0
M  V30 164 H 14.448 2.52022 -5.44284 0
M  V30 165 H 16.127 2.37364 -6.01887 0
M  V30 166 N 16.2591 1.48442 0.529413 0
M  V30 167 C 17.5081 1.55742 1.28169 0
M  V30 168 C 17.8211 0.236511 1.94165 0
M  V30 169 O 19.0271 0.187761 2.7085 0
M  V30 170 C 17.4831 2.74667 2.32564 0
M  V30 171 C 17.0911 4.13402 1.72636 0
M  V30 172 C 18.8351 2.9128 3.08798 0
M  V30 173 C 16.7421 5.23587 2.74975 0
M  V30 174 H 15.6721 0.579796 0.48203 0
M  V30 175 H 18.3231 1.74776 0.559056 0
M  V30 176 H 16.7051 2.49067 3.07866 0
M  V30 177 H 17.8791 4.49022 1.03519 0
M  V30 178 H 16.1941 4.0191 1.08892 0
M  V30 179 H 18.7911 3.70767 3.85274 0
M  V30 180 H 19.1341 2.00757 3.64695 0
M  V30 181 H 19.6671 3.16782 2.40611 0
M  V30 182 H 16.4061 6.16076 2.23897 0
M  V30 183 H 15.9261 4.92454 3.42417 0
M  V30 184 H 17.6051 5.51724 3.37949 0
M  V30 185 N 17.7372 -0.778329 1.37039 0
M  V30 186 C 19.0142 -1.52551 1.22424 0
M  V30 187 C 19.3942 -2.10288 -0.184964 0
M  V30 188 O 18.7422 -1.94953 -1.19187 0
M  V30 189 C 18.9522 -2.61164 2.31504 0
M  V30 190 C 20.3002 -3.28746 2.68721 0
M  V30 191 O 21.3242 -2.71455 2.30631 0
M  V30 192 O 20.1832 -4.3231 3.3432 0
M  V30 193 H 17.2772 -0.675343 0.477326 0
M  V30 194 H 19.8232 -0.815859 1.48801 0
M  V30 195 H 18.5952 -2.16574 3.25901 0
M  V30 196 H 18.2182 -3.39737 2.06554 0
M  V30 197 N 19.2153 -1.21501 -1.00376 0
M  V30 198 C 20.4613 -1.03452 -1.74429 0
M  V30 199 C 20.7943 0.430764 -1.89362 0
M  V30 200 O 20.0693 1.31962 -1.42886 0
M  V30 201 C 20.3523 -1.73375 -3.15615 0
M  V30 202 C 20.2053 -3.27431 -3.08397 0
M  V30 203 C 21.5243 -1.47732 -4.14564 0
M  V30 204 H 18.6433 -0.377226 -0.633143 0
M  V30 205 H 21.2853 -1.49693 -1.17013 0
M  V30 206 H 19.4353 -1.34064 -3.64636 0
M  V30 207 H 21.1073 -3.76119 -2.67081 0
M  V30 208 H 19.3503 -3.5767 -2.45468 0
M  V30 209 H 20.0213 -3.71524 -4.08258 0
M  V30 210 H 22.4973 -1.8186 -3.74254 0
M  V30 211 H 21.3733 -1.99169 -5.11491 0
M  V30 212 H 21.6343 -0.407589 -4.40217 0
M  V30 213 N 20.6934 1.19889 -1.02296 0
M  V30 214 C 21.9404 1.8942 -0.715972 0
M  V30 215 C 22.2684 1.79251 0.754944 0
M  V30 216 O 21.5234 1.17526 1.56481 0
M  V30 217 C 21.8224 3.39883 -1.10518 0
M  V30 218 C 21.4884 3.70254 -2.57337 0
M  V30 219 C 20.1504 3.78254 -2.97452 0
M  V30 220 C 22.5024 3.84052 -3.52354 0
M  V30 221 C 19.8304 3.97514 -4.31509 0
M  V30 222 C 22.1824 4.04824 -4.86108 0
M  V30 223 C 20.8464 4.11054 -5.25919 0
M  V30 224 H 20.1164 0.693138 -0.261993 0
M  V30 225 H 22.7634 1.42012 -1.28472 0
M  V30 226 H 21.0684 3.8915 -0.454953 0
M  V30 227 H 22.7654 3.9199 -0.845261 0
M  V30 228 H 19.3554 3.64632 -2.25258 0
M  V30 229 H 23.5394 3.77221 -3.22518 0
M  V30 230 H 18.7954 4.00574 -4.61898 0
M  V30 231 H 22.9694 4.14442 -5.59653 0
M  V30 232 H 20.5964 4.2573 -6.29808 0
M  V30 233 N 22.1715 0.800033 1.35784 0
M  V30 234 C 23.3965 0.388511 2.03729 0
M  V30 235 C 23.8215 -0.990481 1.5991 0
M  V30 236 O 23.1795 -1.64013 0.772612 0
M  V30 237 C 23.2275 0.4726 3.5749 0
M  V30 238 O 22.3315 -0.51646 4.09153 0
M  V30 239 H 21.6725 0.163271 0.643614 0
M  V30 240 H 24.2025 1.0841 1.73518 0
M  V30 241 H 24.2125 0.34003 4.06581 0
M  V30 242 H 22.8875 1.47848 3.88734 0
M  V30 243 H 21.4645 -0.344673 3.71304 0
M  V30 244 N 23.6496 -1.47581 0.552962 0
M  V30 245 C 25.0656 -1.5818 0.212424 0
M  V30 246 C 25.2656 -1.55213 -1.28496 0
M  V30 247 O 24.3216 -1.45329 -2.06484 0
M  V30 248 C 25.6346 -2.88865 0.835318 0
M  V30 249 C 27.1826 -3.0244 0.806156 0
M  V30 250 C 27.6576 -4.35819 1.40804 0
M  V30 251 N 29.1486 -4.42444 1.37103 0
M  V30 252 C 29.8836 -5.44202 1.80641 0
M  V30 253 N 29.3796 -6.52795 2.32015 0
M  V30 254 N 31.1726 -5.35222 1.71738 0
M  V30 255 H 23.3236 -1.47753 1.52587 0
M  V30 256 H 25.5866 -0.702941 0.636064 0
M  V30 257 H 25.2926 -2.9676 1.88749 0
M  V30 258 H 25.1666 -3.7579 0.325848 0
M  V30 259 H 27.5536 -2.94144 -0.237317 0
M  V30 260 H 27.6346 -2.17068 1.35334 0
M  V30 261 H 27.2786 -4.44871 2.45056 0
M  V30 262 H 27.2086 -5.19916 0.836338 0
M  V30 263 H 29.6996 -3.6456 0.995202 0
M  V30 264 H 30.0126 -7.26609 2.63171 0
M  V30 265 H 28.3576 -6.53696 2.36023 0
M  V30 266 H 31.5486 -4.49284 1.31382 0
M  V30 267 H 31.7216 -6.14389 2.05987 0
M  V30 268 N 25.1277 -0.289203 -1.54924 0
M  V30 269 C 26.3577 0.325989 -2.04012 0
M  V30 270 C 26.7657 1.48961 -1.1665 0
M  V30 271 O 26.1087 1.82794 -0.1822 0
M  V30 272 C 26.1707 0.856112 -3.49158 0
M  V30 273 C 25.8347 -0.180697 -4.56643 0
M  V30 274 C 26.8317 -1.0051 -5.10092 0
M  V30 275 C 24.5167 -0.318998 -5.01286 0
M  V30 276 C 26.5107 -1.95385 -6.06715 0
M  V30 277 C 24.1977 -1.27121 -5.97732 0
M  V30 278 C 25.1957 -2.08713 -6.50329 0
M  V30 279 O 24.8837 -3.02322 -7.44887 0
M  V30 280 H 24.6157 0.0765276 -0.671654 0
M  V30 281 H 27.1697 -0.423254 -2.00992 0
M  V30 282 H 25.3997 1.65567 -3.49463 0
M  V30 283 H 27.0887 1.38591 -3.81507 0
M  V30 284 H 27.8547 -0.90906 -4.76404 0
M  V30 285 H 23.7337 0.306108 -4.59983 0
M  V30 286 H 27.2777 -2.59111 -6.47694 0
M  V30 287 H 23.1747 -1.36801 -6.30837 0
M  V30 288 H 23.9427 -2.97165 -7.6265 0
M  V30 289 N 26.6058 1.57591 -0.0167156 0
M  V30 290 C 27.8308 1.9598 0.67872 0
M  V30 291 C 28.2558 0.892546 1.65575 0
M  V30 292 O 27.6138 -0.147772 1.80697 0
M  V30 293 C 27.6618 3.33468 1.37227 0
M  V30 294 O 26.7658 3.28954 2.48722 0
M  V30 295 H 26.1068 0.639339 0.17928 0
M  V30 296 H 28.6368 2.04463 -0.0748802 0
M  V30 297 H 28.6468 3.69417 1.7319 0
M  V30 298 H 27.3218 4.10694 0.656007 0
M  V30 299 H 25.8988 3.04705 2.14963 0
M  V30 300 N 28.0839 -0.256276 1.55502 0
M  V30 301 C 29.3319 -0.983672 1.76545 0
M  V30 302 C 29.6529 -1.86206 0.578982 0
M  V30 303 O 28.9229 -1.91656 -0.405577 0
M  V30 304 H 27.5029 -0.366191 0.651086 0
M  V30 305 H 30.1649 -0.276479 1.92929 0
M  V30 306 H 29.2609 -1.61087 2.67315 0
M  V30 307 N 29.562 -1.4872 -0.521534 0
M  V30 308 C 30.787 -1.61101 -1.30618 0
M  V30 309 C 31.212 -0.274611 -1.86085 0
M  V30 310 O 30.57 0.754937 -1.64834 0
M  V30 311 C 30.618 -2.66709 -2.4269 0
M  V30 312 O 29.722 -2.24456 -3.45967 0
M  V30 313 H 29.063 -0.539921 -0.386499 0
M  V30 314 H 31.593 -1.94767 -0.626645 0
M  V30 315 H 31.603 -2.88245 -2.88754 0
M  V30 316 H 30.278 -3.63727 -2.01682 0
M  V30 317 H 28.855 -2.13168 -3.05964 0
M  V30 318 N 31.0401 0.771051 -1.3745 0
M  V30 319 C 31.9501 1.91538 -1.35464 0
M  V30 320 C 32.9661 1.72134 -0.254123 0
M  V30 321 O 34.1421 1.95358 -0.489626 0
M  V30 322 C 31.2071 3.26671 -1.16134 0
M  V30 323 C 30.2681 3.58723 -2.35831 0
M  V30 324 C 29.5011 4.87409 -2.17413 0
M  V30 325 O 29.7241 5.58506 -1.15876 0
M  V30 326 O 28.6581 5.18539 -3.05615 0
M  V30 327 H 32.4841 1.96165 -2.31847 0
M  V30 328 H 30.0691 0.9139 -1.18187 0
M  V30 329 H 31.9511 4.07499 -1.07345 0
M  V30 330 H 30.6261 3.22894 -0.228251 0
M  V30 331 H 29.5331 2.78127 -2.50192 0
M  V30 332 H 30.8661 3.67243 -3.27709 0
M  V30 333 N 32.5182 1.22032 0.997298 0
M  V30 334 C 33.7662 1.04016 1.73278 0
M  V30 335 C 34.0872 -0.426255 1.90284 0
M  V30 336 O 33.3572 -1.30694 1.45931 0
M  V30 337 H 31.9372 0.381897 0.642 0
M  V30 338 H 34.5992 1.5347 1.20137 0
M  V30 339 H 33.6952 1.51441 2.72896 0
M  V30 340 N 33.9963 -1.19345 1.0293 0
M  V30 341 C 35.2213 -1.93538 0.745511 0
M  V30 342 C 35.6463 -1.75007 -0.689511 0
M  V30 343 O 35.0043 -1.05265 -1.47611 0
M  V30 344 C 35.0523 -3.43336 1.10239 0
M  V30 345 O 34.1563 -4.11806 0.221289 0
M  V30 346 H 33.4973 -0.604193 0.275404 0
M  V30 347 H 36.0273 -1.5141 1.37609 0
M  V30 348 H 36.0373 -3.94004 1.05947 0
M  V30 349 H 34.7123 -3.56146 2.14786 0
M  V30 350 H 33.2893 -3.715 0.322842 0
M  V30 351 N 35.4744 -0.807222 -1.35358 0
M  V30 352 C 36.7024 -0.400377 -2.02989 0
M  V30 353 C 37.1174 0.988859 -1.60832 0
M  V30 354 O 36.4744 1.63729 -0.806175 0
M  V30 355 C 36.5254 -0.474867 -3.58368 0
M  V30 356 O 36.2464 -1.80933 -3.98992 0
M  V30 357 C 37.7474 -0.0609112 -4.43258 0
M  V30 358 H 34.9674 -0.162587 -0.651004 0
M  V30 359 H 37.5114 -1.09102 -1.72965 0
M  V30 360 H 35.6664 0.167534 -3.87038 0
M  V30 361 H 36.0804 -1.77256 -4.9364 0
M  V30 362 H 37.5544 -0.164145 -5.51756 0
M  V30 363 H 38.0314 0.993831 -4.27808 0
M  V30 364 H 38.6374 -0.676492 -4.19885 0
M  V30 365 N 36.9525 1.47285 -0.560781 0
M  V30 366 C 37.8845 2.28118 0.222438 0
M  V30 367 C 38.8975 1.37219 0.876056 0
M  V30 368 O 40.0865 1.62011 0.749307 0
M  V30 369 C 37.1865 3.1159 1.33285 0
M  V30 370 C 36.3595 4.30473 0.77534 0
M  V30 371 C 35.4185 4.95513 1.77069 0
M  V30 372 O 34.4445 5.53792 1.31539 0
M  V30 373 N 35.6465 4.90531 3.10418 0
M  V30 374 H 38.4115 2.95976 -0.470958 0
M  V30 375 H 35.9725 1.56955 -0.39709 0
M  V30 376 H 37.9645 3.51967 1.99752 0
M  V30 377 H 36.5345 2.45951 1.92943 0
M  V30 378 H 35.7545 3.94144 -0.0662113 0
M  V30 379 H 37.0425 5.07362 0.382272 0
M  V30 380 H 36.4405 4.44389 3.5005 0
M  V30 381 H 34.9975 5.34917 3.72434 0
M  V30 382 N 38.4306 0.297415 1.54768 0
M  V30 383 C 39.6586 -0.315623 2.04478 0
M  V30 384 C 40.0736 -1.47792 1.17486 0
M  V30 385 O 39.4306 -1.81404 0.19971 0
M  V30 386 C 39.4816 -0.7753 3.53088 0
M  V30 387 O 39.2026 0.340732 4.36773 0
M  V30 388 C 40.7036 -1.45386 4.18781 0
M  V30 389 H 37.9236 -0.0690887 0.667434 0
M  V30 390 H 40.4676 0.436003 1.99798 0
M  V30 391 H 38.6226 -1.47696 3.58141 0
M  V30 392 H 39.0366 -0.0165035 5.24497 0
M  V30 393 H 40.5106 -1.72669 5.24299 0
M  V30 394 H 40.9876 -2.39275 3.68299 0
M  V30 395 H 41.5936 -0.795475 4.17795 0
M  V30 396 N 39.9087 -1.5758 0.0250728 0
M  V30 397 C 40.8387 -2.13007 -0.956575 0
M  V30 398 C 41.8197 -1.0452 -1.342 0
M  V30 399 O 43.0047 -1.32332 -1.42133 0
M  V30 400 C 40.1347 -2.65386 -2.24026 0
M  V30 401 C 39.0887 -3.78623 -1.99571 0
M  V30 402 C 38.4147 -4.17414 -3.3417 0
M  V30 403 C 39.7147 -5.04867 -1.33814 0
M  V30 404 H 41.4087 -2.9528 -0.494991 0
M  V30 405 H 38.9547 -1.42042 -0.236651 0
M  V30 406 H 40.9077 -3.02794 -2.93076 0
M  V30 407 H 39.6317 -1.80268 -2.72343 0
M  V30 408 H 38.2907 -3.41646 -1.32941 0
M  V30 409 H 37.9387 -3.29284 -3.80238 0
M  V30 410 H 37.6387 -4.93719 -3.18615 0
M  V30 411 H 39.1627 -4.57402 -4.04495 0
M  V30 412 H 40.5767 -5.39888 -1.92857 0
M  V30 413 H 38.9737 -5.86144 -1.28669 0
M  V30 414 H 40.0437 -4.83904 -0.310561 0
M  V30 415 N 41.3868 0.248026 -1.55636 0
M  V30 416 C 42.6148 0.993808 -1.81469 0
M  V30 417 C 43.0298 1.78991 -0.60064 0
M  V30 418 O 42.3868 1.77345 0.430682 0
M  V30 419 C 42.4378 1.93258 -3.05506 0
M  V30 420 O 42.1588 1.16869 -4.22224 0
M  V30 421 C 43.6598 2.79444 -3.4413 0
M  V30 422 H 40.8798 0.292486 -0.603898 0
M  V30 423 H 43.4238 0.271253 -2.02693 0
M  V30 424 H 41.5788 2.60943 -2.86335 0
M  V30 425 H 41.9928 1.80359 -4.92515 0
M  V30 426 H 43.4668 3.41066 -4.34026 0
M  V30 427 H 43.9438 3.50499 -2.64665 0
M  V30 428 H 44.5498 2.17214 -3.65648 0
M  V30 429 N 42.8649 1.48995 0.513639 0
M  V30 430 C 43.8119 1.6473 1.61656 0
M  V30 431 C 44.7819 0.488984 1.58739 0
M  V30 432 O 45.9669 0.714478 1.76918 0
M  V30 433 C 43.1069 1.7082 2.99858 0
M  V30 434 C 42.2199 2.9787 3.12885 0
M  V30 435 C 41.3549 2.95017 4.41744 0
M  V30 436 C 40.3939 4.16702 4.48359 0
M  V30 437 N 39.5309 4.11832 5.68629 0
M  V30 438 H 44.3709 2.58909 1.47547 0
M  V30 439 H 41.9079 1.28382 0.71808 0
M  V30 440 H 43.8659 1.72331 3.79944 0
M  V30 441 H 42.4959 0.801181 3.12699 0
M  V30 442 H 41.5479 3.06029 2.25944 0
M  V30 443 H 42.8599 3.8786 3.13633 0
M  V30 444 H 42.0139 2.95021 5.30139 0
M  V30 445 H 40.7529 2.02784 4.43542 0
M  V30 446 H 39.7579 4.16955 3.58369 0
M  V30 447 H 40.9829 5.10113 4.48287 0
M  V30 448 H 38.9289 3.22428 5.71293 0
M  V30 449 H 38.8459 4.95543 5.7094 0
M  V30 450 H 40.1139 4.1592 6.59266 0
M  V30 451 N 44.343 -0.763751 1.37857 0
M  V30 452 C 45.591 -1.51957 1.33243 0
M  V30 453 C 45.912 -1.94835 -0.0801709 0
M  V30 454 O 45.182 -1.66894 -1.02582 0
M  V30 455 H 43.762 -0.563626 0.49024 0
M  V30 456 H 46.424 -0.908504 1.7243 0
M  V30 457 H 45.52 -2.41523 1.97669 0
M  V30 458 N 45.8211 -1.22559 -0.990812 0
M  V30 459 C 46.7311 -1.01394 -2.11557 0
M  V30 460 C 47.7471 0.0383962 -1.73958 0
M  V30 461 O 48.9231 -0.154787 -2.00804 0
M  V30 462 C 45.9881 -0.596569 -3.41529 0
M  V30 463 C 45.0491 -1.72276 -3.93217 0
M  V30 464 C 44.2821 -1.32521 -5.16985 0
M  V30 465 O 44.5051 -0.204909 -5.70032 0
M  V30 466 O 43.4391 -2.14247 -5.62478 0
M  V30 467 H 47.2651 -1.95633 -2.32296 0
M  V30 468 H 44.8501 -1.01172 -1.0993 0
M  V30 469 H 46.7321 -0.374263 -4.19735 0
M  V30 470 H 45.4071 0.316939 -3.22145 0
M  V30 471 H 44.3141 -1.99961 -3.16174 0
M  V30 472 H 45.6471 -2.61421 -4.17037 0
M  V30 473 N 47.2992 1.18797 -1.03562 0
M  V30 474 C 48.2292 2.24472 -0.643019 0
M  V30 475 C 49.2102 1.66433 0.351283 0
M  V30 476 O 50.3952 1.92803 0.232505 0
M  V30 477 C 47.5252 3.473 4.24935e-05 0
M  V30 478 C 46.4792 4.18055 -0.917257 0
M  V30 479 C 45.8052 5.34519 -0.138941 0
M  V30 480 C 47.1052 4.72109 -2.23407 0
M  V30 481 H 48.7992 2.57566 -1.52643 0
M  V30 482 H 46.3452 1.23806 -0.735394 0
M  V30 483 H 48.2982 4.20426 0.286383 0
M  V30 484 H 47.0222 3.13424 0.918299 0
M  V30 485 H 45.6812 3.46821 -1.1879 0
M  V30 486 H 45.3292 4.96891 0.781562 0
M  V30 487 H 45.0292 5.82794 -0.750005 0
M  V30 488 H 46.5532 6.10438 0.1405 0
M  V30 489 H 47.9672 5.36955 -2.00879 0
M  V30 490 H 46.3642 5.30897 -2.79765 0
M  V30 491 H 47.4342 3.89807 -2.88407 0
M  V30 492 N 48.7773 0.814389 1.34928 0
M  V30 493 C 49.7243 0.22822 2.29669 0
M  V30 494 C 50.6943 -0.642164 1.53184 0
M  V30 495 O 51.8793 -0.585605 1.81591 0
M  V30 496 C 49.0193 -0.61089 3.3965 0
M  V30 497 C 48.1323 0.280792 4.31086 0
M  V30 498 C 47.2673 -0.567067 5.28165 0
M  V30 499 C 46.3063 0.324531 6.11239 0
M  V30 500 N 45.4433 -0.483756 7.00431 0
M  V30 501 H 50.2833 1.04153 2.79206 0
M  V30 502 H 47.8203 0.525133 1.37407 0
M  V30 503 H 49.7783 -1.11263 4.0209 0
M  V30 504 H 48.4083 -1.38939 2.91369 0
M  V30 505 H 47.4603 0.900688 3.69583 0
M  V30 506 H 48.7723 0.966723 4.89342 0
M  V30 507 H 47.9263 -1.13363 5.96015 0
M  V30 508 H 46.6653 -1.28654 4.70425 0
M  V30 509 H 45.6703 0.903298 5.42329 0
M  V30 510 H 46.8953 1.04198 6.71059 0
M  V30 511 H 44.8413 -1.18706 6.45171 0
M  V30 512 H 44.7583 0.143965 7.55863 0
M  V30 513 H 46.0263 -1.03334 7.7262 0
M  V30 514 N 50.2554 -1.46986 0.568584 0
M  V30 515 C 51.5014 -2.02741 0.0488709 0
M  V30 516 C 51.8344 -1.44077 -1.30214 0
M  V30 517 O 51.1094 -0.600552 -1.84996 0
M  V30 518 C 51.3924 -3.60086 -0.032047 0
M  V30 519 C 51.2454 -4.29162 1.34686 0
M  V30 520 C 52.5644 -4.33838 -0.739798 0
M  V30 521 H 49.6834 -0.736749 0.0192338 0
M  V30 522 H 52.3254 -1.75289 0.733065 0
M  V30 523 H 50.4754 -3.83606 -0.61473 0
M  V30 524 H 52.1474 -4.16948 1.97362 0
M  V30 525 H 50.3904 -3.89073 1.91846 0
M  V30 526 H 51.0614 -5.37826 1.24285 0
M  V30 527 H 53.5374 -4.15378 -0.244939 0
M  V30 528 H 52.4134 -5.43537 -0.765406 0
M  V30 529 H 52.6744 -4.03875 -1.79827 0
M  V30 530 N 51.7335 -0.305618 -1.54608 0
M  V30 531 C 52.6635 0.561482 -2.26649 0
M  V30 532 C 53.6445 1.13415 -1.26772 0
M  V30 533 O 54.8295 1.16262 -1.55553 0
M  V30 534 C 51.9595 1.73122 -3.01075 0
M  V30 535 C 50.9135 1.2887 -4.08138 0
M  V30 536 C 50.2395 2.54396 -4.70305 0
M  V30 537 C 51.5395 0.416578 -5.20636 0
M  V30 538 H 53.2335 -0.0393902 -2.99374 0
M  V30 539 H 50.7795 -0.020385 -1.43986 0
M  V30 540 H 52.7325 2.34396 -3.50195 0
M  V30 541 H 51.4565 2.3584 -2.25936 0
M  V30 542 H 50.1155 0.698991 -3.59875 0
M  V30 543 H 49.7635 3.15439 -3.918 0
M  V30 544 H 49.4635 2.25486 -5.42614 0
M  V30 545 H 50.9875 3.16464 -5.2219 0
M  V30 546 H 52.4015 0.935116 -5.65622 0
M  V30 547 H 50.7985 0.221046 -5.99693 0
M  V30 548 H 51.8685 -0.557162 -4.81688 0
M  V30 549 N 53.2116 1.57565 -0.0334293 0
M  V30 550 C 54.1446 2.05997 0.981866 0
M  V30 551 C 55.1226 0.956647 1.3148 0
M  V30 552 O 56.3066 1.22729 1.43073 0
M  V30 553 C 53.4336 2.48564 2.30074 0
M  V30 554 C 52.4796 3.69958 2.12211 0
M  V30 555 S 53.3126 5.16414 1.41692 0
M  V30 556 C 54.4686 5.6228 2.7494 0
M  V30 557 H 54.7016 2.91792 0.569612 0
M  V30 558 H 52.2346 1.53366 0.178376 0
M  V30 559 H 54.1926 2.73753 3.05892 0
M  V30 560 H 52.8536 1.63106 2.68431 0
M  V30 561 H 52.0466 3.97603 3.09722 0
M  V30 562 H 51.6486 3.44943 1.44535 0
M  V30 563 H 53.9406 5.66783 3.71165 0
M  V30 564 H 54.8836 6.61759 2.51953 0
M  V30 565 H 55.2916 4.89944 2.80384 0
M  V30 566 N 54.6897 -0.239769 1.55765 0
M  V30 567 C 55.5997 -1.31831 1.94056 0
M  V30 568 C 56.6157 -1.52275 0.841925 0
M  V30 569 O 57.7917 -1.65759 1.14394 0
M  V30 570 C 54.8567 -2.65156 2.23368 0
M  V30 571 C 53.9177 -2.53173 3.46701 0
M  V30 572 C 53.1507 -3.8014 3.74606 0
M  V30 573 O 53.3737 -4.82343 3.04469 0
M  V30 574 O 52.3077 -3.78344 4.68123 0
M  V30 575 H 56.1337 -1.02347 2.85935 0
M  V30 576 H 53.7187 -0.441123 1.42739 0
M  V30 577 H 55.6007 -3.43929 2.43497 0
M  V30 578 H 54.2757 -2.94358 1.34666 0
M  V30 579 H 53.1827 -1.72662 3.31871 0
M  V30 580 H 54.5157 -2.28915 4.35728 0
M  V30 581 N 56.1678 -1.49265 -0.50573 0
M  V30 582 C 57.1148 -1.65585 -1.6078 0
M  V30 583 C 58.0848 -0.497396 -1.58478 0
M  V30 584 O 59.2698 -0.72385 -1.76536 0
M  V30 585 C 56.4098 -1.72408 -2.98948 0
M  V30 586 C 55.5228 -2.99525 -3.11301 0
M  V30 587 C 54.6578 -2.97356 -4.40174 0
M  V30 588 C 53.6968 -4.19074 -4.46143 0
M  V30 589 N 52.8338 -4.14841 -5.66437 0
M  V30 590 H 57.6738 -2.59688 -1.46172 0
M  V30 591 H 55.2108 -1.28761 -0.711261 0
M  V30 592 H 57.1688 -1.74344 -3.79025 0
M  V30 593 H 55.7988 -0.817753 -3.1227 0
M  V30 594 H 54.8508 -3.07222 -2.24318 0
M  V30 595 H 56.1628 -3.89518 -3.11572 0
M  V30 596 H 55.3168 -2.97829 -5.28567 0
M  V30 597 H 54.0558 -2.05133 -4.42461 0
M  V30 598 H 53.0608 -4.1885 -3.56153 0
M  V30 599 H 54.2858 -5.12483 -4.45575 0
M  V30 600 H 52.2318 -3.25453 -5.69575 0
M  V30 601 H 52.1488 -4.98564 -5.68304 0
M  V30 602 H 53.4168 -4.1941 -6.57051 0
M  V30 603 N 57.6459 0.756429 -1.3826 0
M  V30 604 C 58.5559 1.9009 -1.37488 0
M  V30 605 C 59.5719 1.71855 -0.272366 0
M  V30 606 O 60.7479 1.94827 -0.510318 0
M  V30 607 C 57.8129 3.25421 -1.19592 0
M  V30 608 C 56.8739 3.56202 -2.39622 0
M  V30 609 C 56.1069 4.85075 -2.2257 0
M  V30 610 O 56.3299 5.57246 -1.21793 0
M  V30 611 O 55.2639 5.15269 -3.11098 0
M  V30 612 H 59.0899 1.93695 -2.33914 0
M  V30 613 H 56.6749 0.901313 -1.1915 0
M  V30 614 H 58.5569 4.06337 -1.11661 0
M  V30 615 H 57.2319 3.22634 -0.262486 0
M  V30 616 H 56.1389 2.75458 -2.53128 0
M  V30 617 H 57.4719 3.63747 -3.31586 0
M  V30 618 N 59.124 1.23083 0.984299 0
M  V30 619 C 60.054 1.03292 2.09411 0
M  V30 620 C 61.035 -0.048923 1.7003 0
M  V30 621 O 62.22 0.114967 1.93859 0
M  V30 622 C 59.35 0.619155 3.41736 0
M  V30 623 C 58.304 1.64791 3.95004 0
M  V30 624 C 57.63 1.0897 5.23478 0
M  V30 625 C 58.93 3.03999 4.24714 0
M  V30 626 H 60.624 1.96119 2.26225 0
M  V30 627 H 58.17 0.944344 1.08711 0
M  V30 628 H 60.123 0.467777 4.18796 0
M  V30 629 H 58.847 -0.344786 3.24775 0
M  V30 630 H 57.506 1.78721 3.20085 0
M  V30 631 H 57.154 0.11686 5.02864 0
M  V30 632 H 56.854 1.77704 5.60085 0
M  V30 633 H 58.378 0.950093 6.03163 0
M  V30 634 H 59.792 2.93393 4.92538 0
M  V30 635 H 58.189 3.69936 4.72512 0
M  V30 636 H 59.259 3.53285 3.32142 0
M  V30 637 N 60.6021 -1.18246 1.0419 0
M  V30 638 C 62.0131 -1.69914 0.773698 0
M  V30 639 C 62.3641 -1.83085 -0.705297 0
M  V30 640 O 61.4891 -1.51123 -1.5489 0
M  V30 641 C 62.0841 -3.08619 1.39784 0
M  V30 642 C 60.6431 -3.57494 1.17792 0
M  V30 643 C 59.7901 -2.34013 1.48773 0
M  V30 644 H 62.7411 -1.02904 1.20816 0
M  V30 645 H 62.7621 -3.71958 0.801714 0
M  V30 646 H 62.2741 -2.99001 2.47426 0
M  V30 647 H 60.3751 -3.72406 0.120295 0
M  V30 648 H 60.4881 -4.40852 1.87581 0
M  V30 649 H 58.8521 -2.37986 0.907463 0
M  V30 650 H 59.6351 -2.27013 2.57527 0
M  V30 651 N 62.0802 -0.821533 -1.34494 0
M  V30 652 C 63.3282 -0.408139 -1.97936 0
M  V30 653 C 63.6492 1.03193 -1.65457 0
M  V30 654 O 62.9192 1.71622 -0.944595 0
M  V30 655 H 61.4992 -0.147928 -0.732206 0
M  V30 656 H 64.1612 -1.05067 -1.64155 0
M  V30 657 H 63.2572 -0.52601 -3.07635 0
M  V30 658 N 63.5583 1.46682 -0.576371 0
M  V30 659 C 64.8053 2.02412 -0.0595339 0
M  V30 660 C 65.1333 1.44859 1.29793 0
M  V30 661 O 64.3883 0.601099 1.8624 0
M  V30 662 C 64.6873 3.57345 0.062886 0
M  V30 663 C 64.3533 4.33908 -1.22616 0
M  V30 664 C 63.0153 4.54544 -1.57933 0
M  V30 665 C 65.3673 4.77919 -2.07948 0
M  V30 666 C 62.6953 5.16444 -2.78393 0
M  V30 667 C 65.0473 5.41149 -3.27629 0
M  V30 668 C 63.7113 5.60014 -3.63236 0
M  V30 669 H 62.9813 0.74068 -0.021785 0
M  V30 670 H 65.6283 1.76128 -0.751735 0
M  V30 671 H 63.9333 3.82729 0.838178 0
M  V30 672 H 65.6303 3.98136 0.478439 0
M  V30 673 H 62.2203 4.18138 -0.941202 0
M  V30 674 H 66.4043 4.61738 -1.81967 0
M  V30 675 H 61.6603 5.29242 -3.06126 0
M  V30 676 H 65.8343 5.74211 -3.94023 0
M  V30 677 H 63.4613 6.07748 -4.56669 0
M  V30 678 N 65.0364 0.313813 1.54444 0
M  V30 679 C 65.9664 -0.549454 2.26943 0
M  V30 680 C 66.9474 -1.12741 1.27372 0
M  V30 681 O 68.1324 -1.15436 1.56167 0
M  V30 682 C 65.2624 -1.71523 3.01989 0
M  V30 683 C 64.2164 -1.26703 4.08816 0
M  V30 684 C 63.5424 -2.51898 4.71647 0
M  V30 685 C 64.8424 -0.388962 5.2085 0
M  V30 686 H 66.5364 0.0552661 2.99349 0
M  V30 687 H 64.0824 0.0280207 1.43973 0
M  V30 688 H 66.0354 -2.32535 3.51433 0
M  V30 689 H 64.7594 -2.34639 2.27183 0
M  V30 690 H 63.4184 -0.679896 3.6024 0
M  V30 691 H 63.0664 -3.13356 3.93468 0
M  V30 692 H 62.7664 -2.22605 5.43802 0
M  V30 693 H 64.2904 -3.1369 5.23861 0
M  V30 694 H 65.7044 -0.905107 5.6611 0
M  V30 695 H 64.1014 -0.18924 5.99802 0
M  V30 696 H 65.1714 0.582699 4.81386 0
M  V30 697 N 66.5145 -1.57545 0.0417849 0
M  V30 698 C 67.4465 -2.07904 -0.964799 0
M  V30 699 C 68.4595 -1.00497 -1.28079 0
M  V30 700 O 69.6485 -1.28087 -1.24322 0
M  V30 701 C 66.7485 -2.49928 -2.28887 0
M  V30 702 C 65.9215 -3.80562 -2.15619 0
M  V30 703 C 64.9805 -4.08999 -3.31069 0
M  V30 704 O 64.0065 -4.79061 -3.0739 0
M  V30 705 N 65.2085 -3.6017 -4.55256 0
M  V30 706 H 67.9735 -2.94886 -0.535029 0
M  V30 707 H 65.5345 -1.61252 -0.144681 0
M  V30 708 H 67.5265 -2.66034 -3.04972 0
M  V30 709 H 66.0965 -1.68245 -2.63463 0
M  V30 710 H 65.3165 -3.74129 -1.24183 0
M  V30 711 H 66.6045 -4.66126 -2.03971 0
M  V30 712 H 66.0025 -3.03512 -4.77386 0
M  V30 713 H 64.5595 -3.81532 -5.28466 0
M  V30 714 N 67.9926 0.231505 -1.5589 0
M  V30 715 C 69.2176 0.978689 -1.82856 0
M  V30 716 C 69.6426 1.77559 -0.620846 0
M  V30 717 O 69.0006 1.76119 0.430305 0
M  V30 718 C 69.0486 1.87997 -3.07716 0
M  V30 719 O 68.1526 2.97393 -2.85712 0
M  V30 720 H 67.4936 0.277663 -0.603158 0
M  V30 721 H 70.0236 0.24783 -2.03093 0
M  V30 722 H 70.0336 2.2917 -3.37558 0
M  V30 723 H 68.7086 1.29417 -3.95252 0
M  V30 724 H 67.2856 2.60238 -2.67078 0
M  V30 725 N 69.4707 1.49531 0.497807 0
M  V30 726 C 70.7187 1.58865 1.24926 0
M  V30 727 C 71.0397 0.278721 1.92998 0
M  V30 728 O 70.3097 -0.702144 1.82885 0
M  V30 729 H 68.8897 0.585343 0.464094 0
M  V30 730 H 71.5517 1.86174 0.57666 0
M  V30 731 H 70.6477 2.38633 2.01149 0
M  V30 732 N 70.9488 -0.749086 1.3866 0
M  V30 733 C 71.8958 -1.86291 1.36251 0
M  V30 734 C 72.8658 -1.64578 0.224347 0
M  V30 735 O 74.0508 -1.86181 0.417279 0
M  V30 736 C 71.1908 -3.23644 1.19786 0
M  V30 737 C 70.3038 -3.57158 2.43027 0
M  V30 738 C 69.4388 -4.83838 2.19258 0
M  V30 739 C 68.4778 -5.10152 3.38247 0
M  V30 740 N 67.6148 -6.28029 3.13884 0
M  V30 741 H 72.4548 -1.87685 2.3147 0
M  V30 742 H 69.9918 -0.917287 1.14997 0
M  V30 743 H 71.9498 -4.0291 1.08254 0
M  V30 744 H 70.5798 -3.21566 0.282031 0
M  V30 745 H 69.6318 -2.72701 2.65214 0
M  V30 746 H 70.9438 -3.7253 3.31697 0
M  V30 747 H 70.0978 -5.71057 2.04888 0
M  V30 748 H 68.8368 -4.70614 1.2796 0
M  V30 749 H 67.8418 -4.21401 3.53131 0
M  V30 750 H 69.0668 -5.25271 4.30427 0
M  V30 751 H 67.0128 -6.1612 2.25238 0
M  V30 752 H 66.9298 -6.43922 3.96106 0
M  V30 753 H 68.1978 -7.18124 3.03179 0
M  V30 754 N 72.4269 -1.23603 -0.977757 0
M  V30 755 C 73.7039 -0.977897 -1.69401 0
M  V30 756 C 74.0839 0.502738 -2.05026 0
M  V30 757 O 73.4319 1.47459 -1.74551 0
M  V30 758 C 73.6419 -1.89077 -2.93345 0
M  V30 759 C 74.9899 -2.15579 -3.65802 0
M  V30 760 O 76.0139 -1.86648 -3.03383 0
M  V30 761 O 74.8729 -2.64658 -4.78141 0
M  V30 762 H 71.9669 -0.369025 -0.740101 0
M  V30 763 H 74.5129 -1.34657 -1.03274 0
M  V30 764 H 73.2849 -2.89158 -2.63634 0
M  V30 765 H 72.9079 -1.52463 -3.67207 0
M  V30 766 N 73.905 1.17692 -1.04816 0
M  V30 767 C 74.852 2.21581 -0.645797 0
M  V30 768 C 75.822 1.62367 0.350159 0
M  V30 769 O 77.007 1.89254 0.242433 0
M  V30 770 C 74.147 3.45092 -0.0227568 0
M  V30 771 C 73.26 4.18613 -1.06709 0
M  V30 772 C 72.395 5.29602 -0.411767 0
M  V30 773 C 71.434 5.94904 -1.44067 0
M  V30 774 N 70.571 6.97414 -0.809781 0
M  V30 775 H 75.411 2.55353 -1.5362 0
M  V30 776 H 72.948 1.25438 -0.768364 0
M  V30 777 H 74.906 4.15679 0.35588 0
M  V30 778 H 73.536 3.11917 0.831122 0
M  V30 779 H 72.588 3.46779 -1.5636 0
M  V30 780 H 73.9 4.63293 -1.84827 0
M  V30 781 H 73.054 6.06696 0.0206623 0
M  V30 782 H 71.793 4.86045 0.401438 0
M  V30 783 H 70.798 5.16544 -1.88316 0
M  V30 784 H 72.023 6.40542 -2.25571 0
M  V30 785 H 69.969 6.55998 -0.0170186 0
M  V30 786 H 69.886 7.40386 -1.52856 0
M  V30 787 H 71.154 7.78463 -0.401999 0
M  V30 788 N 75.3831 0.828654 1.34056 0
M  V30 789 C 76.6601 0.341809 1.9259 0
M  V30 790 C 77.0401 -1.17158 1.75605 0
M  V30 791 O 76.3881 -1.98132 1.13824 0
M  V30 792 C 76.5981 0.777453 3.4023 0
M  V30 793 C 77.9461 0.779579 4.17382 0
M  V30 794 O 78.9701 0.7204 3.48839 0
M  V30 795 O 77.8291 0.857996 5.39723 0
M  V30 796 H 74.9231 0.0946085 0.821571 0
M  V30 797 H 77.4691 0.913827 1.42994 0
M  V30 798 H 76.2411 1.8196 3.46419 0
M  V30 799 H 75.8641 0.181444 3.97186 0
M  V30 800 N 76.8612 -1.46375 0.584142 0
M  V30 801 C 77.8242 -2.28784 -0.138108 0
M  V30 802 C 78.8242 -1.38471 -0.817462 0
M  V30 803 O 80.0142 -1.60833 -0.669199 0
M  V30 804 C 77.1462 -3.18892 -1.20503 0
M  V30 805 H 78.3392 -2.94117 0.586127 0
M  V30 806 H 75.8922 -1.52509 0.342171 0
M  V30 807 H 76.6272 -2.58309 -1.96079 0
M  V30 808 H 76.4122 -3.85388 -0.722384 0
M  V30 809 H 77.9022 -3.80914 -1.71155 0
M  V30 810 N 78.3393 -0.321999 -1.54275 0
M  V30 811 C 79.5853 0.281461 -2.00837 0
M  V30 812 C 79.9183 1.51909 -1.20985 0
M  V30 813 O 79.1933 1.923 -0.291733 0
M  V30 814 C 79.4763 0.617162 -3.54772 0
M  V30 815 C 79.3293 -0.631064 -4.45351 0
M  V30 816 C 80.6483 1.43542 -4.16033 0
M  V30 817 H 77.7673 0.100826 -0.730071 0
M  V30 818 H 80.4093 -0.438268 -1.84876 0
M  V30 819 H 78.5593 1.23034 -3.68504 0
M  V30 820 H 80.2313 -1.26934 -4.43492 0
M  V30 821 H 78.4743 -1.26025 -4.15091 0
M  V30 822 H 79.1453 -0.351735 -5.50878 0
M  V30 823 H 81.6213 0.917134 -4.05867 0
M  V30 824 H 80.4973 1.63907 -5.23856 0
M  V30 825 H 80.7583 2.43108 -3.69257 0
M  V30 826 N 79.8174 1.5752 -0.0501392 0
M  V30 827 C 81.0944 1.83996 0.663685 0
M  V30 828 C 81.4744 0.938339 1.89099 0
M  V30 829 O 80.8224 -0.00087759 2.285 0
M  V30 830 C 81.0324 3.33702 1.02196 0
M  V30 831 C 82.3804 4.00691 1.40469 0
M  V30 832 O 83.4044 3.38321 1.11433 0
M  V30 833 O 82.2634 5.10658 1.94654 0
M  V30 834 H 79.3574 0.759385 0.32751 0
M  V30 835 H 81.9034 1.69514 -0.0794238 0
M  V30 836 H 80.6754 3.91015 0.149364 0
M  V30 837 H 80.2984 3.53368 1.82255 0
M  V30 838 N 81.2955 -0.223234 1.56011 0
M  V30 839 C 82.2425 -1.27664 1.92277 0
M  V30 840 C 83.2125 -1.46659 0.779763 0
M  V30 841 O 84.3975 -1.60256 1.03551 0
M  V30 842 C 81.5375 -2.62234 2.24338 0
M  V30 843 C 80.6505 -2.51051 3.51564 0
M  V30 844 C 79.7855 -3.78133 3.7308 0
M  V30 845 C 78.8245 -3.61665 4.93827 0
M  V30 846 N 77.9615 -4.80693 5.11741 0
M  V30 847 H 82.8015 -0.960358 2.82101 0
M  V30 848 H 80.3385 -0.462901 1.39627 0
M  V30 849 H 82.2965 -3.40596 2.40936 0
M  V30 850 H 80.9265 -2.91961 1.3769 0
M  V30 851 H 79.9785 -1.64132 3.43169 0
M  V30 852 H 81.2905 -2.34803 4.40079 0
M  V30 853 H 80.4445 -4.64938 3.89766 0
M  V30 854 H 79.1835 -3.97304 2.82844 0
M  V30 855 H 78.1885 -2.73244 4.77093 0
M  V30 856 H 79.4135 -3.43966 5.85546 0
M  V30 857 H 77.3595 -5.00181 4.24446 0
M  V30 858 H 77.2765 -4.67165 5.94384 0
M  V30 859 H 78.5445 -5.6893 5.3286 0
M  V30 860 N 82.7736 -1.49793 -0.48987 0
M  V30 861 C 83.7036 -1.70201 -1.59856 0
M  V30 862 C 84.6846 -0.55076 -1.60937 0
M  V30 863 O 85.8696 -0.787841 -1.77501 0
M  V30 864 C 82.9996 -1.77882 -2.98287 0
M  V30 865 C 81.9536 -2.92907 -3.12073 0
M  V30 866 C 81.2796 -2.85712 -4.51965 0
M  V30 867 C 82.5796 -4.3369 -2.91051 0
M  V30 868 H 84.2736 -2.63025 -1.43032 0
M  V30 869 H 81.8196 -1.26574 -0.686664 0
M  V30 870 H 83.7726 -1.90744 -3.75759 0
M  V30 871 H 82.4966 -0.816653 -3.16225 0
M  V30 872 H 81.1556 -2.79665 -2.37029 0
M  V30 873 H 80.8036 -1.8738 -4.66795 0
M  V30 874 H 80.5036 -3.62921 -4.62128 0
M  V30 875 H 82.0276 -3.00598 -5.31482 0
M  V30 876 H 83.4416 -4.47555 -3.58284 0
M  V30 877 H 81.8386 -5.12205 -3.12675 0
M  V30 878 H 82.9086 -4.47362 -1.87071 0
M  V30 879 N 84.2517 0.741722 -1.39055 0
M  V30 880 C 85.1817 1.869 -1.39966 0
M  V30 881 C 86.1627 1.6804 -0.26392 0
M  V30 882 O 87.3477 1.88458 -0.468755 0
M  V30 883 C 84.4777 3.24572 -1.23574 0
M  V30 884 C 83.4317 3.58056 -2.34477 0
M  V30 885 C 82.7577 4.94593 -2.0318 0
M  V30 886 C 84.0577 3.61716 -3.76774 0
M  V30 887 H 85.7517 1.86395 -2.34302 0
M  V30 888 H 83.2977 0.895361 -1.1278 0
M  V30 889 H 85.2507 4.031 -1.22834 0
M  V30 890 H 83.9747 3.25587 -0.257045 0
M  V30 891 H 82.6337 2.81854 -2.34423 0
M  V30 892 H 82.2817 4.92181 -1.03765 0
M  V30 893 H 81.9817 5.17964 -2.77465 0
M  V30 894 H 83.5057 5.75486 -2.04079 0
M  V30 895 H 84.9197 4.30335 -3.78794 0
M  V30 896 H 83.3167 3.96603 -4.50362 0
M  V30 897 H 84.3867 2.61672 -4.08235 0
M  V30 898 N 85.7298 1.2412 0.971189 0
M  V30 899 C 86.6768 1.0305 2.06517 0
M  V30 900 C 87.6468 -0.0550666 1.66009 0
M  V30 901 O 88.8318 0.0988688 1.90544 0
M  V30 902 C 85.9718 0.637653 3.39158 0
M  V30 903 C 85.0848 1.79633 3.92882 0
M  V30 904 C 84.2198 1.34939 5.13775 0
M  V30 905 C 83.2588 2.47823 5.59687 0
M  V30 906 N 82.3958 2.04022 6.71803 0
M  V30 907 H 87.2358 1.96685 2.23873 0
M  V30 908 H 84.7728 0.979694 1.09729 0
M  V30 909 H 86.7308 0.390931 4.15364 0
M  V30 910 H 85.3608 -0.261693 3.21737 0
M  V30 911 H 84.4128 2.15681 3.13346 0
M  V30 912 H 85.7248 2.64466 4.22918 0
M  V30 913 H 84.8788 1.06134 5.97345 0
M  V30 914 H 83.6178 0.471557 4.85415 0
M  V30 915 H 82.6228 2.77392 4.74693 0
M  V30 916 H 83.8478 3.36158 5.90063 0
M  V30 917 H 81.7938 1.18632 6.45184 0
M  V30 918 H 81.7108 2.82409 7.01271 0
M  V30 919 H 82.9788 1.78347 7.58823 0
M  V30 920 N 87.2079 -1.17134 1.05439 0
M  V30 921 C 88.4849 -1.83411 0.679699 0
M  V30 922 C 88.8649 -1.9368 -0.839726 0
M  V30 923 O 88.2129 -1.47325 -1.74664 0
M  V30 924 C 88.4229 -3.20918 1.37159 0
M  V30 925 C 89.7709 -3.96796 1.51123 0
M  V30 926 O 90.7949 -3.30406 1.3308 0
M  V30 927 O 89.6539 -5.15778 1.80651 0
M  V30 928 H 86.7479 -0.79154 0.239569 0
M  V30 929 H 89.2939 -1.24411 1.15413 0
M  V30 930 H 88.0659 -3.08428 2.40807 0
M  V30 931 H 87.6889 -3.87587 0.886674 0
M  V30 932 N 88.686 -0.835752 -1.33615 0
M  V30 933 C 89.616 -0.281739 -2.31794 0
M  V30 934 C 90.597 0.608833 -1.58831 0
M  V30 935 O 91.782 0.533035 -1.86741 0
M  V30 936 C 88.912 0.546612 -3.42971 0
M  V30 937 C 87.866 -0.247904 -4.27281 0
M  V30 938 C 87.192 0.704001 -5.30045 0
M  V30 939 C 88.492 -1.46324 -5.01385 0
M  V30 940 H 90.186 -1.10206 -2.78379 0
M  V30 941 H 87.732 -0.531388 -1.33837 0
M  V30 942 H 89.685 0.944467 -4.1068 0
M  V30 943 H 88.409 1.40011 -2.95067 0
M  V30 944 H 87.068 -0.627281 -3.61194 0
M  V30 945 H 86.716 1.55381 -4.78399 0
M  V30 946 H 86.416 0.176524 -5.87335 0
M  V30 947 H 87.94 1.09944 -6.0062 0
M  V30 948 H 89.354 -1.13871 -5.61877 0
M  V30 949 H 87.751 -1.92728 -5.6831 0
M  V30 950 H 88.821 -2.23467 -4.30338 0
M  V30 951 N 90.1641 1.46063 -0.591896 0
M  V30 952 C 91.4411 1.95595 -0.0137119 0
M  V30 953 C 91.8211 1.5345 1.4497 0
M  V30 954 O 91.1691 0.789543 2.14426 0
M  V30 955 C 91.3791 3.48453 -0.195373 0
M  V30 956 C 92.7271 4.24546 -0.0679765 0
M  V30 957 O 93.7511 3.55982 -0.124681 0
M  V30 958 O 92.6101 5.46467 0.0600579 0
M  V30 959 H 89.7041 0.825795 0.0446279 0
M  V30 960 H 92.2501 1.56303 -0.660859 0
M  V30 961 H 91.0221 3.72045 -1.21235 0
M  V30 962 H 90.6451 3.94597 0.487775 0
M  V30 963 N 91.6422 0.330177 1.54103 0
M  V30 964 C 92.6052 -0.520144 2.2322 0
M  V30 965 C 93.6052 -1.03828 1.22786 0
M  V30 966 O 94.7952 -0.929652 1.4732 0
M  V30 967 C 91.9272 -1.72317 2.94142 0
M  V30 968 H 93.1202 0.0841605 2.99782 0
M  V30 969 H 90.6732 0.0813433 1.56088 0
M  V30 970 H 91.4082 -2.36653 2.21734 0
M  V30 971 H 91.1932 -1.35898 3.67796 0
M  V30 972 H 92.6832 -2.3266 3.46784 0
M  V30 973 N 93.1203 -1.57491 0.0584922 0
M  V30 974 C 94.0683 -2.13148 -0.931168 0
M  V30 975 C 95.0623 -1.06507 -1.31729 0
M  V30 976 O 96.2683 -1.24906 -1.29609 0
M  V30 977 H 92.6433 -0.68137 -0.31818 0
M  V30 978 H 94.6143 -2.95187 -0.436707 0
M  V30 979 C 93.3633 -2.69732 -2.19408 0
M  V30 980 H 92.6863 -3.51454 -1.90578 0
M  V30 981 H 94.1263 -3.12287 -2.86798 0
M  V30 982 C 92.5853 -1.63855 -2.94369 0
M  V30 983 O 93.1153 -1.05565 -3.87581 0
M  V30 984 N 91.3213 -1.35202 -2.57233 0
M  V30 985 H 90.8683 -1.82791 -1.81508 0
M  V30 986 H 90.8263 -0.645922 -3.07693 0
M  V30 987 N 94.5984 0.214957 -1.56127 0
M  V30 988 C 95.8464 0.936518 -1.79091 0
M  V30 989 C 96.1674 1.84606 -0.628148 0
M  V30 990 O 95.4374 1.92664 0.35462 0
M  V30 991 H 94.0174 0.3488 -0.660566 0
M  V30 992 H 96.6794 0.22523 -1.93594 0
M  V30 993 H 95.7754 1.53943 -2.71492 0
M  V30 994 N 96.0765 1.50051 0.48192 0
M  V30 995 C 97.3535 1.51009 1.2432 0
M  V30 996 C 97.7335 0.248587 2.09631 0
M  V30 997 O 97.0815 -0.768409 2.15192 0
M  V30 998 C 97.2915 2.79981 2.08355 0
M  V30 999 C 98.6395 3.3022 2.66908 0
M  V30 1000 O 99.6635 2.81228 2.18607 0
M  V30 1001 O 98.5225 4.15595 3.54884 0
M  V30 1002 H 95.6165 0.605239 0.563573 0
M  V30 1003 H 98.1625 1.62332 0.494627 0
M  V30 1004 H 96.9345 3.63275 1.45419 0
M  V30 1005 H 96.5575 2.7161 2.90368 0
M  V30 1006 N 97.5546 -0.734337 1.39446 0
M  V30 1007 C 98.5176 -1.83004 1.37994 0
M  V30 1008 C 99.5176 -1.58397 0.276938 0
M  V30 1009 O 100.708 -1.65785 0.534875 0
M  V30 1010 C 97.8396 -3.20802 1.1532 0
M  V30 1011 H 99.0326 -1.85694 2.35494 0
M  V30 1012 H 96.5856 -0.938059 1.25021 0
M  V30 1013 H 97.3206 -3.23772 0.185036 0
M  V30 1014 H 97.1056 -3.4006 1.95197 0
M  V30 1015 H 98.5956 -4.00862 1.17046 0
M  V30 1016 N 99.0327 -1.24633 -0.964593 0
M  V30 1017 C 99.9647 -0.999302 -2.06268 0
M  V30 1018 C 100.978 0.0323226 -1.62768 0
M  V30 1019 O 102.167 -0.205079 -1.77318 0
M  V30 1020 C 99.2667 -0.486816 -3.35385 0
M  V30 1021 C 98.4397 -1.5823 -4.07777 0
M  V30 1022 C 97.4987 -1.07191 -5.15166 0
M  V30 1023 O 96.5247 -1.76426 -5.41168 0
M  V30 1024 N 97.7267 0.0920373 -5.80427 0
M  V30 1025 H 100.492 -1.94477 -2.28033 0
M  V30 1026 H 98.0527 -1.15704 -1.13244 0
M  V30 1027 H 100.045 -0.130066 -4.04491 0
M  V30 1028 H 98.6147 0.364459 -3.10468 0
M  V30 1029 H 97.8347 -2.11109 -3.32906 0
M  V30 1030 H 99.1227 -2.31854 -4.52903 0
M  V30 1031 H 98.5207 0.670784 -5.61709 0
M  V30 1032 H 97.0777 0.389905 -6.50633 0
M  V30 1033 N 100.511 1.16574 -1.06058 0
M  V30 1034 C 101.757 1.87324 -0.777022 0
M  V30 1035 C 102.09 1.81351 0.694645 0
M  V30 1036 O 101.365 1.22753 1.50871 0
M  V30 1037 C 101.648 3.36991 -1.26922 0
M  V30 1038 C 101.501 3.51667 -2.80447 0
M  V30 1039 C 102.82 4.3131 -0.87521 0
M  V30 1040 H 99.9388 0.680191 -0.28374 0
M  V30 1041 H 102.581 1.37036 -1.3161 0
M  V30 1042 H 100.731 3.79949 -0.81063 0
M  V30 1043 H 102.403 3.17664 -3.34495 0
M  V30 1044 H 100.646 2.93656 -3.19294 0
M  V30 1045 H 101.317 4.56766 -3.0995 0
M  V30 1046 H 103.793 3.9624 -1.27014 0
M  V30 1047 H 102.669 5.34545 -1.2471 0
M  V30 1048 H 102.93 4.41552 0.220071 0
M  V30 1049 N 101.989 0.842826 1.3317 0
M  V30 1050 C 103.266 0.362216 1.92217 0
M  V30 1051 C 103.646 -1.15289 1.76838 0
M  V30 1052 O 102.994 -1.96914 1.15919 0
M  V30 1053 C 103.204 0.813495 3.39387 0
M  V30 1054 C 104.552 0.823804 4.16532 0
M  V30 1055 O 105.576 0.757358 3.48055 0
M  V30 1056 O 104.435 0.915193 5.38782 0
M  V30 1057 H 101.529 0.103317 0.820521 0
M  V30 1058 H 104.075 0.928942 1.42017 0
M  V30 1059 H 102.847 1.85624 3.4447 0
M  V30 1060 H 102.47 0.223561 3.96971 0
M  V30 1061 N 103.467 -1.45747 0.599634 0
M  V30 1062 C 104.714 -2.02292 0.0917284 0
M  V30 1063 C 105.042 -1.46906 -1.27472 0
M  V30 1064 O 104.297 -0.630652 -1.8526 0
M  V30 1065 C 104.596 -3.57399 -0.00602758 0
M  V30 1066 C 104.262 -4.31902 1.29503 0
M  V30 1067 C 102.924 -4.51974 1.65144 0
M  V30 1068 C 105.276 -4.74551 2.15525 0
M  V30 1069 C 102.604 -5.11949 2.86574 0
M  V30 1070 C 104.956 -5.35868 3.36196 0
M  V30 1071 C 103.62 -5.54165 3.72099 0
M  V30 1072 H 102.89 -0.740239 0.0335658 0
M  V30 1073 H 105.537 -1.7491 0.779661 0
M  V30 1074 H 103.842 -3.84014 -0.777183 0
M  V30 1075 H 105.539 -3.98846 -0.415038 0
M  V30 1076 H 102.129 -4.16588 1.00761 0
M  V30 1077 H 106.313 -4.58784 1.8929 0
M  V30 1078 H 101.569 -5.24305 3.14507 0
M  V30 1079 H 105.743 -5.6787 4.03109 0
M  V30 1080 H 103.37 -6.00406 4.6628 0
M  V30 1081 N 104.945 -0.338344 -1.53925 0
M  V30 1082 C 106.17 0.263987 -2.05713 0
M  V30 1083 C 106.595 1.43847 -1.21201 0
M  V30 1084 O 105.953 1.79904 -0.224535 0
M  V30 1085 C 106.001 0.662 -3.54471 0
M  V30 1086 O 105.105 1.76265 -3.72833 0
M  V30 1087 H 104.446 0.0448722 -0.662482 0
M  V30 1088 H 106.976 -0.491048 -1.9862 0
M  V30 1089 H 106.986 0.940594 -3.9701 0
M  V30 1090 H 105.661 -0.196937 -4.15433 0
M  V30 1091 H 104.238 1.48173 -3.42198 0
M  V30 1092 N 106.423 1.57458 -0.0668435 0
M  V30 1093 C 107.333 2.15937 0.916975 0
M  V30 1094 C 108.349 1.12123 1.33058 0
M  V30 1095 O 109.525 1.44366 1.40429 0
M  V30 1096 C 106.59 2.70547 2.16807 0
M  V30 1097 C 105.651 3.89215 1.81135 0
M  V30 1098 C 104.884 4.41211 3.0028 0
M  V30 1099 O 105.107 3.92225 4.14144 0
M  V30 1100 O 104.041 5.32605 2.80384 0
M  V30 1101 H 107.867 3.00354 0.449561 0
M  V30 1102 H 105.452 1.48584 0.155949 0
M  V30 1103 H 107.334 3.0557 2.90181 0
M  V30 1104 H 106.009 1.89192 2.62656 0
M  V30 1105 H 104.916 3.59054 1.05028 0
M  V30 1106 H 106.249 4.71848 1.40073 0
M  V30 1107 N 107.901 -0.206675 1.56239 0
M  V30 1108 C 109.148 -0.928842 1.79941 0
M  V30 1109 C 109.476 -1.83734 0.638131 0
M  V30 1110 O 108.731 -1.92039 -0.376746 0
M  V30 1111 C 109.03 -1.78675 3.09532 0
M  V30 1112 C 108.696 -1.03022 4.38973 0
M  V30 1113 C 107.358 -0.821302 4.74139 0
M  V30 1114 C 109.71 -0.497081 5.18824 0
M  V30 1115 C 107.038 -0.0675719 5.86661 0
M  V30 1116 C 109.39 0.24338 6.32132 0
M  V30 1117 C 108.054 0.463422 6.65889 0
M  V30 1118 H 107.324 -0.339887 0.658451 0
M  V30 1119 H 109.971 -0.195977 1.90495 0
M  V30 1120 H 108.276 -2.58794 2.94165 0
M  V30 1121 H 109.973 -2.34792 3.25075 0
M  V30 1122 H 106.563 -1.20306 4.11369 0
M  V30 1123 H 110.747 -0.645921 4.92079 0
M  V30 1124 H 106.003 0.112995 6.11296 0
M  V30 1125 H 110.177 0.66393 6.93228 0
M  V30 1126 H 107.804 1.04938 7.52922 0
M  V30 1127 N 109.379 -1.50304 -0.473955 0
M  V30 1128 C 110.628 -1.60392 -1.22301 0
M  V30 1129 C 110.941 -0.308411 -1.93153 0
M  V30 1130 O 112.147 -0.288156 -2.69966 0
M  V30 1131 C 110.603 -2.83109 -2.2221 0
M  V30 1132 C 110.211 -4.19524 -1.57173 0
M  V30 1133 C 111.955 -3.0254 -2.97775 0
M  V30 1134 C 109.862 -5.33431 -2.55353 0
M  V30 1135 H 108.792 -0.597286 -0.460179 0
M  V30 1136 H 111.443 -1.76731 -0.493803 0
M  V30 1137 H 109.825 -2.60322 -2.9841 0
M  V30 1138 H 110.999 -4.52554 -0.867824 0
M  V30 1139 H 109.314 -4.05674 -0.939002 0
M  V30 1140 H 111.911 -3.84811 -3.71248 0
M  V30 1141 H 112.254 -2.14154 -3.56992 0
M  V30 1142 H 112.787 -3.25494 -2.28688 0
M  V30 1143 H 109.526 -6.23962 -2.00878 0
M  V30 1144 H 109.046 -5.04823 -3.23904 0
M  V30 1145 H 110.725 -5.63887 -3.17239 0
M  V30 1146 N 110.857 0.726932 -1.39834 0
M  V30 1147 C 112.103 1.48884 -1.377 0
M  V30 1148 C 112.436 1.94185 0.0244852 0
M  V30 1149 O 111.711 1.67361 0.990986 0
M  V30 1150 C 111.994 2.72288 -2.3565 0
M  V30 1151 C 111.847 2.32956 -3.84775 0
M  V30 1152 C 113.166 3.74414 -2.31306 0
M  V30 1153 H 110.285 0.540062 -0.5015 0
M  V30 1154 H 112.927 0.830547 -1.70886 0
M  V30 1155 H 111.077 3.28457 -2.07481 0
M  V30 1156 H 112.749 1.82356 -4.23726 0
M  V30 1157 H 110.992 1.65088 -4.01159 0
M  V30 1158 H 111.663 3.21362 -4.4881 0
M  V30 1159 H 114.139 3.27849 -2.56231 0
M  V30 1160 H 113.015 4.58414 -3.01907 0
M  V30 1161 H 113.276 4.21909 -1.32081 0
M  V30 1162 N 112.336 1.25143 0.95797 0
M  V30 1163 C 113.583 1.09692 1.70217 0
M  V30 1164 C 113.911 -0.362654 1.91089 0
M  V30 1165 O 113.166 -1.28386 1.47701 0
M  V30 1166 C 113.465 1.79272 3.09187 0
M  V30 1167 C 113.131 3.29196 3.08125 0
M  V30 1168 C 111.793 3.70096 3.07543 0
M  V30 1169 C 114.145 4.24995 3.0171 0
M  V30 1170 C 111.473 5.05213 2.9829 0
M  V30 1171 C 113.825 5.60132 2.93999 0
M  V30 1172 C 112.489 6.00365 2.9175 0
M  V30 1173 H 111.759 0.401393 0.622868 0
M  V30 1174 H 114.406 1.55372 1.11945 0
M  V30 1175 H 112.711 1.26014 3.70982 0
M  V30 1176 H 114.408 1.64773 3.65583 0
M  V30 1177 H 110.998 2.96651 3.09348 0
M  V30 1178 H 115.182 3.9439 3.01281 0
M  V30 1179 H 110.438 5.35569 2.94916 0
M  V30 1180 H 114.612 6.3406 2.87996 0
M  V30 1181 H 112.239 7.05023 2.84336 0
M  V30 1182 N 113.814 -1.1601 1.06675 0
M  V30 1183 C 115.06 -1.86909 0.786945 0
M  V30 1184 C 115.393 -1.81717 -0.685018 0
M  V30 1185 O 114.668 -1.23551 -1.50218 0
M  V30 1186 C 114.951 -3.36313 1.28707 0
M  V30 1187 C 114.804 -3.50175 2.82308 0
M  V30 1188 C 116.123 -4.3084 0.898071 0
M  V30 1189 H 113.242 -0.678677 0.287343 0
M  V30 1190 H 115.884 -1.36336 1.32334 0
M  V30 1191 H 114.034 -3.79513 0.830768 0
M  V30 1192 H 115.706 -3.15886 3.36175 0
M  V30 1193 H 113.949 -2.91959 3.20847 0
M  V30 1194 H 114.62 -4.55116 3.12368 0
M  V30 1195 H 117.096 -3.95561 1.29114 0
M  V30 1196 H 115.972 -5.33876 1.27543 0
M  V30 1197 H 116.233 -4.41662 -0.196651 0
M  V30 1198 N 115.292 -0.849877 -1.32721 0
M  V30 1199 C 116.255 -0.296122 -2.27279 0
M  V30 1200 C 117.255 0.541458 -1.5141 0
M  V30 1201 O 118.445 0.353658 -1.70572 0
M  V30 1202 C 115.577 0.581579 -3.35902 0
M  V30 1203 H 116.77 -1.13064 -2.77771 0
M  V30 1204 H 114.323 -0.62383 -1.43311 0
M  V30 1205 H 115.058 1.43809 -2.9067 0
M  V30 1206 H 114.843 -0.0178814 -3.92096 0
M  V30 1207 H 116.333 0.961951 -4.0637 0
M  V30 1208 N 116.77 1.45427 -0.607355 0
M  V30 1209 C 117.733 2.28974 0.101693 0
M  V30 1210 C 118.733 1.39754 0.795329 0
M  V30 1211 O 119.923 1.61878 0.643527 0
M  V30 1212 C 117.055 3.20768 1.15414 0
M  V30 1213 H 118.248 2.93147 -0.632844 0
M  V30 1214 H 115.801 1.51945 -0.366391 0
M  V30 1215 H 116.536 2.61395 1.91945 0
M  V30 1216 H 116.321 3.86489 0.66098 0
M  V30 1217 H 117.811 3.83589 1.65073 0
M  V30 1218 N 118.248 0.346503 1.53744 0
M  V30 1219 C 119.497 -0.250122 2.00143 0
M  V30 1220 C 119.81 -1.51418 1.23822 0
M  V30 1221 O 121.016 -2.18823 1.60713 0
M  V30 1222 C 119.472 -0.496252 3.56462 0
M  V30 1223 C 119.08 0.752077 4.41642 0
M  V30 1224 C 120.824 -1.05157 4.11269 0
M  V30 1225 C 118.731 0.476583 5.89477 0
M  V30 1226 H 117.661 -0.0972409 0.747703 0
M  V30 1227 H 120.312 0.46229 1.77581 0
M  V30 1228 H 118.694 -1.26944 3.75102 0
M  V30 1229 H 119.868 1.5266 4.34778 0
M  V30 1230 H 118.183 1.22925 3.97842 0
M  V30 1231 H 120.78 -1.27269 5.19333 0
M  V30 1232 H 121.123 -2.00799 3.64672 0
M  V30 1233 H 121.656 -0.339019 3.96353 0
M  V30 1234 H 118.395 1.4028 6.40314 0
M  V30 1235 H 117.915 -0.259794 5.99237 0
M  V30 1236 H 119.594 0.0949315 6.4693 0
M  V30 1237 N 119.726 -1.57421 0.075193 0
M  V30 1238 C 120.954 -1.97946 -0.602076 0
M  V30 1239 C 121.369 -0.953674 -1.62943 0
M  V30 1240 O 120.726 0.0592551 -1.82404 0
M  V30 1241 C 120.777 -3.38546 -1.26762 0
M  V30 1242 O 120.498 -4.37195 -0.281376 0
M  V30 1243 C 121.999 -3.93966 -2.03239 0
M  V30 1244 H 119.219 -0.650918 -0.162931 0
M  V30 1245 H 121.763 -2.03959 0.148601 0
M  V30 1246 H 119.918 -3.33609 -1.96936 0
M  V30 1247 H 120.332 -5.18975 -0.759267 0
M  V30 1248 H 121.806 -4.94555 -2.45193 0
M  V30 1249 H 122.283 -3.30693 -2.8903 0
M  V30 1250 H 122.889 -4.02315 -1.37924 0
M  V30 1251 N 121.204 0.198386 -1.56346 0
M  V30 1252 C 122.429 0.939682 -1.84891 0
M  V30 1253 C 122.854 1.76202 -0.658369 0
M  V30 1254 O 122.212 1.76993 0.392851 0
M  V30 1255 C 122.26 1.81428 -3.11635 0
M  V30 1256 O 121.364 2.91265 -2.91956 0
M  V30 1257 H 120.705 0.264807 -0.608912 0
M  V30 1258 H 123.235 0.204695 -2.03573 0
M  V30 1259 H 123.245 2.21958 -3.42343 0
M  V30 1260 H 121.92 1.21004 -3.97908 0
M  V30 1261 H 120.497 2.54514 -2.72538 0
M  V30 1262 N 122.682 1.50554 0.465978 0
M  V30 1263 C 123.645 1.69233 1.54574 0
M  V30 1264 C 124.645 0.562901 1.50626 0
M  V30 1265 O 125.835 0.830016 1.53155 0
M  V30 1266 C 122.967 1.7223 2.94193 0
M  V30 1267 H 124.16 2.65571 1.39327 0
M  V30 1268 H 121.713 1.40111 0.692711 0
M  V30 1269 H 122.448 0.77603 3.14878 0
M  V30 1270 H 122.233 2.54285 2.98466 0
M  V30 1271 H 123.723 1.88618 3.72576 0
M  V30 1272 N 124.16 -0.719506 1.40217 0
M  V30 1273 C 125.4 -1.49181 1.39729 0
M  V30 1274 C 125.764 -1.92 -0.00250614 0
M  V30 1275 O 126.965 -2.68473 -0.132479 0
M  V30 1276 C 125.236 -2.68767 2.35582 0
M  V30 1277 S 126.795 -3.58224 2.53418 0
M  V30 1278 H 123.613 -0.510091 0.495307 0
M  V30 1279 H 126.215 -0.841724 1.76452 0
M  V30 1280 H 124.919 -2.35475 3.36124 0
M  V30 1281 H 124.45 -3.38691 2.0013 0
M  V30 1282 H 126.465 -4.63033 1.78367 0
M  V30 1283 N 125.638 -1.25649 -0.95132 0
M  V30 1284 C 126.588 -1.03004 -2.03406 0
M  V30 1285 C 127.572 0.034187 -1.60864 0
M  V30 1286 O 128.764 -0.181549 -1.76066 0
M  V30 1287 C 125.893 -0.654255 -3.37008 0
M  V30 1288 C 124.979 -1.75542 -3.86065 0
M  V30 1289 N 125.37 -2.99113 -4.07879 0
M  V30 1290 C 123.668 -1.63669 -4.14884 0
M  V30 1291 C 124.369 -3.70611 -4.48356 0
M  V30 1292 N 123.345 -2.98247 -4.54477 0
M  V30 1293 H 127.147 -1.96813 -2.1827 0
M  V30 1294 H 124.661 -1.16017 -1.13639 0
M  V30 1295 H 126.658 -0.473206 -4.14206 0
M  V30 1296 H 125.318 0.276468 -3.23521 0
M  V30 1297 H 126.329 -3.35124 -3.94857 0
M  V30 1298 H 123.006 -0.775161 -4.10241 0
M  V30 1299 H 124.396 -4.76695 -4.73509 0
M  V30 1300 N 127.117 1.15442 -1.07289 0
M  V30 1301 C 128.064 2.20161 -0.692653 0
M  V30 1302 C 129.034 1.63073 0.31564 0
M  V30 1303 O 130.219 1.89725 0.202235 0
M  V30 1304 C 127.359 3.44967 -0.0959509 0
M  V30 1305 C 126.472 4.16256 -1.15564 0
M  V30 1306 C 125.607 5.28609 -0.524011 0
M  V30 1307 C 124.646 5.91715 -1.56653 0
M  V30 1308 N 123.783 6.9554 -0.957531 0
M  V30 1309 H 128.623 2.52037 -1.59002 0
M  V30 1310 H 126.16 1.2378 -0.794798 0
M  V30 1311 H 128.118 4.16341 0.267628 0
M  V30 1312 H 126.748 3.1361 0.764772 0
M  V30 1313 H 125.8 3.43385 -1.6368 0
M  V30 1314 H 127.112 4.59268 -1.94613 0
M  V30 1315 H 126.266 6.06604 -0.108032 0
M  V30 1316 H 125.005 4.86787 0.29825 0
M  V30 1317 H 124.01 5.12433 -1.9923 0
M  V30 1318 H 125.235 6.35614 -2.39107 0
M  V30 1319 H 123.181 6.55814 -0.156162 0
M  V30 1320 H 123.098 7.36977 -1.68526 0
M  V30 1321 H 124.366 7.77435 -0.567032 0
M  V30 1322 N 128.595 0.856903 1.32268 0
M  V30 1323 C 129.825 0.47475 2.01071 0
M  V30 1324 C 130.233 -0.933746 1.64553 0
M  V30 1325 O 129.576 -1.62114 0.863989 0
M  V30 1326 C 129.638 0.536746 3.55471 0
M  V30 1327 C 129.302 1.90453 4.15423 0
M  V30 1328 C 130.299 2.87029 4.33486 0
M  V30 1329 C 127.984 2.20229 4.51447 0
M  V30 1330 C 129.978 4.11532 4.86744 0
M  V30 1331 C 127.665 3.44984 5.0441 0
M  V30 1332 C 128.663 4.40452 5.22007 0
M  V30 1333 O 128.351 5.62998 5.73837 0
M  V30 1334 H 128.083 0.184778 0.650256 0
M  V30 1335 H 130.637 1.15615 1.69771 0
M  V30 1336 H 128.867 -0.20152 3.86175 0
M  V30 1337 H 130.556 0.169875 4.05544 0
M  V30 1338 H 131.322 2.6533 4.05986 0
M  V30 1339 H 127.201 1.46705 4.37034 0
M  V30 1340 H 130.745 4.86056 5.00395 0
M  V30 1341 H 126.642 3.66532 5.31342 0
M  V30 1342 H 127.41 5.64987 5.92226 0
M  V30 1343 N 130.073 -1.45103 0.615059 0
M  V30 1344 C 131.32 -2.02183 0.113179 0
M  V30 1345 C 131.648 -1.48249 -1.25906 0
M  V30 1346 O 130.903 -0.650265 -1.84581 0
M  V30 1347 C 131.202 -3.57386 0.0318797 0
M  V30 1348 C 130.868 -4.30505 1.34077 0
M  V30 1349 C 129.53 -4.50197 1.69929 0
M  V30 1350 C 131.882 -4.72238 2.20546 0
M  V30 1351 C 129.21 -5.08881 2.91988 0
M  V30 1352 C 131.562 -5.32272 3.41861 0
M  V30 1353 C 130.226 -5.50187 3.77956 0
M  V30 1354 H 129.496 -0.739842 0.0414151 0
M  V30 1355 H 132.143 -1.74073 0.798168 0
M  V30 1356 H 130.448 -3.84817 -0.736409 0
M  V30 1357 H 132.145 -3.99264 -0.372712 0
M  V30 1358 H 128.735 -4.15496 1.05173 0
M  V30 1359 H 132.919 -4.56751 1.94146 0
M  V30 1360 H 128.175 -5.20939 3.2005 0
M  V30 1361 H 132.349 -5.63563 4.09109 0
M  V30 1362 H 129.976 -5.95427 4.72622 0
M  V30 1363 N 131.551 -0.354651 -1.53558 0
M  V30 1364 C 132.461 0.50515 -2.29097 0
M  V30 1365 C 133.477 1.10223 -1.34636 0
M  V30 1366 O 134.653 1.11553 -1.67684 0
M  V30 1367 C 131.718 1.63479 -3.05738 0
M  V30 1368 C 130.779 1.06636 -4.15845 0
M  V30 1369 C 130.012 2.14217 -4.88822 0
M  V30 1370 O 130.235 3.35137 -4.61562 0
M  V30 1371 O 129.169 1.77887 -5.75013 0
M  V30 1372 H 132.995 -0.109237 -3.03503 0
M  V30 1373 H 130.58 -0.119357 -1.48922 0
M  V30 1374 H 132.462 2.2918 -3.5363 0
M  V30 1375 H 131.137 2.23478 -2.34178 0
M  V30 1376 H 130.044 0.373565 -3.7223 0
M  V30 1377 H 131.377 0.511081 -4.89539 0
M  V30 1378 N 133.029 1.57378 -0.0835403 0
M  V30 1379 C 133.976 2.13384 0.879539 0
M  V30 1380 C 134.946 1.04936 1.28754 0
M  V30 1381 O 136.131 1.32662 1.37133 0
M  V30 1382 C 133.271 2.70932 2.13752 0
M  V30 1383 C 132.384 3.93575 1.7811 0
M  V30 1384 C 131.519 4.39326 2.98607 0
M  V30 1385 C 130.558 5.54587 2.59037 0
M  V30 1386 N 129.695 5.95243 3.72331 0
M  V30 1387 H 134.535 2.9537 0.395076 0
M  V30 1388 H 132.072 1.45953 0.183349 0
M  V30 1389 H 134.03 3.02411 2.87408 0
M  V30 1390 H 132.66 1.91693 2.59718 0
M  V30 1391 H 131.712 3.68483 0.94469 0
M  V30 1392 H 133.024 4.77258 1.45005 0
M  V30 1393 H 132.178 4.72528 3.80529 0
M  V30 1394 H 130.917 3.5452 3.34913 0
M  V30 1395 H 129.922 5.21024 1.75539 0
M  V30 1396 H 131.147 6.41133 2.23887 0
M  V30 1397 H 129.093 5.13385 4.08378 0
M  V30 1398 H 129.01 6.73694 3.43034 0
M  V30 1399 H 130.278 6.33072 4.54797 0
M  V30 1400 N 134.507 -0.190092 1.56449 0
M  V30 1401 C 135.47 -1.21925 1.9408 0
M  V30 1402 C 136.47 -1.38176 0.822431 0
M  V30 1403 O 137.66 -1.35903 1.08977 0
M  V30 1404 C 134.792 -2.58773 2.21922 0
M  V30 1405 H 135.985 -0.897464 2.86157 0
M  V30 1406 H 133.538 -0.43181 1.50217 0
M  V30 1407 H 134.273 -2.95998 1.32499 0
M  V30 1408 H 134.058 -2.48348 3.03424 0
M  V30 1409 H 135.548 -3.32978 2.52022 0
M  V30 1410 N 135.985 -1.50799 -0.457987 0
M  V30 1411 C 137.233 -1.62121 -1.2067 0
M  V30 1412 C 137.554 -0.329793 -1.92191 0
M  V30 1413 O 136.824 0.653409 -1.84682 0
M  V30 1414 H 135.404 -0.597441 -0.448411 0
M  V30 1415 H 138.066 -1.87637 -0.527096 0
M  V30 1416 H 137.162 -2.43882 -1.94751 0
M  V30 1417 N 137.463 0.71206 -1.40597 0
M  V30 1418 C 138.393 1.83889 -1.43899 0
M  V30 1419 C 139.374 1.67442 -0.299504 0
M  V30 1420 O 140.559 1.87421 -0.508624 0
M  V30 1421 C 137.689 3.21877 -1.30431 0
M  V30 1422 C 136.643 3.53002 -2.42019 0
M  V30 1423 C 135.969 4.90172 -2.13626 0
M  V30 1424 C 137.269 3.53643 -3.84362 0
M  V30 1425 H 138.963 1.81383 -2.38203 0
M  V30 1426 H 136.509 0.871237 -1.14654 0
M  V30 1427 H 138.462 4.00404 -1.31357 0
M  V30 1428 H 137.186 3.24968 -0.326049 0
M  V30 1429 H 135.845 2.76818 -2.40349 0
M  V30 1430 H 135.493 4.89869 -1.14182 0
M  V30 1431 H 135.193 5.11962 -2.88389 0
M  V30 1432 H 136.717 5.71028 -2.1624 0
M  V30 1433 H 138.131 4.22203 -3.87837 0
M  V30 1434 H 136.528 3.86961 -4.58673 0
M  V30 1435 H 137.598 2.52954 -4.13693 0
M  V30 1436 N 138.941 1.26152 0.944643 0
M  V30 1437 C 139.888 1.07408 2.04285 0
M  V30 1438 C 140.858 -0.0198413 1.66088 0
M  V30 1439 O 142.043 0.139264 1.90291 0
M  V30 1440 C 139.183 0.70945 3.37729 0
M  V30 1441 C 138.296 1.87926 3.88983 0
M  V30 1442 C 137.431 1.45807 5.10797 0
M  V30 1443 C 136.47 2.5964 5.54305 0
M  V30 1444 N 135.607 2.18226 6.67324 0
M  V30 1445 H 140.447 2.01389 2.1965 0
M  V30 1446 H 137.984 1.00275 1.07626 0
M  V30 1447 H 139.942 0.478948 4.14442 0
M  V30 1448 H 138.572 -0.193389 3.2222 0
M  V30 1449 H 137.624 2.22279 3.08701 0
M  V30 1450 H 138.936 2.73377 4.17213 0
M  V30 1451 H 138.09 1.18781 5.94959 0
M  V30 1452 H 136.829 0.574414 4.84305 0
M  V30 1453 H 135.834 2.87399 4.68702 0
M  V30 1454 H 137.059 3.48599 5.828 0
M  V30 1455 H 135.005 1.3229 6.42523 0
M  V30 1456 H 134.922 2.97221 6.95123 0
M  V30 1457 H 136.19 1.94403 7.54869 0
M  V30 1458 O 140.458 -1.07813 1.20244 0
M  V30 1459 H 141.149 -1.68494 0.955474 0
M  V30 END ATOM
M  V30 BEGIN BOND
M  V30 END BOND
M  V30 END CTAB
M  END
$$$$
