drugbank_target|P25924 Siroheme synthase (DB01752; DB04522)
 OpenBabel12092120223D

  0  0  0     0  0            999 V3000
M  V30 BEGIN CTAB
M  V30 COUNTS 7098 7157 0 0 0
M  V30 BEGIN ATOM
M  V30 1 H -0.908 1.98254 -0.117106 0
M  V30 2 N 0 1.576 0 0
M  V30 3 C 0.933 2.03868 1.02534 0
M  V30 4 C 1.911 0.928543 1.3348 0
M  V30 5 O 3.095 1.19667 1.45644 0
M  V30 6 C 0.222 2.43627 2.35294 0
M  V30 7 C -0.732 3.65373 2.2001 0
M  V30 8 S 0.101 5.13292 1.52614 0
M  V30 9 C 1.257 5.56322 2.86805 0
M  V30 10 H 1.49 2.90518 0.631377 0
M  V30 11 H -0.977 1.52953 0.210867 0
M  V30 12 H 0.981 2.67203 3.11629 0
M  V30 13 H -0.358 1.57376 2.7183 0
M  V30 14 H -1.165 3.90944 3.18086 0
M  V30 15 H -1.563 3.418 1.51819 0
M  V30 16 H 0.729 5.58782 3.83104 0
M  V30 17 H 1.672 6.56266 2.65933 0
M  V30 18 H 2.08 4.83886 2.90714 0
M  V30 19 N 1.4781 -0.272755 1.55222 0
M  V30 20 C 2.7551 -1.02562 1.66555 0
M  V30 21 C 3.1351 -2.04282 0.532189 0
M  V30 22 O 2.4831 -2.23662 -0.467717 0
M  V30 23 C 2.6931 -1.6822 3.05782 0
M  V30 24 C 4.0411 -2.19373 3.63539 0
M  V30 25 O 5.0651 -1.78206 3.08417 0
M  V30 26 O 3.9241 -2.94883 4.60115 0
M  V30 27 H 1.0181 -0.475755 0.676451 0
M  V30 28 H 3.5641 -0.268593 1.67561 0
M  V30 29 H 2.3361 -0.945112 3.79715 0
M  V30 30 H 1.9591 -2.50609 3.08676 0
M  V30 31 N 2.9562 -1.48159 -0.537278 0
M  V30 32 C 3.9062 -1.5854 -1.63857 0
M  V30 33 C 4.8902 -0.442969 -1.54682 0
M  V30 34 O 6.0822 -0.69401 -1.62827 0
M  V30 35 C 3.2112 -1.62144 -3.02596 0
M  V30 36 C 2.2972 -2.81841 -3.16901 0
M  V30 37 N 2.6882 -4.06337 -3.01204 0
M  V30 38 C 0.9862 -2.79021 -3.47942 0
M  V30 39 C 1.6872 -4.86606 -3.18731 0
M  V30 40 N 0.6632 -4.19288 -3.45974 0
M  V30 41 H 4.4652 -2.5255 -1.50319 0
M  V30 42 H 1.9792 -1.4443 -0.742555 0
M  V30 43 H 3.9762 -1.67674 -3.81695 0
M  V30 44 H 2.6362 -0.69245 -3.17231 0
M  V30 45 H 3.6472 -4.36888 -2.78117 0
M  V30 46 H 0.3242 -1.95347 -3.6898 0
M  V30 47 H 1.7142 -5.95385 -3.11394 0
M  V30 48 N 4.4343 0.785586 -1.36625 0
M  V30 49 C 5.3643 1.91259 -1.33949 0
M  V30 50 C 6.3453 1.68795 -0.210325 0
M  V30 51 O 7.5303 1.89854 -0.408561 0
M  V30 52 C 4.6603 3.28339 -1.13186 0
M  V30 53 C 3.6143 3.65335 -2.22967 0
M  V30 54 C 2.9403 5.00806 -1.87342 0
M  V30 55 C 4.2403 3.7352 -3.65075 0
M  V30 56 H 5.9343 1.93755 -2.28253 0
M  V30 57 H 3.4803 0.930788 -1.09874 0
M  V30 58 H 5.4333 4.06804 -1.09948 0
M  V30 59 H 4.1573 3.2624 -0.153332 0
M  V30 60 H 2.8163 2.89169 -2.25337 0
M  V30 61 H 2.4643 4.95233 -0.880545 0
M  V30 62 H 2.1643 5.26529 -2.60846 0
M  V30 63 H 3.6883 5.81687 -1.85667 0
M  V30 64 H 5.1023 4.42168 -3.64911 0
M  V30 65 H 3.4993 4.10731 -4.37516 0
M  V30 66 H 4.5693 2.74527 -3.99703 0
M  V30 67 N 5.9124 1.20967 1.01018 0
M  V30 68 C 7.3234 1.02319 1.56165 0
M  V30 69 C 7.6744 -0.418546 1.91684 0
M  V30 70 O 6.7994 -1.30096 1.72928 0
M  V30 71 C 7.3944 1.85109 2.8376 0
M  V30 72 C 5.9534 1.70809 3.35412 0
M  V30 73 C 5.1004 1.82643 2.08655 0
M  V30 74 H 8.0514 1.35065 0.833255 0
M  V30 75 H 8.0724 1.35827 3.55431 0
M  V30 76 H 7.5844 2.90035 2.57878 0
M  V30 77 H 5.6854 0.685464 3.66241 0
M  V30 78 H 5.7984 2.52467 4.07182 0
M  V30 79 H 4.1624 1.25896 2.21409 0
M  V30 80 H 4.9454 2.89066 1.85191 0
M  V30 81 N 7.3905 -1.2043 1.01659 0
M  V30 82 C 8.6395 -1.89118 0.701237 0
M  V30 83 C 8.9525 -1.79705 -0.772358 0
M  V30 84 O 10.1585 -2.43528 -1.20026 0
M  V30 85 C 8.6145 -3.39168 1.20388 0
M  V30 86 C 8.2225 -3.57166 2.70438 0
M  V30 87 C 9.9665 -4.1341 0.963953 0
M  V30 88 C 7.8735 -5.01042 3.14183 0
M  V30 89 H 6.8035 -0.708267 0.2586 0
M  V30 90 H 9.4545 -1.36239 1.22927 0
M  V30 91 H 7.8365 -3.91369 0.603824 0
M  V30 92 H 9.0105 -3.15351 3.35992 0
M  V30 93 H 7.3255 -2.96294 2.92572 0
M  V30 94 H 9.9225 -5.19491 1.26621 0
M  V30 95 H 10.2655 -4.16181 -0.099578 0
M  V30 96 H 10.7985 -3.67309 1.52738 0
M  V30 97 H 7.5375 -5.03426 4.19812 0
M  V30 98 H 7.0575 -5.43668 2.53348 0
M  V30 99 H 8.7365 -5.69623 3.0682 0
M  V30 100 N 8.8686 -0.792821 -1.36206 0
M  V30 101 C 10.1156 -0.366786 -1.99151 0
M  V30 102 C 10.4436 1.06243 -1.62919 0
M  V30 103 O 9.6986 1.74927 -0.877442 0
M  V30 104 C 9.9976 -0.481501 -3.54142 0
M  V30 105 C 9.6636 -1.87202 -4.10203 0
M  V30 106 C 8.3256 -2.25248 -4.25226 0
M  V30 107 C 10.6776 -2.78237 -4.40719 0
M  V30 108 C 8.0056 -3.53723 -4.68078 0
M  V30 109 C 10.3576 -4.06144 -4.85005 0
M  V30 110 C 9.0216 -4.44207 -4.98234 0
M  V30 111 H 8.2916 -0.134217 -0.728743 0
M  V30 112 H 10.9386 -1.01094 -1.62641 0
M  V30 113 H 9.2436 0.246146 -3.91026 0
M  V30 114 H 10.9406 -0.132844 -4.0078 0
M  V30 115 H 7.5306 -1.56639 -3.98951 0
M  V30 116 H 11.7146 -2.50097 -4.28679 0
M  V30 117 H 6.9706 -3.8308 -4.76508 0
M  V30 118 H 11.1446 -4.76796 -5.07581 0
M  V30 119 H 8.7716 -5.43814 -5.31197 0
M  V30 120 N 10.3467 1.47872 -0.545128 0
M  V30 121 C 11.5867 2.04391 -0.0187854 0
M  V30 122 C 11.9507 1.41162 1.30144 0
M  V30 123 O 13.1517 1.88656 1.91474 0
M  V30 124 C 11.4227 3.57299 0.0850867 0
M  V30 125 S 12.9817 4.35221 0.559302 0
M  V30 126 H 9.7997 0.710737 -0.0193301 0
M  V30 127 H 12.4017 1.81395 -0.729125 0
M  V30 128 H 11.1057 4.00847 -0.880351 0
M  V30 129 H 10.6367 3.84773 0.819348 0
M  V30 130 H 12.6517 4.61571 1.82118 0
M  V30 131 N 11.8248 0.280983 1.55075 0
M  V30 132 C 12.7568 -0.637268 2.20163 0
M  V30 133 C 13.7698 -1.11298 1.18813 0
M  V30 134 O 14.9588 -1.03388 1.4551 0
M  V30 135 C 12.0588 -1.88199 2.81841 0
M  V30 136 C 11.2318 -1.55211 4.08936 0
M  V30 137 C 10.2908 -2.64991 4.54606 0
M  V30 138 O 9.3168 -2.30929 5.2025 0
M  V30 139 N 10.5188 -3.95161 4.25238 0
M  V30 140 H 13.2838 -0.0801694 2.99593 0
M  V30 141 H 10.8448 0.102329 1.61576 0
M  V30 142 H 12.8368 -2.60948 3.09335 0
M  V30 143 H 11.4068 -2.34799 2.06369 0
M  V30 144 H 10.6268 -0.658185 3.88666 0
M  V30 145 H 11.9148 -1.30681 4.91732 0
M  V30 146 H 11.3128 -4.25653 3.72607 0
M  V30 147 H 9.8698 -4.6427 4.5749 0
M  V30 148 N 13.3029 -1.57598 0.00835791 0
M  V30 149 C 14.2329 -2.1198 -0.979113 0
M  V30 150 C 15.2139 -1.03091 -1.35301 0
M  V30 151 O 16.3989 -1.30818 -1.43528 0
M  V30 152 C 13.5289 -2.62995 -2.26828 0
M  V30 153 C 12.4829 -3.76485 -2.03576 0
M  V30 154 C 11.8089 -4.13846 -3.38579 0
M  V30 155 C 13.1089 -5.0342 -1.39161 0
M  V30 156 H 14.8029 -2.94738 -0.526281 0
M  V30 157 H 12.3489 -1.41783 -0.251704 0
M  V30 158 H 14.3019 -2.99669 -2.96271 0
M  V30 159 H 13.0259 -1.7737 -2.7424 0
M  V30 160 H 11.6849 -3.40217 -1.36557 0
M  V30 161 H 11.3329 -3.25232 -3.83709 0
M  V30 162 H 11.0329 -4.90312 -3.23834 0
M  V30 163 H 12.5569 -4.53086 -4.09323 0
M  V30 164 H 13.9709 -5.37812 -1.98573 0
M  V30 165 H 12.3679 -5.84746 -1.34878 0
M  V30 166 H 13.4379 -4.83548 -0.361868 0
M  V30 167 N 14.781 0.264519 -1.55364 0
M  V30 168 C 16.197 0.61215 -1.47394 0
M  V30 169 C 16.397 1.89134 -0.695018 0
M  V30 170 O 15.453 2.51563 -0.217275 0
M  V30 171 C 16.766 0.731235 -2.91674 0
M  V30 172 C 18.314 0.82473 -3.01939 0
M  V30 173 C 18.789 0.975522 -4.4749 0
M  V30 174 N 20.28 1.04083 -4.51354 0
M  V30 175 C 21.015 1.17646 -5.61201 0
M  V30 176 N 20.511 1.27874 -6.80896 0
M  V30 177 N 22.304 1.20823 -5.48961 0
M  V30 178 H 14.455 -0.575456 -2.04456 0
M  V30 179 H 16.718 -0.196099 -0.927496 0
M  V30 180 H 16.424 -0.138392 -3.51428 0
M  V30 181 H 16.298 1.60883 -3.41169 0
M  V30 182 H 18.685 1.68482 -2.42276 0
M  V30 183 H 18.766 -0.0776479 -2.55682 0
M  V30 184 H 18.41 0.120058 -5.07758 0
M  V30 185 H 18.34 1.89268 -4.91412 0
M  V30 186 H 20.831 0.973846 -3.65136 0
M  V30 187 H 21.144 1.38081 -7.60364 0
M  V30 188 H 19.489 1.24863 -6.83692 0
M  V30 189 H 22.68 1.12469 -4.54388 0
M  V30 190 H 22.853 1.31049 -6.3461 0
M  V30 191 N 16.2591 1.48442 0.529413 0
M  V30 192 C 17.5361 1.46978 1.29062 0
M  V30 193 C 17.9161 0.181769 2.10316 0
M  V30 194 O 17.2641 -0.836481 2.12639 0
M  V30 195 C 17.4741 2.7321 2.17157 0
M  V30 196 C 18.8221 3.21562 2.77278 0
M  V30 197 O 19.8461 2.74131 2.27444 0
M  V30 198 O 18.7051 4.04094 3.67927 0
M  V30 199 H 15.7991 0.587003 0.582543 0
M  V30 200 H 18.3451 1.60676 0.546021 0
M  V30 201 H 17.1171 3.58465 1.56903 0
M  V30 202 H 16.7401 2.62235 2.98862 0
M  V30 203 N 17.7372 -0.778329 1.37039 0
M  V30 204 C 19.1532 -1.07796 1.17695 0
M  V30 205 C 19.3532 -2.01498 0.00860115 0
M  V30 206 O 18.4092 -2.43901 -0.653352 0
M  V30 207 C 19.7222 -1.68178 2.49272 0
M  V30 208 C 21.2702 -1.80467 2.55735 0
M  V30 209 C 21.7452 -2.44263 3.87427 0
M  V30 210 N 23.2362 -2.51721 3.88833 0
M  V30 211 C 23.9712 -3.01919 4.87476 0
M  V30 212 N 23.4672 -3.5234 5.96513 0
M  V30 213 N 25.2602 -3.00733 4.74885 0
M  V30 214 H 17.4112 -0.156032 2.11826 0
M  V30 215 H 19.6742 -0.131844 0.938787 0
M  V30 216 H 19.3802 -1.06796 3.35093 0
M  V30 217 H 19.2542 -2.67554 2.65885 0
M  V30 218 H 21.6412 -2.40984 1.70325 0
M  V30 219 H 21.7222 -0.798656 2.43013 0
M  V30 220 H 21.3662 -1.84388 4.73248 0
M  V30 221 H 21.2962 -3.45458 3.9745 0
M  V30 222 H 23.7872 -2.1603 3.10063 0
M  V30 223 H 24.1002 -3.89027 6.67741 0
M  V30 224 H 22.4452 -3.50462 6.00168 0
M  V30 225 H 25.6362 -2.60638 3.88826 0
M  V30 226 H 25.8092 -3.39545 5.51918 0
M  V30 227 N 19.2153 -1.21501 -1.00376 0
M  V30 228 C 20.4923 -0.941745 -1.71437 0
M  V30 229 C 20.8723 0.546114 -2.03914 0
M  V30 230 O 20.2203 1.51128 -1.71384 0
M  V30 231 C 20.4303 -1.82812 -2.97289 0
M  V30 232 C 21.7783 -2.07771 -3.70292 0
M  V30 233 O 22.8023 -1.80171 -3.07273 0
M  V30 234 O 21.6613 -2.54456 -4.83647 0
M  V30 235 H 18.7553 -0.353243 -0.747762 0
M  V30 236 H 21.3013 -1.32436 -1.06108 0
M  V30 237 H 20.0733 -2.83501 -2.69709 0
M  V30 238 H 19.6963 -1.4464 -3.70358 0
M  V30 239 N 20.6934 1.19889 -1.02296 0
M  V30 240 C 21.9334 1.91125 -0.724602 0
M  V30 241 C 22.2974 1.77464 0.732835 0
M  V30 242 O 23.4984 2.43241 1.144 0
M  V30 243 C 21.7694 3.38187 -1.15604 0
M  V30 244 S 23.3284 4.27702 -0.980621 0
M  V30 245 H 20.1464 0.66018 -0.263976 0
M  V30 246 H 22.7484 1.44978 -1.31155 0
M  V30 247 H 21.4524 3.45653 -2.21251 0
M  V30 248 H 20.9834 3.89363 -0.562131 0
M  V30 249 H 22.9984 4.96073 0.112225 0
M  V30 250 N 22.1715 0.800033 1.35784 0
M  V30 251 C 23.1015 0.220184 2.3246 0
M  V30 252 C 24.0825 -0.65073 1.57161 0
M  V30 253 O 25.2675 -0.582359 1.85263 0
M  V30 254 C 22.3975 -0.637353 3.41402 0
M  V30 255 C 21.3515 0.134531 4.27789 0
M  V30 256 C 20.6775 -0.844285 5.27992 0
M  V30 257 C 21.9775 1.32979 5.05088 0
M  V30 258 H 23.6715 1.02787 2.81203 0
M  V30 259 H 21.2175 0.495717 1.35199 0
M  V30 260 H 23.1705 -1.05302 4.08031 0
M  V30 261 H 21.8945 -1.47785 2.91251 0
M  V30 262 H 20.5535 0.531296 3.6273 0
M  V30 263 H 20.2015 -1.68011 4.74111 0
M  V30 264 H 19.9015 -0.332184 5.8666 0
M  V30 265 H 21.4255 -1.2583 5.97494 0
M  V30 266 H 22.8395 0.98934 5.64699 0
M  V30 267 H 21.2365 1.77593 5.7322 0
M  V30 268 H 22.3065 2.11978 4.36111 0
M  V30 269 N 23.6496 -1.47581 0.552962 0
M  V30 270 C 24.8986 -2.01684 0.0251995 0
M  V30 271 C 25.2116 -1.43317 -1.33115 0
M  V30 272 O 26.4176 -1.89057 -1.94858 0
M  V30 273 C 24.8736 -3.599 -0.00542052 0
M  V30 274 C 24.4816 -4.27257 1.34742 0
M  V30 275 C 26.2256 -4.21768 -0.4808 0
M  V30 276 C 24.1326 -5.77467 1.27614 0
M  V30 277 H 23.0626 -0.753979 0.00565033 0
M  V30 278 H 25.7136 -1.69616 0.70018 0
M  V30 279 H 24.0956 -3.88911 -0.745961 0
M  V30 280 H 25.2696 -4.09893 2.10534 0
M  V30 281 H 23.5846 -3.77358 1.76039 0
M  V30 282 H 26.1816 -5.31838 -0.55246 0
M  V30 283 H 26.5246 -3.88651 -1.49184 0
M  V30 284 H 27.0576 -3.97273 0.204752 0
M  V30 285 H 23.7966 -6.15196 2.26304 0
M  V30 286 H 23.3166 -5.9718 0.55996 0
M  V30 287 H 24.9956 -6.3959 0.976421 0
M  V30 288 N 25.1277 -0.289203 -1.54924 0
M  V30 289 C 26.3737 0.323998 -2.00195 0
M  V30 290 C 26.7067 1.54441 -1.17735 0
M  V30 291 O 25.9817 1.92875 -0.250878 0
M  V30 292 C 26.2647 0.692276 -3.53383 0
M  V30 293 C 26.1177 -0.536457 -4.46589 0
M  V30 294 C 27.4367 1.52335 -4.12895 0
M  V30 295 H 24.5557 0.116289 -0.727768 0
M  V30 296 H 27.1977 -0.398954 -1.85764 0
M  V30 297 H 25.3477 1.30822 -3.65811 0
M  V30 298 H 27.0197 -1.17499 -4.46085 0
M  V30 299 H 25.2627 -1.17192 -4.1767 0
M  V30 300 H 25.9337 -0.234806 -5.515 0
M  V30 301 H 28.4097 1.00302 -4.0383 0
M  V30 302 H 27.2857 1.74982 -5.20262 0
M  V30 303 H 27.5467 2.50886 -3.64018 0
M  V30 304 N 26.6058 1.57591 -0.0167156 0
M  V30 305 C 27.8538 1.90906 0.663285 0
M  V30 306 C 28.1748 0.892509 1.73376 0
M  V30 307 O 27.4448 -0.0677623 1.95783 0
M  V30 308 H 26.0248 0.704637 0.247983 0
M  V30 309 H 28.6868 1.94803 -0.0615909 0
M  V30 310 H 27.7828 2.9116 1.12393 0
M  V30 311 N 28.0839 -0.256276 1.55502 0
M  V30 312 C 29.3319 -0.983672 1.76545 0
M  V30 313 C 29.6529 -1.86206 0.578982 0
M  V30 314 O 28.9229 -1.91656 -0.405577 0
M  V30 315 H 27.5029 -0.366191 0.651086 0
M  V30 316 H 30.1649 -0.276479 1.92929 0
M  V30 317 H 29.2609 -1.61087 2.67315 0
M  V30 318 N 29.562 -1.4872 -0.521534 0
M  V30 319 C 30.81 -1.56857 -1.27437 0
M  V30 320 C 31.131 -0.247982 -1.93417 0
M  V30 321 O 30.401 0.731151 -1.81744 0
M  V30 322 H 28.981 -0.577885 -0.473347 0
M  V30 323 H 31.643 -1.85233 -0.606205 0
M  V30 324 H 30.739 -2.35402 -2.0492 0
M  V30 325 N 31.0401 0.771051 -1.3745 0
M  V30 326 C 32.3171 1.519 -1.23231 0
M  V30 327 C 32.6971 2.10383 0.173809 0
M  V30 328 O 32.0451 1.95583 1.18151 0
M  V30 329 C 32.2551 2.59933 -2.32886 0
M  V30 330 C 33.6031 3.27316 -2.70461 0
M  V30 331 O 34.6271 2.70228 -2.32068 0
M  V30 332 O 33.4861 4.30531 -3.36608 0
M  V30 333 H 30.5801 0.672803 -0.480901 0
M  V30 334 H 33.1261 0.807957 -1.49232 0
M  V30 335 H 31.8981 2.14842 -3.27045 0
M  V30 336 H 31.5211 3.38637 -2.08353 0
M  V30 337 N 32.5182 1.22032 0.997298 0
M  V30 338 C 33.7642 1.04376 1.73878 0
M  V30 339 C 34.0972 -0.420716 1.89588 0
M  V30 340 O 33.3722 -1.31202 1.43583 0
M  V30 341 C 33.6552 1.75047 3.14691 0
M  V30 342 C 33.5082 3.29062 3.06656 0
M  V30 343 C 34.8272 1.49928 4.13775 0
M  V30 344 H 31.9462 0.380578 0.631133 0
M  V30 345 H 34.5882 1.50312 1.16217 0
M  V30 346 H 32.7382 1.35996 3.63919 0
M  V30 347 H 34.4102 3.7753 2.65083 0
M  V30 348 H 32.6532 3.58967 2.43568 0
M  V30 349 H 33.3242 3.73683 4.06282 0
M  V30 350 H 35.8002 1.83842 3.73285 0
M  V30 351 H 34.6762 2.01878 5.10428 0
M  V30 352 H 34.9372 0.430929 4.39995 0
M  V30 353 N 33.9963 -1.19345 1.0293 0
M  V30 354 C 34.9593 -2.20793 0.615069 0
M  V30 355 C 35.9593 -1.57553 -0.321533 0
M  V30 356 O 37.1493 -1.73862 -0.108483 0
M  V30 357 C 34.2813 -3.40754 -0.0999222 0
M  V30 358 H 35.4743 -2.58955 1.51269 0
M  V30 359 H 33.0273 -1.3303 0.820534 0
M  V30 360 H 33.7623 -3.0811 -1.01187 0
M  V30 361 H 33.5473 -3.87889 0.57309 0
M  V30 362 H 35.0373 -4.15898 -0.376645 0
M  V30 363 N 35.4744 -0.807222 -1.35358 0
M  V30 364 C 36.3844 -0.219594 -2.3357 0
M  V30 365 C 37.4004 0.637734 -1.61892 0
M  V30 366 O 38.5764 0.549336 -1.93763 0
M  V30 367 C 35.6414 0.62158 -3.41083 0
M  V30 368 C 34.7024 -0.256315 -4.28534 0
M  V30 369 C 33.9354 0.544807 -5.30912 0
M  V30 370 O 34.1584 1.77944 -5.41934 0
M  V30 371 O 33.0924 -0.0646478 -6.01865 0
M  V30 372 H 36.9184 -1.03208 -2.85625 0
M  V30 373 H 34.5034 -0.569025 -1.38139 0
M  V30 374 H 36.3854 1.10067 -4.06772 0
M  V30 375 H 35.0604 1.41165 -2.91297 0
M  V30 376 H 33.9674 -0.782559 -3.65823 0
M  V30 377 H 35.3004 -1.01034 -4.81719 0
M  V30 378 N 36.9525 1.47285 -0.560781 0
M  V30 379 C 38.3685 1.58065 -0.22081 0
M  V30 380 C 38.5685 1.55892 1.27671 0
M  V30 381 O 37.6245 1.46422 2.0571 0
M  V30 382 C 38.9375 2.88418 -0.850625 0
M  V30 383 C 40.4855 3.02009 -0.822184 0
M  V30 384 C 40.9605 4.35066 -1.43113 0
M  V30 385 N 42.4515 4.41711 -1.39448 0
M  V30 386 C 43.1865 5.43237 -1.83525 0
M  V30 387 N 42.6825 6.51555 -2.35474 0
M  V30 388 N 44.4755 5.34304 -1.74574 0
M  V30 389 H 36.6265 1.46941 -1.53369 0
M  V30 390 H 38.8895 0.699558 -0.639783 0
M  V30 391 H 38.5955 2.95755 -1.9032 0
M  V30 392 H 38.4695 3.75612 -0.345773 0
M  V30 393 H 40.8565 2.94266 0.221714 0
M  V30 394 H 40.9375 2.16347 -1.36483 0
M  V30 395 H 40.5815 4.43565 -2.47412 0
M  V30 396 H 40.5115 5.19465 -0.863899 0
M  V30 397 H 43.0025 3.64027 -1.01452 0
M  V30 398 H 43.3155 7.25203 -2.67021 0
M  V30 399 H 41.6605 6.52435 -2.39487 0
M  V30 400 H 44.8515 4.48581 -1.33763 0
M  V30 401 H 45.0245 6.13288 -2.09242 0
M  V30 402 N 38.4306 0.297415 1.54768 0
M  V30 403 C 39.3776 -0.580276 2.23386 0
M  V30 404 C 40.3476 -1.13238 1.21517 0
M  V30 405 O 41.5326 -1.17757 1.50126 0
M  V30 406 C 38.6726 -1.74801 2.97555 0
M  V30 407 C 37.7856 -1.22764 4.1419 0
M  V30 408 C 36.9206 -2.35895 4.75949 0
M  V30 409 C 35.9596 -1.80974 5.84735 0
M  V30 410 N 35.0966 -2.87664 6.40464 0
M  V30 411 H 39.9366 0.0114833 2.97998 0
M  V30 412 H 37.4736 0.0174361 1.4709 0
M  V30 413 H 39.4316 -2.43475 3.38786 0
M  V30 414 H 38.0616 -2.31145 2.25326 0
M  V30 415 H 37.1136 -0.433271 3.77924 0
M  V30 416 H 38.4256 -0.785551 4.92575 0
M  V30 417 H 37.5796 -3.12523 5.20014 0
M  V30 418 H 36.3186 -2.83429 3.96887 0
M  V30 419 H 35.3236 -1.02834 5.40097 0
M  V30 420 H 36.5486 -1.34348 6.65678 0
M  V30 421 H 34.4946 -3.34538 5.64287 0
M  V30 422 H 34.4116 -2.4794 7.14186 0
M  V30 423 H 35.6796 -3.642 6.89187 0
M  V30 424 N 39.9087 -1.5758 0.0250728 0
M  V30 425 C 40.8717 -2.08896 -0.943139 0
M  V30 426 C 41.8717 -1.00321 -1.25668 0
M  V30 427 O 43.0617 -1.26495 -1.19769 0
M  V30 428 C 40.1937 -2.55143 -2.26086 0
M  V30 429 H 41.3867 -2.95723 -0.498775 0
M  V30 430 H 38.9397 -1.54703 -0.222888 0
M  V30 431 H 39.6747 -1.71633 -2.75159 0
M  V30 432 H 39.4597 -3.34461 -2.04641 0
M  V30 433 H 40.9497 -2.95083 -2.95492 0
M  V30 434 N 41.3868 0.248026 -1.55636 0
M  V30 435 C 42.8028 0.596483 -1.48035 0
M  V30 436 C 43.0028 1.88386 -0.715039 0
M  V30 437 O 42.0588 2.51319 -0.243944 0
M  V30 438 C 43.3718 0.700258 -2.92433 0
M  V30 439 C 44.9198 0.792659 -3.02797 0
M  V30 440 C 45.3948 0.928005 -4.485 0
M  V30 441 N 46.8858 0.992903 -4.52433 0
M  V30 442 C 47.6208 1.11687 -5.62418 0
M  V30 443 N 47.1168 1.20645 -6.82214 0
M  V30 444 N 48.9098 1.14994 -5.50212 0
M  V30 445 H 41.0608 -0.597109 -2.03834 0
M  V30 446 H 43.3238 -0.205925 -0.925364 0
M  V30 447 H 43.0298 -0.175658 -3.51261 0
M  V30 448 H 42.9038 1.57255 -3.42857 0
M  V30 449 H 45.2908 1.65903 -2.4405 0
M  V30 450 H 45.3718 -0.104762 -2.55585 0
M  V30 451 H 45.0158 0.0661971 -5.07857 0
M  V30 452 H 44.9458 1.84045 -4.93391 0
M  V30 453 H 47.4368 0.935064 -3.66149 0
M  V30 454 H 47.7498 1.30008 -7.61786 0
M  V30 455 H 46.0948 1.17605 -6.84977 0
M  V30 456 H 49.2858 1.07643 -4.55555 0
M  V30 457 H 49.4588 1.24311 -6.35965 0
M  V30 458 N 42.8649 1.48995 0.513639 0
M  V30 459 C 43.7949 1.67636 1.62544 0
M  V30 460 C 44.7759 0.525087 1.61793 0
M  V30 461 O 45.9609 0.759502 1.78732 0
M  V30 462 C 43.0909 1.73114 3.01079 0
M  V30 463 C 42.0449 2.87905 3.16693 0
M  V30 464 C 41.3709 2.78486 4.56453 0
M  V30 465 C 42.6709 4.29005 2.97913 0
M  V30 466 H 44.3649 2.60716 1.47198 0
M  V30 467 H 41.9109 1.25465 0.706714 0
M  V30 468 H 43.8639 1.84742 3.78746 0
M  V30 469 H 42.5879 0.766241 3.17484 0
M  V30 470 H 41.2469 2.75859 2.41448 0
M  V30 471 H 40.8949 1.7993 4.69717 0
M  V30 472 H 40.5949 3.55523 4.67843 0
M  V30 473 H 42.1189 2.92104 5.36197 0
M  V30 474 H 43.5329 4.41798 3.65359 0
M  V30 475 H 41.9299 5.07166 3.20785 0
M  V30 476 H 42.9999 4.44329 1.94165 0
M  V30 477 N 44.343 -0.763751 1.37857 0
M  V30 478 C 45.273 -1.89103 1.36975 0
M  V30 479 C 46.254 -1.68439 0.237152 0
M  V30 480 O 47.439 -1.8918 0.438713 0
M  V30 481 C 44.569 -3.26496 1.18395 0
M  V30 482 C 43.523 -3.61741 2.28751 0
M  V30 483 C 42.849 -4.97762 1.95286 0
M  V30 484 C 44.149 -3.67665 3.70972 0
M  V30 485 H 45.843 -1.90099 2.31307 0
M  V30 486 H 43.389 -0.91319 1.11341 0
M  V30 487 H 45.342 -4.05003 1.16406 0
M  V30 488 H 44.066 -3.25955 0.205215 0
M  V30 489 H 42.725 -2.85547 2.29909 0
M  V30 490 H 42.373 -4.93769 0.959221 0
M  V30 491 H 42.073 -5.22313 2.69189 0
M  V30 492 H 43.597 -5.7866 1.94898 0
M  V30 493 H 45.011 -4.36307 3.719 0
M  V30 494 H 43.408 -4.03718 4.43995 0
M  V30 495 H 44.478 -2.68134 4.0402 0
M  V30 496 N 45.8211 -1.22559 -0.990812 0
M  V30 497 C 46.7511 -1.0218 -2.09956 0
M  V30 498 C 47.7321 0.0579394 -1.70001 0
M  V30 499 O 48.9171 -0.104684 -1.93918 0
M  V30 500 C 46.0471 -0.601023 -3.4206 0
M  V30 501 C 45.0011 -1.62694 -3.95872 0
M  V30 502 C 44.3271 -1.06193 -5.24049 0
M  V30 503 C 45.6271 -3.01743 -4.2632 0
M  V30 504 H 47.3211 -1.94916 -2.27262 0
M  V30 505 H 44.8671 -0.938566 -1.09211 0
M  V30 506 H 46.8201 -0.445561 -4.19038 0
M  V30 507 H 45.5441 0.362005 -3.24588 0
M  V30 508 H 44.2031 -1.77021 -3.21028 0
M  V30 509 H 43.8511 -0.0901903 -5.02919 0
M  V30 510 H 43.5511 -1.74732 -5.61019 0
M  V30 511 H 45.0751 -0.918092 -6.03658 0
M  V30 512 H 46.4891 -2.90777 -4.94087 0
M  V30 513 H 44.8861 -3.67425 -4.74467 0
M  V30 514 H 45.9561 -3.51518 -3.34011 0
M  V30 515 N 47.2992 1.18797 -1.03562 0
M  V30 516 C 48.2092 2.25913 -0.632505 0
M  V30 517 C 49.2252 1.70668 0.338882 0
M  V30 518 O 50.4012 2.00453 0.195076 0
M  V30 519 C 47.4662 3.467 0.00350942 0
M  V30 520 C 46.5272 4.17098 -1.01624 0
M  V30 521 C 45.7602 5.32119 -0.410478 0
M  V30 522 O 45.9832 5.64976 0.784725 0
M  V30 523 O 44.9172 5.9107 -1.13667 0
M  V30 524 H 48.7432 2.62648 -1.52478 0
M  V30 525 H 46.3282 1.25781 -0.806195 0
M  V30 526 H 48.2102 4.19878 0.35781 0
M  V30 527 H 46.8852 3.11798 0.869686 0
M  V30 528 H 45.7922 3.4601 -1.42224 0
M  V30 529 H 47.1252 4.55987 -1.85301 0
M  V30 530 N 48.7773 0.814389 1.34928 0
M  V30 531 C 49.7403 0.235759 2.27984 0
M  V30 532 C 50.7403 -0.581412 1.49921 0
M  V30 533 O 51.9303 -0.398758 1.69575 0
M  V30 534 C 49.0623 -0.670433 3.34242 0
M  V30 535 H 50.2553 1.05659 2.80671 0
M  V30 536 H 47.8083 0.585614 1.44915 0
M  V30 537 H 48.5433 -1.51466 2.86755 0
M  V30 538 H 48.3283 -0.0860822 3.92005 0
M  V30 539 H 49.8183 -1.06935 4.03676 0
M  V30 540 N 50.2554 -1.46986 0.568584 0
M  V30 541 C 51.5034 -2.02041 0.0487022 0
M  V30 542 C 51.8244 -1.44408 -1.31039 0
M  V30 543 O 51.0944 -0.623477 -1.85714 0
M  V30 544 H 49.6744 -0.746849 0.015014 0
M  V30 545 H 52.3364 -1.80257 0.741168 0
M  V30 546 H 51.4324 -3.12085 -0.0308961 0
M  V30 547 N 51.7335 -0.305618 -1.54608 0
M  V30 548 C 52.6965 0.555591 -2.22364 0
M  V30 549 C 53.6965 1.05768 -1.21119 0
M  V30 550 O 54.8865 0.952972 -1.45822 0
M  V30 551 C 52.0185 1.76974 -2.91364 0
M  V30 552 H 53.2115 -0.0364572 -2.99878 0
M  V30 553 H 50.7645 -0.0565007 -1.56198 0
M  V30 554 H 51.4995 2.40151 -2.17941 0
M  V30 555 H 51.2845 1.41732 -3.65588 0
M  V30 556 H 52.7745 2.38148 -3.43038 0
M  V30 557 N 53.2116 1.57565 -0.0334293 0
M  V30 558 C 54.6276 1.56297 0.322997 0
M  V30 559 C 54.8276 1.03945 1.7262 0
M  V30 560 O 53.8836 0.688109 2.42943 0
M  V30 561 C 55.1966 3.00232 0.167664 0
M  V30 562 C 56.7446 3.12078 0.240107 0
M  V30 563 C 57.2196 4.57859 0.113513 0
M  V30 564 N 58.7106 4.62887 0.170359 0
M  V30 565 C 59.4456 5.73319 0.0962517 0
M  V30 566 N 58.9416 6.92794 -0.0291881 0
M  V30 567 N 60.7346 5.61898 0.150551 0
M  V30 568 H 52.8856 1.89923 -0.950956 0
M  V30 569 H 55.1486 0.873824 -0.367608 0
M  V30 570 H 54.8546 3.42501 -0.799102 0
M  V30 571 H 54.7286 3.654 0.936083 0
M  V30 572 H 57.1156 2.69718 1.19733 0
M  V30 573 H 57.1966 2.49623 -0.558763 0
M  V30 574 H 56.8406 5.009 -0.840314 0
M  V30 575 H 56.7706 5.18299 0.931302 0
M  V30 576 H 59.2616 3.76954 0.26728 0
M  V30 577 H 59.5746 7.7276 -0.0789252 0
M  V30 578 H 57.9196 6.94971 -0.0640299 0
M  V30 579 H 61.1106 4.67448 0.246981 0
M  V30 580 H 61.2836 6.47938 0.0893365 0
M  V30 581 N 54.6897 -0.239769 1.55765 0
M  V30 582 C 55.6197 -1.30052 1.9393 0
M  V30 583 C 56.6007 -1.49839 0.805132 0
M  V30 584 O 57.7857 -1.62328 1.06599 0
M  V30 585 C 54.9157 -2.65391 2.2402 0
M  V30 586 C 53.8697 -2.60289 3.39755 0
M  V30 587 C 53.1957 -3.99489 3.55405 0
M  V30 588 C 54.4957 -2.16654 4.75246 0
M  V30 589 H 56.1897 -0.983573 2.82783 0
M  V30 590 H 53.7357 -0.471701 1.36055 0
M  V30 591 H 55.6887 -3.3974 2.49308 0
M  V30 592 H 54.4127 -2.98736 1.32 0
M  V30 593 H 53.0717 -1.88398 3.14487 0
M  V30 594 H 52.7197 -4.30112 2.60793 0
M  V30 595 H 52.4197 -3.96962 4.33238 0
M  V30 596 H 53.9437 -4.75528 3.83022 0
M  V30 597 H 55.3577 -2.80737 4.99859 0
M  V30 598 H 53.7547 -2.25223 5.56232 0
M  V30 599 H 54.8247 -1.11835 4.71827 0
M  V30 600 N 56.1678 -1.49265 -0.50573 0
M  V30 601 C 57.3958 -1.62215 -1.28429 0
M  V30 602 C 57.8108 -0.291697 -1.86533 0
M  V30 603 O 57.1678 0.722233 -1.67601 0
M  V30 604 C 57.2188 -2.68735 -2.41793 0
M  V30 605 O 56.9398 -3.96619 -1.86078 0
M  V30 606 C 58.4408 -2.92346 -3.3324 0
M  V30 607 H 55.6608 -0.546239 -0.389697 0
M  V30 608 H 58.2048 -1.95265 -0.607609 0
M  V30 609 H 56.3598 -2.38476 -3.053 0
M  V30 610 H 56.7738 -4.55256 -2.60465 0
M  V30 611 H 58.2478 -3.70623 -4.09075 0
M  V30 612 H 58.7248 -2.02081 -3.89948 0
M  V30 613 H 59.3308 -3.24003 -2.75503 0
M  V30 614 N 57.6459 0.756429 -1.3826 0
M  V30 615 C 58.8919 1.51772 -1.34511 0
M  V30 616 C 59.2249 1.94089 0.0656691 0
M  V30 617 O 58.4999 1.65221 1.02626 0
M  V30 618 C 58.7829 2.77226 -2.29821 0
M  V30 619 C 58.6359 2.41065 -3.79747 0
M  V30 620 C 59.9549 3.79236 -2.23312 0
M  V30 621 H 57.0739 0.550578 -0.489931 0
M  V30 622 H 59.7159 0.866607 -1.69086 0
M  V30 623 H 57.8659 3.32784 -2.00467 0
M  V30 624 H 59.5379 1.91303 -4.19763 0
M  V30 625 H 57.7809 1.7356 -3.97567 0
M  V30 626 H 58.4519 3.3081 -4.41892 0
M  V30 627 H 60.9279 3.3321 -2.49219 0
M  V30 628 H 59.8039 4.64714 -2.92116 0
M  V30 629 H 60.0649 4.24615 -1.23102 0
M  V30 630 N 59.124 1.23083 0.984299 0
M  V30 631 C 60.072 1.00593 2.09723 0
M  V30 632 C 61.066 -0.0538014 1.69315 0
M  V30 633 O 62.272 0.0993719 1.79725 0
M  V30 634 H 58.647 0.30817 0.685956 0
M  V30 635 H 60.618 1.95012 2.2586 0
M  V30 636 C 59.367 0.609601 3.42314 0
M  V30 637 H 58.69 1.41675 3.73856 0
M  V30 638 H 60.13 0.491726 4.21139 0
M  V30 639 C 58.589 -0.681745 3.2993 0
M  V30 640 O 59.119 -1.73192 3.62446 0
M  V30 641 N 57.325 -0.656178 2.83095 0
M  V30 642 H 56.872 0.198759 2.56832 0
M  V30 643 H 56.83 -1.52044 2.75191 0
M  V30 644 N 60.6021 -1.18246 1.0419 0
M  V30 645 C 61.5651 -2.20128 0.638452 0
M  V30 646 C 62.5651 -1.57885 -0.304805 0
M  V30 647 O 63.7551 -1.73967 -0.0900369 0
M  V30 648 C 60.8871 -3.4084 -0.0637751 0
M  V30 649 H 62.0801 -2.57336 1.54007 0
M  V30 650 H 59.6331 -1.32152 0.834598 0
M  V30 651 H 60.3681 -3.09166 -0.979136 0
M  V30 652 H 60.1531 -3.8726 0.614198 0
M  V30 653 H 61.6431 -4.16274 -0.332512 0
M  V30 654 N 62.0802 -0.821533 -1.34494 0
M  V30 655 C 63.0102 -0.257138 -2.3208 0
M  V30 656 C 63.9912 0.625645 -1.58176 0
M  V30 657 O 65.1762 0.552811 -1.86166 0
M  V30 658 C 62.3062 0.582958 -3.42372 0
M  V30 659 C 61.2602 -0.202571 -4.2752 0
M  V30 660 C 60.5862 0.760179 -5.29269 0
M  V30 661 C 61.8862 -1.40998 -5.02908 0
M  V30 662 H 63.5802 -1.07247 -2.79532 0
M  V30 663 H 61.1262 -0.517163 -1.34393 0
M  V30 664 H 63.0792 0.987972 -4.09655 0
M  V30 665 H 61.8032 1.43133 -2.93565 0
M  V30 666 H 60.4622 -0.588936 -3.61838 0
M  V30 667 H 60.1102 1.60447 -4.76724 0
M  V30 668 H 59.8102 0.238809 -5.87115 0
M  V30 669 H 61.3342 1.16308 -5.9942 0
M  V30 670 H 62.7482 -1.07905 -5.63054 0
M  V30 671 H 61.1452 -1.86689 -5.70322 0
M  V30 672 H 62.2152 -2.1889 -4.32684 0
M  V30 673 N 63.5583 1.46682 -0.576371 0
M  V30 674 C 64.7863 2.06798 -0.0649635 0
M  V30 675 C 65.2013 1.42612 1.23723 0
M  V30 676 O 64.5583 0.529203 1.74659 0
M  V30 677 C 64.6093 3.6132 0.114202 0
M  V30 678 O 64.3303 4.23104 -1.13644 0
M  V30 679 C 65.8313 4.38349 0.66069 0
M  V30 680 H 63.0513 0.668778 -0.0545616 0
M  V30 681 H 65.5953 1.88404 -0.795237 0
M  V30 682 H 63.7503 3.79162 0.794673 0
M  V30 683 H 64.1643 5.15894 -0.946253 0
M  V30 684 H 65.6383 5.47081 0.73526 0
M  V30 685 H 66.1153 4.05953 1.67627 0
M  V30 686 H 66.7213 4.25297 0.0152951 0
M  V30 687 N 65.0364 0.313813 1.54444 0
M  V30 688 C 66.2834 -0.291675 2.00388 0
M  V30 689 C 66.6114 -1.52904 1.2021 0
M  V30 690 O 65.8664 -1.93833 0.269707 0
M  V30 691 C 66.1654 -0.680386 3.50864 0
M  V30 692 C 65.8314 0.456699 4.48581 0
M  V30 693 C 64.4934 0.768824 4.75018 0
M  V30 694 C 66.8454 1.22098 5.06697 0
M  V30 695 C 64.1734 1.84812 5.56831 0
M  V30 696 C 66.5254 2.29029 5.89685 0
M  V30 697 C 65.1894 2.60834 6.14428 0
M  V30 698 H 64.4594 -0.106732 0.733273 0
M  V30 699 H 67.1064 0.43557 1.86481 0
M  V30 700 H 65.4114 -1.48791 3.62448 0
M  V30 701 H 67.1084 -1.16026 3.83847 0
M  V30 702 H 63.6984 0.203337 4.28117 0
M  V30 703 H 67.8824 0.993096 4.86263 0
M  V30 704 H 63.1384 2.09912 5.74236 0
M  V30 705 H 67.3124 2.887 6.33739 0
M  V30 706 H 64.9394 3.44596 6.77612 0
M  V30 707 N 66.5145 -1.57545 0.0417849 0
M  V30 708 C 67.7635 -1.91494 -0.633492 0
M  V30 709 C 68.0765 -0.921084 -1.72556 0
M  V30 710 O 69.2825 -1.15228 -2.45835 0
M  V30 711 C 67.7385 -3.40072 -1.17808 0
M  V30 712 C 67.3465 -4.47843 -0.118633 0
M  V30 713 C 69.0905 -3.8307 -1.82915 0
M  V30 714 C 66.9975 -5.87529 -0.675578 0
M  V30 715 H 65.9275 -0.714653 -0.24039 0
M  V30 716 H 68.5785 -1.83175 0.109148 0
M  V30 717 H 66.9605 -3.43364 -1.97274 0
M  V30 718 H 68.1345 -4.56128 0.654494 0
M  V30 719 H 66.4495 -4.14128 0.434414 0
M  V30 720 H 69.0465 -4.84794 -2.25563 0
M  V30 721 H 69.3895 -3.1881 -2.67705 0
M  V30 722 H 69.9225 -3.82255 -1.10119 0
M  V30 723 H 66.6615 -6.55362 0.134475 0
M  V30 724 H 66.1815 -5.82824 -1.4169 0
M  V30 725 H 67.8605 -6.36491 -1.1614 0
M  V30 726 N 67.9926 0.231505 -1.5589 0
M  V30 727 C 69.4036 0.799327 -1.68724 0
M  V30 728 C 69.7546 1.85398 -0.642022 0
M  V30 729 O 68.8796 2.1539 0.208784 0
M  V30 730 C 69.4746 1.45664 -3.05888 0
M  V30 731 C 68.0336 1.97197 -3.20609 0
M  V30 732 C 67.1806 0.828552 -2.64632 0
M  V30 733 H 70.1316 0.00702616 -1.58698 0
M  V30 734 H 70.1526 2.32517 -3.01191 0
M  V30 735 H 69.6646 0.688808 -3.81939 0
M  V30 736 H 67.7656 2.76813 -2.4941 0
M  V30 737 H 67.8786 2.15878 -4.27707 0
M  V30 738 H 66.2426 1.23321 -2.22854 0
M  V30 739 H 67.0256 0.0735544 -3.43221 0
M  V30 740 N 69.4707 1.49531 0.497807 0
M  V30 741 C 70.4027 1.62559 1.61578 0
M  V30 742 C 71.4157 0.508134 1.54667 0
M  V30 743 O 72.6047 0.780309 1.60541 0
M  V30 744 C 69.7047 1.56925 3.00379 0
M  V30 745 C 68.8777 2.84257 3.3244 0
M  V30 746 C 67.9367 2.71632 4.50669 0
M  V30 747 O 66.9627 3.4557 4.52294 0
M  V30 748 N 68.1647 1.83391 5.5077 0
M  V30 749 H 70.9297 2.58981 1.50828 0
M  V30 750 H 68.4907 1.4666 0.685743 0
M  V30 751 H 70.4827 1.46129 3.77397 0
M  V30 752 H 69.0527 0.683483 3.05037 0
M  V30 753 H 68.2727 3.09381 2.44289 0
M  V30 754 H 69.5607 3.68666 3.5066 0
M  V30 755 H 68.9587 1.22583 5.52259 0
M  V30 756 H 67.5157 1.78515 6.26878 0
M  V30 757 N 70.9488 -0.749086 1.3866 0
M  V30 758 C 72.1958 -1.50833 1.35114 0
M  V30 759 C 72.5238 -1.94415 -0.0574049 0
M  V30 760 O 71.7788 -1.66065 -1.03541 0
M  V30 761 C 72.0778 -2.7712 2.25697 0
M  V30 762 C 71.7438 -2.52477 3.73585 0
M  V30 763 C 70.4058 -2.45466 4.13884 0
M  V30 764 C 72.7578 -2.31066 4.67181 0
M  V30 765 C 70.0858 -2.15064 5.45861 0
M  V30 766 C 72.4378 -2.02183 5.9942 0
M  V30 767 C 71.1018 -1.93631 6.38798 0
M  V30 768 H 70.3718 -0.551936 0.494416 0
M  V30 769 H 73.0188 -0.860979 1.71054 0
M  V30 770 H 71.3238 -3.46528 1.82827 0
M  V30 771 H 73.0208 -3.35096 2.20254 0
M  V30 772 H 69.6108 -2.58807 3.41638 0
M  V30 773 H 73.7948 -2.35459 4.3689 0
M  V30 774 H 69.0508 -2.06954 5.75308 0
M  V30 775 H 73.2248 -1.8462 6.71482 0
M  V30 776 H 70.8518 -1.69839 7.40985 0
M  V30 777 N 72.4269 -1.23603 -0.977757 0
M  V30 778 C 73.6549 -1.09646 -1.75458 0
M  V30 779 C 74.0699 0.351859 -1.85492 0
M  V30 780 O 73.4269 1.24327 -1.336 0
M  V30 781 C 73.4779 -1.71895 -3.18016 0
M  V30 782 O 73.1989 -3.11063 -3.08498 0
M  V30 783 C 74.6999 -1.63415 -4.12081 0
M  V30 784 H 71.9199 -0.38359 -0.550545 0
M  V30 785 H 74.4639 -1.63507 -1.22824 0
M  V30 786 H 72.6189 -1.22061 -3.67668 0
M  V30 787 H 73.0329 -3.41305 -3.9826 0
M  V30 788 H 74.5069 -2.11669 -5.09804 0
M  V30 789 H 74.9839 -0.593462 -4.35172 0
M  V30 790 H 75.5899 -2.12628 -3.68334 0
M  V30 791 N 73.905 1.17692 -1.04816 0
M  V30 792 C 75.151 1.88137 -0.75711 0
M  V30 793 C 75.484 1.80604 0.713841 0
M  V30 794 O 74.759 1.21146 1.52164 0
M  V30 795 C 75.042 3.38318 -1.2334 0
M  V30 796 C 74.895 3.54622 -2.76701 0
M  V30 797 C 76.214 4.32214 -0.829415 0
M  V30 798 H 73.333 0.683163 -0.27651 0
M  V30 799 H 75.975 1.38424 -1.30149 0
M  V30 800 H 74.125 3.80787 -0.770286 0
M  V30 801 H 75.797 3.21194 -3.31107 0
M  V30 802 H 74.04 2.97026 -3.16161 0
M  V30 803 H 74.711 4.60028 -3.05088 0
M  V30 804 H 77.187 3.97565 -1.22805 0
M  V30 805 H 76.063 5.35838 -1.19033 0
M  V30 806 H 76.324 4.41294 0.266891 0
M  V30 807 N 75.3831 0.828654 1.34056 0
M  V30 808 C 76.6291 0.429279 1.98818 0
M  V30 809 C 76.9841 -0.998011 1.64492 0
M  V30 810 O 76.2771 -1.68652 0.909228 0
M  V30 811 C 76.4711 0.575226 3.52741 0
M  V30 812 C 76.3001 2.01515 4.02022 0
M  V30 813 C 75.0701 2.64825 4.30344 0
M  V30 814 C 77.2681 2.98261 4.18981 0
M  V30 815 N 75.2501 3.99998 4.65698 0
M  V30 816 C 76.6211 4.18356 4.57578 0
M  V30 817 C 78.6761 2.94802 4.01243 0
M  V30 818 C 77.3791 5.35454 4.80293 0
M  V30 819 C 79.4051 4.11121 4.25128 0
M  V30 820 C 78.7671 5.29969 4.64018 0
M  V30 821 H 74.8661 0.205304 0.754569 0
M  V30 822 H 77.4501 1.07457 1.62361 0
M  V30 823 H 75.6211 -0.0401962 3.88379 0
M  V30 824 H 77.3531 0.148292 4.04428 0
M  V30 825 H 74.1081 2.16027 4.21461 0
M  V30 826 H 74.5321 4.69653 4.87601 0
M  V30 827 H 79.1741 2.04054 3.70299 0
M  V30 828 H 76.8921 6.26755 5.10102 0
M  V30 829 H 80.4781 4.0985 4.12934 0
M  V30 830 H 79.3581 6.18479 4.82134 0
M  V30 831 N 76.8612 -1.46375 0.584142 0
M  V30 832 C 77.8242 -2.28784 -0.138108 0
M  V30 833 C 78.8242 -1.38471 -0.817462 0
M  V30 834 O 80.0142 -1.60833 -0.669199 0
M  V30 835 C 77.1462 -3.18892 -1.20503 0
M  V30 836 H 78.3392 -2.94117 0.586127 0
M  V30 837 H 75.8922 -1.52509 0.342171 0
M  V30 838 H 76.6272 -2.58309 -1.96079 0
M  V30 839 H 76.4122 -3.85388 -0.722384 0
M  V30 840 H 77.9022 -3.80914 -1.71155 0
M  V30 841 N 78.3393 -0.321999 -1.54275 0
M  V30 842 C 79.2873 0.560206 -2.25753 0
M  V30 843 C 80.2813 1.11984 -1.27106 0
M  V30 844 O 81.4873 1.06806 -1.44888 0
M  V30 845 H 77.8623 0.199304 -0.725108 0
M  V30 846 H 79.8333 -0.0649365 -2.98329 0
M  V30 847 C 78.5823 1.71023 -3.02731 0
M  V30 848 H 77.9053 1.28885 -3.78456 0
M  V30 849 H 79.3453 2.30314 -3.55993 0
M  V30 850 C 77.8043 2.62692 -2.10938 0
M  V30 851 O 78.3343 3.64364 -1.6912 0
M  V30 852 N 76.5403 2.30891 -1.76459 0
M  V30 853 H 76.0873 1.48253 -2.10663 0
M  V30 854 H 76.0453 2.92487 -1.1532 0
M  V30 855 N 79.8174 1.5752 -0.0501392 0
M  V30 856 C 80.7274 2.14952 0.939827 0
M  V30 857 C 81.7434 1.10706 1.34239 0
M  V30 858 O 82.9194 1.42869 1.41952 0
M  V30 859 C 79.9844 2.68232 2.19665 0
M  V30 860 C 79.0454 3.87272 1.85253 0
M  V30 861 C 78.2784 4.38002 3.04943 0
M  V30 862 O 78.5014 3.87811 4.18281 0
M  V30 863 O 77.4354 5.29602 2.86017 0
M  V30 864 H 81.2614 2.9986 0.481392 0
M  V30 865 H 78.8464 1.4841 0.171699 0
M  V30 866 H 80.7284 3.02475 2.93406 0
M  V30 867 H 79.4034 1.86395 2.64648 0
M  V30 868 H 78.3104 3.5792 1.0883 0
M  V30 869 H 79.6434 4.70336 1.4507 0
M  V30 870 N 81.2955 -0.223234 1.56011 0
M  V30 871 C 82.5435 -0.946003 1.78592 0
M  V30 872 C 82.8645 -1.84936 0.618349 0
M  V30 873 O 82.1345 -1.92473 -0.364833 0
M  V30 874 H 80.7145 -0.352298 0.658707 0
M  V30 875 H 83.3765 -0.235494 1.93472 0
M  V30 876 H 82.4725 -1.55381 2.70672 0
M  V30 877 N 82.7736 -1.49793 -0.48987 0
M  V30 878 C 83.7066 -1.61898 -1.60823 0
M  V30 879 C 84.6846 -0.467651 -1.5573 0
M  V30 880 O 85.8686 -0.684682 -1.75626 0
M  V30 881 C 82.9956 -1.58422 -2.99366 0
M  V30 882 C 82.0416 -2.78889 -3.22682 0
M  V30 883 S 82.8746 -4.40429 -3.04602 0
M  V30 884 C 84.0306 -4.39617 -4.4552 0
M  V30 885 H 84.2636 -2.56502 -1.50312 0
M  V30 886 H 81.7966 -1.38822 -0.675849 0
M  V30 887 H 83.7546 -1.57103 -3.79248 0
M  V30 888 H 82.4156 -0.650866 -3.07283 0
M  V30 889 H 81.6086 -2.72708 -4.23847 0
M  V30 890 H 81.2106 -2.77678 -2.50541 0
M  V30 891 H 83.5026 -4.12022 -5.37814 0
M  V30 892 H 84.4456 -5.41097 -4.56749 0
M  V30 893 H 84.8536 -3.69554 -4.2672 0
M  V30 894 N 84.2517 0.741722 -1.39055 0
M  V30 895 C 85.1817 1.869 -1.39966 0
M  V30 896 C 86.1627 1.6804 -0.26392 0
M  V30 897 O 87.3477 1.88458 -0.468755 0
M  V30 898 C 84.4777 3.24572 -1.23574 0
M  V30 899 C 83.4317 3.58056 -2.34477 0
M  V30 900 C 82.7577 4.94593 -2.0318 0
M  V30 901 C 84.0577 3.61716 -3.76774 0
M  V30 902 H 85.7517 1.86395 -2.34302 0
M  V30 903 H 83.2977 0.895361 -1.1278 0
M  V30 904 H 85.2507 4.031 -1.22834 0
M  V30 905 H 83.9747 3.25587 -0.257045 0
M  V30 906 H 82.6337 2.81854 -2.34423 0
M  V30 907 H 82.2817 4.92181 -1.03765 0
M  V30 908 H 81.9817 5.17964 -2.77465 0
M  V30 909 H 83.5057 5.75486 -2.04079 0
M  V30 910 H 84.9197 4.30335 -3.78794 0
M  V30 911 H 83.3167 3.96603 -4.50362 0
M  V30 912 H 84.3867 2.61672 -4.08235 0
M  V30 913 N 85.7298 1.2412 0.971189 0
M  V30 914 C 86.9578 1.10575 1.74874 0
M  V30 915 C 87.3728 -0.342017 1.85676 0
M  V30 916 O 86.7298 -1.23617 1.34258 0
M  V30 917 C 86.7808 1.73579 3.171 0
M  V30 918 O 86.5018 3.12695 3.06844 0
M  V30 919 C 88.0028 1.65598 4.11208 0
M  V30 920 H 85.2228 0.386504 0.548503 0
M  V30 921 H 87.7668 1.64156 1.21955 0
M  V30 922 H 85.9218 1.24009 3.67016 0
M  V30 923 H 86.3358 3.43412 3.96445 0
M  V30 924 H 87.8098 2.1437 5.08674 0
M  V30 925 H 88.2868 0.616532 4.34851 0
M  V30 926 H 88.8928 2.14578 3.67201 0
M  V30 927 N 87.2079 -1.17134 1.05439 0
M  V30 928 C 88.1379 -2.2342 0.678649 0
M  V30 929 C 89.1189 -1.66971 -0.32476 0
M  V30 930 O 90.3039 -1.93149 -0.201802 0
M  V30 931 C 87.4339 -3.47256 0.0552099 0
M  V30 932 C 86.3879 -4.16543 0.98365 0
M  V30 933 C 85.7139 -5.34231 0.223961 0
M  V30 934 C 87.0139 -4.68495 2.3089 0
M  V30 935 H 88.7079 -2.55105 1.56722 0
M  V30 936 H 86.2539 -1.2262 0.754998 0
M  V30 937 H 88.2069 -4.20828 -0.21946 0
M  V30 938 H 86.9309 -3.14846 -0.868319 0
M  V30 939 H 85.5899 -3.44887 1.24293 0
M  V30 940 H 85.2379 -4.98071 -0.702412 0
M  V30 941 H 84.9379 -5.81527 0.842627 0
M  V30 942 H 86.4619 -6.10585 -0.0433671 0
M  V30 943 H 87.8759 -5.33691 2.09396 0
M  V30 944 H 86.2729 -5.26379 2.88176 0
M  V30 945 H 87.3429 -3.85169 2.94572 0
M  V30 946 N 88.686 -0.835752 -1.33615 0
M  V30 947 C 89.932 -0.430596 -1.98176 0
M  V30 948 C 90.265 1.00684 -1.66061 0
M  V30 949 O 89.54 1.70339 -0.938877 0
M  V30 950 C 89.823 -0.648065 -3.5422 0
M  V30 951 C 89.676 -2.13255 -3.96033 0
M  V30 952 C 90.995 -0.0922113 -4.40003 0
M  V30 953 H 88.114 -0.157924 -0.719881 0
M  V30 954 H 90.756 -1.05069 -1.58305 0
M  V30 955 H 88.906 -0.120237 -3.88314 0
M  V30 956 H 90.578 -2.725 -3.72211 0
M  V30 957 H 88.821 -2.61823 -3.45878 0
M  V30 958 H 89.492 -2.23547 -5.04708 0
M  V30 959 H 91.968 -0.543343 -4.12537 0
M  V30 960 H 90.844 -0.274083 -5.48215 0
M  V30 961 H 91.105 1.00378 -4.30554 0
M  V30 962 N 90.1641 1.46063 -0.591896 0
M  V30 963 C 91.0741 2.34192 0.13831 0
M  V30 964 C 92.0901 1.50305 0.876608 0
M  V30 965 O 93.2661 1.8315 0.837728 0
M  V30 966 C 90.3311 3.27656 1.13326 0
M  V30 967 C 89.3921 4.27445 0.39863 0
M  V30 968 C 88.6251 5.16443 1.34618 0
M  V30 969 O 88.8481 5.08553 2.58321 0
M  V30 970 O 87.7821 5.95843 0.851768 0
M  V30 971 H 91.6081 2.98002 -0.58552 0
M  V30 972 H 89.1931 1.45188 -0.352239 0
M  V30 973 H 91.0751 3.85291 1.70671 0
M  V30 974 H 89.7501 2.6643 1.83839 0
M  V30 975 H 88.6571 3.73471 -0.216895 0
M  V30 976 H 89.9901 4.91482 -0.265709 0
M  V30 977 N 91.6422 0.330177 1.54103 0
M  V30 978 C 92.8902 -0.269871 2.0029 0
M  V30 979 C 93.2112 -1.52133 1.21986 0
M  V30 980 O 92.4812 -1.93212 0.323438 0
M  V30 981 H 91.0612 -0.10271 0.739905 0
M  V30 982 H 93.7232 0.448249 1.89675 0
M  V30 983 H 92.8192 -0.52166 3.07709 0
M  V30 984 N 93.1203 -1.57491 0.0584922 0
M  V30 985 C 94.5313 -1.80526 -0.476138 0
M  V30 986 C 94.8823 -0.971334 -1.70469 0
M  V30 987 O 94.0073 -0.190012 -2.15564 0
M  V30 988 C 94.6023 -3.27424 -0.870587 0
M  V30 989 C 93.1613 -3.51351 -1.35015 0
M  V30 990 C 92.3083 -2.75343 -0.32887 0
M  V30 991 H 95.2593 -1.56133 0.284312 0
M  V30 992 H 95.2803 -3.38745 -1.73299 0
M  V30 993 H 94.7923 -3.88093 0.0237627 0
M  V30 994 H 92.8933 -2.95971 -2.26345 0
M  V30 995 H 93.0063 -4.60059 -1.33726 0
M  V30 996 H 91.3703 -2.417 -0.803321 0
M  V30 997 H 92.1533 -3.38743 0.557521 0
M  V30 998 N 94.5984 0.214957 -1.56127 0
M  V30 999 C 95.8454 0.938372 -1.79446 0
M  V30 1000 C 96.1734 1.8407 -0.628378 0
M  V30 1001 O 95.4284 1.91837 0.386925 0
M  V30 1002 C 95.7274 1.80314 -3.0858 0
M  V30 1003 C 95.3934 1.05349 -4.3842 0
M  V30 1004 C 94.0554 0.846435 -4.73697 0
M  V30 1005 C 96.4074 0.524588 -5.18553 0
M  V30 1006 C 93.7354 0.098683 -5.86617 0
M  V30 1007 C 96.0874 -0.209853 -6.32252 0
M  V30 1008 C 94.7514 -0.428102 -6.66126 0
M  V30 1009 H 94.0214 0.343375 -0.656639 0
M  V30 1010 H 96.6684 0.206077 -1.90388 0
M  V30 1011 H 94.9734 2.6035 -2.92789 0
M  V30 1012 H 96.6704 2.36513 -3.23825 0
M  V30 1013 H 93.2604 1.22486 -4.10725 0
M  V30 1014 H 97.4444 0.672008 -4.91729 0
M  V30 1015 H 92.7004 -0.0805753 -6.11347 0
M  V30 1016 H 96.8744 -0.627157 -6.9357 0
M  V30 1017 H 94.5014 -1.00944 -7.53468 0
M  V30 1018 N 96.0765 1.50051 0.48192 0
M  V30 1019 C 97.3535 1.51009 1.2432 0
M  V30 1020 C 97.7335 0.248587 2.09631 0
M  V30 1021 O 97.0815 -0.768409 2.15192 0
M  V30 1022 C 97.2915 2.79981 2.08355 0
M  V30 1023 C 98.6395 3.3022 2.66908 0
M  V30 1024 O 99.6635 2.81228 2.18607 0
M  V30 1025 O 98.5225 4.15595 3.54884 0
M  V30 1026 H 95.6165 0.605239 0.563573 0
M  V30 1027 H 98.1625 1.62332 0.494627 0
M  V30 1028 H 96.9345 3.63275 1.45419 0
M  V30 1029 H 96.5575 2.7161 2.90368 0
M  V30 1030 N 97.5546 -0.734337 1.39446 0
M  V30 1031 C 98.4646 -1.87879 1.40495 0
M  V30 1032 C 99.4806 -1.714 0.299672 0
M  V30 1033 O 100.657 -1.93991 0.541249 0
M  V30 1034 C 97.7216 -3.23477 1.24754 0
M  V30 1035 C 96.7826 -3.52344 2.45259 0
M  V30 1036 C 96.0156 -4.81473 2.30259 0
M  V30 1037 O 96.2386 -5.55237 1.30643 0
M  V30 1038 O 95.1726 -5.10254 3.19256 0
M  V30 1039 H 98.9986 -1.89949 2.36966 0
M  V30 1040 H 96.5836 -0.882243 1.20569 0
M  V30 1041 H 98.4656 -4.04509 1.18111 0
M  V30 1042 H 97.1406 -3.22176 0.313781 0
M  V30 1043 H 96.0476 -2.71396 2.57478 0
M  V30 1044 H 97.3806 -3.58426 3.37331 0
M  V30 1045 N 99.0327 -1.24633 -0.964593 0
M  V30 1046 C 100.261 -1.11501 -1.74285 0
M  V30 1047 C 100.676 0.332165 -1.85855 0
M  V30 1048 O 100.033 1.22903 -1.34911 0
M  V30 1049 C 100.084 -1.75258 -3.16175 0
M  V30 1050 O 99.8047 -3.14318 -3.05182 0
M  V30 1051 C 101.306 -1.67776 -4.10324 0
M  V30 1052 H 98.5257 -0.389407 -0.546446 0
M  V30 1053 H 101.07 -1.64801 -1.21083 0
M  V30 1054 H 99.2247 -1.25954 -3.66353 0
M  V30 1055 H 99.6387 -3.4551 -3.94618 0
M  V30 1056 H 101.113 -2.17064 -5.0753 0
M  V30 1057 H 101.59 -0.639584 -4.34518 0
M  V30 1058 H 102.196 -2.16522 -3.66058 0
M  V30 1059 N 100.511 1.16574 -1.06058 0
M  V30 1060 C 101.441 2.23057 -0.690488 0
M  V30 1061 C 102.422 1.67141 0.315901 0
M  V30 1062 O 103.607 1.93253 0.191556 0
M  V30 1063 C 100.737 3.47222 -0.073625 0
M  V30 1064 C 99.6908 4.16016 -1.00573 0
M  V30 1065 C 99.0168 5.34104 -0.252289 0
M  V30 1066 C 100.317 4.67264 -2.33371 0
M  V30 1067 H 102.011 2.54271 -1.58072 0
M  V30 1068 H 99.5568 1.22218 -0.76149 0
M  V30 1069 H 101.51 4.20939 0.19714 0
M  V30 1070 H 100.234 3.15302 0.85161 0
M  V30 1071 H 98.8928 3.44223 -1.2612 0
M  V30 1072 H 98.5408 4.98437 0.675988 0
M  V30 1073 H 98.2408 5.81072 -0.873455 0
M  V30 1074 H 99.7648 6.10599 0.0109857 0
M  V30 1075 H 101.179 5.32573 -2.12223 0
M  V30 1076 H 99.5758 5.24843 -2.90963 0
M  V30 1077 H 100.646 3.83602 -2.96611 0
M  V30 1078 N 101.989 0.842826 1.3317 0
M  V30 1079 C 102.919 0.294028 2.31641 0
M  V30 1080 C 103.9 -0.600401 1.59151 0
M  V30 1081 O 105.085 -0.523124 1.87022 0
M  V30 1082 C 102.215 -0.528416 3.43257 0
M  V30 1083 C 101.169 0.27056 4.27144 0
M  V30 1084 C 100.495 -0.675881 5.30411 0
M  V30 1085 C 101.795 1.48981 5.00602 0
M  V30 1086 H 103.489 1.11681 2.77791 0
M  V30 1087 H 101.035 0.538478 1.33553 0
M  V30 1088 H 102.988 -0.922674 4.11175 0
M  V30 1089 H 101.712 -1.38445 2.95805 0
M  V30 1090 H 100.371 0.646427 3.60856 0
M  V30 1091 H 100.019 -1.52842 4.79216 0
M  V30 1092 H 99.7189 -0.145374 5.8742 0
M  V30 1093 H 101.243 -1.06757 6.01195 0
M  V30 1094 H 102.657 1.16849 5.61266 0
M  V30 1095 H 101.054 1.95739 5.6728 0
M  V30 1096 H 102.124 2.25746 4.29147 0
M  V30 1097 N 103.467 -1.45747 0.599634 0
M  V30 1098 C 104.744 -1.95585 0.0240846 0
M  V30 1099 C 105.124 -1.54217 -1.44154 0
M  V30 1100 O 104.472 -0.800903 -2.14004 0
M  V30 1101 C 104.682 -3.48344 0.21385 0
M  V30 1102 C 106.03 -4.24504 0.0904902 0
M  V30 1103 O 107.054 -3.55911 0.143558 0
M  V30 1104 O 105.913 -5.46491 -0.0310766 0
M  V30 1105 H 103.007 -0.82602 -0.0402478 0
M  V30 1106 H 105.553 -1.55951 0.669139 0
M  V30 1107 H 104.325 -3.71397 1.23206 0
M  V30 1108 H 103.948 -3.9485 -0.466842 0
M  V30 1109 N 104.945 -0.338344 -1.53925 0
M  V30 1110 C 106.17 0.263987 -2.05713 0
M  V30 1111 C 106.595 1.43847 -1.21201 0
M  V30 1112 O 105.953 1.79904 -0.224535 0
M  V30 1113 C 106.001 0.662 -3.54471 0
M  V30 1114 O 105.105 1.76265 -3.72833 0
M  V30 1115 H 104.446 0.0448722 -0.662482 0
M  V30 1116 H 106.976 -0.491048 -1.9862 0
M  V30 1117 H 106.986 0.940594 -3.9701 0
M  V30 1118 H 105.661 -0.196937 -4.15433 0
M  V30 1119 H 104.238 1.48173 -3.42198 0
M  V30 1120 N 106.423 1.57458 -0.0668435 0
M  V30 1121 C 107.663 1.95175 0.607116 0
M  V30 1122 C 108.027 0.946039 1.67075 0
M  V30 1123 O 109.228 1.2107 2.39991 0
M  V30 1124 C 107.499 3.37582 1.17358 0
M  V30 1125 S 109.058 3.97271 1.86336 0
M  V30 1126 H 105.876 0.682604 0.19893 0
M  V30 1127 H 108.478 1.95002 -0.139519 0
M  V30 1128 H 107.182 4.08566 0.387553 0
M  V30 1129 H 106.713 3.41288 1.95669 0
M  V30 1130 H 108.728 3.83772 3.14537 0
M  V30 1131 N 107.901 -0.206675 1.56239 0
M  V30 1132 C 109.147 -0.925733 1.81113 0
M  V30 1133 C 109.502 -1.81368 0.642135 0
M  V30 1134 O 108.795 -1.88126 -0.363211 0
M  V30 1135 C 108.989 -1.78675 3.09532 0
M  V30 1136 C 108.818 -0.98365 4.3881 0
M  V30 1137 C 107.588 -0.672661 5.00803 0
M  V30 1138 C 109.786 -0.341847 5.13163 0
M  V30 1139 N 107.768 0.150283 6.13716 0
M  V30 1140 C 109.139 0.343815 6.19046 0
M  V30 1141 C 111.194 -0.256392 4.97239 0
M  V30 1142 C 109.897 1.10678 7.10734 0
M  V30 1143 C 111.923 0.493142 5.8934 0
M  V30 1144 C 111.285 1.16729 6.94661 0
M  V30 1145 H 107.384 -0.318524 0.714189 0
M  V30 1146 H 109.968 -0.195378 1.93717 0
M  V30 1147 H 108.139 -2.4888 2.98183 0
M  V30 1148 H 109.871 -2.44441 3.22538 0
M  V30 1149 H 106.626 -0.994294 4.63045 0
M  V30 1150 H 107.05 0.551026 6.74754 0
M  V30 1151 H 111.692 -0.763249 4.15854 0
M  V30 1152 H 109.41 1.6251 7.91591 0
M  V30 1153 H 112.996 0.560465 5.79094 0
M  V30 1154 H 111.876 1.738 7.64698 0
M  V30 1155 N 109.379 -1.50304 -0.473955 0
M  V30 1156 C 110.309 -1.71886 -1.58042 0
M  V30 1157 C 111.29 -0.567799 -1.60344 0
M  V30 1158 O 112.475 -0.806623 -1.76656 0
M  V30 1159 C 109.605 -1.81036 -2.96384 0
M  V30 1160 C 108.559 -2.962 -3.08949 0
M  V30 1161 C 107.885 -2.9049 -4.48909 0
M  V30 1162 C 109.185 -4.36752 -2.86434 0
M  V30 1163 H 110.879 -2.64527 -1.40234 0
M  V30 1164 H 108.425 -1.27295 -0.673201 0
M  V30 1165 H 110.378 -1.94719 -3.73714 0
M  V30 1166 H 109.102 -0.850147 -3.15341 0
M  V30 1167 H 107.761 -2.82164 -2.3405 0
M  V30 1168 H 107.409 -1.92321 -4.64781 0
M  V30 1169 H 107.109 -3.67802 -4.58253 0
M  V30 1170 H 108.633 -3.06218 -5.28264 0
M  V30 1171 H 110.047 -4.5133 -3.53517 0
M  V30 1172 H 108.444 -5.15493 -3.07225 0
M  V30 1173 H 109.514 -4.49321 -1.82316 0
M  V30 1174 N 110.857 0.726932 -1.39834 0
M  V30 1175 C 111.82 1.82269 -1.38962 0
M  V30 1176 C 112.82 1.58248 -0.285334 0
M  V30 1177 O 114.01 1.65499 -0.54366 0
M  V30 1178 C 111.142 3.20186 -1.17019 0
M  V30 1179 H 112.335 1.84443 -2.36476 0
M  V30 1180 H 109.888 0.931416 -1.25516 0
M  V30 1181 H 110.623 3.23669 -0.202204 0
M  V30 1182 H 110.408 3.3902 -1.96998 0
M  V30 1183 H 111.898 4.00235 -1.1917 0
M  V30 1184 N 112.336 1.25143 0.95797 0
M  V30 1185 C 113.585 1.0909 1.69654 0
M  V30 1186 C 113.898 -0.368548 1.92097 0
M  V30 1187 O 115.104 -0.649455 2.63618 0
M  V30 1188 C 113.56 1.90395 3.05414 0
M  V30 1189 C 113.168 3.4081 2.90779 0
M  V30 1190 C 114.912 1.82901 3.83076 0
M  V30 1191 C 112.819 4.14423 4.21909 0
M  V30 1192 H 111.749 0.404625 0.636235 0
M  V30 1193 H 114.4 1.4931 1.06672 0
M  V30 1194 H 112.782 1.42996 3.69281 0
M  V30 1195 H 113.956 3.95859 2.35865 0
M  V30 1196 H 112.271 3.49361 2.26575 0
M  V30 1197 H 114.868 2.35196 4.80195 0
M  V30 1198 H 115.211 0.796224 4.08615 0
M  V30 1199 H 115.744 2.28033 3.25954 0
M  V30 1200 H 112.483 5.18102 4.01561 0
M  V30 1201 H 112.003 3.64159 4.76601 0
M  V30 1202 H 113.682 4.21956 4.90471 0
M  V30 1203 N 113.814 -1.1601 1.06675 0
M  V30 1204 C 114.777 -2.18724 0.685001 0
M  V30 1205 C 115.777 -1.58496 -0.271246 0
M  V30 1206 O 116.967 -1.74119 -0.0531156 0
M  V30 1207 C 114.099 -3.40899 0.00853648 0
M  V30 1208 H 115.292 -2.54011 1.59431 0
M  V30 1209 H 112.845 -1.30352 0.862441 0
M  V30 1210 H 113.58 -3.11173 -0.913337 0
M  V30 1211 H 113.365 -3.8587 0.696204 0
M  V30 1212 H 114.855 -4.16886 -0.24414 0
M  V30 1213 N 115.292 -0.849877 -1.32721 0
M  V30 1214 C 116.255 -0.296122 -2.27279 0
M  V30 1215 C 117.255 0.541458 -1.5141 0
M  V30 1216 O 118.445 0.353658 -1.70572 0
M  V30 1217 C 115.577 0.581579 -3.35902 0
M  V30 1218 H 116.77 -1.13064 -2.77771 0
M  V30 1219 H 114.323 -0.62383 -1.43311 0
M  V30 1220 H 115.058 1.43809 -2.9067 0
M  V30 1221 H 114.843 -0.0178814 -3.92096 0
M  V30 1222 H 116.333 0.961951 -4.0637 0
M  V30 1223 N 116.77 1.45427 -0.607355 0
M  V30 1224 C 117.998 2.06614 -0.108814 0
M  V30 1225 C 118.413 1.45204 1.2067 0
M  V30 1226 O 117.77 0.566132 1.73497 0
M  V30 1227 C 117.821 3.61481 0.0375347 0
M  V30 1228 O 117.542 4.20598 -1.22593 0
M  V30 1229 C 119.043 4.39652 0.567561 0
M  V30 1230 H 116.263 0.66747 -0.0687351 0
M  V30 1231 H 118.807 1.86675 -0.835022 0
M  V30 1232 H 116.962 3.80762 0.714068 0
M  V30 1233 H 117.376 5.1377 -1.05547 0
M  V30 1234 H 118.85 5.48518 0.61905 0
M  V30 1235 H 119.327 4.09417 1.58978 0
M  V30 1236 H 119.933 4.25234 -0.0749202 0
M  V30 1237 N 118.248 0.346503 1.53744 0
M  V30 1238 C 119.525 -0.304532 1.93215 0
M  V30 1239 C 119.905 -1.67993 1.27834 0
M  V30 1240 O 119.253 -2.24411 0.430352 0
M  V30 1241 C 119.463 -0.373852 3.46992 0
M  V30 1242 C 120.811 -0.62329 4.2 0
M  V30 1243 O 121.835 -0.455847 3.53271 0
M  V30 1244 O 120.694 -0.947879 5.38217 0
M  V30 1245 H 117.788 -0.178318 0.807547 0
M  V30 1246 H 120.334 0.397895 1.64969 0
M  V30 1247 H 119.106 0.591224 3.86808 0
M  V30 1248 H 118.729 -1.12294 3.81413 0
M  V30 1249 N 119.726 -1.57421 0.075193 0
M  V30 1250 C 121.003 -1.85029 -0.634329 0
M  V30 1251 C 121.383 -0.968305 -1.87582 0
M  V30 1252 O 120.731 -0.0354749 -2.28472 0
M  V30 1253 C 120.941 -3.35286 -0.968742 0
M  V30 1254 C 122.289 -4.02875 -1.34077 0
M  V30 1255 O 123.313 -3.40051 -1.06037 0
M  V30 1256 O 122.172 -5.13691 -1.86506 0
M  V30 1257 H 119.266 -0.7645 -0.315387 0
M  V30 1258 H 121.812 -1.69366 0.106382 0
M  V30 1259 H 120.584 -3.91203 -0.0871376 0
M  V30 1260 H 120.207 -3.56223 -1.7661 0
M  V30 1261 N 121.204 0.198386 -1.56346 0
M  V30 1262 C 122.481 0.944982 -1.71258 0
M  V30 1263 C 122.861 2.0151 -0.629048 0
M  V30 1264 O 122.209 2.25639 0.360473 0
M  V30 1265 C 122.419 1.5344 -3.1346 0
M  V30 1266 C 123.767 2.01778 -3.73591 0
M  V30 1267 O 124.791 1.63288 -3.16568 0
M  V30 1268 O 123.65 2.72594 -4.73661 0
M  V30 1269 H 120.744 0.442939 -0.69838 0
M  V30 1270 H 123.29 0.188342 -1.68652 0
M  V30 1271 H 122.062 0.762869 -3.83792 0
M  V30 1272 H 121.685 2.35596 -3.20282 0
M  V30 1273 N 122.682 1.50554 0.465978 0
M  V30 1274 C 123.91 1.65563 1.24083 0
M  V30 1275 C 124.325 0.341051 1.85694 0
M  V30 1276 O 123.682 -0.677543 1.69457 0
M  V30 1277 C 123.733 2.75051 2.34583 0
M  V30 1278 O 123.454 4.01413 1.75497 0
M  V30 1279 C 124.955 3.01078 3.25372 0
M  V30 1280 H 122.175 0.55638 0.375077 0
M  V30 1281 H 124.719 1.96807 0.555624 0
M  V30 1282 H 122.874 2.46486 2.9887 0
M  V30 1283 H 123.288 4.62002 2.48303 0
M  V30 1284 H 124.762 3.81339 3.99105 0
M  V30 1285 H 125.239 2.12349 3.84453 0
M  V30 1286 H 125.845 3.31194 2.66816 0
M  V30 1287 N 124.16 -0.719506 1.40217 0
M  V30 1288 C 125.406 -1.48152 1.38488 0
M  V30 1289 C 125.739 -1.94195 -0.0141867 0
M  V30 1290 O 125.014 -1.67884 -0.982096 0
M  V30 1291 C 125.297 -2.71035 2.37091 0
M  V30 1292 C 125.15 -2.30912 3.86005 0
M  V30 1293 C 126.469 -3.73182 2.33288 0
M  V30 1294 H 123.588 -0.537395 0.504357 0
M  V30 1295 H 126.23 -0.821472 1.71324 0
M  V30 1296 H 124.38 -3.27352 2.0922 0
M  V30 1297 H 126.052 -1.80107 4.24687 0
M  V30 1298 H 124.295 -1.62958 4.02029 0
M  V30 1299 H 124.966 -3.18978 4.50508 0
M  V30 1300 H 127.442 -3.26485 2.57966 0
M  V30 1301 H 126.318 -4.56806 3.04334 0
M  V30 1302 H 126.579 -4.21202 1.34317 0
M  V30 1303 N 125.638 -1.25649 -0.95132 0
M  V30 1304 C 126.586 -1.06118 -2.06982 0
M  V30 1305 C 127.58 0.00889169 -1.69398 0
M  V30 1306 O 128.786 -0.146988 -1.79399 0
M  V30 1307 H 125.161 -0.326248 -0.677544 0
M  V30 1308 H 127.132 -2.00932 -2.2061 0
M  V30 1309 C 125.881 -0.700145 -3.40578 0
M  V30 1310 H 125.204 -1.51537 -3.69968 0
M  V30 1311 H 126.644 -0.603211 -4.19687 0
M  V30 1312 C 125.103 0.59403 -3.31622 0
M  V30 1313 O 125.633 1.63522 -3.66911 0
M  V30 1314 N 123.839 0.58089 -2.84735 0
M  V30 1315 H 123.386 -0.266783 -2.56215 0
M  V30 1316 H 123.344 1.44695 -2.79125 0
M  V30 1317 N 127.117 1.15442 -1.07289 0
M  V30 1318 C 128.049 2.19773 -0.650585 0
M  V30 1319 C 129.062 1.60076 0.296572 0
M  V30 1320 O 130.251 1.78293 0.0859905 0
M  V30 1321 C 127.351 3.38838 0.0650398 0
M  V30 1322 C 126.524 4.2808 -0.898141 0
M  V30 1323 C 125.583 5.2574 -0.219926 0
M  V30 1324 O 124.609 5.62654 -0.860773 0
M  V30 1325 N 125.811 5.71205 1.03466 0
M  V30 1326 H 128.576 2.56622 -1.54808 0
M  V30 1327 H 126.137 1.30551 -0.957494 0
M  V30 1328 H 128.129 4.01222 0.529415 0
M  V30 1329 H 126.699 3.00409 0.864466 0
M  V30 1330 H 125.919 3.62804 -1.54165 0
M  V30 1331 H 127.207 4.84577 -1.5512 0
M  V30 1332 H 126.605 5.43325 1.57526 0
M  V30 1333 H 125.162 6.35633 1.44272 0
M  V30 1334 N 128.595 0.856903 1.32268 0
M  V30 1335 C 130.011 0.547061 1.49931 0
M  V30 1336 C 130.211 -0.921781 1.7918 0
M  V30 1337 O 129.267 -1.70469 1.8627 0
M  V30 1338 C 130.58 1.43599 2.64196 0
M  V30 1339 C 132.128 1.43665 2.78081 0
M  V30 1340 C 132.603 2.31085 3.95428 0
M  V30 1341 N 134.094 2.28893 4.02694 0
M  V30 1342 C 134.829 2.93262 4.92732 0
M  V30 1343 N 134.325 3.66751 5.87763 0
M  V30 1344 N 136.118 2.82638 4.85873 0
M  V30 1345 H 128.269 1.8075 1.11549 0
M  V30 1346 H 130.532 0.772144 0.549997 0
M  V30 1347 H 130.238 2.48058 2.49319 0
M  V30 1348 H 130.112 1.12502 3.60032 0
M  V30 1349 H 132.499 0.399701 2.92381 0
M  V30 1350 H 132.58 1.7878 1.82952 0
M  V30 1351 H 132.224 3.34849 3.81888 0
M  V30 1352 H 132.154 1.93302 4.89839 0
M  V30 1353 H 134.645 1.75466 3.34694 0
M  V30 1354 H 134.958 4.13027 6.53168 0
M  V30 1355 H 133.303 3.70859 5.87783 0
M  V30 1356 H 136.494 2.24774 4.10602 0
M  V30 1357 H 136.667 3.33084 5.55841 0
M  V30 1358 N 130.073 -1.45103 0.615059 0
M  V30 1359 C 131.319 -2.02483 0.113347 0
M  V30 1360 C 131.652 -1.48146 -1.25564 0
M  V30 1361 O 130.927 -0.659104 -1.82992 0
M  V30 1362 C 131.21 -3.60005 0.0825278 0
M  V30 1363 C 131.063 -4.2466 1.48271 0
M  V30 1364 C 132.382 -4.35972 -0.601401 0
M  V30 1365 H 129.501 -0.735764 0.0426632 0
M  V30 1366 H 132.143 -1.72868 0.788461 0
M  V30 1367 H 130.293 -3.85367 -0.492378 0
M  V30 1368 H 131.965 -4.10458 2.10527 0
M  V30 1369 H 130.208 -3.82772 2.04127 0
M  V30 1370 H 130.879 -5.336 1.41332 0
M  V30 1371 H 133.355 -4.15947 -0.112666 0
M  V30 1372 H 132.231 -5.45697 -0.592097 0
M  V30 1373 H 132.492 -4.09391 -1.66887 0
M  V30 1374 N 131.551 -0.354651 -1.53558 0
M  V30 1375 C 132.776 0.242153 -2.05981 0
M  V30 1376 C 133.201 1.42553 -1.2272 0
M  V30 1377 O 132.559 1.79656 -0.243604 0
M  V30 1378 C 132.607 0.624367 -3.55154 0
M  V30 1379 O 131.711 1.72301 -3.74681 0
M  V30 1380 H 131.052 0.0378432 -0.662921 0
M  V30 1381 H 133.582 -0.512087 -1.98088 0
M  V30 1382 H 133.592 0.898433 -3.97985 0
M  V30 1383 H 132.267 -0.240989 -4.15201 0
M  V30 1384 H 130.844 1.44535 -3.4375 0
M  V30 1385 N 133.029 1.57378 -0.0835403 0
M  V30 1386 C 134.306 1.85363 0.624507 0
M  V30 1387 C 134.686 0.978239 1.87066 0
M  V30 1388 O 134.034 0.0475908 2.2845 0
M  V30 1389 C 134.244 3.35795 0.950947 0
M  V30 1390 C 135.592 4.03581 1.31939 0
M  V30 1391 O 136.616 3.40609 1.04232 0
M  V30 1392 O 135.475 5.14672 1.83779 0
M  V30 1393 H 132.569 0.766162 0.311329 0
M  V30 1394 H 135.115 1.69307 -0.115362 0
M  V30 1395 H 133.887 3.91244 0.0663899 0
M  V30 1396 H 133.51 3.57154 1.74719 0
M  V30 1397 N 134.507 -0.190092 1.56449 0
M  V30 1398 C 135.47 -1.21925 1.9408 0
M  V30 1399 C 136.47 -1.38176 0.822431 0
M  V30 1400 O 137.66 -1.35903 1.08977 0
M  V30 1401 C 134.792 -2.58773 2.21922 0
M  V30 1402 H 135.985 -0.897464 2.86157 0
M  V30 1403 H 133.538 -0.43181 1.50217 0
M  V30 1404 H 134.273 -2.95998 1.32499 0
M  V30 1405 H 134.058 -2.48348 3.03424 0
M  V30 1406 H 135.548 -3.32978 2.52022 0
M  V30 1407 N 135.985 -1.50799 -0.457987 0
M  V30 1408 C 136.948 -1.7005 -1.53674 0
M  V30 1409 C 137.948 -0.570881 -1.50325 0
M  V30 1410 O 139.138 -0.838126 -1.52712 0
M  V30 1411 C 136.27 -1.73788 -2.93276 0
M  V30 1412 H 137.463 -2.66306 -1.37917 0
M  V30 1413 H 135.016 -1.40477 -0.685271 0
M  V30 1414 H 135.751 -0.792717 -3.14462 0
M  V30 1415 H 135.536 -2.55864 -2.97113 0
M  V30 1416 H 137.026 -1.90591 -3.71571 0
M  V30 1417 N 137.463 0.71206 -1.40597 0
M  V30 1418 C 138.373 1.8562 -1.43466 0
M  V30 1419 C 139.389 1.70902 -0.326902 0
M  V30 1420 O 140.565 1.93105 -0.572043 0
M  V30 1421 C 137.63 3.21451 -1.29884 0
M  V30 1422 C 136.691 3.48398 -2.50833 0
M  V30 1423 C 135.924 4.77749 -2.3789 0
M  V30 1424 O 136.147 5.53089 -1.39459 0
M  V30 1425 O 135.081 5.05111 -3.27333 0
M  V30 1426 H 138.907 1.86155 -2.39958 0
M  V30 1427 H 136.492 0.86295 -1.21957 0
M  V30 1428 H 138.374 4.02579 -1.24531 0
M  V30 1429 H 137.049 3.21636 -0.364997 0
M  V30 1430 H 135.956 2.67265 -2.61763 0
M  V30 1431 H 137.289 3.53014 -3.4299 0
M  V30 1432 N 138.941 1.26152 0.944643 0
M  V30 1433 C 140.166 1.14363 1.7302 0
M  V30 1434 C 140.591 -0.29772 1.85729 0
M  V30 1435 O 139.949 -1.2157 1.34501 0
M  V30 1436 C 139.997 1.81378 3.11664 0
M  V30 1437 O 139.101 1.10022 3.97453 0
M  V30 1438 H 138.442 0.398694 0.53098 0
M  V30 1439 H 140.972 1.66906 1.18337 0
M  V30 1440 H 140.982 1.88064 3.62072 0
M  V30 1441 H 139.657 2.86237 3.0173 0
M  V30 1442 H 138.234 1.11287 3.55907 0
M  V30 1443 N 140.419 -1.14872 1.07899 0
M  V30 1444 C 141.835 -1.37776 0.805606 0
M  V30 1445 C 142.035 -1.92743 -0.587555 0
M  V30 1446 O 141.091 -2.13678 -1.34528 0
M  V30 1447 C 142.404 -2.34361 1.88402 0
M  V30 1448 C 143.952 -2.48012 1.90942 0
M  V30 1449 C 144.427 -3.47893 2.97883 0
M  V30 1450 N 145.918 -3.55433 2.97021 0
M  V30 1451 C 146.653 -4.32553 3.76412 0
M  V30 1452 N 146.149 -5.12959 4.65666 0
M  V30 1453 N 147.942 -4.27697 3.64735 0
M  V30 1454 H 140.093 -0.775365 1.97742 0
M  V30 1455 H 142.356 -0.403521 0.857831 0
M  V30 1456 H 142.062 -2.01098 2.88535 0
M  V30 1457 H 141.936 -3.34206 1.74889 0
M  V30 1458 H 144.323 -2.8057 0.914579 0
M  V30 1459 H 144.404 -1.48147 2.08534 0
M  V30 1460 H 144.048 -3.16069 3.97571 0
M  V30 1461 H 143.978 -4.47527 2.77538 0
M  V30 1462 H 146.469 -2.98048 2.32326 0
M  V30 1463 H 146.782 -5.69065 5.22862 0
M  V30 1464 H 145.127 -5.12245 4.69712 0
M  V30 1465 H 148.318 -3.63949 2.94378 0
M  V30 1466 H 148.491 -4.8755 4.26848 0
M  V30 1467 N 141.898 -0.863906 -1.31812 0
M  V30 1468 C 143.314 -0.555004 -1.49639 0
M  V30 1469 C 143.514 0.912266 -1.79666 0
M  V30 1470 O 142.57 1.69479 -1.87171 0
M  V30 1471 C 143.883 -1.44998 -2.63431 0
M  V30 1472 C 145.431 -1.45138 -2.77316 0
M  V30 1473 C 145.906 -2.33179 -3.94197 0
M  V30 1474 N 147.397 -2.31025 -4.01474 0
M  V30 1475 C 148.132 -2.95871 -4.9117 0
M  V30 1476 N 147.628 -3.69863 -5.8581 0
M  V30 1477 N 149.421 -2.85211 -4.84367 0
M  V30 1478 H 141.572 -1.81339 -1.10589 0
M  V30 1479 H 143.835 -0.77505 -0.545895 0
M  V30 1480 H 143.541 -2.49377 -2.48 0
M  V30 1481 H 143.415 -1.14409 -3.59431 0
M  V30 1482 H 145.802 -0.415201 -2.92164 0
M  V30 1483 H 145.883 -1.79747 -1.82001 0
M  V30 1484 H 145.527 -3.3687 -3.80107 0
M  V30 1485 H 145.457 -1.95897 -4.88807 0
M  V30 1486 H 147.948 -1.77238 -3.33759 0
M  V30 1487 H 148.261 -4.16486 -6.50968 0
M  V30 1488 H 146.606 -3.73971 -5.85808 0
M  V30 1489 H 149.797 -2.26948 -4.09405 0
M  V30 1490 H 149.97 -3.36027 -5.54066 0
M  V30 1491 N 143.376 1.44774 -0.622745 0
M  V30 1492 C 144.625 2.01334 -0.121397 0
M  V30 1493 C 144.938 1.49505 1.26125 0
M  V30 1494 O 146.144 1.98139 1.85616 0
M  V30 1495 C 144.6 3.59516 -0.166298 0
M  V30 1496 C 144.208 4.20342 -1.54974 0
M  V30 1497 C 145.952 4.23582 0.279021 0
M  V30 1498 C 143.859 5.70721 -1.55021 0
M  V30 1499 H 142.789 0.752851 -0.0416172 0
M  V30 1500 H 145.44 1.66083 -0.780309 0
M  V30 1501 H 143.822 3.92027 0.559557 0
M  V30 1502 H 144.996 3.99381 -2.29851 0
M  V30 1503 H 143.311 3.68529 -1.93843 0
M  V30 1504 H 145.908 5.33868 0.298083 0
M  V30 1505 H 146.251 3.95327 1.30471 0
M  V30 1506 H 146.784 3.95843 -0.394063 0
M  V30 1507 H 143.523 6.03698 -2.55399 0
M  V30 1508 H 143.043 5.93829 -0.844245 0
M  V30 1509 H 144.722 6.34203 -1.28047 0
M  V30 1510 N 144.854 0.36279 1.53368 0
M  V30 1511 C 146.101 -0.227776 2.01215 0
M  V30 1512 C 146.429 -1.49003 1.25014 0
M  V30 1513 O 145.684 -1.92876 0.331236 0
M  V30 1514 C 145.983 -0.568417 3.52851 0
M  V30 1515 C 145.649 0.59918 4.46901 0
M  V30 1516 C 144.311 0.919559 4.72332 0
M  V30 1517 C 146.663 1.38156 5.02556 0
M  V30 1518 C 143.991 2.02434 5.5067 0
M  V30 1519 C 146.343 2.47674 5.821 0
M  V30 1520 C 145.007 2.8025 6.05819 0
M  V30 1521 H 144.277 -0.083349 0.736297 0
M  V30 1522 H 146.924 0.494677 1.85001 0
M  V30 1523 H 145.229 -1.37185 3.66998 0
M  V30 1524 H 146.926 -1.03756 3.87344 0
M  V30 1525 H 143.516 0.339437 4.27254 0
M  V30 1526 H 147.7 1.14729 4.82857 0
M  V30 1527 H 142.956 2.28075 5.67267 0
M  V30 1528 H 147.13 3.08716 6.24234 0
M  V30 1529 H 144.757 3.65979 6.66306 0
M  V30 1530 N 146.332 -1.57332 0.0918853 0
M  V30 1531 C 147.572 -1.96117 -0.575988 0
M  V30 1532 C 147.936 -0.972499 -1.65549 0
M  V30 1533 O 149.137 -1.24872 -2.38034 0
M  V30 1534 C 147.408 -3.39407 -1.11973 0
M  V30 1535 S 148.967 -4.00185 -1.79992 0
M  V30 1536 H 145.785 -0.685682 -0.188045 0
M  V30 1537 H 148.387 -1.94755 0.170525 0
M  V30 1538 H 147.091 -4.09131 -0.322504 0
M  V30 1539 H 146.622 -3.44358 -1.90214 0
M  V30 1540 H 148.637 -3.88728 -3.08391 0
M  V30 1541 N 147.81 0.181792 -1.56548 0
M  V30 1542 C 148.758 1.24461 -1.965 0
M  V30 1543 C 149.752 1.464 -0.852261 0
M  V30 1544 O 150.958 1.47103 -1.03733 0
M  V30 1545 H 147.333 0.418138 -0.625031 0
M  V30 1546 H 149.304 0.880714 -2.85107 0
M  V30 1547 C 148.053 2.57891 -2.33212 0
M  V30 1548 H 147.376 2.41829 -3.18369 0
M  V30 1549 H 148.816 3.3097 -2.65019 0
M  V30 1550 C 147.275 3.15871 -1.17163 0
M  V30 1551 O 147.805 3.9913 -0.453708 0
M  V30 1552 N 146.011 2.74808 -0.944936 0
M  V30 1553 H 145.558 2.07205 -1.53049 0
M  V30 1554 H 145.516 3.13939 -0.170286 0
M  V30 1555 N 149.288 1.51039 0.449983 0
M  V30 1556 C 150.534 1.63322 1.20223 0
M  V30 1557 C 150.867 0.34241 1.91158 0
M  V30 1558 O 150.142 -0.657344 1.83055 0
M  V30 1559 C 150.425 2.82801 2.22925 0
M  V30 1560 C 150.278 4.21823 1.56157 0
M  V30 1561 C 151.597 2.97807 3.24035 0
M  V30 1562 H 148.716 0.594407 0.435718 0
M  V30 1563 H 151.358 1.83489 0.493136 0
M  V30 1564 H 149.508 2.65738 2.834 0
M  V30 1565 H 151.18 4.50526 0.991162 0
M  V30 1566 H 149.423 4.25105 0.864172 0
M  V30 1567 H 150.094 5.01391 2.30891 0
M  V30 1568 H 152.57 3.13497 2.73603 0
M  V30 1569 H 151.446 3.82992 3.93202 0
M  V30 1570 H 151.707 2.09328 3.89402 0
M  V30 1571 N 150.766 -0.704594 1.40972 0
M  V30 1572 C 152.012 -1.46675 1.40051 0
M  V30 1573 C 152.345 -1.94199 0.00641102 0
M  V30 1574 O 151.62 -1.68916 -0.964235 0
M  V30 1575 C 151.903 -2.68505 2.39952 0
M  V30 1576 C 151.756 -2.26805 3.88432 0
M  V30 1577 C 153.075 -3.70686 2.37233 0
M  V30 1578 H 150.194 -0.532015 0.510028 0
M  V30 1579 H 152.836 -0.803255 1.72185 0
M  V30 1580 H 150.986 -3.25114 2.1268 0
M  V30 1581 H 152.658 -1.75592 4.26574 0
M  V30 1582 H 150.901 -1.58685 4.03734 0
M  V30 1583 H 151.572 -3.14181 4.53866 0
M  V30 1584 H 154.048 -3.23731 2.61415 0
M  V30 1585 H 152.924 -4.53553 3.09162 0
M  V30 1586 H 153.185 -4.19754 1.38777 0
M  V30 1587 N 152.244 -1.26651 -0.937939 0
M  V30 1588 C 153.521 -1.0313 -1.66204 0
M  V30 1589 C 153.901 0.437256 -2.06522 0
M  V30 1590 O 153.249 1.41831 -1.79154 0
M  V30 1591 C 153.459 -1.98314 -2.87181 0
M  V30 1592 C 154.807 -2.27107 -3.58758 0
M  V30 1593 O 155.831 -1.96205 -2.97291 0
M  V30 1594 O 154.69 -2.79736 -4.69479 0
M  V30 1595 H 151.784 -0.392384 -0.727986 0
M  V30 1596 H 154.33 -1.37874 -0.989382 0
M  V30 1597 H 153.102 -2.97399 -2.54302 0
M  V30 1598 H 152.725 -1.64068 -3.6217 0
M  V30 1599 N 153.722 1.14298 -1.08507 0
M  V30 1600 C 154.685 2.17607 -0.719711 0
M  V30 1601 C 155.685 1.58907 0.245997 0
M  V30 1602 O 156.875 1.74181 0.0254081 0
M  V30 1603 C 154.007 3.40842 -0.0627695 0
M  V30 1604 H 155.2 2.51443 -1.63452 0
M  V30 1605 H 152.753 1.28963 -0.88307 0
M  V30 1606 H 153.488 3.12587 0.863716 0
M  V30 1607 H 153.273 3.84713 -0.757504 0
M  V30 1608 H 154.763 4.17221 0.177786 0
M  V30 1609 N 155.201 0.870884 1.31352 0
M  V30 1610 C 156.612 0.534714 1.78879 0
M  V30 1611 C 156.963 -0.948423 1.71754 0
M  V30 1612 O 156.088 -1.74055 1.28584 0
M  V30 1613 C 156.683 0.963839 3.24801 0
M  V30 1614 C 155.242 0.679311 3.70219 0
M  V30 1615 C 154.389 1.15465 2.52117 0
M  V30 1616 H 157.34 1.05651 1.18421 0
M  V30 1617 H 157.361 0.286892 3.79417 0
M  V30 1618 H 156.873 2.04332 3.29955 0
M  V30 1619 H 154.974 -0.388769 3.70566 0
M  V30 1620 H 155.087 1.25698 4.62317 0
M  V30 1621 H 153.451 0.574383 2.48139 0
M  V30 1622 H 154.234 2.24157 2.60016 0
M  V30 1623 N 156.679 -1.44442 0.630414 0
M  V30 1624 C 157.626 -2.30678 -0.0749355 0
M  V30 1625 C 158.596 -1.4344 -0.837502 0
M  V30 1626 O 159.781 -1.72343 -0.818684 0
M  V30 1627 C 156.921 -3.28706 -1.05103 0
M  V30 1628 C 156.034 -4.31046 -0.286954 0
M  V30 1629 C 155.169 -5.16167 -1.2548 0
M  V30 1630 C 154.208 -6.10216 -0.479843 0
M  V30 1631 N 153.345 -6.88039 -1.39811 0
M  V30 1632 H 158.185 -2.90454 0.666386 0
M  V30 1633 H 155.722 -1.43107 0.340404 0
M  V30 1634 H 157.68 -3.84027 -1.63031 0
M  V30 1635 H 156.31 -2.70632 -1.75949 0
M  V30 1636 H 155.362 -3.78203 0.408243 0
M  V30 1637 H 156.674 -4.97794 0.316657 0
M  V30 1638 H 155.828 -5.76002 -1.90544 0
M  V30 1639 H 154.567 -4.49491 -1.89233 0
M  V30 1640 H 153.572 -5.49491 0.184295 0
M  V30 1641 H 154.797 -6.78928 0.152965 0
M  V30 1642 H 152.743 -6.24032 -2.02287 0
M  V30 1643 H 152.66 -7.51223 -0.848508 0
M  V30 1644 H 153.928 -7.52397 -2.03762 0
M  V30 1645 N 158.157 -0.370918 -1.53173 0
M  V30 1646 C 159.12 0.460778 -2.24521 0
M  V30 1647 C 160.12 1.00536 -1.25496 0
M  V30 1648 O 161.31 0.890266 -1.49733 0
M  V30 1649 C 158.442 1.64457 -2.98608 0
M  V30 1650 H 159.635 -0.163613 -2.99453 0
M  V30 1651 H 157.188 -0.122699 -1.55818 0
M  V30 1652 H 157.923 2.30691 -2.2793 0
M  V30 1653 H 157.708 1.26099 -3.7127 0
M  V30 1654 H 159.198 2.23384 -3.5283 0
M  V30 1655 N 159.635 1.57281 -0.100228 0
M  V30 1656 C 160.598 2.13158 0.842398 0
M  V30 1657 C 161.598 1.06202 1.20738 0
M  V30 1658 O 162.788 1.32066 1.13597 0
M  V30 1659 C 159.92 2.65639 2.13655 0
M  V30 1660 H 161.113 2.97766 0.357114 0
M  V30 1661 H 158.666 1.5559 0.148823 0
M  V30 1662 H 159.401 1.84566 2.66657 0
M  V30 1663 H 159.186 3.43844 1.88451 0
M  V30 1664 H 160.676 3.08846 2.81077 0
M  V30 1665 N 161.113 -0.173488 1.56642 0
M  V30 1666 C 162.338 -0.910149 1.86363 0
M  V30 1667 C 162.763 -1.75132 0.686318 0
M  V30 1668 O 162.121 -1.77595 -0.364643 0
M  V30 1669 C 162.169 -1.76447 3.14482 0
M  V30 1670 O 161.273 -2.86584 2.96553 0
M  V30 1671 H 160.614 -0.255086 0.613047 0
M  V30 1672 H 163.144 -0.172283 2.03873 0
M  V30 1673 H 163.154 -2.16483 3.45831 0
M  V30 1674 H 161.829 -1.14658 3.99783 0
M  V30 1675 H 160.406 -2.50146 2.76553 0
M  V30 1676 N 162.591 -1.51276 -0.441967 0
M  V30 1677 C 163.838 -1.63715 -1.19179 0
M  V30 1678 C 164.166 -0.351175 -1.91303 0
M  V30 1679 O 163.421 0.664524 -1.84072 0
M  V30 1680 C 163.72 -2.78746 -2.23686 0
M  V30 1681 C 163.386 -4.18189 -1.68607 0
M  V30 1682 C 162.048 -4.56125 -1.53308 0
M  V30 1683 C 164.4 -5.05222 -1.28062 0
M  V30 1684 C 161.728 -5.78804 -0.959317 0
M  V30 1685 C 164.08 -6.28476 -0.721162 0
M  V30 1686 C 162.744 -6.65188 -0.55504 0
M  V30 1687 H 162.014 -0.599076 -0.436106 0
M  V30 1688 H 164.661 -1.85296 -0.48351 0
M  V30 1689 H 162.966 -2.51369 -3.00535 0
M  V30 1690 H 164.663 -2.8557 -2.81515 0
M  V30 1691 H 161.253 -3.88277 -1.8149 0
M  V30 1692 H 165.437 -4.76524 -1.38704 0
M  V30 1693 H 160.693 -6.05899 -0.81833 0
M  V30 1694 H 164.867 -6.95259 -0.398458 0
M  V30 1695 H 162.494 -7.60123 -0.108311 0
M  V30 1696 N 164.069 0.697108 -1.41344 0
M  V30 1697 C 165.318 1.45279 -1.39918 0
M  V30 1698 C 165.631 1.95597 -0.0109624 0
M  V30 1699 O 166.837 2.71208 0.125919 0
M  V30 1700 C 165.293 2.62695 -2.46007 0
M  V30 1701 C 164.901 2.19169 -3.90729 0
M  V30 1702 C 166.645 3.40336 -2.53715 0
M  V30 1703 C 164.552 3.33535 -4.88373 0
M  V30 1704 H 163.482 0.545692 -0.520323 0
M  V30 1705 H 166.133 0.756929 -1.67161 0
M  V30 1706 H 164.515 3.34541 -2.11892 0
M  V30 1707 H 165.689 1.54623 -4.34083 0
M  V30 1708 H 164.004 1.54525 -3.86666 0
M  V30 1709 H 166.601 4.2547 -3.2385 0
M  V30 1710 H 166.944 3.85418 -1.5735 0
M  V30 1711 H 167.477 2.75546 -2.86913 0
M  V30 1712 H 164.216 2.93468 -5.86137 0
M  V30 1713 H 163.736 3.96936 -4.49668 0
M  V30 1714 H 165.415 3.99335 -5.09059 0
M  V30 1715 N 165.547 1.27147 0.931209 0
M  V30 1716 C 166.48 1.0389 2.0318 0
M  V30 1717 C 167.458 -0.0395716 1.62552 0
M  V30 1718 O 168.642 0.104867 1.88208 0
M  V30 1719 C 165.769 0.575227 3.3378 0
M  V30 1720 C 164.815 1.64774 3.93385 0
M  V30 1721 S 165.648 3.23933 4.26413 0
M  V30 1722 C 166.804 2.79358 5.60098 0
M  V30 1723 H 167.037 1.97075 2.22596 0
M  V30 1724 H 164.57 1.10938 1.07387 0
M  V30 1725 H 166.528 0.314385 4.09294 0
M  V30 1726 H 165.189 -0.336505 3.12292 0
M  V30 1727 H 164.382 1.27454 4.87618 0
M  V30 1728 H 163.984 1.86048 3.24441 0
M  V30 1729 H 166.276 2.24443 6.39243 0
M  V30 1730 H 167.219 3.72322 6.02314 0
M  V30 1731 H 167.627 2.1861 5.20452 0
M  V30 1732 N 167.025 -1.13721 1.09112 0
M  V30 1733 C 168.436 -1.6648 0.845068 0
M  V30 1734 C 168.787 -1.85911 -0.62701 0
M  V30 1735 O 167.912 -1.57556 -1.48341 0
M  V30 1736 C 168.507 -3.02413 1.52748 0
M  V30 1737 C 167.066 -3.52176 1.32849 0
M  V30 1738 C 166.213 -2.27492 1.58564 0
M  V30 1739 H 169.164 -0.976872 1.25072 0
M  V30 1740 H 169.185 -3.68223 0.958752 0
M  V30 1741 H 168.697 -2.88238 2.59885 0
M  V30 1742 H 166.798 -3.7156 0.278137 0
M  V30 1743 H 166.911 -4.32499 2.0611 0
M  V30 1744 H 165.275 -2.33923 1.00758 0
M  V30 1745 H 166.058 -2.15886 2.66924 0
M  V30 1746 N 168.503 -0.877838 -1.30888 0
M  V30 1747 C 169.728 -0.506629 -2.01117 0
M  V30 1748 C 170.153 0.895564 -1.65412 0
M  V30 1749 O 169.511 1.5923 -0.866922 0
M  V30 1750 C 169.559 -0.680223 -3.54126 0
M  V30 1751 O 168.663 0.277033 -4.11468 0
M  V30 1752 H 168.004 -0.200518 -0.633 0
M  V30 1753 H 170.534 -1.18342 -1.66902 0
M  V30 1754 H 170.544 -0.5765 -4.03907 0
M  V30 1755 H 169.219 -1.70261 -3.79452 0
M  V30 1756 H 167.796 0.127606 -3.72682 0
M  V30 1757 N 169.982 1.44106 -0.638065 0
M  V30 1758 C 171.231 2.01194 -0.142744 0
M  V30 1759 C 171.544 1.50835 1.24532 0
M  V30 1760 O 172.75 2.00096 1.83504 0
M  V30 1761 C 171.206 3.59319 -0.20442 0
M  V30 1762 C 170.814 4.18674 -1.59423 0
M  V30 1763 C 172.558 4.23854 0.234079 0
M  V30 1764 C 170.465 5.69045 -1.61065 0
M  V30 1765 H 169.395 0.752367 -0.0495998 0
M  V30 1766 H 172.046 1.65246 -0.797881 0
M  V30 1767 H 170.428 3.92598 0.517946 0
M  V30 1768 H 171.602 3.96921 -2.34074 0
M  V30 1769 H 169.917 3.66453 -1.97741 0
M  V30 1770 H 172.514 5.34155 0.241443 0
M  V30 1771 H 172.857 3.96688 1.2627 0
M  V30 1772 H 173.39 3.95403 -0.436025 0
M  V30 1773 H 170.129 6.00956 -2.61787 0
M  V30 1774 H 169.649 5.929 -0.90718 0
M  V30 1775 H 171.328 6.32809 -1.34766 0
M  V30 1776 N 171.46 0.379036 1.52974 0
M  V30 1777 C 172.709 -0.207612 2.00629 0
M  V30 1778 C 173.022 -1.48758 1.27006 0
M  V30 1779 O 174.228 -2.15365 1.65318 0
M  V30 1780 C 172.684 -0.42053 3.57435 0
M  V30 1781 C 172.292 0.845587 4.39948 0
M  V30 1782 C 174.036 -0.964102 4.13407 0
M  V30 1783 C 171.943 0.601513 5.88333 0
M  V30 1784 H 170.873 -0.0813591 0.749598 0
M  V30 1785 H 173.524 0.499853 1.76561 0
M  V30 1786 H 171.906 -1.18959 3.7771 0
M  V30 1787 H 173.08 1.61848 4.31442 0
M  V30 1788 H 171.395 1.31336 3.95145 0
M  V30 1789 H 173.992 -1.16225 5.21916 0
M  V30 1790 H 174.335 -1.93019 3.68849 0
M  V30 1791 H 174.868 -0.25487 3.96983 0
M  V30 1792 H 171.607 1.53831 6.37194 0
M  V30 1793 H 171.127 -0.132628 5.99653 0
M  V30 1794 H 172.806 0.232134 6.46583 0
M  V30 1795 N 172.938 -1.57226 0.108567 0
M  V30 1796 C 174.215 -1.86333 -0.594939 0
M  V30 1797 C 174.595 -1.00788 -1.85486 0
M  V30 1798 O 173.943 -0.0839293 -2.28346 0
M  V30 1799 C 174.153 -3.37265 -0.897405 0
M  V30 1800 C 175.501 -4.05629 -1.25501 0
M  V30 1801 O 176.525 -3.42224 -0.987998 0
M  V30 1802 O 175.384 -5.17531 -1.75567 0
M  V30 1803 H 172.478 -0.771018 -0.2991 0
M  V30 1804 H 175.024 -1.69102 0.142283 0
M  V30 1805 H 173.796 -3.913 -0.00413806 0
M  V30 1806 H 173.419 -3.59889 -1.69014 0
M  V30 1807 N 174.416 0.165178 -1.56732 0
M  V30 1808 C 175.832 0.517174 -1.50988 0
M  V30 1809 C 176.032 1.84331 -0.813894 0
M  V30 1810 O 175.088 2.49672 -0.37682 0
M  V30 1811 C 176.401 0.544261 -2.95733 0
M  V30 1812 C 177.949 0.631039 -3.06573 0
M  V30 1813 C 178.424 0.68896 -4.52788 0
M  V30 1814 N 179.915 0.751683 -4.5706 0
M  V30 1815 C 180.65 0.817177 -5.67547 0
M  V30 1816 N 180.146 0.843129 -6.8765 0
M  V30 1817 N 181.939 0.856668 -5.55534 0
M  V30 1818 H 174.09 -0.704318 -2.00382 0
M  V30 1819 H 176.353 -0.254687 -0.913148 0
M  V30 1820 H 176.059 -0.361607 -3.49836 0
M  V30 1821 H 175.933 1.3886 -3.5071 0
M  V30 1822 H 178.32 1.52733 -2.52501 0
M  V30 1823 H 178.401 -0.240095 -2.54671 0
M  V30 1824 H 178.045 -0.2031 -5.07494 0
M  V30 1825 H 177.975 1.57633 -5.02454 0
M  V30 1826 H 180.466 0.739661 -3.70591 0
M  V30 1827 H 180.779 0.894448 -7.67606 0
M  V30 1828 H 179.124 0.811304 -6.90248 0
M  V30 1829 H 182.315 0.833437 -4.60621 0
M  V30 1830 H 182.488 0.904247 -6.4166 0
M  V30 1831 N 175.894 1.51508 0.433938 0
M  V30 1832 C 177.119 1.68443 1.21003 0
M  V30 1833 C 177.544 0.382636 1.84167 0
M  V30 1834 O 176.902 -0.65755 1.68956 0
M  V30 1835 C 176.95 2.80405 2.26727 0
M  V30 1836 O 176.054 2.44245 3.32292 0
M  V30 1837 H 175.395 0.561536 0.354363 0
M  V30 1838 H 177.925 1.9809 0.512024 0
M  V30 1839 H 177.935 3.0459 2.71457 0
M  V30 1840 H 176.61 3.74867 1.80132 0
M  V30 1841 H 175.187 2.30644 2.93015 0
M  V30 1842 N 177.372 -0.689602 1.41712 0
M  V30 1843 C 178.783 -1.26973 1.36875 0
M  V30 1844 C 179.134 -1.96124 0.054748 0
M  V30 1845 O 178.259 -1.99141 -0.84687 0
M  V30 1846 C 178.854 -2.30912 2.47922 0
M  V30 1847 C 177.413 -2.84486 2.46464 0
M  V30 1848 C 176.56 -1.58603 2.27465 0
M  V30 1849 H 179.511 -0.48396 1.51141 0
M  V30 1850 H 179.532 -3.12331 2.17323 0
M  V30 1851 H 179.044 -1.80554 3.43543 0
M  V30 1852 H 177.145 -3.39005 1.54617 0
M  V30 1853 H 177.258 -3.34511 3.42986 0
M  V30 1854 H 175.622 -1.84632 1.75451 0
M  V30 1855 H 176.405 -1.10233 3.25121 0
M  V30 1856 N 178.85 -1.27639 -0.924453 0
M  V30 1857 C 179.78 -1.13166 -2.04244 0
M  V30 1858 C 180.761 -0.032256 -1.70069 0
M  V30 1859 O 181.946 -0.207328 -1.9309 0
M  V30 1860 C 179.076 -0.781496 -3.38393 0
M  V30 1861 C 178.03 -1.83449 -3.86692 0
M  V30 1862 C 177.356 -1.33822 -5.17683 0
M  V30 1863 C 178.656 -3.23917 -4.09726 0
M  V30 1864 H 180.35 -2.06689 -2.1661 0
M  V30 1865 H 177.896 -0.995136 -1.04082 0
M  V30 1866 H 179.849 -0.667057 -4.16087 0
M  V30 1867 H 178.573 0.189439 -3.2605 0
M  V30 1868 H 177.232 -1.93789 -3.11193 0
M  V30 1869 H 176.88 -0.35665 -5.01734 0
M  V30 1870 H 176.58 -2.04224 -5.50968 0
M  V30 1871 H 178.104 -1.23679 -5.97943 0
M  V30 1872 H 179.518 -3.16559 -4.77978 0
M  V30 1873 H 177.915 -3.92059 -4.54324 0
M  V30 1874 H 178.985 -3.68729 -3.14908 0
M  V30 1875 N 180.328 1.1314 -1.09713 0
M  V30 1876 C 181.261 2.17735 -0.683137 0
M  V30 1877 C 182.239 1.59582 0.311841 0
M  V30 1878 O 183.423 1.87298 0.212514 0
M  V30 1879 C 180.55 3.38699 -0.00684324 0
M  V30 1880 C 179.596 4.1546 -0.964102 0
M  V30 1881 S 180.429 4.74733 -2.47767 0
M  V30 1882 C 181.585 5.9904 -1.81387 0
M  V30 1883 H 181.818 2.52515 -1.56918 0
M  V30 1884 H 179.351 1.24484 -0.913404 0
M  V30 1885 H 181.309 4.08765 0.377044 0
M  V30 1886 H 179.97 3.02214 0.85589 0
M  V30 1887 H 179.163 5.02093 -0.43803 0
M  V30 1888 H 178.765 3.51066 -1.28953 0
M  V30 1889 H 181.057 6.67846 -1.13967 0
M  V30 1890 H 182 6.56261 -2.65947 0
M  V30 1891 H 182.408 5.4976 -1.28155 0
M  V30 1892 N 181.806 0.884767 1.30421 0
M  V30 1893 C 183.052 0.503851 1.96441 0
M  V30 1894 C 183.385 -0.944518 1.69684 0
M  V30 1895 O 182.66 -1.66737 1.00145 0
M  V30 1896 C 182.943 0.779085 3.51571 0
M  V30 1897 C 182.796 2.27807 3.87846 0
M  V30 1898 C 184.115 0.255452 4.39358 0
M  V30 1899 H 181.234 0.184533 0.713524 0
M  V30 1900 H 183.876 1.10872 1.54297 0
M  V30 1901 H 182.026 0.264274 3.876 0
M  V30 1902 H 183.698 2.86127 3.61841 0
M  V30 1903 H 181.941 2.74479 3.35922 0
M  V30 1904 H 182.612 2.42125 4.96064 0
M  V30 1905 H 185.088 0.696079 4.10236 0
M  V30 1906 H 183.964 0.477361 5.4682 0
M  V30 1907 H 184.225 -0.843293 4.33983 0
M  V30 1908 N 183.284 -1.43765 0.645699 0
M  V30 1909 C 184.247 -2.29163 -0.0409488 0
M  V30 1910 C 185.247 -1.41813 -0.757996 0
M  V30 1911 O 186.437 -1.63527 -0.600382 0
M  V30 1912 C 183.569 -3.23716 -1.06869 0
M  V30 1913 H 184.762 -2.91366 0.710345 0
M  V30 1914 H 182.315 -1.5092 0.406547 0
M  V30 1915 H 183.05 -2.66393 -1.84947 0
M  V30 1916 H 182.835 -3.88105 -0.558277 0
M  V30 1917 H 184.325 -3.87831 -1.54845 0
M  V30 1918 N 184.763 -0.387143 -1.52771 0
M  V30 1919 C 186.009 0.196025 -2.0185 0
M  V30 1920 C 186.342 1.46641 -1.27319 0
M  V30 1921 O 185.617 1.90889 -0.373032 0
M  V30 1922 C 185.9 0.466136 -3.5707 0
M  V30 1923 C 185.753 -0.819385 -4.42274 0
M  V30 1924 C 187.072 1.25768 -4.21747 0
M  V30 1925 H 184.191 0.0697708 -0.73369 0
M  V30 1926 H 186.833 -0.516286 -1.82851 0
M  V30 1927 H 184.983 1.07293 -3.7339 0
M  V30 1928 H 186.655 -1.4563 -4.37709 0
M  V30 1929 H 184.898 -1.43517 -4.09372 0
M  V30 1930 H 185.569 -0.585065 -5.48891 0
M  V30 1931 H 188.045 0.744167 -4.09391 0
M  V30 1932 H 186.921 1.41541 -5.30337 0
M  V30 1933 H 187.182 2.27228 -3.79236 0
M  V30 1934 N 186.241 1.57166 -0.116904 0
M  V30 1935 C 187.466 1.999 0.55271 0
M  V30 1936 C 187.891 0.996039 1.59564 0
M  V30 1937 O 187.249 -0.032556 1.81271 0
M  V30 1938 C 187.297 3.4152 1.15742 0
M  V30 1939 O 186.401 3.44106 2.27299 0
M  V30 1940 H 185.742 0.649447 0.138258 0
M  V30 1941 H 188.272 2.03573 -0.204759 0
M  V30 1942 H 188.282 3.79684 1.49346 0
M  V30 1943 H 186.957 4.14034 0.393493 0
M  V30 1944 H 185.534 3.17759 1.9515 0
M  V30 1945 N 187.719 -0.156864 1.56817 0
M  V30 1946 C 188.944 -0.890331 1.87318 0
M  V30 1947 C 189.369 -1.74394 0.704855 0
M  V30 1948 O 188.727 -1.77972 -0.345786 0
M  V30 1949 C 188.775 -1.73102 3.16336 0
M  V30 1950 O 187.879 -2.83422 2.99576 0
M  V30 1951 H 187.22 -0.24857 0.615718 0
M  V30 1952 H 189.75 -0.150649 2.04045 0
M  V30 1953 H 189.76 -2.12803 3.48107 0
M  V30 1954 H 188.435 -1.10412 4.00976 0
M  V30 1955 H 187.012 -2.47199 2.7919 0
M  V30 1956 N 189.197 -1.51736 -0.425897 0
M  V30 1957 C 190.445 -1.64644 -1.17204 0
M  V30 1958 C 190.766 -0.370486 -1.91448 0
M  V30 1959 O 190.036 0.614088 -1.86026 0
M  V30 1960 H 188.616 -0.606819 -0.435638 0
M  V30 1961 H 191.278 -1.88713 -0.487177 0
M  V30 1962 H 190.374 -2.47958 -1.89534 0
M  V30 1963 N 190.675 0.682077 -1.42076 0
M  V30 1964 C 191.923 1.4393 -1.41876 0
M  V30 1965 C 192.244 1.94971 -0.0335599 0
M  V30 1966 O 191.514 1.72591 0.926773 0
M  V30 1967 H 190.094 0.534085 -0.522267 0
M  V30 1968 H 192.756 0.806427 -1.77434 0
M  V30 1969 H 191.852 2.29588 -2.11414 0
M  V30 1970 N 192.153 1.28127 0.917671 0
M  V30 1971 C 193.381 1.17892 1.70026 0
M  V30 1972 C 193.796 -0.262958 1.8696 0
M  V30 1973 O 193.153 -1.17811 1.3938 0
M  V30 1974 C 193.204 1.86872 3.09453 0
M  V30 1975 O 192.925 3.25428 2.93306 0
M  V30 1976 C 194.426 1.8289 4.03815 0
M  V30 1977 H 191.646 0.40942 0.531617 0
M  V30 1978 H 194.19 1.69181 1.14883 0
M  V30 1979 H 192.345 1.39464 3.61426 0
M  V30 1980 H 192.759 3.59918 3.81523 0
M  V30 1981 H 194.233 2.35751 4.99125 0
M  V30 1982 H 194.71 0.800412 4.31845 0
M  V30 1983 H 195.316 2.29959 3.57769 0
M  V30 1984 N 193.631 -1.12557 1.10312 0
M  V30 1985 C 194.856 -1.88405 0.867085 0
M  V30 1986 C 195.281 -1.79038 -0.576817 0
M  V30 1987 O 194.639 -1.14439 -1.40618 0
M  V30 1988 C 194.687 -3.3563 1.31851 0
M  V30 1989 O 193.791 -4.09565 0.482734 0
M  V30 1990 H 193.132 -0.585455 0.313271 0
M  V30 1991 H 195.662 -1.42352 1.4696 0
M  V30 1992 H 195.672 -3.86469 1.3079 0
M  V30 1993 H 194.347 -3.41765 2.37001 0
M  V30 1994 H 192.924 -3.68695 0.558448 0
M  V30 1995 N 195.109 -0.891671 -1.2995 0
M  V30 1996 C 196.52 -0.563104 -1.78006 0
M  V30 1997 C 196.871 0.920978 -1.73241 0
M  V30 1998 O 195.996 1.71987 -1.31337 0
M  V30 1999 C 196.591 -1.01539 -3.23226 0
M  V30 2000 C 195.15 -0.738124 -3.69092 0
M  V30 2001 C 194.297 -1.19461 -2.50249 0
M  V30 2002 H 197.248 -1.07522 -1.16725 0
M  V30 2003 H 197.269 -0.347217 -3.78912 0
M  V30 2004 H 196.781 -2.09555 -3.26662 0
M  V30 2005 H 194.882 0.329766 -3.71138 0
M  V30 2006 H 194.995 -1.33037 -4.60259 0
M  V30 2007 H 193.359 -0.613787 -2.47194 0
M  V30 2008 H 194.142 -2.28265 -2.56417 0
M  V30 2009 N 196.587 1.43421 -0.653314 0
M  V30 2010 C 197.833 2.02111 -0.166992 0
M  V30 2011 C 198.166 1.51423 1.21592 0
M  V30 2012 O 197.441 0.707389 1.8118 0
M  V30 2013 C 197.724 3.5966 -0.177948 0
M  V30 2014 C 197.577 4.20579 -1.59478 0
M  V30 2015 C 198.896 4.37413 0.4856 0
M  V30 2016 H 196.015 0.734374 -0.0621557 0
M  V30 2017 H 198.657 1.70717 -0.834016 0
M  V30 2018 H 196.807 3.86537 0.390032 0
M  V30 2019 H 198.479 4.04732 -2.21336 0
M  V30 2020 H 196.722 3.77226 -2.14204 0
M  V30 2021 H 197.393 5.29665 -1.5543 0
M  V30 2022 H 199.869 4.161 0.00234528 0
M  V30 2023 H 198.745 5.47075 0.447207 0
M  V30 2024 H 199.006 4.13672 1.55974 0
M  V30 2025 N 198.065 0.39524 1.52563 0
M  V30 2026 C 198.995 -0.428384 2.29537 0
M  V30 2027 C 199.976 -1.05831 1.33169 0
M  V30 2028 O 201.161 -1.06995 1.62067 0
M  V30 2029 C 198.291 -1.55274 3.10656 0
M  V30 2030 C 197.245 -1.04855 4.14957 0
M  V30 2031 C 196.571 -2.26543 4.84337 0
M  V30 2032 C 197.871 -0.112324 5.22179 0
M  V30 2033 H 199.565 0.213867 2.98635 0
M  V30 2034 H 197.111 0.104298 1.43622 0
M  V30 2035 H 199.064 -2.1358 3.63265 0
M  V30 2036 H 197.788 -2.22266 2.39302 0
M  V30 2037 H 196.447 -0.487985 3.63338 0
M  V30 2038 H 196.095 -2.92059 4.09525 0
M  V30 2039 H 195.795 -1.93466 5.54837 0
M  V30 2040 H 197.319 -2.85481 5.39753 0
M  V30 2041 H 198.733 -0.603752 5.70112 0
M  V30 2042 H 197.13 0.128968 5.99961 0
M  V30 2043 H 198.2 0.837052 4.77621 0
M  V30 2044 N 199.544 -1.57102 0.125237 0
M  V30 2045 C 200.507 -2.14471 -0.80838 0
M  V30 2046 C 201.507 -1.0811 -1.19033 0
M  V30 2047 O 202.697 -1.33856 -1.11482 0
M  V30 2048 C 199.829 -2.69005 -2.09402 0
M  V30 2049 H 201.022 -2.98297 -0.309696 0
M  V30 2050 H 198.575 -1.55807 -0.124051 0
M  V30 2051 H 199.31 -1.88785 -2.63687 0
M  V30 2052 H 199.095 -3.46799 -1.82957 0
M  V30 2053 H 200.585 -3.13278 -2.76128 0
M  V30 2054 N 201.022 0.148545 -1.56898 0
M  V30 2055 C 202.438 0.501131 -1.51528 0
M  V30 2056 C 202.638 1.83458 -0.833399 0
M  V30 2057 O 201.694 2.49259 -0.40328 0
M  V30 2058 C 203.007 0.512864 -2.96294 0
M  V30 2059 C 204.555 0.598487 -3.07225 0
M  V30 2060 C 205.03 0.640897 -4.53494 0
M  V30 2061 N 206.521 0.703163 -4.57832 0
M  V30 2062 C 207.256 0.756935 -5.68382 0
M  V30 2063 N 206.752 0.770147 -6.88506 0
M  V30 2064 N 208.545 0.797698 -5.56411 0
M  V30 2065 H 200.696 -0.725532 -1.99624 0
M  V30 2066 H 202.959 -0.264358 -0.910395 0
M  V30 2067 H 202.665 -0.398691 -3.49433 0
M  V30 2068 H 202.539 1.35133 -3.52163 0
M  V30 2069 H 204.926 1.50046 -2.54106 0
M  V30 2070 H 205.007 -0.267093 -2.54402 0
M  V30 2071 H 204.651 -0.256915 -5.0725 0
M  V30 2072 H 204.581 1.52295 -5.04097 0
M  V30 2073 H 207.072 0.700314 -3.71354 0
M  V30 2074 H 207.385 0.812983 -7.68512 0
M  V30 2075 H 205.73 0.738049 -6.9107 0
M  V30 2076 H 208.921 0.784535 -4.61479 0
M  V30 2077 H 209.094 0.83614 -6.42583 0
M  V30 2078 N 202.5 1.5196 0.417844 0
M  V30 2079 C 203.43 1.77634 1.51554 0
M  V30 2080 C 204.411 0.626918 1.58126 0
M  V30 2081 O 205.596 0.871632 1.7354 0
M  V30 2082 C 202.726 1.91911 2.8946 0
M  V30 2083 C 201.68 3.07463 2.97743 0
M  V30 2084 C 201.006 3.06951 4.37819 0
M  V30 2085 C 202.306 4.47082 2.70027 0
M  V30 2086 H 204 2.6955 1.3032 0
M  V30 2087 H 201.546 1.29706 0.625492 0
M  V30 2088 H 203.499 2.08455 3.6623 0
M  V30 2089 H 202.223 0.966598 3.11969 0
M  V30 2090 H 200.882 2.90656 2.23416 0
M  V30 2091 H 200.53 2.09438 4.57323 0
M  V30 2092 H 200.23 3.84556 4.44286 0
M  V30 2093 H 201.754 3.25613 5.16535 0
M  V30 2094 H 203.168 4.6414 3.36522 0
M  V30 2095 H 201.565 5.2654 2.87881 0
M  V30 2096 H 202.635 4.55777 1.65514 0
M  V30 2097 N 203.978 -0.674533 1.42435 0
M  V30 2098 C 204.908 -1.80009 1.48724 0
M  V30 2099 C 205.889 -1.6659 0.343793 0
M  V30 2100 O 207.074 -1.86007 0.558137 0
M  V30 2101 C 204.204 -3.18306 1.38919 0
M  V30 2102 C 203.158 -3.46461 2.51294 0
M  V30 2103 C 202.484 -4.84335 2.26547 0
M  V30 2104 C 203.784 -3.43328 3.93603 0
M  V30 2105 H 205.478 -1.75004 2.42928 0
M  V30 2106 H 203.024 -0.840533 1.16923 0
M  V30 2107 H 204.977 -3.9678 1.41927 0
M  V30 2108 H 203.701 -3.2399 0.412094 0
M  V30 2109 H 202.36 -2.70348 2.47604 0
M  V30 2110 H 202.008 -4.86669 1.2713 0
M  V30 2111 H 201.708 -5.04136 3.01861 0
M  V30 2112 H 203.232 -5.65094 2.31304 0
M  V30 2113 H 204.646 -4.11772 3.98894 0
M  V30 2114 H 203.043 -3.74664 4.68771 0
M  V30 2115 H 204.113 -2.41897 4.20255 0
M  V30 2116 N 205.456 -1.28612 -0.910864 0
M  V30 2117 C 206.872 -1.06381 -1.18976 0
M  V30 2118 C 207.072 0.191998 -2.00583 0
M  V30 2119 O 206.128 0.892869 -2.36187 0
M  V30 2120 C 207.441 -2.31295 -1.92154 0
M  V30 2121 C 208.989 -2.36503 -2.05025 0
M  V30 2122 C 209.464 -3.61191 -2.81612 0
M  V30 2123 N 210.955 -3.61847 -2.89172 0
M  V30 2124 C 211.69 -4.55004 -3.4894 0
M  V30 2125 N 211.186 -5.58482 -4.09963 0
M  V30 2126 N 212.979 -4.42594 -3.46506 0
M  V30 2127 H 205.13 -2.09221 -0.366094 0
M  V30 2128 H 207.393 -0.921003 -0.224629 0
M  V30 2129 H 207.099 -3.228 -1.39618 0
M  V30 2130 H 206.973 -2.37934 -2.9269 0
M  V30 2131 H 209.36 -1.45494 -2.5674 0
M  V30 2132 H 209.441 -2.33857 -1.03657 0
M  V30 2133 H 209.085 -4.52545 -2.30576 0
M  V30 2134 H 209.015 -3.61092 -3.83302 0
M  V30 2135 H 211.506 -2.87022 -2.45819 0
M  V30 2136 H 211.819 -6.25704 -4.53557 0
M  V30 2137 H 210.164 -5.62305 -4.08459 0
M  V30 2138 H 213.355 -3.60953 -2.98045 0
M  V30 2139 H 213.528 -5.15381 -3.92793 0
M  V30 2140 N 206.934 1.1197 -1.10907 0
M  V30 2141 C 207.844 2.21433 -0.774896 0
M  V30 2142 C 208.86 1.72478 0.229657 0
M  V30 2143 O 210.036 2.01288 0.0672008 0
M  V30 2144 C 207.101 3.4602 -0.216986 0
M  V30 2145 C 206.162 4.09791 -1.27944 0
M  V30 2146 C 205.395 5.28431 -0.748055 0
M  V30 2147 O 205.618 5.68823 0.423833 0
M  V30 2148 O 204.552 5.82644 -1.51027 0
M  V30 2149 H 208.378 2.5242 -1.68873 0
M  V30 2150 H 205.963 1.20399 -0.884555 0
M  V30 2151 H 207.845 4.21304 0.090059 0
M  V30 2152 H 206.52 3.16698 0.669633 0
M  V30 2153 H 205.427 3.36265 -1.63941 0
M  V30 2154 H 206.76 4.4328 -2.13925 0
M  V30 2155 N 208.412 0.89855 1.29475 0
M  V30 2156 C 209.359 0.373819 2.27753 0
M  V30 2157 C 210.329 -0.543444 1.56958 0
M  V30 2158 O 211.514 -0.468934 1.84948 0
M  V30 2159 C 208.654 -0.393648 3.42848 0
M  V30 2160 C 207.767 0.554379 4.28428 0
M  V30 2161 C 206.902 -0.230026 5.30702 0
M  V30 2162 C 205.941 0.712599 6.07938 0
M  V30 2163 N 205.078 -0.0373283 7.0209 0
M  V30 2164 H 209.918 1.21699 2.72017 0
M  V30 2165 H 207.455 0.611456 1.33789 0
M  V30 2166 H 209.413 -0.85466 4.08352 0
M  V30 2167 H 208.043 -1.20128 2.99615 0
M  V30 2168 H 207.095 1.13391 3.63107 0
M  V30 2169 H 208.407 1.27597 4.82204 0
M  V30 2170 H 207.561 -0.752288 6.02018 0
M  V30 2171 H 206.3 -0.984758 4.77654 0
M  V30 2172 H 205.305 1.24637 5.35486 0
M  V30 2173 H 206.53 1.46664 6.63074 0
M  V30 2174 H 204.476 -0.774348 6.51414 0
M  V30 2175 H 204.393 0.624374 7.53417 0
M  V30 2176 H 205.661 -0.539891 7.77628 0
M  V30 2177 N 209.89 -1.43072 0.660911 0
M  V30 2178 C 210.82 -2.33497 -0.0122829 0
M  V30 2179 C 211.801 -1.49903 -0.803925 0
M  V30 2180 O 212.986 -1.78546 -0.763864 0
M  V30 2181 C 210.116 -3.33363 -0.973994 0
M  V30 2182 C 209.07 -4.27003 -0.291928 0
M  V30 2183 C 208.396 -5.16967 -1.36562 0
M  V30 2184 C 209.696 -5.15816 0.820462 0
M  V30 2185 H 211.39 -2.90038 0.742873 0
M  V30 2186 H 208.936 -1.39461 0.358688 0
M  V30 2187 H 210.889 -3.95524 -1.45392 0
M  V30 2188 H 209.613 -2.75095 -1.7604 0
M  V30 2189 H 208.272 -3.66217 0.167623 0
M  V30 2190 H 207.92 -4.55034 -2.14366 0
M  V30 2191 H 207.62 -5.80441 -0.914454 0
M  V30 2192 H 209.144 -5.82003 -1.84675 0
M  V30 2193 H 210.558 -5.71742 0.422366 0
M  V30 2194 H 208.955 -5.8805 1.19656 0
M  V30 2195 H 210.025 -4.55045 1.67518 0
M  V30 2196 N 211.368 -0.403325 -1.52352 0
M  V30 2197 C 212.278 0.432009 -2.30588 0
M  V30 2198 C 213.294 1.05884 -1.38075 0
M  V30 2199 O 214.47 1.06161 -1.71148 0
M  V30 2200 C 211.535 1.53669 -3.10784 0
M  V30 2201 C 210.596 0.933525 -4.19027 0
M  V30 2202 C 209.829 1.98557 -4.9539 0
M  V30 2203 O 210.052 3.20283 -4.71991 0
M  V30 2204 O 208.986 1.59504 -5.80381 0
M  V30 2205 H 212.812 -0.205739 -3.03002 0
M  V30 2206 H 210.397 -0.166675 -1.48467 0
M  V30 2207 H 212.279 2.17814 -3.60742 0
M  V30 2208 H 210.954 2.15915 -2.41169 0
M  V30 2209 H 209.861 0.254954 -3.7323 0
M  V30 2210 H 211.194 0.35508 -4.90918 0
M  V30 2211 N 212.846 1.57033 -0.133567 0
M  V30 2212 C 214.071 2.00475 0.531477 0
M  V30 2213 C 214.496 1.01291 1.58499 0
M  V30 2214 O 213.854 -0.0133279 1.81295 0
M  V30 2215 C 213.902 3.42729 1.12113 0
M  V30 2216 O 213.006 3.46498 2.23636 0
M  V30 2217 H 212.347 0.650876 0.131362 0
M  V30 2218 H 214.877 2.03344 -0.22634 0
M  V30 2219 H 214.887 3.81246 1.4531 0
M  V30 2220 H 213.562 4.14428 0.349557 0
M  V30 2221 H 212.139 3.19811 1.91769 0
M  V30 2222 N 214.325 -0.140222 1.56975 0
M  V30 2223 C 215.255 -1.17456 2.01808 0
M  V30 2224 C 216.236 -1.44415 0.898794 0
M  V30 2225 O 217.421 -1.5522 1.16707 0
M  V30 2226 C 214.551 -2.50607 2.40444 0
M  V30 2227 C 213.505 -2.38155 3.55621 0
M  V30 2228 C 212.831 -3.76078 3.80091 0
M  V30 2229 C 214.131 -1.85991 4.88062 0
M  V30 2230 H 215.825 -0.801743 2.88466 0
M  V30 2231 H 213.371 -0.38422 1.38779 0
M  V30 2232 H 215.324 -3.23197 2.7041 0
M  V30 2233 H 214.048 -2.89737 1.50732 0
M  V30 2234 H 212.707 -1.68016 3.25832 0
M  V30 2235 H 212.355 -4.12656 2.87618 0
M  V30 2236 H 212.055 -3.68606 4.57606 0
M  V30 2237 H 213.579 -4.50206 4.12488 0
M  V30 2238 H 214.993 -2.4838 5.16701 0
M  V30 2239 H 213.39 -1.89393 5.6943 0
M  V30 2240 H 214.46 -0.816023 4.77984 0
M  V30 2241 N 215.803 -1.52179 -0.40978 0
M  V30 2242 C 216.733 -1.78435 -1.5061 0
M  V30 2243 C 217.714 -0.635295 -1.57791 0
M  V30 2244 O 218.899 -0.880823 -1.73076 0
M  V30 2245 C 216.029 -1.93444 -2.88439 0
M  V30 2246 C 214.983 -3.09038 -2.96108 0
M  V30 2247 C 214.309 -3.09268 -4.36185 0
M  V30 2248 C 215.609 -4.48508 -2.67652 0
M  V30 2249 H 217.303 -2.70237 -1.28889 0
M  V30 2250 H 214.849 -1.30036 -0.618605 0
M  V30 2251 H 216.802 -2.10394 -3.65119 0
M  V30 2252 H 215.526 -0.983129 -3.11452 0
M  V30 2253 H 214.185 -2.91837 -2.21872 0
M  V30 2254 H 213.833 -2.11861 -4.56206 0
M  V30 2255 H 213.533 -3.86907 -4.42241 0
M  V30 2256 H 215.057 -3.28348 -5.14801 0
M  V30 2257 H 216.471 -4.65918 -3.34056 0
M  V30 2258 H 214.868 -5.28059 -2.85085 0
M  V30 2259 H 215.938 -4.56649 -1.63095 0
M  V30 2260 N 217.281 0.66697 -1.42791 0
M  V30 2261 C 218.692 1.2478 -1.38877 0
M  V30 2262 C 219.043 1.96012 -0.0859426 0
M  V30 2263 O 218.168 2.00463 0.815081 0
M  V30 2264 C 218.763 2.26938 -2.51564 0
M  V30 2265 C 217.322 2.80529 -2.50959 0
M  V30 2266 C 216.469 1.54965 -2.29959 0
M  V30 2267 H 219.42 0.459853 -1.51892 0
M  V30 2268 H 219.441 3.08834 -2.22265 0
M  V30 2269 H 218.953 1.75065 -3.46372 0
M  V30 2270 H 217.054 3.36502 -1.59991 0
M  V30 2271 H 217.167 3.29012 -3.48265 0
M  V30 2272 H 215.531 1.81817 -1.78366 0
M  V30 2273 H 216.314 1.05047 -3.26833 0
M  V30 2274 N 218.759 1.29093 0.90403 0
M  V30 2275 C 219.691 1.09658 2.01266 0
M  V30 2276 C 220.704 0.0453729 1.62737 0
M  V30 2277 O 221.893 0.289446 1.76138 0
M  V30 2278 C 218.993 0.646278 3.32681 0
M  V30 2279 C 218.166 1.77505 3.99763 0
M  V30 2280 C 217.225 1.31649 5.09465 0
M  V30 2281 O 216.251 2.02045 5.32134 0
M  V30 2282 N 217.453 0.184997 5.80205 0
M  V30 2283 H 220.218 2.05135 2.18494 0
M  V30 2284 H 217.779 1.20975 1.07594 0
M  V30 2285 H 219.771 0.322906 4.0341 0
M  V30 2286 H 218.341 -0.215916 3.11853 0
M  V30 2287 H 217.561 2.26752 3.22455 0
M  V30 2288 H 218.849 2.53198 4.41325 0
M  V30 2289 H 218.247 -0.402021 5.6427 0
M  V30 2290 H 216.804 -0.0790358 6.51752 0
M  V30 2291 N 220.237 -1.11381 1.11499 0
M  V30 2292 C 221.187 -2.15555 0.74298 0
M  V30 2293 C 222.171 -1.58894 -0.253276 0
M  V30 2294 O 223.363 -1.76897 -0.0602918 0
M  V30 2295 C 220.492 -3.42782 0.188481 0
M  V30 2296 C 219.578 -4.064 1.21244 0
M  V30 2297 N 219.969 -4.44864 2.40685 0
M  V30 2298 C 218.267 -4.3333 1.05552 0
M  V30 2299 C 218.968 -4.94715 3.05994 0
M  V30 2300 N 217.944 -4.90909 2.33472 0
M  V30 2301 H 221.746 -2.43074 1.65203 0
M  V30 2302 H 219.26 -1.28401 0.994329 0
M  V30 2303 H 221.257 -4.16789 -0.0961693 0
M  V30 2304 H 219.917 -3.16727 -0.715149 0
M  V30 2305 H 220.928 -4.36876 2.78136 0
M  V30 2306 H 217.605 -4.1698 0.208372 0
M  V30 2307 H 218.995 -5.34103 4.07656 0
M  V30 2308 N 221.715 -0.905404 -1.28997 0
M  V30 2309 C 222.645 -0.404212 -2.29975 0
M  V30 2310 C 223.626 0.523784 -1.61835 0
M  V30 2311 O 224.811 0.433298 -1.89304 0
M  V30 2312 C 221.941 0.364042 -3.45387 0
M  V30 2313 C 220.895 -0.474048 -4.25367 0
M  V30 2314 C 220.221 0.422045 -5.33032 0
M  V30 2315 C 221.521 -1.72696 -4.92923 0
M  V30 2316 H 223.215 -1.24807 -2.72146 0
M  V30 2317 H 220.761 -0.601585 -1.30832 0
M  V30 2318 H 222.714 0.725447 -4.15109 0
M  V30 2319 H 221.438 1.24174 -3.02074 0
M  V30 2320 H 220.097 -0.81786 -3.57361 0
M  V30 2321 H 219.745 1.29804 -4.85963 0
M  V30 2322 H 219.445 -0.135057 -5.87445 0
M  V30 2323 H 220.969 0.779517 -6.05604 0
M  V30 2324 H 222.383 -1.43495 -5.55051 0
M  V30 2325 H 220.78 -2.22582 -5.57295 0
M  V30 2326 H 221.85 -2.45964 -4.17887 0
M  V30 2327 N 223.193 1.4272 -0.668489 0
M  V30 2328 C 224.441 2.01226 -0.187769 0
M  V30 2329 C 224.762 1.53092 1.2078 0
M  V30 2330 O 224.032 0.74993 1.80977 0
M  V30 2331 H 222.612 0.744041 -0.0664272 0
M  V30 2332 H 225.274 1.74723 -0.863583 0
M  V30 2333 H 224.37 3.11556 -0.184166 0
M  V30 2334 N 224.671 0.411399 1.52136 0
M  V30 2335 C 225.603 -0.448386 2.24771 0
M  V30 2336 C 226.616 -1.00828 1.27818 0
M  V30 2337 O 227.805 -0.906841 1.53749 0
M  V30 2338 C 224.905 -1.63636 2.96777 0
M  V30 2339 C 224.078 -1.19995 4.20618 0
M  V30 2340 C 223.137 -2.25509 4.75428 0
M  V30 2341 O 222.163 -1.86007 5.3795 0
M  V30 2342 N 223.365 -3.577 4.57199 0
M  V30 2343 H 226.13 0.174025 2.99194 0
M  V30 2344 H 223.691 0.238897 1.60128 0
M  V30 2345 H 225.683 -2.33793 3.30338 0
M  V30 2346 H 224.253 -2.16465 2.25526 0
M  V30 2347 H 223.473 -0.326421 3.92846 0
M  V30 2348 H 224.761 -0.885365 5.01038 0
M  V30 2349 H 224.159 -3.92543 4.07341 0
M  V30 2350 H 222.716 -4.23827 4.95191 0
M  V30 2351 N 226.149 -1.5696 0.141893 0
M  V30 2352 C 227.395 -1.9625 -0.511248 0
M  V30 2353 C 227.728 -1.02654 -1.64851 0
M  V30 2354 O 227.003 -0.0679676 -1.94381 0
M  V30 2355 C 227.286 -3.45285 -1.02227 0
M  V30 2356 C 227.139 -4.49658 0.113138 0
M  V30 2357 C 228.458 -3.96698 -1.90574 0
M  V30 2358 H 225.577 -0.713567 -0.184367 0
M  V30 2359 H 228.219 -1.88698 0.222087 0
M  V30 2360 H 226.369 -3.51852 -1.64719 0
M  V30 2361 H 228.041 -4.55174 0.749302 0
M  V30 2362 H 226.284 -4.26857 0.773026 0
M  V30 2363 H 226.955 -5.51258 -0.286053 0
M  V30 2364 H 229.431 -3.92578 -1.37918 0
M  V30 2365 H 228.307 -5.01453 -2.2324 0
M  V30 2366 H 228.568 -3.3875 -2.84079 0
M  V30 2367 N 227.627 0.131896 -1.57047 0
M  V30 2368 C 228.59 1.14638 -1.98471 0
M  V30 2369 C 229.59 1.35029 -0.873148 0
M  V30 2370 O 230.78 1.31764 -1.13946 0
M  V30 2371 C 227.912 2.50358 -2.31373 0
M  V30 2372 H 229.105 0.79064 -2.8929 0
M  V30 2373 H 226.658 0.375761 -1.51716 0
M  V30 2374 H 227.393 2.90876 -1.43393 0
M  V30 2375 H 227.178 2.36915 -3.12432 0
M  V30 2376 H 228.668 3.23395 -2.64207 0
M  V30 2377 N 229.106 1.52395 0.401703 0
M  V30 2378 C 230.522 1.41363 0.740864 0
M  V30 2379 C 230.722 0.523982 1.94568 0
M  V30 2380 O 229.778 -0.00741204 2.52499 0
M  V30 2381 C 231.091 2.84011 0.987847 0
M  V30 2382 C 232.639 2.93404 1.09011 0
M  V30 2383 C 233.114 4.37036 1.3698 0
M  V30 2384 N 234.605 4.40304 1.43829 0
M  V30 2385 C 235.34 5.48508 1.67112 0
M  V30 2386 N 234.836 6.66819 1.87949 0
M  V30 2387 N 236.629 5.36034 1.69187 0
M  V30 2388 H 228.78 2.08765 -0.391262 0
M  V30 2389 H 231.043 0.941265 -0.112798 0
M  V30 2390 H 230.749 3.51265 0.174835 0
M  V30 2391 H 230.623 3.25502 1.906 0
M  V30 2392 H 233.01 2.26325 1.8937 0
M  V30 2393 H 233.091 2.55359 0.15015 0
M  V30 2394 H 232.735 5.04676 0.571353 0
M  V30 2395 H 232.665 4.72623 2.3224 0
M  V30 2396 H 235.156 3.55024 1.29486 0
M  V30 2397 H 235.469 7.45063 2.05185 0
M  V30 2398 H 233.814 6.6987 1.85199 0
M  V30 2399 H 237.005 4.42579 1.52451 0
M  V30 2400 H 237.178 6.20434 1.86993 0
M  V30 2401 N 230.584 -0.659388 1.43143 0
M  V30 2402 C 231.814 -1.44513 1.47646 0
M  V30 2403 C 232.222 -1.88981 0.0910095 0
M  V30 2404 O 231.565 -1.59702 -0.907789 0
M  V30 2405 C 231.627 -2.71663 2.35456 0
M  V30 2406 C 231.291 -2.49175 3.83094 0
M  V30 2407 C 232.288 -2.1279 4.74359 0
M  V30 2408 C 229.973 -2.63691 4.27519 0
M  V30 2409 C 231.967 -1.9121 6.08044 0
M  V30 2410 C 229.654 -2.41726 5.61259 0
M  V30 2411 C 230.652 -2.0554 6.51339 0
M  V30 2412 O 230.34 -1.838 7.82606 0
M  V30 2413 H 230.072 -0.45064 0.503884 0
M  V30 2414 H 232.626 -0.816248 1.88485 0
M  V30 2415 H 230.856 -3.37089 1.89493 0
M  V30 2416 H 232.545 -3.33595 2.31235 0
M  V30 2417 H 233.311 -2.01157 4.41317 0
M  V30 2418 H 229.19 -2.90832 3.57684 0
M  V30 2419 H 232.734 -1.62889 6.78316 0
M  V30 2420 H 228.631 -2.52959 5.9387 0
M  V30 2421 H 229.399 -1.98275 7.94122 0
M  V30 2422 N 232.062 -1.29571 -0.897171 0
M  V30 2423 C 233.025 -1.14913 -1.98312 0
M  V30 2424 C 234.025 -0.0838629 -1.60581 0
M  V30 2425 O 235.215 -0.331006 -1.71026 0
M  V30 2426 C 232.347 -0.757835 -3.3237 0
M  V30 2427 H 233.54 -2.11377 -2.12743 0
M  V30 2428 H 231.093 -1.12793 -1.08201 0
M  V30 2429 H 231.828 0.206837 -3.2364 0
M  V30 2430 H 231.613 -1.52755 -3.61121 0
M  V30 2431 H 233.103 -0.678408 -4.12053 0
M  V30 2432 N 233.54 1.10788 -1.12088 0
M  V30 2433 C 234.788 1.8231 -0.872205 0
M  V30 2434 C 235.109 1.85419 0.603709 0
M  V30 2435 O 234.379 1.32963 1.43867 0
M  V30 2436 H 232.959 0.675137 -0.319686 0
M  V30 2437 H 235.621 1.34068 -1.41463 0
M  V30 2438 H 234.717 2.85955 -1.25045 0
M  V30 2439 N 235.018 0.912232 1.28515 0
M  V30 2440 C 235.95 0.35676 2.26406 0
M  V30 2441 C 236.963 -0.503933 1.54804 0
M  V30 2442 O 238.152 -0.319059 1.75625 0
M  V30 2443 C 235.252 -0.508825 3.35058 0
M  V30 2444 C 234.425 0.329007 4.36161 0
M  V30 2445 C 233.484 -0.471422 5.24084 0
M  V30 2446 O 232.51 0.115482 5.69083 0
M  V30 2447 N 233.712 -1.77479 5.52704 0
M  V30 2448 H 236.477 1.19818 2.74707 0
M  V30 2449 H 234.038 0.778022 1.4198 0
M  V30 2450 H 236.03 -1.051 3.90815 0
M  V30 2451 H 234.6 -1.25095 2.86478 0
M  V30 2452 H 233.82 1.05256 3.79888 0
M  V30 2453 H 235.108 0.90234 5.00735 0
M  V30 2454 H 234.506 -2.27417 5.17975 0
M  V30 2455 H 233.063 -2.26382 6.11224 0
M  V30 2456 N 236.496 -1.42363 0.676048 0
M  V30 2457 C 237.426 -2.33497 0.0124832 0
M  V30 2458 C 238.407 -1.50748 -0.787981 0
M  V30 2459 O 239.592 -1.79346 -0.744884 0
M  V30 2460 C 236.722 -3.34377 -0.938582 0
M  V30 2461 C 235.676 -4.27289 -0.246622 0
M  V30 2462 C 235.002 -5.18386 -1.31071 0
M  V30 2463 C 236.302 -5.14916 0.875125 0
M  V30 2464 H 237.996 -2.89233 0.773593 0
M  V30 2465 H 235.542 -1.39073 0.37346 0
M  V30 2466 H 237.495 -3.97044 -1.41188 0
M  V30 2467 H 236.219 -2.76947 -1.73113 0
M  V30 2468 H 234.878 -3.66018 0.206456 0
M  V30 2469 H 234.526 -4.57282 -2.09528 0
M  V30 2470 H 234.226 -5.81378 -0.852839 0
M  V30 2471 H 235.75 -5.83929 -1.78492 0
M  V30 2472 H 237.164 -5.71262 0.482983 0
M  V30 2473 H 235.561 -5.86747 1.25887 0
M  V30 2474 H 236.631 -4.53242 1.72335 0
M  V30 2475 N 237.974 -0.419461 -1.51915 0
M  V30 2476 C 239.39 -0.0708431 -1.59443 0
M  V30 2477 C 239.59 1.41796 -1.43164 0
M  V30 2478 O 238.646 2.18596 -1.26381 0
M  V30 2479 C 239.959 -0.574991 -2.95151 0
M  V30 2480 C 241.507 -0.533867 -3.08413 0
M  V30 2481 C 241.982 -1.01469 -4.46618 0
M  V30 2482 N 243.473 -0.971939 -4.52888 0
M  V30 2483 C 244.208 -1.31505 -5.58116 0
M  V30 2484 N 243.704 -1.73014 -6.70849 0
M  V30 2485 N 245.497 -1.23436 -5.48379 0
M  V30 2486 H 237.648 -1.38836 -1.60743 0
M  V30 2487 H 239.911 -0.570998 -0.756747 0
M  V30 2488 H 239.617 -1.61597 -3.12377 0
M  V30 2489 H 239.491 0.00979777 -3.77199 0
M  V30 2490 H 241.878 0.498086 -2.90866 0
M  V30 2491 H 241.959 -1.15484 -2.28248 0
M  V30 2492 H 241.603 -2.04502 -4.6491 0
M  V30 2493 H 241.533 -0.370433 -5.25295 0
M  V30 2494 H 244.024 -0.666893 -3.71969 0
M  V30 2495 H 244.337 -1.97479 -7.47143 0
M  V30 2496 H 242.682 -1.76926 -6.72103 0
M  V30 2497 H 245.873 -0.908869 -4.59192 0
M  V30 2498 H 246.046 -1.50506 -6.30279 0
M  V30 2499 N 239.452 1.56882 -0.150215 0
M  V30 2500 C 240.415 2.1573 0.774157 0
M  V30 2501 C 241.415 1.0999 1.17298 0
M  V30 2502 O 242.605 1.35613 1.09338 0
M  V30 2503 C 239.737 2.72302 2.05096 0
M  V30 2504 H 240.93 2.98752 0.262201 0
M  V30 2505 H 238.483 1.55985 0.099248 0
M  V30 2506 H 239.218 1.92956 2.6065 0
M  V30 2507 H 239.003 3.49665 1.77416 0
M  V30 2508 H 240.493 3.17632 2.71109 0
M  V30 2509 N 240.93 -0.123565 1.57115 0
M  V30 2510 C 242.346 -0.476961 1.52306 0
M  V30 2511 C 242.546 -1.82109 0.86248 0
M  V30 2512 O 241.602 -2.48586 0.442884 0
M  V30 2513 C 242.915 -0.465661 2.97073 0
M  V30 2514 C 244.463 -0.549534 3.08138 0
M  V30 2515 C 244.938 -0.568669 4.54456 0
M  V30 2516 N 246.429 -0.630237 4.58892 0
M  V30 2517 C 247.164 -0.666415 5.69514 0
M  V30 2518 N 246.66 -0.660514 6.89644 0
M  V30 2519 N 248.453 -0.709077 5.5761 0
M  V30 2520 H 240.604 0.757198 1.98445 0
M  V30 2521 H 242.867 0.278808 0.906074 0
M  V30 2522 H 242.573 0.454232 3.48754 0
M  V30 2523 H 242.447 -1.29513 3.54269 0
M  V30 2524 H 244.834 -1.45985 2.56461 0
M  V30 2525 H 244.915 0.307532 2.53945 0
M  V30 2526 H 244.559 0.337581 5.06777 0
M  V30 2527 H 244.489 -1.44256 5.06456 0
M  V30 2528 H 246.98 -0.641146 3.72421 0
M  V30 2529 H 247.293 -0.690616 7.69708 0
M  V30 2530 H 245.638 -0.628012 6.92157 0
M  V30 2531 H 248.829 -0.711019 4.62668 0
M  V30 2532 H 249.002 -0.733804 6.43832 0
M  V30 2533 N 242.408 -1.52605 -0.393616 0
M  V30 2534 C 243.654 -1.67672 -1.14079 0
M  V30 2535 C 243.987 -0.413121 -1.89755 0
M  V30 2536 O 243.262 0.588952 -1.85369 0
M  V30 2537 C 243.545 -2.9088 -2.12276 0
M  V30 2538 C 243.398 -4.27329 -1.40394 0
M  V30 2539 C 244.717 -3.09628 -3.12759 0
M  V30 2540 H 241.836 -0.610168 -0.413356 0
M  V30 2541 H 244.478 -1.85193 -0.424696 0
M  V30 2542 H 242.628 -2.76073 -2.73342 0
M  V30 2543 H 244.3 -4.53894 -0.82327 0
M  V30 2544 H 242.543 -4.2802 -0.705801 0
M  V30 2545 H 243.214 -5.09615 -2.12123 0
M  V30 2546 H 245.69 -3.23436 -2.61779 0
M  V30 2547 H 244.566 -3.97322 -3.78717 0
M  V30 2548 H 244.827 -2.23637 -3.81365 0
M  V30 2549 N 243.887 0.651787 -1.4349 0
M  V30 2550 C 244.834 1.76462 -1.4876 0
M  V30 2551 C 245.804 1.62641 -0.337189 0
M  V30 2552 O 246.989 1.82864 -0.544544 0
M  V30 2553 C 244.129 3.14623 -1.41796 0
M  V30 2554 C 243.242 3.39568 -2.67053 0
M  V30 2555 C 242.377 4.67585 -2.52068 0
M  V30 2556 C 241.416 4.85639 -3.72587 0
M  V30 2557 N 240.553 6.04915 -3.56402 0
M  V30 2558 H 245.393 1.71293 -2.43849 0
M  V30 2559 H 242.93 0.835889 -1.21043 0
M  V30 2560 H 244.888 3.94496 -1.35753 0
M  V30 2561 H 243.518 3.18859 -0.50288 0
M  V30 2562 H 242.57 2.53783 -2.8337 0
M  V30 2563 H 243.882 3.48795 -3.56572 0
M  V30 2564 H 243.036 5.55586 -2.4374 0
M  V30 2565 H 241.775 4.60681 -1.60075 0
M  V30 2566 H 240.78 3.96073 -3.81321 0
M  V30 2567 H 242.005 4.94372 -4.65589 0
M  V30 2568 H 239.951 5.9914 -2.67146 0
M  V30 2569 H 239.868 6.15106 -4.39524 0
M  V30 2570 H 241.136 6.95533 -3.51929 0
M  V30 2571 N 245.365 1.30045 0.890287 0
M  V30 2572 C 246.312 1.15976 1.99545 0
M  V30 2573 C 247.282 0.0506202 1.66023 0
M  V30 2574 O 248.467 0.219847 1.89529 0
M  V30 2575 C 245.607 0.852054 3.34416 0
M  V30 2576 C 244.72 2.04255 3.80662 0
M  V30 2577 C 243.855 1.6734 5.04154 0
M  V30 2578 C 242.894 2.82916 5.42794 0
M  V30 2579 N 242.031 2.46333 6.57468 0
M  V30 2580 H 246.871 2.10524 2.10911 0
M  V30 2581 H 244.408 1.04749 1.03276 0
M  V30 2582 H 246.366 0.654296 4.12037 0
M  V30 2583 H 244.996 -0.0565502 3.2275 0
M  V30 2584 H 244.048 2.35172 2.98995 0
M  V30 2585 H 245.36 2.90826 4.05242 0
M  V30 2586 H 244.514 1.43908 5.89386 0
M  V30 2587 H 243.253 0.779308 4.81433 0
M  V30 2588 H 242.258 3.0702 4.56091 0
M  V30 2589 H 243.483 3.73004 5.6749 0
M  V30 2590 H 241.429 1.59423 6.36334 0
M  V30 2591 H 241.346 3.26436 6.81891 0
M  V30 2592 H 242.614 2.26244 7.45945 0
M  V30 2593 N 246.843 -1.10192 1.12674 0
M  V30 2594 C 247.775 -2.16418 0.754701 0
M  V30 2595 C 248.788 -1.61309 -0.21986 0
M  V30 2596 O 249.977 -1.785 -0.000826841 0
M  V30 2597 C 247.077 -3.38762 0.096698 0
M  V30 2598 C 246.25 -4.23307 1.10136 0
M  V30 2599 C 245.309 -5.24092 0.470513 0
M  V30 2600 O 244.335 -5.57906 1.12824 0
M  V30 2601 N 245.537 -5.75491 -0.760948 0
M  V30 2602 H 248.302 -2.48943 1.66875 0
M  V30 2603 H 245.863 -1.25834 1.01869 0
M  V30 2604 H 247.855 -4.03291 -0.337384 0
M  V30 2605 H 246.425 -3.04192 -0.720153 0
M  V30 2606 H 245.645 -3.55036 1.71299 0
M  V30 2607 H 246.933 -4.76624 1.78064 0
M  V30 2608 H 246.331 -5.50222 -1.31424 0
M  V30 2609 H 244.888 -6.41792 -1.13781 0
M  V30 2610 N 248.321 -0.919034 -1.28029 0
M  V30 2611 C 249.568 -0.554934 -1.94748 0
M  V30 2612 C 249.896 0.90231 -1.72304 0
M  V30 2613 O 249.151 1.65767 -1.04018 0
M  V30 2614 C 249.45 -0.816855 -3.4794 0
M  V30 2615 C 249.116 -2.25448 -3.90492 0
M  V30 2616 C 247.778 -2.64752 -4.01821 0
M  V30 2617 C 250.13 -3.18977 -4.12193 0
M  V30 2618 C 247.458 -3.96727 -4.32232 0
M  V30 2619 C 249.81 -4.50523 -4.44086 0
M  V30 2620 C 248.474 -4.89673 -4.53626 0
M  V30 2621 H 247.744 -0.203065 -0.712633 0
M  V30 2622 H 250.391 -1.16136 -1.52265 0
M  V30 2623 H 248.696 -0.127677 -3.91592 0
M  V30 2624 H 250.393 -0.514238 -3.97689 0
M  V30 2625 H 246.983 -1.93952 -3.82205 0
M  V30 2626 H 251.167 -2.89817 -4.02889 0
M  V30 2627 H 246.423 -4.26754 -4.37825 0
M  V30 2628 H 250.597 -5.23005 -4.59825 0
M  V30 2629 H 248.224 -5.91969 -4.76946 0
M  V30 2630 N 249.799 1.42003 -0.683588 0
M  V30 2631 C 250.762 2.29191 -0.0198243 0
M  V30 2632 C 251.762 1.43773 0.72013 0
M  V30 2633 O 252.952 1.65061 0.556815 0
M  V30 2634 C 250.084 3.26435 0.982487 0
M  V30 2635 H 251.277 2.8938 -0.787345 0
M  V30 2636 H 248.83 1.49789 -0.446418 0
M  V30 2637 H 249.565 2.71203 1.77819 0
M  V30 2638 H 249.35 3.89449 0.455182 0
M  V30 2639 H 250.84 3.918 1.44508 0
M  V30 2640 N 251.277 0.427512 1.51691 0
M  V30 2641 C 252.505 -0.141191 2.06418 0
M  V30 2642 C 252.92 -1.37303 1.29589 0
M  V30 2643 O 252.277 -1.79059 0.352732 0
M  V30 2644 C 252.328 -0.473266 3.58389 0
M  V30 2645 O 252.049 0.709673 4.32314 0
M  V30 2646 C 253.55 -1.09371 4.29596 0
M  V30 2647 H 250.77 -0.0122747 0.670888 0
M  V30 2648 H 253.314 0.603764 1.95384 0
M  V30 2649 H 251.469 -1.16812 3.69369 0
M  V30 2650 H 251.883 0.42807 5.2275 0
M  V30 2651 H 253.357 -1.27613 5.37046 0
M  V30 2652 H 253.834 -2.072 3.87253 0
M  V30 2653 H 254.44 -0.43853 4.23033 0
M  V30 2654 N 252.755 -1.56801 0.158532 0
M  V30 2655 C 253.688 -2.13148 -0.815065 0
M  V30 2656 C 254.666 -1.0581 -1.23462 0
M  V30 2657 O 255.85 -1.3371 -1.32868 0
M  V30 2658 C 252.977 -2.6606 -2.09594 0
M  V30 2659 C 252.023 -3.85651 -1.82141 0
M  V30 2660 S 252.856 -5.26041 -1.00207 0
M  V30 2661 C 254.012 -5.8235 -2.29389 0
M  V30 2662 H 254.245 -2.95396 -0.335937 0
M  V30 2663 H 251.778 -1.54299 -0.0559391 0
M  V30 2664 H 253.736 -2.97195 -2.8317 0
M  V30 2665 H 252.397 -1.83921 -2.54621 0
M  V30 2666 H 251.59 -4.20958 -2.77147 0
M  V30 2667 H 251.192 -3.55338 -1.16667 0
M  V30 2668 H 253.484 -5.94485 -3.24952 0
M  V30 2669 H 254.427 -6.79688 -1.9857 0
M  V30 2670 H 254.835 -5.10675 -2.40564 0
M  V30 2671 N 254.233 0.115231 -1.57178 0
M  V30 2672 C 255.481 0.820727 -1.84685 0
M  V30 2673 C 255.802 1.80237 -0.744279 0
M  V30 2674 O 255.072 1.94529 0.231375 0
M  V30 2675 H 253.652 0.306084 -0.681411 0
M  V30 2676 H 256.314 0.101656 -1.94635 0
M  V30 2677 H 255.41 1.36366 -2.80733 0
M  V30 2678 N 255.711 1.52812 0.385517 0
M  V30 2679 C 256.621 1.80766 1.49535 0
M  V30 2680 C 257.637 0.694651 1.59532 0
M  V30 2681 O 258.813 0.982611 1.75803 0
M  V30 2682 C 255.878 1.97381 2.85029 0
M  V30 2683 C 254.939 3.21295 2.84724 0
M  V30 2684 C 254.172 3.37108 4.13756 0
M  V30 2685 O 254.395 2.5765 5.08893 0
M  V30 2686 O 253.329 4.30378 4.20783 0
M  V30 2687 H 257.155 2.75015 1.28842 0
M  V30 2688 H 254.74 1.37946 0.573697 0
M  V30 2689 H 256.622 2.09996 3.65349 0
M  V30 2690 H 255.297 1.06322 3.05741 0
M  V30 2691 H 254.204 3.1412 2.03174 0
M  V30 2692 H 255.537 4.12212 2.68965 0
M  V30 2693 N 257.189 -0.644168 1.43834 0
M  V30 2694 C 258.605 -0.960875 1.27434 0
M  V30 2695 C 258.805 -2.00499 0.200618 0
M  V30 2696 O 257.861 -2.49018 -0.417906 0
M  V30 2697 C 259.174 -1.43653 2.64167 0
M  V30 2698 C 260.722 -1.55271 2.71772 0
M  V30 2699 C 261.197 -2.06224 4.08944 0
M  V30 2700 N 262.688 -2.13513 4.11055 0
M  V30 2701 C 263.423 -2.54081 5.14033 0
M  V30 2702 N 262.919 -2.9388 6.27381 0
M  V30 2703 N 264.712 -2.54101 5.01387 0
M  V30 2704 H 256.863 0.0465779 2.12349 0
M  V30 2705 H 259.126 -0.0417638 0.94708 0
M  V30 2706 H 258.832 -0.743706 3.43747 0
M  V30 2707 H 258.706 -2.40993 2.90176 0
M  V30 2708 H 261.093 -2.23653 1.92519 0
M  V30 2709 H 261.174 -0.563395 2.49519 0
M  V30 2710 H 260.818 -1.38441 4.88668 0
M  V30 2711 H 260.748 -3.06003 4.28567 0
M  V30 2712 H 263.239 -1.85493 3.29242 0
M  V30 2713 H 263.552 -3.2361 7.01781 0
M  V30 2714 H 261.897 -2.91663 6.30839 0
M  V30 2715 H 265.088 -2.22391 4.11898 0
M  V30 2716 H 265.261 -2.85394 5.81768 0
M  V30 2717 N 258.668 -1.30515 -0.883378 0
M  V30 2718 C 260.084 -1.08881 -1.16692 0
M  V30 2719 C 260.284 0.149409 -2.00945 0
M  V30 2720 O 259.34 0.84257 -2.38027 0
M  V30 2721 C 260.653 -2.35319 -1.87204 0
M  V30 2722 C 262.201 -2.40799 -1.99962 0
M  V30 2723 C 262.676 -3.67083 -2.73887 0
M  V30 2724 N 264.167 -3.679 -2.81432 0
M  V30 2725 C 264.902 -4.62303 -3.3921 0
M  V30 2726 N 264.398 -5.67052 -3.98025 0
M  V30 2727 N 266.191 -4.49845 -3.3704 0
M  V30 2728 H 258.342 -2.09951 -0.321633 0
M  V30 2729 H 260.605 -0.92556 -0.205043 0
M  V30 2730 H 260.311 -3.25689 -1.3274 0
M  V30 2731 H 260.185 -2.44089 -2.87577 0
M  V30 2732 H 262.572 -1.50907 -2.53597 0
M  V30 2733 H 262.653 -2.36003 -0.98673 0
M  V30 2734 H 262.297 -4.57334 -2.20925 0
M  V30 2735 H 262.227 -3.69141 -3.75556 0
M  V30 2736 H 264.718 -2.92171 -2.39676 0
M  V30 2737 H 265.031 -6.35184 -4.40183 0
M  V30 2738 H 263.376 -5.70842 -3.96439 0
M  V30 2739 H 266.567 -3.67194 -2.90321 0
M  V30 2740 H 266.74 -5.23597 -3.81772 0
M  V30 2741 N 260.146 1.09593 -1.13257 0
M  V30 2742 C 261.562 1.33775 -0.870423 0
M  V30 2743 C 261.762 1.95327 0.494926 0
M  V30 2744 O 260.818 2.19853 1.2418 0
M  V30 2745 C 262.131 2.25106 -1.99369 0
M  V30 2746 C 263.679 2.3862 -2.02558 0
M  V30 2747 C 264.154 3.33285 -3.14142 0
M  V30 2748 N 265.645 3.40857 -3.13641 0
M  V30 2749 C 266.38 4.14101 -3.96621 0
M  V30 2750 N 265.876 4.90157 -4.8961 0
M  V30 2751 N 267.669 4.09808 -3.84726 0
M  V30 2752 H 259.82 0.680136 -2.01216 0
M  V30 2753 H 262.083 0.362133 -0.876107 0
M  V30 2754 H 261.789 1.87103 -2.97801 0
M  V30 2755 H 261.663 3.25481 -1.90635 0
M  V30 2756 H 264.05 2.75887 -1.0474 0
M  V30 2757 H 264.131 1.38028 -2.15364 0
M  V30 2758 H 263.775 2.96741 -4.12198 0
M  V30 2759 H 263.705 4.33776 -2.98574 0
M  V30 2760 H 266.196 2.86624 -2.46282 0
M  V30 2761 H 266.509 5.4347 -5.49418 0
M  V30 2762 H 264.854 4.89251 -4.93617 0
M  V30 2763 H 268.045 3.4949 -3.11408 0
M  V30 2764 H 268.218 4.66629 -4.49623 0
M  V30 2765 N 261.624 0.925811 1.2754 0
M  V30 2766 C 262.871 0.565255 1.94451 0
M  V30 2767 C 263.199 -0.89316 1.7278 0
M  V30 2768 O 262.454 -1.65213 1.04895 0
M  V30 2769 C 262.753 0.835296 3.47502 0
M  V30 2770 C 262.419 2.27515 3.89291 0
M  V30 2771 C 261.081 2.66879 4.00411 0
M  V30 2772 C 263.433 3.21158 4.10496 0
M  V30 2773 C 260.761 3.99014 4.30122 0
M  V30 2774 C 263.113 4.52871 4.4169 0
M  V30 2775 C 261.777 4.92072 4.51023 0
M  V30 2776 H 261.047 0.206841 0.711546 0
M  V30 2777 H 263.694 1.16942 1.51647 0
M  V30 2778 H 261.999 0.148442 3.91519 0
M  V30 2779 H 263.696 0.535322 3.97411 0
M  V30 2780 H 260.286 1.95976 3.81171 0
M  V30 2781 H 264.47 2.9195 4.01346 0
M  V30 2782 H 259.726 4.2907 4.35556 0
M  V30 2783 H 263.9 5.25436 4.57045 0
M  V30 2784 H 261.527 5.9449 4.738 0
M  V30 2785 N 263.102 -1.41638 0.69111 0
M  V30 2786 C 264.348 -2.02104 0.229258 0
M  V30 2787 C 264.703 -1.53741 -1.15678 0
M  V30 2788 O 263.996 -0.736849 -1.76865 0
M  V30 2789 C 264.19 -3.56714 0.221277 0
M  V30 2790 C 264.019 -4.20083 1.605 0
M  V30 2791 C 262.789 -4.54566 2.20676 0
M  V30 2792 C 264.987 -4.46587 2.55078 0
M  V30 2793 N 262.969 -5.03199 3.5166 0
M  V30 2794 C 264.34 -4.96946 3.70735 0
M  V30 2795 C 266.395 -4.28593 2.53401 0
M  V30 2796 C 265.098 -5.31203 4.8499 0
M  V30 2797 C 267.124 -4.63936 3.66765 0
M  V30 2798 C 266.486 -5.14463 4.81152 0
M  V30 2799 H 262.585 -0.771256 0.12918 0
M  V30 2800 H 265.169 -1.72251 0.907626 0
M  V30 2801 H 263.34 -3.86051 -0.426562 0
M  V30 2802 H 265.072 -4.03896 -0.254983 0
M  V30 2803 H 261.827 -4.4087 1.73005 0
M  V30 2804 H 262.251 -5.31926 4.18789 0
M  V30 2805 H 266.893 -3.88771 1.66184 0
M  V30 2806 H 264.611 -5.69951 5.72871 0
M  V30 2807 H 268.197 -4.51677 3.66714 0
M  V30 2808 H 267.077 -5.41299 5.67419 0
M  V30 2809 N 264.58 -0.43555 -1.51462 0
M  V30 2810 C 265.49 0.383001 -2.31453 0
M  V30 2811 C 266.506 1.02931 -1.4029 0
M  V30 2812 O 267.682 1.02507 -1.73362 0
M  V30 2813 C 264.747 1.47043 -3.13973 0
M  V30 2814 C 263.808 0.844433 -4.20913 0
M  V30 2815 C 263.041 1.88004 -4.9949 0
M  V30 2816 O 263.264 3.10199 -4.78678 0
M  V30 2817 O 262.198 1.47157 -5.83634 0
M  V30 2818 H 266.024 -0.269964 -3.02498 0
M  V30 2819 H 263.609 -0.19813 -1.4808 0
M  V30 2820 H 265.491 2.10113 -3.65281 0
M  V30 2821 H 264.166 2.10751 -2.45695 0
M  V30 2822 H 263.073 0.175729 -3.73687 0
M  V30 2823 H 264.406 0.250869 -4.9156 0
M  V30 2824 N 266.058 1.56714 -0.166846 0
M  V30 2825 C 267.005 2.17746 0.765193 0
M  V30 2826 C 267.975 1.11614 1.23011 0
M  V30 2827 O 269.16 1.39745 1.29908 0
M  V30 2828 C 266.3 2.81882 1.9909 0
M  V30 2829 C 265.413 4.02462 1.56997 0
M  V30 2830 C 264.548 4.54537 2.749 0
M  V30 2831 C 263.587 5.67538 2.29275 0
M  V30 2832 N 262.724 6.14142 3.40255 0
M  V30 2833 H 267.564 2.97048 0.237952 0
M  V30 2834 H 265.101 1.4672 0.105725 0
M  V30 2835 H 267.059 3.17221 2.70974 0
M  V30 2836 H 265.689 2.05191 2.49192 0
M  V30 2837 H 264.741 3.72973 0.748037 0
M  V30 2838 H 266.053 4.84273 1.19503 0
M  V30 2839 H 265.207 4.92035 3.54946 0
M  V30 2840 H 263.946 3.71774 3.1565 0
M  V30 2841 H 262.951 5.29597 1.47674 0
M  V30 2842 H 264.176 6.52099 1.89588 0
M  V30 2843 H 262.122 5.3431 3.8059 0
M  V30 2844 H 262.039 6.9093 3.06841 0
M  V30 2845 H 263.307 6.56289 4.206 0
M  V30 2846 N 267.536 -0.106894 1.57237 0
M  V30 2847 C 268.783 -0.812526 1.85484 0
M  V30 2848 C 269.111 -1.79304 0.753687 0
M  V30 2849 O 268.366 -1.94047 -0.253853 0
M  V30 2850 C 268.665 -1.58628 3.20268 0
M  V30 2851 C 268.331 -0.748967 4.44636 0
M  V30 2852 C 266.993 -0.518104 4.78403 0
M  V30 2853 C 269.345 -0.166122 5.20935 0
M  V30 2854 C 266.673 0.305659 5.85903 0
M  V30 2855 C 269.025 0.644899 6.29304 0
M  V30 2856 C 267.689 0.885965 6.61594 0
M  V30 2857 H 266.959 -0.297324 0.678734 0
M  V30 2858 H 269.606 -0.0744332 1.91355 0
M  V30 2859 H 267.911 -2.39562 3.10028 0
M  V30 2860 H 269.608 -2.13643 3.39349 0
M  V30 2861 H 266.198 -0.939006 4.18187 0
M  V30 2862 H 270.382 -0.33167 4.95191 0
M  V30 2863 H 265.638 0.501528 6.0934 0
M  V30 2864 H 269.812 1.10345 6.87602 0
M  V30 2865 H 267.439 1.52609 7.44725 0
M  V30 2866 N 269.014 -1.53014 -0.377408 0
M  V30 2867 C 270.261 -1.68623 -1.12128 0
M  V30 2868 C 270.589 -0.431997 -1.89642 0
M  V30 2869 O 269.844 0.585855 -1.86725 0
M  V30 2870 C 270.143 -2.87982 -2.11663 0
M  V30 2871 C 269.809 -4.24964 -1.50719 0
M  V30 2872 C 268.471 -4.62217 -1.33825 0
M  V30 2873 C 270.823 -5.10199 -1.06519 0
M  V30 2874 C 268.151 -5.82352 -0.712963 0
M  V30 2875 C 270.503 -6.30969 -0.453955 0
M  V30 2876 C 269.167 -6.66944 -0.272411 0
M  V30 2877 H 268.437 -0.617034 -0.410305 0
M  V30 2878 H 271.084 -1.8718 -0.404484 0
M  V30 2879 H 269.389 -2.63889 -2.89603 0
M  V30 2880 H 271.086 -2.97253 -2.6915 0
M  V30 2881 H 267.676 -3.95626 -1.64858 0
M  V30 2882 H 271.86 -4.81978 -1.18368 0
M  V30 2883 H 267.116 -6.08824 -0.560611 0
M  V30 2884 H 271.29 -6.96324 -0.103217 0
M  V30 2885 H 268.917 -7.59898 0.214181 0
M  V30 2886 N 270.492 0.636531 -1.44174 0
M  V30 2887 C 271.738 1.39826 -1.4689 0
M  V30 2888 C 272.071 1.93947 -0.0990585 0
M  V30 2889 O 271.346 1.73325 0.882544 0
M  V30 2890 C 271.629 2.56751 -2.5249 0
M  V30 2891 C 271.482 2.08014 -3.98811 0
M  V30 2892 C 272.801 3.58946 -2.54649 0
M  V30 2893 H 269.92 0.507075 -0.53483 0
M  V30 2894 H 272.562 0.720188 -1.75822 0
M  V30 2895 H 270.712 3.14597 -2.2795 0
M  V30 2896 H 272.384 1.5504 -4.34466 0
M  V30 2897 H 270.627 1.39242 -4.10846 0
M  V30 2898 H 271.298 2.92169 -4.68339 0
M  V30 2899 H 273.774 3.1089 -2.76563 0
M  V30 2900 H 272.65 4.38286 -3.3045 0
M  V30 2901 H 272.911 4.12655 -1.58646 0
M  V30 2902 N 271.97 1.30982 0.876444 0
M  V30 2903 C 272.918 1.18006 2.00443 0
M  V30 2904 C 273.912 0.0898871 1.69161 0
M  V30 2905 O 275.118 0.251333 1.78237 0
M  V30 2906 H 271.493 0.365196 0.65737 0
M  V30 2907 H 273.464 2.13453 2.0852 0
M  V30 2908 C 272.213 0.897521 3.35916 0
M  V30 2909 H 271.536 1.7285 3.60504 0
M  V30 2910 H 272.976 0.846874 4.15456 0
M  V30 2911 C 271.435 -0.399674 3.34521 0
M  V30 2912 O 271.965 -1.41852 3.7582 0
M  V30 2913 N 270.171 -0.413893 2.87637 0
M  V30 2914 H 269.718 0.41571 2.54224 0
M  V30 2915 H 269.676 -1.28175 2.87086 0
M  V30 2916 N 273.449 -1.08991 1.13837 0
M  V30 2917 C 274.726 -1.77863 0.813876 0
M  V30 2918 C 275.106 -1.99375 -0.693746 0
M  V30 2919 O 274.454 -1.59875 -1.63255 0
M  V30 2920 C 274.664 -3.0986 1.60586 0
M  V30 2921 C 276.012 -3.84493 1.8014 0
M  V30 2922 O 277.036 -3.19624 1.57222 0
M  V30 2923 O 275.895 -5.00957 2.18413 0
M  V30 2924 H 272.989 -0.771589 0.297624 0
M  V30 2925 H 275.535 -1.15507 1.24323 0
M  V30 2926 H 274.307 -2.89715 2.63022 0
M  V30 2927 H 273.93 -3.79942 1.17173 0
M  V30 2928 N 274.927 -0.932562 -1.27047 0
M  V30 2929 C 276.343 -0.633544 -1.46487 0
M  V30 2930 C 276.543 0.815746 -1.84249 0
M  V30 2931 O 275.599 1.59319 -1.95892 0
M  V30 2932 C 276.912 -1.58758 -2.55375 0
M  V30 2933 C 278.46 -1.59634 -2.69232 0
M  V30 2934 C 278.935 -2.53747 -3.81283 0
M  V30 2935 N 280.426 -2.51982 -3.88664 0
M  V30 2936 C 281.161 -3.21491 -4.74796 0
M  V30 2937 N 280.657 -4.00395 -5.65381 0
M  V30 2938 N 282.45 -3.10485 -4.68568 0
M  V30 2939 H 274.601 -1.86946 -1.00821 0
M  V30 2940 H 276.864 -0.802897 -0.504044 0
M  V30 2941 H 276.57 -2.62172 -2.34432 0
M  V30 2942 H 276.444 -1.33301 -3.52861 0
M  V30 2943 H 278.831 -0.569488 -2.89553 0
M  V30 2944 H 278.912 -1.89142 -1.72218 0
M  V30 2945 H 278.556 -3.56545 -3.61715 0
M  V30 2946 H 278.486 -2.21532 -4.77735 0
M  V30 2947 H 280.977 -1.94681 -3.23895 0
M  V30 2948 H 281.29 -4.50406 -6.27976 0
M  V30 2949 H 279.635 -4.04498 -5.65161 0
M  V30 2950 H 282.826 -2.48331 -3.96799 0
M  V30 2951 H 282.999 -3.64925 -5.35475 0
M  V30 2952 N 276.405 1.4127 -0.698611 0
M  V30 2953 C 277.335 2.33447 -0.049629 0
M  V30 2954 C 278.316 1.51982 0.763898 0
M  V30 2955 O 279.501 1.80509 0.716257 0
M  V30 2956 C 276.631 3.35828 0.885267 0
M  V30 2957 C 275.585 4.27627 0.178613 0
M  V30 2958 C 274.911 5.20406 1.22807 0
M  V30 2959 C 276.211 5.13459 -0.956933 0
M  V30 2960 H 277.905 2.87966 -0.81951 0
M  V30 2961 H 275.451 1.38461 -0.395538 0
M  V30 2962 H 277.404 3.9924 1.34854 0
M  V30 2963 H 276.128 2.79666 1.68685 0
M  V30 2964 H 274.787 3.65643 -0.26466 0
M  V30 2965 H 274.435 4.60558 2.02226 0
M  V30 2966 H 274.135 5.82661 0.760239 0
M  V30 2967 H 275.659 5.86695 1.69179 0
M  V30 2968 H 277.073 5.70421 -0.573805 0
M  V30 2969 H 275.47 5.8467 -1.35205 0
M  V30 2970 H 276.54 4.50443 -1.79524 0
M  V30 2971 N 277.883 0.443576 1.51229 0
M  V30 2972 C 278.846 -0.353132 2.26463 0
M  V30 2973 C 279.846 -0.944338 1.3015 0
M  V30 2974 O 281.036 -0.817813 1.5381 0
M  V30 2975 C 278.168 -1.50023 3.06114 0
M  V30 2976 H 279.361 0.3063 2.98332 0
M  V30 2977 H 276.914 0.196902 1.55055 0
M  V30 2978 H 277.649 -2.19553 2.38677 0
M  V30 2979 H 277.434 -1.08241 3.76864 0
M  V30 2980 H 278.924 -2.06296 3.63087 0
M  V30 2981 N 279.361 -1.56624 0.175154 0
M  V30 2982 C 280.293 -2.15333 -0.785128 0
M  V30 2983 C 281.306 -1.1099 -1.19101 0
M  V30 2984 O 282.495 -1.38162 -1.13019 0
M  V30 2985 C 279.595 -2.68427 -2.06882 0
M  V30 2986 C 278.768 -3.97466 -1.8259 0
M  V30 2987 C 277.827 -4.35585 -2.95215 0
M  V30 2988 O 276.853 -5.03389 -2.65684 0
M  V30 2989 N 278.055 -3.97457 -4.23094 0
M  V30 2990 H 280.82 -2.98359 -0.283187 0
M  V30 2991 H 278.381 -1.61898 -0.00749817 0
M  V30 2992 H 280.373 -2.90924 -2.81328 0
M  V30 2993 H 278.943 -1.89968 -2.48256 0
M  V30 2994 H 278.163 -3.83307 -0.920287 0
M  V30 2995 H 279.451 -4.81736 -1.63733 0
M  V30 2996 H 278.849 -3.42878 -4.49945 0
M  V30 2997 H 277.406 -4.24947 -4.9423 0
M  V30 2998 N 280.839 0.0985539 -1.57292 0
M  V30 2999 C 282.064 0.820196 -1.90493 0
M  V30 3000 C 282.489 1.71658 -0.769094 0
M  V30 3001 O 281.847 1.79133 0.279495 0
M  V30 3002 C 281.895 1.61242 -3.22542 0
M  V30 3003 O 280.999 2.72108 -3.09888 0
M  V30 3004 H 280.34 0.225547 -0.62452 0
M  V30 3005 H 282.87 0.0748159 -2.04463 0
M  V30 3006 H 282.88 1.99737 -3.55766 0
M  V30 3007 H 281.555 0.954535 -4.04798 0
M  V30 3008 H 280.132 2.36667 -2.88172 0
M  V30 3009 N 282.317 1.53212 0.369288 0
M  V30 3010 C 283.247 1.82365 1.45826 0
M  V30 3011 C 284.228 0.676907 1.56051 0
M  V30 3012 O 285.413 0.926401 1.70679 0
M  V30 3013 C 282.543 2.01023 2.83208 0
M  V30 3014 C 281.497 3.1678 2.8781 0
M  V30 3015 C 280.823 3.20724 4.27832 0
M  V30 3016 C 282.123 4.55447 2.55667 0
M  V30 3017 H 283.817 2.73559 1.21678 0
M  V30 3018 H 281.363 1.3163 0.583911 0
M  V30 3019 H 283.316 2.20001 3.59413 0
M  V30 3020 H 282.04 1.06536 3.08736 0
M  V30 3021 H 280.699 2.97616 2.14056 0
M  V30 3022 H 280.347 2.23882 4.50429 0
M  V30 3023 H 280.047 3.98496 4.31827 0
M  V30 3024 H 281.571 3.41881 5.05915 0
M  V30 3025 H 282.985 4.74611 3.21586 0
M  V30 3026 H 281.382 5.35432 2.70984 0
M  V30 3027 H 282.452 4.60812 1.5093 0
M  V30 3028 N 283.795 -0.628877 1.44509 0
M  V30 3029 C 284.758 -1.72263 1.51188 0
M  V30 3030 C 285.758 -1.55907 0.39367 0
M  V30 3031 O 286.948 -1.61361 0.656377 0
M  V30 3032 C 284.08 -3.11365 1.38798 0
M  V30 3033 H 285.273 -1.67714 2.4862 0
M  V30 3034 H 282.826 -0.842737 1.31634 0
M  V30 3035 H 283.561 -3.21507 0.424693 0
M  V30 3036 H 283.346 -3.24644 2.19884 0
M  V30 3037 H 284.836 -3.91075 1.46458 0
M  V30 3038 N 285.273 -1.31445 -0.869486 0
M  V30 3039 C 286.221 -1.19067 -1.99814 0
M  V30 3040 C 287.215 -0.0988569 -1.69111 0
M  V30 3041 O 288.421 -0.260781 -1.78101 0
M  V30 3042 H 284.796 -0.368677 -0.655425 0
M  V30 3043 H 286.767 -2.14555 -2.07385 0
M  V30 3044 C 285.516 -0.915323 -3.35436 0
M  V30 3045 H 284.839 -1.74759 -3.59582 0
M  V30 3046 H 286.279 -0.868895 -4.15001 0
M  V30 3047 C 284.738 0.381928 -3.34728 0
M  V30 3048 O 285.268 1.39857 -3.76567 0
M  V30 3049 N 283.474 0.398633 -2.87853 0
M  V30 3050 H 283.021 -0.429186 -2.54 0
M  V30 3051 H 282.979 1.26651 -2.87762 0
M  V30 3052 N 286.751 1.08385 -1.14413 0
M  V30 3053 C 287.714 2.13486 -0.834048 0
M  V30 3054 C 288.714 1.59988 0.161418 0
M  V30 3055 O 289.904 1.74071 -0.0669575 0
M  V30 3056 C 287.036 3.4003 -0.243354 0
M  V30 3057 H 288.229 2.42425 -1.7655 0
M  V30 3058 H 285.782 1.24101 -0.950189 0
M  V30 3059 H 286.517 3.16726 0.696807 0
M  V30 3060 H 286.302 3.80157 -0.960367 0
M  V30 3061 H 287.792 4.17577 -0.0436242 0
M  V30 3062 N 288.23 0.939286 1.26551 0
M  V30 3063 C 289.507 0.5038 1.89001 0
M  V30 3064 C 289.887 -1.01854 1.84903 0
M  V30 3065 O 289.235 -1.87773 1.30206 0
M  V30 3066 C 289.445 1.063 3.32417 0
M  V30 3067 C 290.793 1.13051 4.09273 0
M  V30 3068 O 291.817 1.01345 3.41479 0
M  V30 3069 O 290.676 1.31233 5.30509 0
M  V30 3070 H 287.77 0.163897 0.810597 0
M  V30 3071 H 290.316 1.03173 1.34735 0
M  V30 3072 H 289.088 2.10665 3.29752 0
M  V30 3073 H 288.711 0.517408 3.94219 0
M  V30 3074 N 289.708 -1.40897 0.706093 0
M  V30 3075 C 290.618 -2.3455 0.0482286 0
M  V30 3076 C 291.634 -1.56796 -0.754396 0
M  V30 3077 O 292.81 -1.89228 -0.689538 0
M  V30 3078 C 289.875 -3.35625 -0.869303 0
M  V30 3079 C 288.936 -4.29261 -0.0576994 0
M  V30 3080 C 288.169 -5.25508 -0.931531 0
M  V30 3081 O 288.392 -5.27472 -2.17092 0
M  V30 3082 O 287.326 -6.00727 -0.375587 0
M  V30 3083 H 291.152 -2.92407 0.820476 0
M  V30 3084 H 288.737 -1.4193 0.4665 0
M  V30 3085 H 290.619 -3.97635 -1.39514 0
M  V30 3086 H 289.294 -2.80196 -1.62086 0
M  V30 3087 H 288.201 -3.70566 0.512988 0
M  V30 3088 H 289.534 -4.87817 0.655426 0
M  V30 3089 N 291.186 -0.45159 -1.50991 0
M  V30 3090 C 292.133 0.352625 -2.2809 0
M  V30 3091 C 293.103 1.0044 -1.32291 0
M  V30 3092 O 294.288 1.02058 -1.6121 0
M  V30 3093 C 291.428 1.43983 -3.13629 0
M  V30 3094 C 290.541 0.804772 -4.24438 0
M  V30 3095 C 289.676 1.86822 -4.97263 0
M  V30 3096 C 288.715 1.21236 -5.99973 0
M  V30 3097 N 287.852 2.2178 -6.66152 0
M  V30 3098 H 292.692 -0.311186 -2.96371 0
M  V30 3099 H 290.229 -0.165308 -1.46168 0
M  V30 3100 H 292.187 2.08161 -3.61559 0
M  V30 3101 H 290.817 2.07307 -2.47434 0
M  V30 3102 H 289.869 0.0509129 -3.80366 0
M  V30 3103 H 291.181 0.286076 -4.97979 0
M  V30 3104 H 290.335 2.58628 -5.48813 0
M  V30 3105 H 289.074 2.42068 -4.23385 0
M  V30 3106 H 288.079 0.479828 -5.47702 0
M  V30 3107 H 289.304 0.667051 -6.75816 0
M  V30 3108 H 287.25 2.76079 -5.95077 0
M  V30 3109 H 287.167 1.74841 -7.35504 0
M  V30 3110 H 288.435 2.93026 -7.22327 0
M  V30 3111 N 292.664 1.56529 -0.183458 0
M  V30 3112 C 293.627 2.17324 0.728223 0
M  V30 3113 C 294.627 1.12453 1.14939 0
M  V30 3114 O 295.817 1.37902 1.06437 0
M  V30 3115 C 292.949 2.76591 1.99274 0
M  V30 3116 H 294.142 2.99241 0.198772 0
M  V30 3117 H 291.695 1.5616 0.0661391 0
M  V30 3118 H 292.43 1.98441 2.56499 0
M  V30 3119 H 292.215 3.5335 1.69959 0
M  V30 3120 H 293.705 3.23311 2.6431 0
M  V30 3121 N 294.142 -0.090211 1.57342 0
M  V30 3122 C 295.388 -0.793982 1.86611 0
M  V30 3123 C 295.721 -1.78142 0.773252 0
M  V30 3124 O 294.996 -1.93271 -0.218304 0
M  V30 3125 C 295.279 -1.51839 3.26523 0
M  V30 3126 C 295.132 -0.548609 4.46442 0
M  V30 3127 C 296.451 -2.46779 3.64401 0
M  V30 3128 H 293.57 -0.287186 0.678744 0
M  V30 3129 H 296.212 -0.0575076 1.89913 0
M  V30 3130 H 294.362 -2.14617 3.23839 0
M  V30 3131 H 296.034 0.0725513 4.61243 0
M  V30 3132 H 294.277 0.137614 4.33582 0
M  V30 3133 H 294.948 -1.09271 5.41076 0
M  V30 3134 H 297.424 -1.94089 3.68061 0
M  V30 3135 H 296.3 -2.94479 4.63221 0
M  V30 3136 H 296.561 -3.30758 2.93346 0
M  V30 3137 N 295.62 -1.53406 -0.361157 0
M  V30 3138 C 296.568 -1.80832 -1.46296 0
M  V30 3139 C 297.562 -0.677699 -1.55253 0
M  V30 3140 O 298.768 -0.860723 -1.58087 0
M  V30 3141 H 295.143 -0.572627 -0.487445 0
M  V30 3142 H 297.114 -2.73045 -1.20371 0
M  V30 3143 C 295.863 -2.01907 -2.8307 0
M  V30 3144 H 295.186 -2.88349 -2.76938 0
M  V30 3145 H 296.626 -2.25072 -3.59331 0
M  V30 3146 C 295.085 -0.799449 -3.27277 0
M  V30 3147 O 295.615 0.00971761 -4.01699 0
M  V30 3148 N 293.821 -0.621637 -2.83873 0
M  V30 3149 H 293.368 -1.28126 -2.23476 0
M  V30 3150 H 293.326 0.19298 -3.13807 0
M  V30 3151 N 297.098 0.621204 -1.44841 0
M  V30 3152 C 298.061 1.71459 -1.521 0
M  V30 3153 C 299.061 1.55696 -0.401933 0
M  V30 3154 O 300.251 1.61011 -0.664925 0
M  V30 3155 C 297.383 3.10624 -1.40447 0
M  V30 3156 H 298.576 1.66394 -2.49506 0
M  V30 3157 H 296.129 0.835745 -1.3208 0
M  V30 3158 H 296.864 3.21277 -0.441737 0
M  V30 3159 H 296.649 3.23473 -2.21602 0
M  V30 3160 H 298.139 3.90293 -1.4853 0
M  V30 3161 N 298.576 1.31904 0.862503 0
M  V30 3162 C 299.804 1.24998 1.64873 0
M  V30 3163 C 300.219 -0.183425 1.87907 0
M  V30 3164 O 299.576 -1.11794 1.44251 0
M  V30 3165 C 299.627 1.99829 3.01248 0
M  V30 3166 O 299.348 3.37575 2.79239 0
M  V30 3167 C 300.849 1.99852 3.95694 0
M  V30 3168 H 298.069 0.431599 0.513773 0
M  V30 3169 H 300.613 1.73901 1.07604 0
M  V30 3170 H 298.768 1.54668 3.55185 0
M  V30 3171 H 299.182 3.75776 3.65914 0
M  V30 3172 H 300.656 2.56709 4.88676 0
M  V30 3173 H 301.133 0.982852 4.28062 0
M  V30 3174 H 301.739 2.44926 3.47694 0
M  V30 3175 N 300.054 -1.07777 1.14986 0
M  V30 3176 C 301.282 -1.84018 0.945773 0
M  V30 3177 C 301.697 -1.81897 -0.505863 0
M  V30 3178 O 301.054 -1.22726 -1.35072 0
M  V30 3179 C 301.105 -3.31287 1.44677 0
M  V30 3180 O 300.826 -3.33449 2.84154 0
M  V30 3181 C 302.327 -4.24311 1.28355 0
M  V30 3182 H 299.547 -0.580716 0.336169 0
M  V30 3183 H 302.091 -1.36077 1.52654 0
M  V30 3184 H 300.246 -3.76594 0.908625 0
M  V30 3185 H 300.66 -4.25427 3.06777 0
M  V30 3186 H 302.134 -5.2573 1.68261 0
M  V30 3187 H 302.611 -4.38612 0.227184 0
M  V30 3188 H 303.217 -3.84836 1.81056 0
M  V30 3189 N 301.532 -0.945985 -1.26051 0
M  V30 3190 C 302.442 -0.465633 -2.29933 0
M  V30 3191 C 303.458 0.462761 -1.67733 0
M  V30 3192 O 304.634 0.341118 -1.9849 0
M  V30 3193 C 301.699 0.256994 -3.45746 0
M  V30 3194 C 300.76 -0.708549 -4.23412 0
M  V30 3195 C 299.993 -0.0203135 -5.33696 0
M  V30 3196 O 300.216 1.19571 -5.57726 0
M  V30 3197 O 299.15 -0.701459 -5.97799 0
M  V30 3198 H 302.976 -1.32866 -2.73094 0
M  V30 3199 H 300.561 -0.712071 -1.31339 0
M  V30 3200 H 302.443 0.663852 -4.16138 0
M  V30 3201 H 301.118 1.09533 -3.04605 0
M  V30 3202 H 300.025 -1.16545 -3.55483 0
M  V30 3203 H 301.358 -1.51465 -4.68315 0
M  V30 3204 N 303.011 1.40521 -0.713556 0
M  V30 3205 C 304.427 1.54839 -0.386907 0
M  V30 3206 C 304.627 1.68532 1.1045 0
M  V30 3207 O 303.683 1.67377 1.89053 0
M  V30 3208 C 304.996 2.77792 -1.15118 0
M  V30 3209 C 306.544 2.91607 -1.13729 0
M  V30 3210 C 307.019 4.1747 -1.88368 0
M  V30 3211 N 308.51 4.24466 -1.85427 0
M  V30 3212 C 309.245 5.20755 -2.40004 0
M  V30 3213 N 308.741 6.22965 -3.03129 0
M  V30 3214 N 310.534 5.1282 -2.30158 0
M  V30 3215 H 302.685 1.29879 -1.68063 0
M  V30 3216 H 304.948 0.627896 -0.710247 0
M  V30 3217 H 304.654 2.73944 -2.20561 0
M  V30 3218 H 304.528 3.6984 -0.741477 0
M  V30 3219 H 306.915 2.94959 -0.0910608 0
M  V30 3220 H 306.996 2.00682 -1.5862 0
M  V30 3221 H 306.64 4.1488 -2.9298 0
M  V30 3222 H 306.57 5.074 -1.40898 0
M  V30 3223 H 309.061 3.51241 -1.3942 0
M  V30 3224 H 309.374 6.92859 -3.42295 0
M  V30 3225 H 307.719 6.23415 -3.07212 0
M  V30 3226 H 310.91 4.31899 -1.80501 0
M  V30 3227 H 311.083 5.87689 -2.72993 0
M  V30 3228 N 304.489 0.459591 1.5075 0
M  V30 3229 C 305.419 -0.330644 2.31147 0
M  V30 3230 C 306.4 -1.00087 1.37538 0
M  V30 3231 O 307.585 -1.00025 1.66459 0
M  V30 3232 C 304.715 -1.41958 3.16962 0
M  V30 3233 C 303.669 -0.871608 4.19031 0
M  V30 3234 C 302.995 -2.05797 4.9351 0
M  V30 3235 C 304.295 0.109251 5.22186 0
M  V30 3236 H 305.989 0.340336 2.97459 0
M  V30 3237 H 303.535 0.165119 1.4305 0
M  V30 3238 H 305.488 -1.9798 3.71997 0
M  V30 3239 H 304.212 -2.11917 2.48513 0
M  V30 3240 H 302.871 -0.333442 3.6508 0
M  V30 3241 H 302.519 -2.74427 4.21544 0
M  V30 3242 H 302.219 -1.6976 5.62544 0
M  V30 3243 H 303.743 -2.62331 5.51375 0
M  V30 3244 H 305.157 -0.361405 5.7216 0
M  V30 3245 H 303.554 0.383316 5.98875 0
M  V30 3246 H 304.624 1.03887 4.73641 0
M  V30 3247 N 305.967 -1.56429 0.191757 0
M  V30 3248 C 307.214 -1.97485 -0.447891 0
M  V30 3249 C 307.542 -1.07852 -1.61859 0
M  V30 3250 O 306.797 -0.116903 -1.95351 0
M  V30 3251 C 307.096 -3.44449 -0.953384 0
M  V30 3252 C 306.762 -4.50781 0.103586 0
M  V30 3253 C 305.424 -4.79584 0.394023 0
M  V30 3254 C 307.776 -5.1471 0.819946 0
M  V30 3255 C 305.104 -5.69607 1.40585 0
M  V30 3256 C 307.456 -6.05827 1.8209 0
M  V30 3257 C 306.12 -6.32987 2.11857 0
M  V30 3258 H 305.39 -0.722648 -0.163895 0
M  V30 3259 H 308.037 -1.89322 0.28802 0
M  V30 3260 H 306.342 -3.49666 -1.76751 0
M  V30 3261 H 308.039 -3.73569 -1.45765 0
M  V30 3262 H 304.629 -4.28394 -0.132951 0
M  V30 3263 H 308.813 -4.92552 0.608789 0
M  V30 3264 H 304.069 -5.88926 1.64243 0
M  V30 3265 H 308.243 -6.54424 2.38123 0
M  V30 3266 H 305.87 -7.02544 2.90407 0
M  V30 3267 N 307.445 0.0818655 -1.57387 0
M  V30 3268 C 308.67 0.799946 -1.91352 0
M  V30 3269 C 309.095 1.70833 -0.787258 0
M  V30 3270 O 308.453 1.79419 0.26048 0
M  V30 3271 C 308.501 1.57812 -3.24234 0
M  V30 3272 O 307.605 2.68806 -3.12757 0
M  V30 3273 H 306.946 0.21891 -0.626877 0
M  V30 3274 H 309.476 0.0531256 -2.04531 0
M  V30 3275 H 309.486 1.95952 -3.57864 0
M  V30 3276 H 308.161 0.911548 -4.05788 0
M  V30 3277 H 306.738 2.33597 -2.90666 0
M  V30 3278 N 308.923 1.53595 0.353017 0
M  V30 3279 C 309.833 1.83897 1.45667 0
M  V30 3280 C 310.849 0.728334 1.58023 0
M  V30 3281 O 312.025 1.01968 1.73679 0
M  V30 3282 C 309.09 2.03383 2.80778 0
M  V30 3283 C 308.151 3.27262 2.77845 0
M  V30 3284 C 307.384 3.45809 4.06512 0
M  V30 3285 O 307.607 2.68387 5.03314 0
M  V30 3286 O 306.541 4.39207 4.11559 0
M  V30 3287 H 310.367 2.77686 1.2298 0
M  V30 3288 H 307.952 1.39132 0.544308 0
M  V30 3289 H 309.834 2.17698 3.60812 0
M  V30 3290 H 308.509 1.12783 3.03417 0
M  V30 3291 H 307.416 3.18359 1.96465 0
M  V30 3292 H 308.749 4.17824 2.60161 0
M  V30 3293 N 310.401 -0.613514 1.45168 0
M  V30 3294 C 311.812 -1.19539 1.43413 0
M  V30 3295 C 312.163 -1.95558 0.158632 0
M  V30 3296 O 311.288 -2.0335 -0.740119 0
M  V30 3297 C 311.883 -2.17445 2.59813 0
M  V30 3298 C 310.442 -2.71022 2.61197 0
M  V30 3299 C 309.589 -1.46323 2.35552 0
M  V30 3300 H 312.54 -0.403163 1.53494 0
M  V30 3301 H 312.561 -3.00373 2.33574 0
M  V30 3302 H 312.073 -1.62089 3.52631 0
M  V30 3303 H 310.174 -3.30332 1.7237 0
M  V30 3304 H 310.287 -3.15859 3.60236 0
M  V30 3305 H 308.651 -1.75072 1.84992 0
M  V30 3306 H 309.434 -0.92844 3.30507 0
M  V30 3307 N 311.879 -1.3236 -0.855495 0
M  V30 3308 C 312.809 -1.23833 -1.97958 0
M  V30 3309 C 313.79 -0.122361 -1.69659 0
M  V30 3310 O 314.975 -0.30939 -1.9172 0
M  V30 3311 C 312.105 -0.959772 -3.33775 0
M  V30 3312 C 311.059 -2.03689 -3.76424 0
M  V30 3313 C 310.385 -1.61075 -5.09862 0
M  V30 3314 C 311.685 -3.4518 -3.9198 0
M  V30 3315 H 313.379 -2.1788 -2.0535 0
M  V30 3316 H 310.925 -1.04891 -0.986605 0
M  V30 3317 H 312.878 -0.886678 -4.11966 0
M  V30 3318 H 311.602 0.0163404 -3.26596 0
M  V30 3319 H 310.261 -2.10012 -3.00484 0
M  V30 3320 H 309.909 -0.622107 -4.99138 0
M  V30 3321 H 309.609 -2.33143 -5.39368 0
M  V30 3322 H 311.133 -1.55201 -5.90546 0
M  V30 3323 H 312.547 -3.4145 -4.60526 0
M  V30 3324 H 310.944 -4.1559 -4.32903 0
M  V30 3325 H 312.014 -3.84903 -2.94919 0
M  V30 3326 N 313.357 1.07166 -1.15556 0
M  V30 3327 C 314.634 1.76546 -0.842069 0
M  V30 3328 C 315.014 2.00453 0.661939 0
M  V30 3329 O 314.362 1.62452 1.60691 0
M  V30 3330 C 314.572 3.07266 -1.65495 0
M  V30 3331 C 315.92 3.81578 -1.86234 0
M  V30 3332 O 316.944 3.17083 -1.62287 0
M  V30 3333 O 315.803 4.97419 -2.26355 0
M  V30 3334 H 312.897 0.766756 -0.309862 0
M  V30 3335 H 315.443 1.13514 -1.26145 0
M  V30 3336 H 314.215 2.85494 -2.67598 0
M  V30 3337 H 313.838 3.7803 -1.23203 0
M  V30 3338 N 314.835 0.952656 1.25548 0
M  V30 3339 C 315.785 0.442033 2.23674 0
M  V30 3340 C 316.769 -0.467632 1.53955 0
M  V30 3341 O 317.961 -0.301006 1.74422 0
M  V30 3342 C 315.09 -0.280816 3.4215 0
M  V30 3343 C 314.176 0.646803 4.19139 0
M  V30 3344 N 314.567 1.77759 4.73535 0
M  V30 3345 C 312.865 0.454617 4.43677 0
M  V30 3346 C 313.566 2.35658 5.31827 0
M  V30 3347 N 312.542 1.64333 5.18166 0
M  V30 3348 H 316.344 1.30505 2.63336 0
M  V30 3349 H 313.858 0.809904 1.40763 0
M  V30 3350 H 315.855 -0.663747 4.11582 0
M  V30 3351 H 314.515 -1.14046 3.04012 0
M  V30 3352 H 315.526 2.15949 4.7073 0
M  V30 3353 H 312.203 -0.362312 4.15925 0
M  V30 3354 H 313.593 3.30998 5.84713 0
M  V30 3355 N 316.313 -1.40141 0.720998 0
M  V30 3356 C 317.729 -1.54632 0.395113 0
M  V30 3357 C 317.929 -1.69115 -1.09555 0
M  V30 3358 O 316.985 -1.68377 -1.88163 0
M  V30 3359 C 318.298 -2.77177 1.1659 0
M  V30 3360 C 319.846 -2.91 1.15274 0
M  V30 3361 C 320.321 -4.16465 1.90579 0
M  V30 3362 N 321.812 -4.23476 1.87675 0
M  V30 3363 C 322.547 -5.19475 2.42762 0
M  V30 3364 N 322.043 -6.21348 3.06428 0
M  V30 3365 N 323.836 -5.11592 2.32874 0
M  V30 3366 H 315.987 -1.28986 1.68749 0
M  V30 3367 H 318.25 -0.62412 0.713567 0
M  V30 3368 H 317.956 -2.72771 2.22011 0
M  V30 3369 H 317.83 -3.69442 0.76108 0
M  V30 3370 H 320.217 -2.94907 0.106702 0
M  V30 3371 H 320.298 -1.99838 1.59682 0
M  V30 3372 H 319.942 -4.1332 2.95176 0
M  V30 3373 H 319.872 -5.06646 1.43587 0
M  V30 3374 H 322.363 -3.50497 1.41281 0
M  V30 3375 H 322.676 -6.91034 3.45965 0
M  V30 3376 H 321.021 -6.21777 3.10514 0
M  V30 3377 H 324.212 -4.30936 1.82789 0
M  V30 3378 H 324.385 -5.86233 2.76106 0
M  V30 3379 N 317.792 -0.46758 -1.50504 0
M  V30 3380 C 319.04 0.0884469 -2.01906 0
M  V30 3381 C 319.361 1.40532 -1.35188 0
M  V30 3382 O 318.631 1.89515 -0.496079 0
M  V30 3383 H 317.211 0.0356765 -0.746148 0
M  V30 3384 H 319.873 -0.6172 -1.84869 0
M  V30 3385 H 318.969 0.2425 -3.11156 0
M  V30 3386 N 319.27 1.56325 -0.20005 0
M  V30 3387 C 320.18 2.22931 0.730668 0
M  V30 3388 C 321.196 1.22997 1.23076 0
M  V30 3389 O 322.372 1.55748 1.27689 0
M  V30 3390 C 319.437 2.87948 1.93098 0
M  V30 3391 C 318.498 4.03166 1.47497 0
M  V30 3392 C 317.731 4.65073 2.61807 0
M  V30 3393 O 317.954 4.25913 3.79413 0
M  V30 3394 O 316.888 5.54452 2.34237 0
M  V30 3395 H 320.714 3.03084 0.193391 0
M  V30 3396 H 318.299 1.49371 0.0294621 0
M  V30 3397 H 320.181 3.29063 2.6324 0
M  V30 3398 H 318.856 2.10771 2.45677 0
M  V30 3399 H 317.763 3.66664 0.742201 0
M  V30 3400 H 319.096 4.82022 0.995796 0
M  V30 3401 N 320.748 -0.0735177 1.57428 0
M  V30 3402 C 321.994 -0.774145 1.87443 0
M  V30 3403 C 322.327 -1.77311 0.792103 0
M  V30 3404 O 321.602 -1.93492 -0.197793 0
M  V30 3405 C 321.885 -1.48367 3.28115 0
M  V30 3406 C 321.738 -0.501227 4.46999 0
M  V30 3407 C 323.057 -2.429 3.66998 0
M  V30 3408 H 320.176 -0.279971 0.681752 0
M  V30 3409 H 322.818 -0.0373616 1.89963 0
M  V30 3410 H 320.968 -2.11171 3.26097 0
M  V30 3411 H 322.64 0.121468 4.6114 0
M  V30 3412 H 320.883 0.183593 4.33411 0
M  V30 3413 H 321.554 -1.03526 5.42205 0
M  V30 3414 H 324.03 -1.90175 3.70098 0
M  V30 3415 H 322.906 -2.89549 4.66318 0
M  V30 3416 H 323.167 -3.27628 2.96837 0
M  V30 3417 N 322.226 -1.5378 -0.344866 0
M  V30 3418 C 323.472 -1.71216 -1.08687 0
M  V30 3419 C 323.805 -0.473281 -1.88345 0
M  V30 3420 O 323.08 0.52968 -1.87149 0
M  V30 3421 C 323.363 -2.97486 -2.02914 0
M  V30 3422 C 323.216 -4.31579 -1.26727 0
M  V30 3423 C 324.535 -3.19422 -3.0275 0
M  V30 3424 H 321.654 -0.62301 -0.393735 0
M  V30 3425 H 324.296 -1.8645 -0.365563 0
M  V30 3426 H 322.446 -2.84629 -2.64421 0
M  V30 3427 H 324.118 -4.56284 -0.67845 0
M  V30 3428 H 322.361 -4.30049 -0.569273 0
M  V30 3429 H 323.032 -5.16106 -1.95803 0
M  V30 3430 H 325.508 -3.316 -2.51357 0
M  V30 3431 H 324.384 -4.09169 -3.65885 0
M  V30 3432 H 324.645 -2.35656 -3.74057 0
M  V30 3433 N 323.704 0.605807 -1.45491 0
M  V30 3434 C 324.634 1.72709 -1.57143 0
M  V30 3435 C 325.615 1.6476 -0.422884 0
M  V30 3436 O 326.8 1.83132 -0.646247 0
M  V30 3437 C 323.93 3.11316 -1.53948 0
M  V30 3438 C 322.884 3.34077 -2.67537 0
M  V30 3439 C 322.21 4.72975 -2.49397 0
M  V30 3440 C 323.51 3.24158 -4.09535 0
M  V30 3441 H 325.204 1.63214 -2.51001 0
M  V30 3442 H 322.75 0.78379 -1.208 0
M  V30 3443 H 324.703 3.89557 -1.60696 0
M  V30 3444 H 323.427 3.21655 -0.566205 0
M  V30 3445 H 322.086 2.58227 -2.6022 0
M  V30 3446 H 321.734 4.8005 -1.50205 0
M  V30 3447 H 321.434 4.8916 -3.25571 0
M  V30 3448 H 322.958 5.53414 -2.58002 0
M  V30 3449 H 324.372 3.92271 -4.18086 0
M  V30 3450 H 322.769 3.51872 -4.86113 0
M  V30 3451 H 323.839 2.2157 -4.31317 0
M  V30 3452 N 325.182 1.32811 0.848464 0
M  V30 3453 C 326.428 1.23907 1.60546 0
M  V30 3454 C 326.761 -0.197161 1.93197 0
M  V30 3455 O 326.036 -1.13596 1.5788 0
M  V30 3456 C 326.319 2.10489 2.92175 0
M  V30 3457 C 326.172 3.62522 2.66266 0
M  V30 3458 C 327.491 1.97075 3.93509 0
M  V30 3459 H 324.61 0.451459 0.58254 0
M  V30 3460 H 327.252 1.62818 0.979296 0
M  V30 3461 H 325.402 1.77434 3.45614 0
M  V30 3462 H 327.074 4.05821 2.19334 0
M  V30 3463 H 325.317 3.84879 2.00126 0
M  V30 3464 H 325.988 4.18437 3.6002 0
M  V30 3465 H 328.464 2.26045 3.49346 0
M  V30 3466 H 327.34 2.59923 4.83457 0
M  V30 3467 H 327.601 0.940186 4.31987 0
M  V30 3468 N 326.66 -1.06551 1.16123 0
M  V30 3469 C 327.908 -1.78947 0.939267 0
M  V30 3470 C 328.229 -1.87532 -0.534476 0
M  V30 3471 O 327.499 -1.38211 -1.38833 0
M  V30 3472 H 326.079 -0.662807 0.344523 0
M  V30 3473 H 328.741 -1.28725 1.46342 0
M  V30 3474 H 327.837 -2.81117 1.35572 0
M  V30 3475 N 328.138 -0.959301 -1.25041 0
M  V30 3476 C 329.101 -0.487677 -2.23952 0
M  V30 3477 C 330.101 0.41119 -1.55454 0
M  V30 3478 O 331.291 0.207825 -1.72956 0
M  V30 3479 C 328.423 0.294807 -3.39623 0
M  V30 3480 H 329.616 -1.36198 -2.67189 0
M  V30 3481 H 327.169 -0.743042 -1.37508 0
M  V30 3482 H 327.904 1.18658 -3.01813 0
M  V30 3483 H 327.689 -0.35012 -3.90534 0
M  V30 3484 H 329.179 0.614089 -4.1306 0
M  V30 3485 N 329.616 1.39756 -0.72842 0
M  V30 3486 C 330.864 2.00248 -0.272946 0
M  V30 3487 C 331.185 1.58077 1.14178 0
M  V30 3488 O 330.455 0.826014 1.77634 0
M  V30 3489 H 329.035 0.740554 -0.0979247 0
M  V30 3490 H 331.697 1.70903 -0.936912 0
M  V30 3491 H 330.793 3.10495 -0.316142 0
M  V30 3492 N 331.094 0.475555 1.50254 0
M  V30 3493 C 332.505 0.0215174 1.86688 0
M  V30 3494 C 332.856 -1.38467 1.39001 0
M  V30 3495 O 331.981 -2.02732 0.756894 0
M  V30 3496 C 332.576 0.0322715 3.38785 0
M  V30 3497 C 331.135 -0.366314 3.74613 0
M  V30 3498 C 330.282 0.415832 2.74164 0
M  V30 3499 H 333.233 0.689612 1.42934 0
M  V30 3500 H 333.254 -0.76889 3.7265 0
M  V30 3501 H 332.766 1.05584 3.73462 0
M  V30 3502 H 330.867 -1.39406 3.45538 0
M  V30 3503 H 330.98 -0.064555 4.79057 0
M  V30 3504 H 329.344 -0.131048 2.54363 0
M  V30 3505 H 330.127 1.43899 3.11686 0
M  V30 3506 N 332.573 -1.56217 0.208337 0
M  V30 3507 C 333.821 -1.97558 -0.426076 0
M  V30 3508 C 334.142 -1.09683 -1.61229 0
M  V30 3509 O 333.412 -0.170956 -1.95153 0
M  V30 3510 H 331.992 -0.729575 -0.160405 0
M  V30 3511 H 334.654 -1.92606 0.298155 0
M  V30 3512 H 333.75 -3.02672 -0.761312 0
M  V30 3513 N 334.051 0.0651679 -1.57465 0
M  V30 3514 C 335.328 0.79644 -1.78651 0
M  V30 3515 C 335.708 1.95454 -0.797566 0
M  V30 3516 O 335.056 2.27882 0.167946 0
M  V30 3517 C 335.266 1.26322 -3.25337 0
M  V30 3518 C 336.614 1.6939 -3.89348 0
M  V30 3519 O 337.638 1.35872 -3.29268 0
M  V30 3520 O 336.497 2.31471 -4.95059 0
M  V30 3521 H 333.591 0.382157 -0.733407 0
M  V30 3522 H 336.137 0.0447311 -1.69641 0
M  V30 3523 H 334.909 0.434859 -3.88876 0
M  V30 3524 H 334.532 2.07604 -3.39096 0
M  V30 3525 N 335.529 1.53961 0.336706 0
M  V30 3526 C 336.492 1.81724 1.39675 0
M  V30 3527 C 337.492 0.688532 1.45313 0
M  V30 3528 O 338.682 0.956829 1.45569 0
M  V30 3529 C 335.814 1.96543 2.78538 0
M  V30 3530 H 337.007 2.76424 1.16318 0
M  V30 3531 H 334.56 1.45478 0.571474 0
M  V30 3532 H 335.295 1.0401 3.07168 0
M  V30 3533 H 335.08 2.78665 2.75841 0
M  V30 3534 H 336.57 2.19516 3.5525 0
M  V30 3535 N 337.007 -0.598083 1.45811 0
M  V30 3536 C 338.255 -1.35413 1.50026 0
M  V30 3537 C 338.576 -1.94444 0.147177 0
M  V30 3538 O 337.846 -1.77701 -0.824571 0
M  V30 3539 H 336.426 -0.502727 0.552517 0
M  V30 3540 H 339.088 -0.701606 1.81834 0
M  V30 3541 H 338.184 -2.16871 2.2444 0
M  V30 3542 N 338.485 -1.33259 -0.841409 0
M  V30 3543 C 339.415 -1.25926 -1.96634 0
M  V30 3544 C 340.396 -0.140349 -1.6952 0
M  V30 3545 O 341.581 -0.329707 -1.91381 0
M  V30 3546 C 338.711 -0.99512 -3.32738 0
M  V30 3547 C 337.665 -2.0767 -3.74242 0
M  V30 3548 C 336.991 -1.66474 -5.08125 0
M  V30 3549 C 338.291 -3.49318 -3.88297 0
M  V30 3550 H 339.985 -2.20046 -2.03027 0
M  V30 3551 H 337.531 -1.05931 -0.975425 0
M  V30 3552 H 339.484 -0.930323 -4.11002 0
M  V30 3553 H 338.208 -0.0183004 -3.26595 0
M  V30 3554 H 336.867 -2.13187 -2.98239 0
M  V30 3555 H 336.515 -0.675012 -4.9845 0
M  V30 3556 H 336.215 -2.3885 -5.36865 0
M  V30 3557 H 337.739 -1.61455 -5.88867 0
M  V30 3558 H 339.153 -3.46316 -4.56879 0
M  V30 3559 H 337.55 -4.20158 -4.28471 0
M  V30 3560 H 338.62 -3.8801 -2.9082 0
M  V30 3561 N 339.963 1.05934 -1.16686 0
M  V30 3562 C 340.893 2.1546 -0.899949 0
M  V30 3563 C 341.874 1.69391 0.155154 0
M  V30 3564 O 343.059 1.94199 0.00648693 0
M  V30 3565 C 340.189 3.44939 -0.404241 0
M  V30 3566 C 339.143 4.04536 -1.39767 0
M  V30 3567 C 338.469 5.29268 -0.760216 0
M  V30 3568 C 339.769 4.42893 -2.76845 0
M  V30 3569 H 341.463 2.38046 -1.81588 0
M  V30 3570 H 339.009 1.14404 -0.874514 0
M  V30 3571 H 340.962 4.20901 -0.204971 0
M  V30 3572 H 339.686 3.21983 0.547206 0
M  V30 3573 H 338.345 3.30635 -1.58355 0
M  V30 3574 H 337.993 5.02611 0.197831 0
M  V30 3575 H 337.693 5.70101 -1.42332 0
M  V30 3576 H 339.217 6.07924 -0.57105 0
M  V30 3577 H 340.631 5.09921 -2.62019 0
M  V30 3578 H 339.028 4.94721 -3.39663 0
M  V30 3579 H 340.098 3.53584 -3.31823 0
M  V30 3580 N 341.441 0.965919 1.2453 0
M  V30 3581 C 342.669 0.644385 1.96609 0
M  V30 3582 C 343.084 -0.785823 1.71669 0
M  V30 3583 O 342.441 -1.52703 0.999399 0
M  V30 3584 C 342.492 0.907375 3.49927 0
M  V30 3585 O 342.213 2.28136 3.74013 0
M  V30 3586 C 343.714 0.599784 4.39224 0
M  V30 3587 H 340.934 0.240588 0.626385 0
M  V30 3588 H 343.478 1.29337 1.58405 0
M  V30 3589 H 341.633 0.304631 3.862 0
M  V30 3590 H 342.047 2.36002 4.68405 0
M  V30 3591 H 343.521 0.834263 5.45659 0
M  V30 3592 H 343.998 -0.465921 4.36722 0
M  V30 3593 H 344.604 1.18235 4.08535 0
M  V30 3594 N 342.919 -1.39368 0.735821 0
M  V30 3595 C 343.849 -2.33234 0.111506 0
M  V30 3596 C 344.83 -1.53954 -0.723334 0
M  V30 3597 O 346.015 -1.82344 -0.668147 0
M  V30 3598 C 343.145 -3.38057 -0.795917 0
M  V30 3599 C 342.099 -4.2795 -0.065172 0
M  V30 3600 C 341.425 -5.23479 -1.08967 0
M  V30 3601 C 342.725 -5.10741 1.09273 0
M  V30 3602 H 344.419 -2.85692 0.895571 0
M  V30 3603 H 341.965 -1.37364 0.432109 0
M  V30 3604 H 343.918 -4.02675 -1.24221 0
M  V30 3605 H 342.642 -2.8404 -1.61211 0
M  V30 3606 H 341.301 -3.64813 0.361511 0
M  V30 3607 H 340.949 -4.65758 -1.89944 0
M  V30 3608 H 340.649 -5.84472 -0.605489 0
M  V30 3609 H 342.173 -5.90974 -1.53565 0
M  V30 3610 H 343.587 -5.68699 0.724841 0
M  V30 3611 H 341.984 -5.8088 1.50659 0
M  V30 3612 H 343.054 -4.45525 1.91404 0
M  V30 3613 N 344.397 -0.483516 -1.5 0
M  V30 3614 C 345.344 0.304164 -2.28787 0
M  V30 3615 C 346.314 0.976114 -1.34392 0
M  V30 3616 O 347.499 0.986156 -1.63339 0
M  V30 3617 C 344.639 1.37298 -3.16612 0
M  V30 3618 C 343.752 0.714561 -4.26049 0
M  V30 3619 C 342.887 1.76232 -5.01114 0
M  V30 3620 C 341.926 1.08483 -6.0241 0
M  V30 3621 N 341.063 2.076 -6.70706 0
M  V30 3622 H 345.903 -0.373981 -2.95644 0
M  V30 3623 H 343.44 -0.196275 -1.45785 0
M  V30 3624 H 345.398 2.00445 -3.65893 0
M  V30 3625 H 344.028 2.02012 -2.51776 0
M  V30 3626 H 343.08 -0.0297798 -3.80388 0
M  V30 3627 H 344.392 0.180383 -4.98474 0
M  V30 3628 H 343.546 2.46929 -5.54176 0
M  V30 3629 H 342.285 2.33033 -4.28424 0
M  V30 3630 H 341.29 0.363545 -5.48597 0
M  V30 3631 H 342.515 0.523551 -6.77079 0
M  V30 3632 H 340.461 2.63394 -6.00799 0
M  V30 3633 H 340.378 1.59201 -7.39047 0
M  V30 3634 H 341.646 2.77639 -7.2838 0
M  V30 3635 N 345.875 1.56104 -0.216619 0
M  V30 3636 C 347.123 1.97781 0.415593 0
M  V30 3637 C 347.444 1.10536 1.60645 0
M  V30 3638 O 346.714 0.181303 1.95059 0
M  V30 3639 H 345.294 0.730415 0.156534 0
M  V30 3640 H 347.956 1.92445 -0.308366 0
M  V30 3641 H 347.052 3.03072 0.74525 0
M  V30 3642 N 347.353 -0.0568162 1.57498 0
M  V30 3643 C 348.283 -1.06593 2.0775 0
M  V30 3644 C 349.264 -1.39448 0.974082 0
M  V30 3645 O 350.449 -1.48815 1.24771 0
M  V30 3646 C 347.579 -2.37509 2.5339 0
M  V30 3647 C 346.533 -2.1897 3.67745 0
M  V30 3648 C 345.859 -3.55402 3.99492 0
M  V30 3649 C 347.159 -1.59859 4.97235 0
M  V30 3650 H 348.853 -0.647706 2.9231 0
M  V30 3651 H 346.399 -0.310116 1.40621 0
M  V30 3652 H 348.352 -3.08409 2.87162 0
M  V30 3653 H 347.076 -2.8134 1.65878 0
M  V30 3654 H 345.735 -1.50508 3.3428 0
M  V30 3655 H 345.383 -3.9683 3.09088 0
M  V30 3656 H 345.083 -3.43831 4.76502 0
M  V30 3657 H 346.607 -4.27708 4.35773 0
M  V30 3658 H 348.021 -2.20642 5.29141 0
M  V30 3659 H 346.418 -1.58942 5.78669 0
M  V30 3660 H 347.488 -0.561506 4.81638 0
M  V30 3661 N 348.832 -1.54138 -0.328536 0
M  V30 3662 C 349.764 -1.79509 -1.4251 0
M  V30 3663 C 350.777 -0.67688 -1.48061 0
M  V30 3664 O 351.966 -0.953898 -1.50874 0
M  V30 3665 C 349.066 -1.89337 -2.81078 0
M  V30 3666 C 348.239 -3.19443 -2.98789 0
M  V30 3667 C 347.298 -3.20036 -4.17688 0
M  V30 3668 O 346.324 -3.93697 -4.11086 0
M  V30 3669 N 347.526 -2.43467 -5.26976 0
M  V30 3670 H 350.291 -2.74139 -1.21111 0
M  V30 3671 H 347.852 -1.53373 -0.518499 0
M  V30 3672 H 349.844 -1.87167 -3.58818 0
M  V30 3673 H 348.414 -1.01826 -2.95551 0
M  V30 3674 H 347.634 -3.34614 -2.08391 0
M  V30 3675 H 348.922 -4.05354 -3.07515 0
M  V30 3676 H 348.32 -1.83201 -5.35214 0
M  V30 3677 H 346.877 -2.4708 -6.03154 0
M  V30 3678 N 350.31 0.590341 -1.46126 0
M  V30 3679 C 351.242 1.71427 -1.52136 0
M  V30 3680 C 352.255 1.57542 -0.41042 0
M  V30 3681 O 353.444 1.65106 -0.678389 0
M  V30 3682 C 350.544 3.09605 -1.37834 0
M  V30 3683 C 349.717 3.49566 -2.62912 0
M  V30 3684 C 348.776 4.66773 -2.42918 0
M  V30 3685 O 347.802 4.73019 -3.1661 0
M  V30 3686 N 349.004 5.61161 -1.4859 0
M  V30 3687 H 351.769 1.66728 -2.49042 0
M  V30 3688 H 349.33 0.776113 -1.42085 0
M  V30 3689 H 351.322 3.85796 -1.22243 0
M  V30 3690 H 349.892 3.08714 -0.491393 0
M  V30 3691 H 349.112 2.63158 -2.93499 0
M  V30 3692 H 350.4 3.73028 -3.46017 0
M  V30 3693 H 349.798 5.58844 -0.87808 0
M  V30 3694 H 348.355 6.36814 -1.38965 0
M  V30 3695 N 351.788 1.33704 0.83433 0
M  V30 3696 C 353.037 1.24763 1.58484 0
M  V30 3697 C 353.35 -0.183775 1.94735 0
M  V30 3698 O 354.556 -0.395234 2.68608 0
M  V30 3699 C 353.012 2.18638 2.85876 0
M  V30 3700 C 352.62 3.66974 2.56971 0
M  V30 3701 C 354.364 2.18581 3.63899 0
M  V30 3702 C 352.271 4.5275 3.80488 0
M  V30 3703 H 351.201 0.463425 0.594772 0
M  V30 3704 H 353.852 1.58797 0.919551 0
M  V30 3705 H 352.234 1.77542 3.5397 0
M  V30 3706 H 353.408 4.16538 1.9706 0
M  V30 3707 H 351.723 3.69366 1.92244 0
M  V30 3708 H 354.32 2.79894 4.55591 0
M  V30 3709 H 354.663 1.18207 3.99165 0
M  V30 3710 H 355.196 2.58062 3.02735 0
M  V30 3711 H 351.935 5.54017 3.5035 0
M  V30 3712 H 351.455 4.07927 4.39722 0
M  V30 3713 H 353.134 4.66784 4.4802 0
M  V30 3714 N 353.266 -1.05314 1.17247 0
M  V30 3715 C 354.198 -2.13023 0.845812 0
M  V30 3716 C 355.211 -1.62096 -0.151246 0
M  V30 3717 O 356.4 -1.78343 0.0748818 0
M  V30 3718 C 353.5 -3.38047 0.240292 0
M  V30 3719 C 352.673 -4.18255 1.27991 0
M  V30 3720 C 351.732 -5.21625 0.692375 0
M  V30 3721 O 350.758 -5.52619 1.36385 0
M  V30 3722 N 351.96 -5.78201 -0.516178 0
M  V30 3723 H 354.725 -2.41642 1.77283 0
M  V30 3724 H 352.286 -1.21401 1.07115 0
M  V30 3725 H 354.278 -4.04359 -0.16603 0
M  V30 3726 H 352.848 -3.06972 -0.590487 0
M  V30 3727 H 352.068 -3.47451 1.86203 0
M  V30 3728 H 353.356 -4.68643 1.98119 0
M  V30 3729 H 352.754 -5.55301 -1.07969 0
M  V30 3730 H 351.311 -6.4604 -0.86458 0
M  V30 3731 N 354.744 -0.972509 -1.24016 0
M  V30 3732 C 355.676 -0.464375 -2.24446 0
M  V30 3733 C 356.689 0.4295 -1.57032 0
M  V30 3734 O 357.878 0.234902 -1.76948 0
M  V30 3735 C 354.978 0.348385 -3.37105 0
M  V30 3736 C 354.151 -0.53673 -4.34094 0
M  V30 3737 C 353.21 0.220838 -5.25736 0
M  V30 3738 O 352.236 -0.386867 -5.67884 0
M  V30 3739 N 353.438 1.50907 -5.60542 0
M  V30 3740 H 356.203 -1.32788 -2.68677 0
M  V30 3741 H 353.764 -0.844877 -1.38107 0
M  V30 3742 H 355.756 0.863341 -3.95384 0
M  V30 3743 H 354.326 1.11285 -2.92121 0
M  V30 3744 H 353.546 -1.23261 -3.74433 0
M  V30 3745 H 354.834 -1.14022 -4.95859 0
M  V30 3746 H 354.232 2.02444 -5.28236 0
M  V30 3747 H 352.789 1.96962 -6.21329 0
M  V30 3748 N 356.222 1.38976 -0.743202 0
M  V30 3749 C 357.185 2.28901 -0.117014 0
M  V30 3750 C 358.185 1.46698 0.658503 0
M  V30 3751 O 359.375 1.67274 0.486305 0
M  V30 3752 C 356.507 3.30309 0.84315 0
M  V30 3753 H 357.7 2.8578 -0.909373 0
M  V30 3754 H 355.253 1.47761 -0.509547 0
M  V30 3755 H 355.988 2.785 1.66157 0
M  V30 3756 H 355.773 3.91029 0.289594 0
M  V30 3757 H 357.263 3.97577 1.2776 0
M  V30 3758 N 357.7 0.491464 1.49741 0
M  V30 3759 C 358.977 -0.118984 1.95238 0
M  V30 3760 C 359.357 -1.55044 1.43264 0
M  V30 3761 O 358.705 -2.19287 0.642287 0
M  V30 3762 C 358.915 -0.0414187 3.48975 0
M  V30 3763 C 360.263 -0.220133 4.24029 0
M  V30 3764 O 361.287 -0.117055 3.56008 0
M  V30 3765 O 360.146 -0.430567 5.44801 0
M  V30 3766 H 357.24 -0.100536 0.820866 0
M  V30 3767 H 359.786 0.553322 1.60426 0
M  V30 3768 H 358.558 0.957214 3.79412 0
M  V30 3769 H 358.181 -0.754292 3.9038 0
M  V30 3770 N 359.178 -1.55987 0.224894 0
M  V30 3771 C 360.427 -1.97566 -0.406273 0
M  V30 3772 C 360.74 -1.11569 -1.6066 0
M  V30 3773 O 361.946 -1.43062 -2.3075 0
M  V30 3774 C 360.402 -3.51474 -0.774207 0
M  V30 3775 C 360.01 -4.46179 0.403496 0
M  V30 3776 C 361.754 -4.01758 -1.37079 0
M  V30 3777 C 359.661 -5.91399 0.0129412 0
M  V30 3778 H 358.591 -0.737777 -0.155565 0
M  V30 3779 H 361.242 -1.80659 0.321635 0
M  V30 3780 H 359.624 -3.63994 -1.55963 0
M  V30 3781 H 360.798 -4.45409 1.18101 0
M  V30 3782 H 359.113 -4.06255 0.913536 0
M  V30 3783 H 361.71 -5.07756 -1.67596 0
M  V30 3784 H 362.053 -3.47805 -2.28773 0
M  V30 3785 H 362.586 -3.92475 -0.648733 0
M  V30 3786 H 359.325 -6.49341 0.896451 0
M  V30 3787 H 358.845 -5.95356 -0.728821 0
M  V30 3788 H 360.524 -6.45683 -0.412582 0
M  V30 3789 N 360.656 0.0484629 -1.57525 0
M  V30 3790 C 361.902 0.744226 -1.88651 0
M  V30 3791 C 362.235 1.76029 -0.820212 0
M  V30 3792 O 361.51 1.93782 0.166985 0
M  V30 3793 C 361.793 1.43128 -3.30434 0
M  V30 3794 C 361.646 0.43005 -4.47739 0
M  V30 3795 C 362.965 2.37031 -3.70816 0
M  V30 3796 H 360.084 0.269089 -0.68612 0
M  V30 3797 H 362.726 0.00713532 -1.89999 0
M  V30 3798 H 360.876 2.05956 -3.29415 0
M  V30 3799 H 362.548 -0.194816 -4.60888 0
M  V30 3800 H 360.791 -0.252522 -4.33064 0
M  V30 3801 H 361.462 0.948874 -5.43783 0
M  V30 3802 H 363.938 1.84263 -3.73077 0
M  V30 3803 H 362.814 2.82094 -4.70865 0
M  V30 3804 H 363.075 3.22864 -3.02012 0
M  V30 3805 N 362.134 1.5431 0.320358 0
M  V30 3806 C 363.38 1.72924 1.05949 0
M  V30 3807 C 363.713 0.503185 1.87568 0
M  V30 3808 O 362.988 -0.499839 1.87968 0
M  V30 3809 C 363.271 3.00676 1.98156 0
M  V30 3810 C 363.124 4.3354 1.19845 0
M  V30 3811 C 364.443 3.24198 2.9763 0
M  V30 3812 H 361.562 0.629195 0.383774 0
M  V30 3813 H 364.204 1.87008 0.335854 0
M  V30 3814 H 362.354 2.888 2.59859 0
M  V30 3815 H 364.026 4.57305 0.605773 0
M  V30 3816 H 362.269 4.309 0.500784 0
M  V30 3817 H 362.94 5.19156 1.87567 0
M  V30 3818 H 365.416 3.35557 2.4605 0
M  V30 3819 H 364.292 4.14938 3.59329 0
M  V30 3820 H 364.553 2.41577 3.7026 0
M  V30 3821 N 363.613 -0.582584 1.46437 0
M  V30 3822 C 364.843 -1.36484 1.55099 0
M  V30 3823 C 365.251 -1.88233 0.191056 0
M  V30 3824 O 364.594 -1.6429 -0.821858 0
M  V30 3825 C 364.656 -2.588 2.49525 0
M  V30 3826 C 364.32 -2.28517 3.95764 0
M  V30 3827 C 365.317 -1.87346 4.84972 0
M  V30 3828 C 363.002 -2.40658 4.40896 0
M  V30 3829 C 364.996 -1.5871 6.17325 0
M  V30 3830 C 362.683 -2.11635 5.73284 0
M  V30 3831 C 363.681 -1.70725 6.61318 0
M  V30 3832 O 363.369 -1.42057 7.91249 0
M  V30 3833 H 363.101 -0.423297 0.527063 0
M  V30 3834 H 365.655 -0.715188 1.92547 0
M  V30 3835 H 363.885 -3.26571 2.07095 0
M  V30 3836 H 365.574 -3.20868 2.48593 0
M  V30 3837 H 366.34 -1.77481 4.5136 0
M  V30 3838 H 362.219 -2.71463 3.72598 0
M  V30 3839 H 365.763 -1.26704 6.85997 0
M  V30 3840 H 361.66 -2.21124 6.06444 0
M  V30 3841 H 362.428 -1.55901 8.03515 0
M  V30 3842 N 365.091 -1.34144 -0.827227 0
M  V30 3843 C 366.368 -1.16844 -1.56865 0
M  V30 3844 C 366.748 0.260654 -2.09485 0
M  V30 3845 O 366.096 1.26138 -1.9053 0
M  V30 3846 C 366.306 -2.21939 -2.6934 0
M  V30 3847 C 367.654 -2.56695 -3.3822 0
M  V30 3848 O 368.678 -2.20695 -2.79593 0
M  V30 3849 O 367.537 -3.18518 -4.44082 0
M  V30 3850 H 364.631 -0.452669 -0.692112 0
M  V30 3851 H 367.177 -1.45763 -0.868973 0
M  V30 3852 H 365.949 -3.17882 -2.28182 0
M  V30 3853 H 365.572 -1.94172 -3.46962 0
M  V30 3854 N 366.569 1.04691 -1.17803 0
M  V30 3855 C 367.985 1.29963 -0.926379 0
M  V30 3856 C 368.185 1.97251 0.411635 0
M  V30 3857 O 367.241 2.24922 1.14744 0
M  V30 3858 C 368.554 2.16447 -2.08737 0
M  V30 3859 C 370.102 2.29814 -2.12496 0
M  V30 3860 C 370.577 3.19661 -3.27995 0
M  V30 3861 N 372.068 3.27247 -3.27816 0
M  V30 3862 C 372.803 3.96906 -4.13827 0
M  V30 3863 N 372.299 4.6895 -5.09959 0
M  V30 3864 N 374.092 3.93122 -4.01761 0
M  V30 3865 H 366.243 0.594182 -2.0392 0
M  V30 3866 H 368.506 0.324649 -0.890678 0
M  V30 3867 H 368.212 1.74304 -3.05469 0
M  V30 3868 H 368.086 3.17103 -2.04268 0
M  V30 3869 H 370.473 2.71196 -1.16347 0
M  V30 3870 H 370.554 1.2877 -2.21025 0
M  V30 3871 H 370.198 2.78991 -4.24413 0
M  V30 3872 H 370.128 4.20722 -3.16703 0
M  V30 3873 H 372.619 2.75921 -2.58217 0
M  V30 3874 H 372.932 5.19679 -5.71974 0
M  V30 3875 H 371.277 4.67875 -5.13924 0
M  V30 3876 H 374.468 3.35967 -3.2595 0
M  V30 3877 H 374.641 4.47139 -4.6901 0
M  V30 3878 N 368.047 0.979072 1.23499 0
M  V30 3879 C 368.977 0.537606 2.27227 0
M  V30 3880 C 369.958 -0.428539 1.64613 0
M  V30 3881 O 371.143 -0.322191 1.91509 0
M  V30 3882 C 368.273 -0.162052 3.46922 0
M  V30 3883 C 367.227 0.721242 4.21879 0
M  V30 3884 C 366.553 -0.110555 5.34586 0
M  V30 3885 C 367.853 2.01141 4.82016 0
M  V30 3886 H 369.547 1.40462 2.64406 0
M  V30 3887 H 367.093 0.67684 1.27102 0
M  V30 3888 H 369.046 -0.482192 4.18632 0
M  V30 3889 H 367.77 -1.06351 3.08799 0
M  V30 3890 H 366.429 1.02482 3.51984 0
M  V30 3891 H 366.077 -1.0125 4.92704 0
M  V30 3892 H 365.777 0.477325 5.85658 0
M  V30 3893 H 367.301 -0.425107 6.09118 0
M  V30 3894 H 368.715 1.75612 5.45741 0
M  V30 3895 H 367.112 2.54695 5.43369 0
M  V30 3896 H 368.182 2.69909 4.02836 0
M  V30 3897 N 369.525 -1.3858 0.750561 0
M  V30 3898 C 370.771 -2.00481 0.305825 0
M  V30 3899 C 371.104 -1.5944 -1.10872 0
M  V30 3900 O 370.379 -0.83052 -1.75877 0
M  V30 3901 C 370.662 -3.5758 0.425287 0
M  V30 3902 C 370.515 -4.08594 1.88072 0
M  V30 3903 C 371.834 -4.39719 -0.183122 0
M  V30 3904 H 368.953 -0.728348 0.112598 0
M  V30 3905 H 371.595 -1.64566 0.949638 0
M  V30 3906 H 369.745 -3.88306 -0.122828 0
M  V30 3907 H 371.417 -3.88523 2.48691 0
M  V30 3908 H 369.66 -3.61574 2.39681 0
M  V30 3909 H 370.331 -5.177 1.91548 0
M  V30 3910 H 372.807 -4.15128 0.284303 0
M  V30 3911 H 371.683 -5.48856 -0.0692757 0
M  V30 3912 H 371.944 -4.23434 -1.27106 0
M  V30 3913 N 371.003 -0.499398 -1.49478 0
M  V30 3914 C 372.228 0.044722 -2.07352 0
M  V30 3915 C 372.653 1.30207 -1.35749 0
M  V30 3916 O 372.011 1.76516 -0.413732 0
M  V30 3917 C 372.059 0.283013 -3.59488 0
M  V30 3918 O 371.163 1.35804 -3.89398 0
M  V30 3919 H 370.504 -0.0255147 -0.66351 0
M  V30 3920 H 373.034 -0.698561 -1.92305 0
M  V30 3921 H 373.044 0.515007 -4.04737 0
M  V30 3922 H 371.719 -0.635636 -4.11014 0
M  V30 3923 H 370.296 1.11113 -3.55961 0
M  V30 3924 N 372.481 1.55866 -0.233164 0
M  V30 3925 C 373.758 1.90471 0.444988 0
M  V30 3926 C 374.138 1.15209 1.7689 0
M  V30 3927 O 373.486 0.265119 2.26957 0
M  V30 3928 C 373.696 3.4333 0.626559 0
M  V30 3929 C 375.044 4.14319 0.92871 0
M  V30 3930 O 376.068 3.48993 0.712926 0
M  V30 3931 O 374.927 5.29846 1.33887 0
M  V30 3932 H 372.021 0.792347 0.236885 0
M  V30 3933 H 374.567 1.67437 -0.276211 0
M  V30 3934 H 373.339 3.90095 -0.306822 0
M  V30 3935 H 372.962 3.72181 1.39881 0
M  V30 3936 N 373.959 -0.0401083 1.57549 0
M  V30 3937 C 375.236 -0.767917 1.79896 0
M  V30 3938 C 375.616 -1.9416 0.82856 0
M  V30 3939 O 374.964 -2.2812 -0.131671 0
M  V30 3940 C 375.174 -1.2113 3.27305 0
M  V30 3941 C 376.522 -1.63175 3.91994 0
M  V30 3942 O 377.546 -1.30616 3.31388 0
M  V30 3943 O 376.405 -2.23565 4.98679 0
M  V30 3944 H 373.499 -0.370441 0.739393 0
M  V30 3945 H 376.045 -0.017737 1.69691 0
M  V30 3946 H 374.817 -0.372937 3.89519 0
M  V30 3947 H 374.44 -2.02183 3.42356 0
M  V30 3948 N 375.437 -1.54477 -0.31217 0
M  V30 3949 C 376.686 -1.72438 -1.04633 0
M  V30 3950 C 376.999 -0.511163 -1.88803 0
M  V30 3951 O 378.205 -0.572341 -2.65399 0
M  V30 3952 C 376.661 -3.05043 -1.9099 0
M  V30 3953 C 376.269 -4.33806 -1.11877 0
M  V30 3954 C 378.013 -3.32364 -2.64073 0
M  V30 3955 C 375.92 -5.57467 -1.97445 0
M  V30 3956 H 374.85 -0.642647 -0.394361 0
M  V30 3957 H 377.501 -1.80966 -0.303929 0
M  V30 3958 H 375.883 -2.90451 -2.69173 0
M  V30 3959 H 377.057 -4.59199 -0.383843 0
M  V30 3960 H 375.372 -4.13336 -0.504252 0
M  V30 3961 H 377.969 -4.21951 -3.28423 0
M  V30 3962 H 378.312 -2.50745 -3.32314 0
M  V30 3963 H 378.845 -3.47875 -1.92944 0
M  V30 3964 H 375.584 -6.41722 -1.33692 0
M  V30 3965 H 375.104 -5.36277 -2.6864 0
M  V30 3966 H 376.783 -5.94303 -2.5576 0
M  V30 3967 N 376.915 0.57481 -1.46744 0
M  V30 3968 C 377.848 1.69827 -1.52427 0
M  V30 3969 C 378.826 1.58151 -0.377744 0
M  V30 3970 O 380.01 1.79257 -0.58303 0
M  V30 3971 C 377.137 3.07943 -1.41027 0
M  V30 3972 C 376.183 3.38116 -2.59961 0
M  V30 3973 S 377.016 3.29313 -4.22272 0
M  V30 3974 C 378.172 4.69953 -4.13394 0
M  V30 3975 H 378.405 1.64748 -2.47478 0
M  V30 3976 H 375.938 0.754203 -1.34726 0
M  V30 3977 H 377.896 3.87619 -1.35137 0
M  V30 3978 H 376.557 3.10504 -0.473909 0
M  V30 3979 H 375.75 4.38762 -2.47999 0
M  V30 3980 H 375.352 2.66024 -2.62882 0
M  V30 3981 H 377.644 5.60517 -3.80562 0
M  V30 3982 H 378.587 4.86972 -5.14066 0
M  V30 3983 H 378.995 4.47174 -3.44522 0
M  V30 3984 N 378.394 1.34581 0.820102 0
M  V30 3985 C 379.342 1.26401 1.95258 0
M  V30 3986 C 380.336 0.161553 1.68628 0
M  V30 3987 O 381.542 0.326703 1.7701 0
M  V30 3988 H 377.917 0.392749 0.64129 0
M  V30 3989 H 379.888 2.22105 1.99279 0
M  V30 3990 C 378.637 1.03919 3.31807 0
M  V30 3991 H 377.96 1.87984 3.52848 0
M  V30 3992 H 379.4 1.02232 4.11491 0
M  V30 3993 C 377.859 -0.257433 3.35915 0
M  V30 3994 O 378.389 -1.25784 3.81499 0
M  V30 3995 N 376.595 -0.291524 2.89134 0
M  V30 3996 H 376.142 0.523161 2.52232 0
M  V30 3997 H 376.1 -1.15883 2.92264 0
M  V30 3998 N 379.872 -1.04064 1.18357 0
M  V30 3999 C 380.802 -2.14001 0.934113 0
M  V30 4000 C 381.783 -1.69616 -0.128186 0
M  V30 4001 O 382.968 -1.94185 0.0244093 0
M  V30 4002 C 380.098 -3.44253 0.459066 0
M  V30 4003 C 379.052 -4.02261 1.46185 0
M  V30 4004 C 378.378 -5.27992 0.844322 0
M  V30 4005 C 379.678 -4.38432 2.83856 0
M  V30 4006 H 381.372 -2.35127 1.85352 0
M  V30 4007 H 378.918 -1.12998 0.892604 0
M  V30 4008 H 380.871 -4.20522 0.271907 0
M  V30 4009 H 379.595 -3.22813 -0.495912 0
M  V30 4010 H 378.254 -3.28074 1.63595 0
M  V30 4011 H 377.902 -5.02862 -0.117845 0
M  V30 4012 H 377.602 -5.67765 1.51384 0
M  V30 4013 H 379.126 -6.06938 0.667693 0
M  V30 4014 H 380.54 -5.05688 2.70098 0
M  V30 4015 H 378.937 -4.89254 3.47491 0
M  V30 4016 H 380.007 -3.4826 3.37406 0
M  V30 4017 N 381.35 -0.985608 -1.22978 0
M  V30 4018 C 382.596 -0.65836 -1.91816 0
M  V30 4019 C 382.929 0.806692 -1.76653 0
M  V30 4020 O 382.204 1.58252 -1.13078 0
M  V30 4021 C 382.487 -1.056 -3.44268 0
M  V30 4022 C 382.34 -2.57906 -3.68516 0
M  V30 4023 C 383.659 -0.603781 -4.35939 0
M  V30 4024 H 380.778 -0.24065 -0.696604 0
M  V30 4025 H 383.42 -1.22783 -1.44998 0
M  V30 4026 H 381.57 -0.571445 -3.84274 0
M  V30 4027 H 383.242 -3.13976 -3.3796 0
M  V30 4028 H 381.485 -3.00305 -3.13048 0
M  V30 4029 H 382.156 -2.80779 -4.75255 0
M  V30 4030 H 384.632 -1.01987 -4.03408 0
M  V30 4031 H 383.508 -0.910383 -5.41298 0
M  V30 4032 H 383.769 0.495761 -4.39312 0
M  V30 4033 N 382.828 1.3818 -0.7579 0
M  V30 4034 C 384.244 1.5353 -0.435972 0
M  V30 4035 C 384.444 1.71961 1.05032 0
M  V30 4036 O 383.5 1.73307 1.83633 0
M  V30 4037 C 384.813 2.73989 -1.23898 0
M  V30 4038 C 386.361 2.87841 -1.22949 0
M  V30 4039 C 386.836 4.11266 -2.01554 0
M  V30 4040 N 388.327 4.18352 -1.98837 0
M  V30 4041 C 389.062 5.12856 -2.5645 0
M  V30 4042 N 388.558 6.13005 -3.22794 0
M  V30 4043 N 390.351 5.05238 -2.46356 0
M  V30 4044 H 382.502 1.24467 -1.7211 0
M  V30 4045 H 384.765 0.604982 -0.729864 0
M  V30 4046 H 384.471 2.66789 -2.29165 0
M  V30 4047 H 384.345 3.67294 -0.858764 0
M  V30 4048 H 386.732 2.9452 -0.184854 0
M  V30 4049 H 386.813 1.95534 -1.64924 0
M  V30 4050 H 386.457 4.05349 -3.06031 0
M  V30 4051 H 386.387 5.02661 -1.5697 0
M  V30 4052 H 388.878 3.46628 -1.50524 0
M  V30 4053 H 389.191 6.81619 -3.64165 0
M  V30 4054 H 387.536 6.13325 -3.2689 0
M  V30 4055 H 390.727 4.25938 -1.9415 0
M  V30 4056 H 390.9 5.78707 -2.91552 0
M  V30 4057 N 384.306 0.507319 1.49211 0
M  V30 4058 C 385.722 0.163682 1.58758 0
M  V30 4059 C 385.922 -1.33208 1.51188 0
M  V30 4060 O 384.978 -2.10855 1.38911 0
M  V30 4061 C 386.291 0.746095 2.91297 0
M  V30 4062 C 387.839 0.712773 3.04776 0
M  V30 4063 C 388.314 1.27336 4.39943 0
M  V30 4064 N 389.805 1.23433 4.46451 0
M  V30 4065 C 390.54 1.63821 5.495 0
M  V30 4066 N 390.036 2.11832 6.5962 0
M  V30 4067 N 391.829 1.55198 5.4025 0
M  V30 4068 H 383.98 1.47972 1.52375 0
M  V30 4069 H 386.243 0.614147 0.722168 0
M  V30 4070 H 385.949 1.79534 3.02424 0
M  V30 4071 H 385.823 0.210137 3.76614 0
M  V30 4072 H 388.21 -0.327656 2.93275 0
M  V30 4073 H 388.291 1.28595 2.21127 0
M  V30 4074 H 387.935 2.3126 4.52196 0
M  V30 4075 H 387.865 0.676066 5.22242 0
M  V30 4076 H 390.356 0.882627 3.67448 0
M  V30 4077 H 390.669 2.40703 7.34358 0
M  V30 4078 H 389.014 2.1581 6.60644 0
M  V30 4079 H 392.205 1.17505 4.53112 0
M  V30 4080 H 392.378 1.86997 6.20432 0
M  V30 4081 N 385.784 -1.5574 0.241426 0
M  V30 4082 C 387.061 -1.90704 -0.434881 0
M  V30 4083 C 387.441 -1.16145 -1.76277 0
M  V30 4084 O 386.789 -0.277152 -2.26813 0
M  V30 4085 C 386.999 -3.43657 -0.608343 0
M  V30 4086 C 388.347 -4.14806 -0.906725 0
M  V30 4087 O 389.371 -3.49366 -0.694408 0
M  V30 4088 O 388.23 -5.30548 -1.31075 0
M  V30 4089 H 385.324 -0.793592 -0.23268 0
M  V30 4090 H 387.87 -1.67288 0.285086 0
M  V30 4091 H 386.642 -3.89927 0.327505 0
M  V30 4092 H 386.265 -3.72918 -1.37906 0
M  V30 4093 N 387.262 0.0317525 -1.57568 0
M  V30 4094 C 388.225 1.01783 -2.0536 0
M  V30 4095 C 389.225 1.29203 -0.957253 0
M  V30 4096 O 390.415 1.24251 -1.22095 0
M  V30 4097 C 387.547 2.35137 -2.46827 0
M  V30 4098 H 388.74 0.605062 -2.93733 0
M  V30 4099 H 386.293 0.278514 -1.53799 0
M  V30 4100 H 387.028 2.81168 -1.61602 0
M  V30 4101 H 386.813 2.16566 -3.26866 0
M  V30 4102 H 388.303 3.05938 -2.84239 0
M  V30 4103 N 388.74 1.54641 0.303973 0
M  V30 4104 C 390.017 1.64455 1.05896 0
M  V30 4105 C 390.397 0.490923 2.05312 0
M  V30 4106 O 389.745 -0.512685 2.22674 0
M  V30 4107 C 389.955 3.02331 1.74347 0
M  V30 4108 C 391.303 3.59045 2.26653 0
M  V30 4109 O 392.327 3.04764 1.84384 0
M  V30 4110 O 391.186 4.54081 3.04093 0
M  V30 4111 H 388.28 0.666729 0.489287 0
M  V30 4112 H 390.826 1.66986 0.302298 0
M  V30 4113 H 389.598 3.77734 1.02142 0
M  V30 4114 H 389.221 3.03565 2.56777 0
M  V30 4115 N 390.218 -0.567019 1.47046 0
M  V30 4116 C 391.634 -0.891975 1.32348 0
M  V30 4117 C 391.834 -1.99154 0.306616 0
M  V30 4118 O 390.89 -2.50883 -0.28532 0
M  V30 4119 C 392.203 -1.29449 2.7141 0
M  V30 4120 C 393.751 -1.40646 2.79621 0
M  V30 4121 C 394.226 -1.84257 4.19301 0
M  V30 4122 N 395.717 -1.91424 4.21795 0
M  V30 4123 C 396.452 -2.26476 5.26779 0
M  V30 4124 N 395.948 -2.60211 6.42077 0
M  V30 4125 N 397.741 -2.27166 5.14152 0
M  V30 4126 H 389.892 0.159074 2.11803 0
M  V30 4127 H 392.155 0.00849752 0.947962 0
M  V30 4128 H 391.861 -0.560448 3.47206 0
M  V30 4129 H 391.735 -2.25273 3.02542 0
M  V30 4130 H 394.122 -2.13133 2.04104 0
M  V30 4131 H 394.203 -0.430339 2.52154 0
M  V30 4132 H 393.847 -1.12343 4.95319 0
M  V30 4133 H 393.777 -2.82855 4.44185 0
M  V30 4134 H 396.268 -1.6778 3.38612 0
M  V30 4135 H 396.581 -2.85956 7.17948 0
M  V30 4136 H 394.926 -2.57813 6.45413 0
M  V30 4137 H 398.117 -2.00244 4.23107 0
M  V30 4138 H 398.29 -2.54154 5.96079 0
M  V30 4139 N 391.696 -1.35014 -0.812953 0
M  V30 4140 C 392.942 -1.2812 -1.57204 0
M  V30 4141 C 393.275 0.145869 -1.93651 0
M  V30 4142 O 392.55 1.0937 -1.60836 0
M  V30 4143 C 392.833 -2.18162 -2.86492 0
M  V30 4144 C 392.686 -3.69454 -2.56561 0
M  V30 4145 C 394.005 -2.07439 -3.88145 0
M  V30 4146 H 391.124 -0.466746 -0.570366 0
M  V30 4147 H 393.766 -1.65357 -0.935783 0
M  V30 4148 H 391.916 -1.86535 -3.40789 0
M  V30 4149 H 393.588 -4.11493 -2.08497 0
M  V30 4150 H 391.831 -3.9005 -1.89851 0
M  V30 4151 H 392.502 -4.27835 -3.48799 0
M  V30 4152 H 394.978 -2.35228 -3.4323 0
M  V30 4153 H 393.854 -2.7265 -4.76396 0
M  V30 4154 H 394.115 -1.05439 -4.29343 0
M  V30 4155 N 393.175 1.03435 -1.18907 0
M  V30 4156 C 394.422 1.76743 -0.988334 0
M  V30 4157 C 394.75 1.88447 0.481441 0
M  V30 4158 O 394.005 1.39383 1.37371 0
M  V30 4159 C 394.304 3.19792 -1.59586 0
M  V30 4160 C 393.97 3.28108 -3.09283 0
M  V30 4161 C 392.632 3.30084 -3.5014 0
M  V30 4162 C 394.984 3.27696 -4.05296 0
M  V30 4163 C 392.312 3.29299 -4.85571 0
M  V30 4164 C 394.664 3.28451 -5.4065 0
M  V30 4165 C 393.328 3.28723 -5.80946 0
M  V30 4166 H 392.598 0.64675 -0.361657 0
M  V30 4167 H 395.245 1.21442 -1.48068 0
M  V30 4168 H 393.55 3.78136 -1.02568 0
M  V30 4169 H 395.247 3.75171 -1.41589 0
M  V30 4170 H 391.837 3.27294 -2.76725 0
M  V30 4171 H 396.021 3.25354 -3.74778 0
M  V30 4172 H 391.277 3.2783 -5.16079 0
M  V30 4173 H 395.451 3.27082 -6.14809 0
M  V30 4174 H 393.078 3.27868 -6.85862 0
M  V30 4175 N 394.653 0.992116 1.22453 0
M  V30 4176 C 395.899 0.668523 1.91464 0
M  V30 4177 C 396.232 -0.797313 1.77078 0
M  V30 4178 O 395.507 -1.5765 1.13916 0
M  V30 4179 C 395.79 1.07424 3.43703 0
M  V30 4180 C 395.643 2.59857 3.67143 0
M  V30 4181 C 396.962 0.626891 4.35612 0
M  V30 4182 H 394.081 0.244341 0.695318 0
M  V30 4183 H 396.723 1.2355 1.44345 0
M  V30 4184 H 394.873 0.591816 3.83966 0
M  V30 4185 H 396.545 3.15764 3.3629 0
M  V30 4186 H 394.788 3.01961 3.11451 0
M  V30 4187 H 395.459 2.83296 4.73759 0
M  V30 4188 H 397.935 1.04125 4.02861 0
M  V30 4189 H 396.811 0.939076 5.40807 0
M  V30 4190 H 397.072 -0.472457 4.39568 0
M  V30 4191 N 396.131 -1.37776 0.765217 0
M  V30 4192 C 397.379 -1.99454 0.325943 0
M  V30 4193 C 397.7 -1.61049 -1.09947 0
M  V30 4194 O 396.97 -0.872821 -1.75381 0
M  V30 4195 H 395.55 -0.737697 0.117525 0
M  V30 4196 H 398.212 -1.68359 0.981895 0
M  V30 4197 H 397.308 -3.09547 0.398353 0
M  V30 4198 N 397.609 -0.515225 -1.4894 0
M  V30 4199 C 398.556 0.255567 -2.29381 0
M  V30 4200 C 399.526 0.947387 -1.36432 0
M  V30 4201 O 400.711 0.951288 -1.65394 0
M  V30 4202 C 397.851 1.30551 -3.19453 0
M  V30 4203 C 396.964 0.624029 -4.27469 0
M  V30 4204 C 396.099 1.65563 -5.0474 0
M  V30 4205 C 395.138 0.956802 -6.04576 0
M  V30 4206 N 394.275 1.93326 -6.74959 0
M  V30 4207 H 399.115 -0.436607 -2.94784 0
M  V30 4208 H 396.652 -0.227154 -1.45336 0
M  V30 4209 H 398.61 1.92639 -3.70062 0
M  V30 4210 H 397.24 1.96626 -2.56004 0
M  V30 4211 H 396.292 -0.110459 -3.8024 0
M  V30 4212 H 397.604 0.0746092 -4.98744 0
M  V30 4213 H 396.758 2.35119 -5.59289 0
M  V30 4214 H 395.497 2.23893 -4.3327 0
M  V30 4215 H 394.502 0.247097 -5.49244 0
M  V30 4216 H 395.727 0.379814 -6.78037 0
M  V30 4217 H 393.673 2.50591 -6.06251 0
M  V30 4218 H 393.59 1.43489 -7.42258 0
M  V30 4219 H 394.858 2.62126 -7.34105 0
M  V30 4220 N 399.087 1.5561 -0.249682 0
M  V30 4221 C 400.503 1.59254 0.105103 0
M  V30 4222 C 400.703 1.26685 1.56694 0
M  V30 4223 O 399.759 1.0155 2.31179 0
M  V30 4224 C 401.072 2.99687 -0.246592 0
M  V30 4225 C 402.62 3.12416 -0.191118 0
M  V30 4226 C 403.095 4.55074 -0.516885 0
M  V30 4227 N 404.586 4.60835 -0.467489 0
M  V30 4228 C 405.321 5.69201 -0.69268 0
M  V30 4229 N 404.817 6.85817 -0.981146 0
M  V30 4230 N 406.61 5.58635 -0.623198 0
M  V30 4231 H 398.761 1.75049 -1.20298 0
M  V30 4232 H 401.024 0.815003 -0.484225 0
M  V30 4233 H 400.73 3.28267 -1.26228 0
M  V30 4234 H 400.604 3.74798 0.424962 0
M  V30 4235 H 402.991 2.83615 0.815247 0
M  V30 4236 H 403.072 2.39573 -0.896563 0
M  V30 4237 H 402.716 4.84596 -1.52082 0
M  V30 4238 H 402.646 5.26181 0.210068 0
M  V30 4239 H 405.137 3.7705 -0.253373 0
M  V30 4240 H 405.45 7.64341 -1.14032 0
M  V30 4241 H 403.795 6.87494 -1.01865 0
M  V30 4242 H 406.986 4.66406 -0.397863 0
M  V30 4243 H 407.159 6.43017 -0.802093 0
M  V30 4244 N 400.565 -0.0233959 1.57583 0
M  V30 4245 C 401.528 -1.00693 2.05897 0
M  V30 4246 C 402.528 -1.28693 0.964092 0
M  V30 4247 O 403.718 -1.23602 1.22753 0
M  V30 4248 C 400.85 -2.33825 2.4807 0
M  V30 4249 H 402.043 -0.589476 2.9405 0
M  V30 4250 H 399.596 -0.270354 1.53944 0
M  V30 4251 H 400.331 -2.80307 1.6309 0
M  V30 4252 H 400.116 -2.1483 3.2801 0
M  V30 4253 H 401.606 -3.04426 2.85857 0
M  V30 4254 N 402.043 -1.548 -0.295768 0
M  V30 4255 C 403.291 -1.73985 -1.02828 0
M  V30 4256 C 403.612 -0.531406 -1.87619 0
M  V30 4257 O 402.882 0.454221 -1.90561 0
M  V30 4258 H 401.462 -0.641556 -0.382642 0
M  V30 4259 H 404.124 -1.92163 -0.325489 0
M  V30 4260 H 403.22 -2.63129 -1.67838 0
M  V30 4261 N 403.521 0.559213 -1.47345 0
M  V30 4262 C 404.751 1.33999 -1.57251 0
M  V30 4263 C 405.159 1.87905 -0.220978 0
M  V30 4264 O 404.502 1.65577 0.795617 0
M  V30 4265 C 404.564 2.54798 -2.53611 0
M  V30 4266 C 404.228 2.22192 -3.99349 0
M  V30 4267 C 405.225 1.79607 -4.87891 0
M  V30 4268 C 402.91 2.33613 -4.44669 0
M  V30 4269 C 404.904 1.48868 -6.19772 0
M  V30 4270 C 402.591 2.02487 -5.76578 0
M  V30 4271 C 403.589 1.60183 -6.63951 0
M  V30 4272 O 403.277 1.29451 -7.93409 0
M  V30 4273 H 403.009 0.414858 -0.533731 0
M  V30 4274 H 405.563 0.684465 -1.9366 0
M  V30 4275 H 403.793 3.23235 -2.12265 0
M  V30 4276 H 405.482 3.16873 -2.53666 0
M  V30 4277 H 406.248 1.70278 -4.54126 0
M  V30 4278 H 402.127 2.65501 -3.76869 0
M  V30 4279 H 405.671 1.15775 -6.87926 0
M  V30 4280 H 401.568 2.11448 -6.09885 0
M  V30 4281 H 402.336 1.43098 -8.05894 0
M  V30 4282 N 404.999 1.35443 0.805782 0
M  V30 4283 C 405.949 1.24972 1.90699 0
M  V30 4284 C 406.933 0.144806 1.60247 0
M  V30 4285 O 408.125 0.376102 1.72958 0
M  V30 4286 C 405.254 1.02475 3.27649 0
M  V30 4287 C 404.34 2.17361 3.64164 0
M  V30 4288 N 404.731 3.42591 3.72109 0
M  V30 4289 C 403.029 2.08765 3.94123 0
M  V30 4290 C 403.73 4.18144 4.04389 0
M  V30 4291 N 402.706 3.4691 4.18515 0
M  V30 4292 H 406.508 2.19852 1.95044 0
M  V30 4293 H 404.022 1.27928 1.00041 0
M  V30 4294 H 406.019 0.930617 4.06381 0
M  V30 4295 H 404.679 0.0848009 3.24589 0
M  V30 4296 H 405.69 3.76932 3.55166 0
M  V30 4297 H 402.367 1.22629 3.99084 0
M  V30 4298 H 403.757 5.26367 4.17597 0
M  V30 4299 N 406.477 -1.02803 1.19454 0
M  V30 4300 C 407.717 -1.77769 1.00883 0
M  V30 4301 C 408.081 -1.86596 -0.45233 0
M  V30 4302 O 409.282 -2.57895 -0.757877 0
M  V30 4303 C 407.553 -3.16486 1.66046 0
M  V30 4304 S 409.112 -4.07632 1.62424 0
M  V30 4305 H 405.93 -0.611949 0.361993 0
M  V30 4306 H 408.532 -1.23175 1.51816 0
M  V30 4307 H 407.236 -3.0768 2.7159 0
M  V30 4308 H 406.767 -3.76156 1.15196 0
M  V30 4309 H 408.782 -4.91937 0.64903 0
M  V30 4310 N 407.956 -0.998596 -1.21925 0
M  V30 4311 C 409.202 -0.678667 -1.91107 0
M  V30 4312 C 409.535 0.78791 -1.77498 0
M  V30 4313 O 408.81 1.57043 -1.1475 0
M  V30 4314 C 409.093 -1.09245 -3.43129 0
M  V30 4315 C 408.946 -2.61801 -3.6576 0
M  V30 4316 C 410.265 -0.649984 -4.35274 0
M  V30 4317 H 407.384 -0.248025 -0.694012 0
M  V30 4318 H 410.026 -1.24314 -1.43688 0
M  V30 4319 H 408.176 -0.612171 -3.83647 0
M  V30 4320 H 409.848 -3.17543 -3.34611 0
M  V30 4321 H 408.091 -3.03609 -3.09845 0
M  V30 4322 H 408.762 -2.85804 -4.7225 0
M  V30 4323 H 411.238 -1.0626 -4.02303 0
M  V30 4324 H 410.114 -0.967743 -5.40302 0
M  V30 4325 H 410.375 0.449139 -4.39813 0
M  V30 4326 N 409.434 1.37368 -0.772513 0
M  V30 4327 C 410.845 1.8231 -0.402493 0
M  V30 4328 C 411.196 1.6436 1.07146 0
M  V30 4329 O 410.321 1.15514 1.82991 0
M  V30 4330 C 410.916 3.30979 -0.723776 0
M  V30 4331 C 409.475 3.74195 -0.406802 0
M  V30 4332 C 408.622 2.59885 -0.967218 0
M  V30 4333 H 411.573 1.25829 -0.967099 0
M  V30 4334 H 411.594 3.80499 -0.00870832 0
M  V30 4335 H 411.106 3.44011 -1.7966 0
M  V30 4336 H 409.207 3.66732 0.658673 0
M  V30 4337 H 409.32 4.7027 -0.915588 0
M  V30 4338 H 407.684 2.51674 -0.391416 0
M  V30 4339 H 408.467 2.7571 -2.04546 0
M  V30 4340 N 410.912 0.523116 1.48665 0
M  V30 4341 C 411.844 -0.280421 2.27478 0
M  V30 4342 C 412.857 -0.910694 1.34945 0
M  V30 4343 O 414.046 -0.790295 1.60052 0
M  V30 4344 C 411.146 -1.41171 3.08097 0
M  V30 4345 C 410.319 -0.884642 4.28361 0
M  V30 4346 C 409.378 -1.89622 4.90846 0
M  V30 4347 O 408.404 -1.4559 5.50265 0
M  V30 4348 N 409.606 -3.22801 4.82472 0
M  V30 4349 H 412.371 0.395481 2.97079 0
M  V30 4350 H 409.932 0.357018 1.57915 0
M  V30 4351 H 411.924 -2.08645 3.4677 0
M  V30 4352 H 410.494 -1.99139 2.40961 0
M  V30 4353 H 409.714 -0.0341177 3.94185 0
M  V30 4354 H 411.002 -0.511268 5.06225 0
M  V30 4355 H 410.4 -3.61246 4.35336 0
M  V30 4356 H 408.957 -3.85927 5.25265 0
M  V30 4357 N 412.39 -1.55475 0.257931 0
M  V30 4358 C 413.3 -2.2549 -0.647425 0
M  V30 4359 C 414.316 -1.2748 -1.18427 0
M  V30 4360 O 415.492 -1.6038 -1.2182 0
M  V30 4361 C 412.557 -2.94916 -1.82278 0
M  V30 4362 C 411.618 -4.08363 -1.32432 0
M  V30 4363 C 410.851 -4.74469 -2.44366 0
M  V30 4364 O 411.074 -4.39701 -3.63344 0
M  V30 4365 O 410.008 -5.62763 -2.13497 0
M  V30 4366 H 413.834 -3.03593 -0.0807707 0
M  V30 4367 H 411.419 -1.49377 0.0259962 0
M  V30 4368 H 413.301 -3.38606 -2.50846 0
M  V30 4369 H 411.976 -2.19744 -2.37685 0
M  V30 4370 H 410.883 -3.69166 -0.605605 0
M  V30 4371 H 412.216 -4.85385 -0.816211 0
M  V30 4372 N 413.868 0.0150385 -1.57593 0
M  V30 4373 C 414.778 1.02791 -2.10882 0
M  V30 4374 C 415.794 1.38702 -1.0506 0
M  V30 4375 O 416.97 1.47739 -1.36877 0
M  V30 4376 C 414.035 2.30568 -2.58919 0
M  V30 4377 C 413.096 2.01108 -3.79281 0
M  V30 4378 C 412.329 3.22794 -4.25018 0
M  V30 4379 O 412.552 4.33959 -3.70183 0
M  V30 4380 O 411.486 3.07672 -5.17322 0
M  V30 4381 H 415.312 0.604973 -2.97613 0
M  V30 4382 H 412.897 0.23292 -1.47573 0
M  V30 4383 H 414.779 3.05662 -2.90084 0
M  V30 4384 H 413.454 2.72129 -1.75293 0
M  V30 4385 H 412.361 1.23537 -3.53114 0
M  V30 4386 H 413.694 1.64394 -4.63935 0
M  V30 4387 N 415.346 1.54954 0.287554 0
M  V30 4388 C 416.595 1.74081 1.01877 0
M  V30 4389 C 416.908 0.541135 1.87966 0
M  V30 4390 O 418.114 0.614491 2.64455 0
M  V30 4391 C 416.57 3.08042 1.86113 0
M  V30 4392 C 416.178 4.35531 1.04961 0
M  V30 4393 C 417.922 3.36523 2.58752 0
M  V30 4394 C 415.829 5.60538 1.88551 0
M  V30 4395 H 414.759 0.64884 0.384087 0
M  V30 4396 H 417.41 1.81426 0.275101 0
M  V30 4397 H 415.792 2.94696 2.64519 0
M  V30 4398 H 416.966 4.59751 0.31074 0
M  V30 4399 H 415.281 4.14085 0.43843 0
M  V30 4400 H 417.878 4.27122 3.21668 0
M  V30 4401 H 418.221 2.56 3.28283 0
M  V30 4402 H 418.754 3.50901 1.87386 0
M  V30 4403 H 415.493 6.43767 1.23466 0
M  V30 4404 H 415.013 5.40483 2.60074 0
M  V30 4405 H 416.692 5.98297 2.46273 0
M  V30 4406 N 416.824 -0.551391 1.4764 0
M  V30 4407 C 417.772 -1.67896 1.60978 0
M  V30 4408 C 418.766 -1.62549 0.476877 0
M  V30 4409 O 419.972 -1.67664 0.654878 0
M  V30 4410 H 416.347 -0.555649 0.506713 0
M  V30 4411 H 418.318 -1.53784 2.55721 0
M  V30 4412 C 417.067 -3.06234 1.64669 0
M  V30 4413 H 416.39 -3.11033 2.51194 0
M  V30 4414 H 417.83 -3.84804 1.7805 0
M  V30 4415 C 416.289 -3.34737 0.381115 0
M  V30 4416 O 416.819 -3.98381 -0.515297 0
M  V30 4417 N 415.025 -2.8944 0.259354 0
M  V30 4418 H 414.572 -2.37827 0.98976 0
M  V30 4419 H 414.53 -3.08882 -0.586464 0
M  V30 4420 N 418.302 -1.35869 -0.798587 0
M  V30 4421 C 419.234 -1.25305 -1.91915 0
M  V30 4422 C 420.247 -0.174548 -1.61862 0
M  V30 4423 O 421.436 -0.428499 -1.73281 0
M  V30 4424 C 418.536 -0.9086 -3.26493 0
M  V30 4425 C 417.709 -2.08711 -3.84394 0
M  V30 4426 C 416.768 -1.71717 -4.97393 0
M  V30 4427 O 415.794 -2.43692 -5.14396 0
M  V30 4428 N 416.996 -0.645473 -5.769 0
M  V30 4429 H 419.761 -2.21849 -2.01502 0
M  V30 4430 H 417.322 -1.29143 -0.976408 0
M  V30 4431 H 419.314 -0.642455 -3.99568 0
M  V30 4432 H 417.884 -0.0325815 -3.12583 0
M  V30 4433 H 417.104 -2.51659 -3.03416 0
M  V30 4434 H 418.392 -2.87468 -4.19809 0
M  V30 4435 H 417.79 -0.047648 -5.6568 0
M  V30 4436 H 416.347 -0.43913 -6.50319 0
M  V30 4437 N 419.78 1.02168 -1.19998 0
M  V30 4438 C 421.029 1.75091 -1.0013 0
M  V30 4439 C 421.342 1.89923 0.467835 0
M  V30 4440 O 422.548 2.59888 0.785515 0
M  V30 4441 C 421.004 3.14892 -1.74273 0
M  V30 4442 C 420.612 3.0809 -3.25245 0
M  V30 4443 C 422.356 3.9206 -1.62755 0
M  V30 4444 C 420.263 4.42867 -3.91948 0
M  V30 4445 H 419.193 0.656394 -0.37103 0
M  V30 4446 H 421.844 1.14284 -1.43567 0
M  V30 4447 H 420.226 3.7621 -1.2362 0
M  V30 4448 H 421.4 2.5611 -3.83072 0
M  V30 4449 H 419.715 2.44416 -3.3712 0
M  V30 4450 H 422.312 4.91764 -2.09934 0
M  V30 4451 H 422.655 4.12199 -0.582894 0
M  V30 4452 H 423.188 3.37359 -2.10793 0
M  V30 4453 H 419.927 4.27931 -4.96543 0
M  V30 4454 H 419.447 4.94874 -3.3891 0
M  V30 4455 H 421.126 5.11728 -3.95909 0
M  V30 4456 N 421.258 1.00505 1.21394 0
M  V30 4457 C 422.188 0.585684 2.26035 0
M  V30 4458 C 423.169 -0.393525 1.65485 0
M  V30 4459 O 424.354 -0.281497 1.92149 0
M  V30 4460 C 421.484 -0.0884283 3.47187 0
M  V30 4461 C 420.438 0.810567 4.20254 0
M  V30 4462 C 419.764 0.00286382 5.347 0
M  V30 4463 C 421.064 2.1132 4.77641 0
M  V30 4464 H 422.758 1.46039 2.61368 0
M  V30 4465 H 420.304 0.703648 1.25638 0
M  V30 4466 H 422.257 -0.393286 4.19561 0
M  V30 4467 H 420.981 -0.997766 3.10986 0
M  V30 4468 H 419.64 1.09925 3.49731 0
M  V30 4469 H 419.288 -0.907765 4.94741 0
M  V30 4470 H 418.988 0.601444 5.84514 0
M  V30 4471 H 420.512 -0.295808 6.09883 0
M  V30 4472 H 421.926 1.87148 5.41893 0
M  V30 4473 H 420.323 2.66164 5.37845 0
M  V30 4474 H 421.393 2.78393 3.9702 0
M  V30 4475 N 422.737 -1.36956 0.779787 0
M  V30 4476 C 423.667 -2.32761 0.185651 0
M  V30 4477 C 424.648 -1.56177 -0.673989 0
M  V30 4478 O 425.833 -1.84378 -0.609797 0
M  V30 4479 C 422.963 -3.40418 -0.687964 0
M  V30 4480 C 421.917 -4.27941 0.0710102 0
M  V30 4481 C 421.243 -5.26681 -0.922573 0
M  V30 4482 C 422.543 -5.07006 1.25467 0
M  V30 4483 H 424.237 -2.82698 0.986008 0
M  V30 4484 H 421.783 -1.3592 0.475592 0
M  V30 4485 H 423.736 -4.06423 -1.11348 0
M  V30 4486 H 422.46 -2.89025 -1.52093 0
M  V30 4487 H 421.119 -3.63478 0.47739 0
M  V30 4488 H 420.767 -4.71565 -1.7503 0
M  V30 4489 H 420.467 -5.86103 -0.419237 0
M  V30 4490 H 421.991 -5.9556 -1.34686 0
M  V30 4491 H 423.405 -5.66105 0.905401 0
M  V30 4492 H 421.802 -5.75793 1.69063 0
M  V30 4493 H 422.872 -4.3921 2.05481 0
M  V30 4494 N 424.215 -0.530993 -1.48385 0
M  V30 4495 C 425.631 -0.188919 -1.58478 0
M  V30 4496 C 425.831 1.30786 -1.53288 0
M  V30 4497 O 424.887 2.08619 -1.42248 0
M  V30 4498 C 426.2 -0.792343 -2.90073 0
M  V30 4499 C 427.748 -0.76117 -3.03604 0
M  V30 4500 C 428.223 -1.34319 -4.37861 0
M  V30 4501 N 429.714 -1.3052 -4.44431 0
M  V30 4502 C 430.449 -1.72543 -5.46824 0
M  V30 4503 N 429.945 -2.22299 -6.56167 0
M  V30 4504 N 431.738 -1.63773 -5.37712 0
M  V30 4505 H 423.889 -1.50377 -1.50002 0
M  V30 4506 H 426.152 -0.625559 -0.712306 0
M  V30 4507 H 425.858 -1.84323 -2.99529 0
M  V30 4508 H 425.732 -0.270026 -3.76232 0
M  V30 4509 H 428.119 0.280957 -2.93759 0
M  V30 4510 H 428.2 -1.32097 -2.19053 0
M  V30 4511 H 427.844 -2.38425 -4.4846 0
M  V30 4512 H 427.774 -0.759064 -5.21101 0
M  V30 4513 H 430.265 -0.940973 -3.65997 0
M  V30 4514 H 430.578 -2.52356 -7.30436 0
M  V30 4515 H 428.923 -2.26293 -6.57127 0
M  V30 4516 H 432.114 -1.24698 -4.51185 0
M  V30 4517 H 432.287 -1.96844 -6.17379 0
M  V30 4518 N 425.693 1.55336 -0.266172 0
M  V30 4519 C 426.603 2.2583 0.635458 0
M  V30 4520 C 427.619 1.28106 1.17749 0
M  V30 4521 O 428.795 1.61024 1.20968 0
M  V30 4522 C 425.86 2.95879 1.80712 0
M  V30 4523 C 424.921 4.09059 1.30265 0
M  V30 4524 C 424.154 4.75759 2.41846 0
M  V30 4525 O 424.377 4.41622 3.61007 0
M  V30 4526 O 423.311 5.63888 2.1051 0
M  V30 4527 H 427.137 3.03631 0.0646693 0
M  V30 4528 H 424.722 1.49361 -0.0339177 0
M  V30 4529 H 426.604 3.39932 2.49047 0
M  V30 4530 H 425.279 2.21002 2.36516 0
M  V30 4531 H 424.186 3.69482 0.586019 0
M  V30 4532 H 425.519 4.85811 0.790458 0
M  V30 4533 N 427.171 -0.0066808 1.57599 0
M  V30 4534 C 428.134 -0.985035 2.06953 0
M  V30 4535 C 429.134 -1.27663 0.977687 0
M  V30 4536 O 430.324 -1.22293 1.24057 0
M  V30 4537 C 427.456 -2.3118 2.50536 0
M  V30 4538 H 428.649 -0.558255 2.94658 0
M  V30 4539 H 426.202 -0.254011 1.54222 0
M  V30 4540 H 426.937 -2.78561 1.66054 0
M  V30 4541 H 426.722 -2.11338 3.3027 0
M  V30 4542 H 428.212 -3.01377 2.8907 0
M  V30 4543 N 428.649 -1.55105 -0.279332 0
M  V30 4544 C 429.581 -1.83952 -1.36727 0
M  V30 4545 C 430.594 -0.723642 -1.45833 0
M  V30 4546 O 431.783 -1.00141 -1.47763 0
M  V30 4547 C 428.883 -1.98183 -2.74912 0
M  V30 4548 C 428.056 -3.28787 -2.88475 0
M  V30 4549 C 427.115 -3.33162 -4.07295 0
M  V30 4550 O 426.141 -4.06576 -3.98353 0
M  V30 4551 N 427.343 -2.60109 -5.18964 0
M  V30 4552 H 430.108 -2.77853 -1.12328 0
M  V30 4553 H 427.669 -1.54945 -0.469442 0
M  V30 4554 H 429.661 -1.98488 -3.52682 0
M  V30 4555 H 428.231 -1.11177 -2.92162 0
M  V30 4556 H 427.451 -3.41075 -1.97641 0
M  V30 4557 H 428.739 -4.14933 -2.94463 0
M  V30 4558 H 428.137 -2.00136 -5.29115 0
M  V30 4559 H 426.694 -2.66143 -5.94988 0
M  V30 4560 N 430.127 0.543554 -1.4793 0
M  V30 4561 C 431.074 1.64942 -1.6144 0
M  V30 4562 C 432.044 1.59692 -0.456903 0
M  V30 4563 O 433.229 1.78321 -0.678688 0
M  V30 4564 C 430.369 3.03238 -1.64744 0
M  V30 4565 C 429.482 3.18823 -2.91506 0
M  V30 4566 C 428.617 4.47599 -2.86057 0
M  V30 4567 C 427.656 4.56664 -4.07584 0
M  V30 4568 N 426.793 5.76811 -4.00292 0
M  V30 4569 H 431.633 1.52733 -2.55884 0
M  V30 4570 H 429.17 0.7438 -1.2691 0
M  V30 4571 H 431.128 3.83339 -1.64641 0
M  V30 4572 H 429.758 3.1425 -0.738017 0
M  V30 4573 H 428.81 2.32064 -3.01414 0
M  V30 4574 H 430.122 3.21384 -3.81463 0
M  V30 4575 H 429.276 5.35975 -2.84281 0
M  V30 4576 H 428.015 4.47538 -1.93807 0
M  V30 4577 H 427.02 3.66697 -4.09651 0
M  V30 4578 H 428.245 4.58474 -5.00978 0
M  V30 4579 H 426.191 5.77673 -3.10853 0
M  V30 4580 H 426.108 5.80808 -4.8394 0
M  V30 4581 H 427.376 6.67512 -4.02553 0
M  V30 4582 N 431.605 1.3629 0.791371 0
M  V30 4583 C 432.853 1.30154 1.5461 0
M  V30 4584 C 433.174 -0.119409 1.94634 0
M  V30 4585 O 432.444 -1.05924 1.64794 0
M  V30 4586 H 431.024 0.478784 0.573389 0
M  V30 4587 H 433.686 1.70565 0.94306 0
M  V30 4588 H 432.782 1.92762 2.45457 0
M  V30 4589 N 433.083 -1.0153 1.20538 0
M  V30 4590 C 434.03 -2.10098 0.955383 0
M  V30 4591 C 435 -1.65702 -0.114878 0
M  V30 4592 O 436.185 -1.90776 0.0301118 0
M  V30 4593 C 433.325 -3.41236 0.514969 0
M  V30 4594 C 432.438 -3.99102 1.65353 0
M  V30 4595 C 431.573 -5.18306 1.16329 0
M  V30 4596 C 430.612 -5.68258 2.27485 0
M  V30 4597 N 429.749 -6.78722 1.7967 0
M  V30 4598 H 434.589 -2.30818 1.88486 0
M  V30 4599 H 432.126 -1.13189 0.939499 0
M  V30 4600 H 434.084 -4.16504 0.240935 0
M  V30 4601 H 432.714 -3.20585 -0.377512 0
M  V30 4602 H 431.766 -3.20918 2.04245 0
M  V30 4603 H 433.078 -4.32177 2.49047 0
M  V30 4604 H 432.232 -6.00782 0.845302 0
M  V30 4605 H 430.971 -4.86799 0.296254 0
M  V30 4606 H 429.976 -4.84385 2.60099 0
M  V30 4607 H 431.201 -6.01798 3.14667 0
M  V30 4608 H 429.147 -6.49042 0.95295 0
M  V30 4609 H 429.064 -7.10996 2.56944 0
M  V30 4610 H 430.332 -7.64759 1.50875 0
M  V30 4611 N 434.561 -1.01147 -1.20859 0
M  V30 4612 C 435.977 -0.725422 -1.42161 0
M  V30 4613 C 436.177 0.696919 -1.89064 0
M  V30 4614 O 435.233 1.46539 -2.05627 0
M  V30 4615 C 436.546 -1.74678 -2.44761 0
M  V30 4616 C 438.094 -1.76433 -2.58535 0
M  V30 4617 C 438.569 -2.77481 -3.64374 0
M  V30 4618 N 440.06 -2.76189 -3.71852 0
M  V30 4619 C 440.795 -3.51035 -4.53389 0
M  V30 4620 N 440.291 -4.35541 -5.38773 0
M  V30 4621 N 442.084 -3.39655 -4.47873 0
M  V30 4622 H 434.235 -1.92979 -0.887282 0
M  V30 4623 H 436.498 -0.833327 -0.451962 0
M  V30 4624 H 436.204 -2.76551 -2.17285 0
M  V30 4625 H 436.078 -1.55472 -3.43669 0
M  V30 4626 H 438.465 -0.75248 -2.85345 0
M  V30 4627 H 438.546 -1.99712 -1.5984 0
M  V30 4628 H 438.19 -3.78827 -3.38308 0
M  V30 4629 H 438.12 -2.51466 -4.6268 0
M  V30 4630 H 440.611 -2.14885 -3.10858 0
M  V30 4631 H 440.924 -4.89432 -5.98061 0
M  V30 4632 H 439.269 -4.39621 -5.38292 0
M  V30 4633 H 442.46 -2.73063 -3.80203 0
M  V30 4634 H 442.633 -3.9824 -5.11184 0
M  V30 4635 N 436.039 1.36541 -0.78704 0
M  V30 4636 C 437.285 1.99599 -0.358872 0
M  V30 4637 C 437.618 1.62323 1.06606 0
M  V30 4638 O 436.893 0.876858 1.73613 0
M  V30 4639 C 437.176 3.56327 -0.519944 0
M  V30 4640 C 437.029 4.03464 -1.98839 0
M  V30 4641 C 438.348 4.4005 0.0664737 0
M  V30 4642 H 435.467 0.725107 -0.131869 0
M  V30 4643 H 438.109 1.6199 -0.992936 0
M  V30 4644 H 436.259 3.88495 0.0198321 0
M  V30 4645 H 437.931 3.81793 -2.58905 0
M  V30 4646 H 436.174 3.55092 -2.49183 0
M  V30 4647 H 436.845 5.12439 -2.05207 0
M  V30 4648 H 439.321 4.14228 -0.394267 0
M  V30 4649 H 438.197 5.48847 -0.0762682 0
M  V30 4650 H 438.458 4.26655 1.15835 0
M  V30 4651 N 437.518 0.538854 1.48102 0
M  V30 4652 C 438.764 0.00801365 2.02798 0
M  V30 4653 C 439.097 -1.3309 1.41424 0
M  V30 4654 O 438.372 -1.86169 0.563158 0
M  V30 4655 C 438.655 -0.104589 3.59948 0
M  V30 4656 C 438.508 1.26012 4.31788 0
M  V30 4657 C 439.827 -0.827055 4.32259 0
M  V30 4658 H 436.946 0.00438624 0.736987 0
M  V30 4659 H 439.588 0.6976 1.7673 0
M  V30 4660 H 437.738 -0.691893 3.82289 0
M  V30 4661 H 439.41 1.88922 4.2084 0
M  V30 4662 H 437.653 1.83968 3.92859 0
M  V30 4663 H 438.324 1.13424 5.40221 0
M  V30 4664 H 440.8 -0.328578 4.14801 0
M  V30 4665 H 439.676 -0.87476 5.41885 0
M  V30 4666 H 439.937 -1.87927 4.0017 0
M  V30 4667 N 438.996 -1.55193 0.274407 0
M  V30 4668 C 440.412 -1.59401 -0.0797543 0
M  V30 4669 C 440.612 -1.29162 -1.54659 0
M  V30 4670 O 439.668 -1.05215 -2.29534 0
M  V30 4671 C 440.981 -2.99257 0.294238 0
M  V30 4672 C 442.529 -3.12072 0.240796 0
M  V30 4673 C 443.004 -4.54194 0.589218 0
M  V30 4674 N 444.495 -4.60033 0.540744 0
M  V30 4675 C 445.23 -5.68027 0.783147 0
M  V30 4676 N 444.726 -6.8417 1.09013 0
M  V30 4677 N 446.519 -5.57572 0.711993 0
M  V30 4678 H 438.67 -1.73113 1.23067 0
M  V30 4679 H 440.933 -0.807197 0.497129 0
M  V30 4680 H 440.639 -3.26217 1.31435 0
M  V30 4681 H 440.513 -3.75427 -0.365281 0
M  V30 4682 H 442.9 -2.84877 -0.770024 0
M  V30 4683 H 442.981 -2.38117 0.934563 0
M  V30 4684 H 442.625 -4.82115 1.59772 0
M  V30 4685 H 442.555 -5.26448 -0.126331 0
M  V30 4686 H 445.046 -3.76599 0.313327 0
M  V30 4687 H 445.359 -7.6243 1.26178 0
M  V30 4688 H 443.704 -6.85787 1.12789 0
M  V30 4689 H 446.895 -4.65714 0.472014 0
M  V30 4690 H 447.068 -6.41659 0.90429 0
M  V30 4691 N 440.474 -0.00167713 -1.576 0
M  V30 4692 C 441.404 0.988091 -2.11563 0
M  V30 4693 C 442.385 1.35736 -1.02517 0
M  V30 4694 O 443.57 1.44082 -1.30208 0
M  V30 4695 C 440.7 2.27941 -2.62031 0
M  V30 4696 C 439.654 2.0517 -3.75619 0
M  V30 4697 C 438.98 3.4033 -4.12407 0
M  V30 4698 C 440.28 1.41294 -5.02825 0
M  V30 4699 H 441.974 0.538771 -2.94513 0
M  V30 4700 H 439.52 0.257712 -1.41675 0
M  V30 4701 H 441.473 2.97539 -2.9841 0
M  V30 4702 H 440.197 2.74989 -1.76205 0
M  V30 4703 H 438.856 1.37998 -3.39635 0
M  V30 4704 H 438.504 3.85085 -3.23603 0
M  V30 4705 H 438.204 3.25909 -4.88935 0
M  V30 4706 H 439.728 4.1124 -4.51347 0
M  V30 4707 H 441.142 2.00851 -5.36965 0
M  V30 4708 H 439.539 1.37356 -5.84169 0
M  V30 4709 H 440.609 0.382362 -4.8339 0
M  V30 4710 N 441.952 1.55251 0.271103 0
M  V30 4711 C 442.899 1.88261 1.33516 0
M  V30 4712 C 443.869 0.734296 1.48988 0
M  V30 4713 O 445.054 0.985741 1.63364 0
M  V30 4714 C 442.194 2.16168 2.69008 0
M  V30 4715 C 441.307 3.43678 2.61743 0
M  V30 4716 C 440.442 3.61276 3.89427 0
M  V30 4717 C 439.481 4.82472 3.7668 0
M  V30 4718 N 438.618 4.96717 4.96202 0
M  V30 4719 H 443.458 2.79015 1.04665 0
M  V30 4720 H 440.995 1.38137 0.505618 0
M  V30 4721 H 442.953 2.30349 3.47844 0
M  V30 4722 H 441.583 1.28646 2.96057 0
M  V30 4723 H 440.635 3.37959 1.74607 0
M  V30 4724 H 441.947 4.3265 2.48224 0
M  V30 4725 H 441.101 3.75284 4.76704 0
M  V30 4726 H 439.84 2.70492 4.05814 0
M  V30 4727 H 438.845 4.68465 2.87786 0
M  V30 4728 H 440.07 5.74692 3.61809 0
M  V30 4729 H 438.016 4.08865 5.12997 0
M  V30 4730 H 437.933 5.79738 4.85222 0
M  V30 4731 H 439.201 5.15113 5.85046 0
M  V30 4732 N 443.43 -0.535701 1.48216 0
M  V30 4733 C 444.678 -1.28928 1.55634 0
M  V30 4734 C 444.999 -1.93645 0.229514 0
M  V30 4735 O 444.269 -1.81038 -0.74846 0
M  V30 4736 H 442.849 -0.47884 0.573342 0
M  V30 4737 H 445.511 -0.623853 1.84646 0
M  V30 4738 H 444.607 -2.07157 2.33436 0
M  V30 4739 N 444.908 -1.36708 -0.784132 0
M  V30 4740 C 446.156 -1.30972 -1.53918 0
M  V30 4741 C 446.477 0.109086 -1.94695 0
M  V30 4742 O 445.747 1.05048 -1.65353 0
M  V30 4743 H 444.327 -0.481819 -0.570841 0
M  V30 4744 H 446.989 -1.71063 -0.934002 0
M  V30 4745 H 446.085 -1.94061 -2.44431 0
M  V30 4746 N 446.386 1.0089 -1.21074 0
M  V30 4747 C 447.663 1.71834 -0.934469 0
M  V30 4748 C 448.043 2.0368 0.554753 0
M  V30 4749 O 447.391 1.70742 1.51854 0
M  V30 4750 C 447.601 2.98061 -1.8155 0
M  V30 4751 C 448.949 3.7117 -2.06199 0
M  V30 4752 O 449.973 3.08034 -1.78867 0
M  V30 4753 O 448.832 4.84721 -2.52404 0
M  V30 4754 H 445.926 0.749253 -0.35007 0
M  V30 4755 H 448.472 1.06668 -1.31985 0
M  V30 4756 H 447.244 2.70908 -2.82355 0
M  V30 4757 H 446.867 3.70968 -1.43068 0
M  V30 4758 N 447.864 1.01787 1.20321 0
M  V30 4759 C 449.275 0.739307 1.71438 0
M  V30 4760 C 449.626 -0.742041 1.81627 0
M  V30 4761 O 448.751 -1.57903 1.47971 0
M  V30 4762 C 449.346 1.33538 3.11373 0
M  V30 4763 C 447.905 1.10566 3.59795 0
M  V30 4764 C 447.052 1.44028 2.36962 0
M  V30 4765 H 450.003 1.18718 1.05317 0
M  V30 4766 H 450.024 0.726611 3.73498 0
M  V30 4767 H 449.536 2.41352 3.03926 0
M  V30 4768 H 447.637 0.0452405 3.72573 0
M  V30 4769 H 447.75 1.78661 4.44542 0
M  V30 4770 H 446.114 0.85933 2.39766 0
M  V30 4771 H 446.897 2.52901 2.32155 0
M  V30 4772 N 449.342 -1.36122 0.79427 0
M  V30 4773 C 450.589 -1.99111 0.368905 0
M  V30 4774 C 450.917 -1.63032 -1.0607 0
M  V30 4775 O 450.172 -0.879303 -1.74833 0
M  V30 4776 C 450.471 -3.5409 0.48527 0
M  V30 4777 C 450.137 -4.10003 1.87638 0
M  V30 4778 C 448.799 -4.24986 2.257 0
M  V30 4779 C 451.151 -4.40423 2.78706 0
M  V30 4780 C 448.479 -4.67701 3.54221 0
M  V30 4781 C 450.831 -4.84573 4.0666 0
M  V30 4782 C 449.495 -4.97761 4.44737 0
M  V30 4783 H 448.765 -0.7286 0.134992 0
M  V30 4784 H 451.412 -1.62534 1.01267 0
M  V30 4785 H 449.717 -3.91052 -0.241984 0
M  V30 4786 H 451.414 -4.00766 0.137109 0
M  V30 4787 H 448.004 -3.98784 1.57064 0
M  V30 4788 H 452.188 -4.28412 2.50553 0
M  V30 4789 H 447.444 -4.761 3.83587 0
M  V30 4790 H 451.618 -5.07074 4.77336 0
M  V30 4791 H 449.245 -5.30618 5.44379 0
M  V30 4792 N 450.82 -0.546701 -1.47814 0
M  V30 4793 C 452.069 -0.0166497 -2.01693 0
M  V30 4794 C 452.382 1.33721 -1.42752 0
M  V30 4795 O 453.588 1.95658 -1.8823 0
M  V30 4796 C 452.044 0.0206769 -3.59894 0
M  V30 4797 C 451.652 -1.3293 -4.27824 0
M  V30 4798 C 453.396 0.498674 -4.21561 0
M  V30 4799 C 451.303 -1.25165 -5.78003 0
M  V30 4800 H 450.233 -0.0024541 -0.753996 0
M  V30 4801 H 452.884 -0.692984 -1.69912 0
M  V30 4802 H 451.266 0.76244 -3.88591 0
M  V30 4803 H 452.44 -2.08795 -4.10781 0
M  V30 4804 H 450.755 -1.74438 -3.78101 0
M  V30 4805 H 453.352 0.575 -5.31599 0
M  V30 4806 H 453.695 1.5083 -3.88016 0
M  V30 4807 H 454.228 -0.18791 -3.97356 0
M  V30 4808 H 450.967 -2.23695 -6.1615 0
M  V30 4809 H 450.487 -0.53464 -5.97412 0
M  V30 4810 H 452.166 -0.949299 -6.39998 0
M  V30 4811 N 452.299 1.55045 -0.282633 0
M  V30 4812 C 453.546 1.9976 0.33199 0
M  V30 4813 C 453.874 1.17105 1.55295 0
M  V30 4814 O 453.129 0.230599 1.94337 0
M  V30 4815 C 453.428 3.49422 0.750938 0
M  V30 4816 C 453.094 4.4941 -0.366228 0
M  V30 4817 C 451.756 4.76471 -0.672964 0
M  V30 4818 C 454.108 5.09054 -1.11864 0
M  V30 4819 C 451.436 5.60442 -1.73556 0
M  V30 4820 C 453.788 5.9418 -2.17102 0
M  V30 4821 C 452.452 6.19558 -2.48402 0
M  V30 4822 H 451.722 0.730974 0.121484 0
M  V30 4823 H 454.369 1.8732 -0.39791 0
M  V30 4824 H 452.674 3.59377 1.56063 0
M  V30 4825 H 454.371 3.81432 1.23736 0
M  V30 4826 H 450.961 4.2844 -0.117041 0
M  V30 4827 H 455.145 4.88165 -0.894925 0
M  V30 4828 H 450.401 5.78349 -1.983 0
M  V30 4829 H 454.575 6.39427 -2.75873 0
M  V30 4830 H 452.202 6.84417 -3.30874 0
M  V30 4831 N 453.777 0.010035 1.57597 0
M  V30 4832 C 455.025 -0.671371 1.90623 0
M  V30 4833 C 455.346 -1.73753 0.885151 0
M  V30 4834 O 454.616 -1.95752 -0.0760611 0
M  V30 4835 H 453.196 -0.250968 0.703579 0
M  V30 4836 H 455.858 0.0533325 1.94827 0
M  V30 4837 H 454.954 -1.13626 2.90681 0
M  V30 4838 N 455.255 -1.55392 -0.262866 0
M  V30 4839 C 456.671 -1.47459 -0.610582 0
M  V30 4840 C 456.871 -0.697031 -1.8906 0
M  V30 4841 O 455.927 -0.219952 -2.5154 0
M  V30 4842 C 457.24 -2.91751 -0.728131 0
M  V30 4843 C 458.788 -3.02027 -0.821517 0
M  V30 4844 C 459.263 -4.47594 -0.97076 0
M  V30 4845 N 460.754 -4.51465 -1.03603 0
M  V30 4846 C 461.489 -5.61326 -1.17049 0
M  V30 4847 N 460.985 -6.81032 -1.2715 0
M  V30 4848 N 462.778 -5.49089 -1.20239 0
M  V30 4849 H 454.929 -2.04395 0.577632 0
M  V30 4850 H 457.192 -0.927287 0.197086 0
M  V30 4851 H 456.898 -3.51413 0.142132 0
M  V30 4852 H 456.772 -3.4134 -1.6052 0
M  V30 4853 H 459.159 -2.42456 -1.68224 0
M  V30 4854 H 459.24 -2.55674 0.0803688 0
M  V30 4855 H 458.884 -5.07771 -0.114655 0
M  V30 4856 H 458.814 -4.91613 -1.88745 0
M  V30 4857 H 461.305 -3.6524 -0.96996 0
M  V30 4858 H 461.618 -7.60511 -1.37271 0
M  V30 4859 H 459.963 -6.83824 -1.24136 0
M  V30 4860 H 463.154 -4.54507 -1.11985 0
M  V30 4861 H 463.327 -6.34749 -1.30373 0
M  V30 4862 N 456.733 0.527833 -1.48498 0
M  V30 4863 C 457.981 1.28101 -1.56316 0
M  V30 4864 C 458.302 1.9352 -0.239781 0
M  V30 4865 O 457.572 1.81433 0.738849 0
M  V30 4866 H 456.152 0.475793 -0.575873 0
M  V30 4867 H 458.814 0.614052 -1.84974 0
M  V30 4868 H 457.91 2.05916 -2.34532 0
M  V30 4869 N 458.211 1.37122 0.776871 0
M  V30 4870 C 459.459 1.31787 1.53221 0
M  V30 4871 C 459.78 -0.0987589 1.9475 0
M  V30 4872 O 459.05 -1.0417 1.65908 0
M  V30 4873 H 457.63 0.484839 0.568278 0
M  V30 4874 H 460.292 1.71556 0.924917 0
M  V30 4875 H 459.388 1.95355 2.43398 0
M  V30 4876 N 459.689 -1.00246 1.21608 0
M  V30 4877 C 460.599 -2.12515 0.993709 0
M  V30 4878 C 461.615 -1.73913 -0.0549939 0
M  V30 4879 O 462.791 -2.00943 0.135619 0
M  V30 4880 C 459.856 -3.42083 0.563953 0
M  V30 4881 C 458.917 -3.94843 1.68516 0
M  V30 4882 C 458.15 -5.18226 1.27582 0
M  V30 4883 O 458.373 -5.70201 0.150506 0
M  V30 4884 O 457.307 -5.64497 2.0887 0
M  V30 4885 H 461.133 -2.34152 1.93407 0
M  V30 4886 H 458.718 -1.10891 1.00118 0
M  V30 4887 H 460.6 -4.20073 0.334194 0
M  V30 4888 H 459.275 -3.21828 -0.347665 0
M  V30 4889 H 458.182 -3.18068 1.96935 0
M  V30 4890 H 459.515 -4.19512 2.5743 0
M  V30 4891 N 461.167 -1.02423 -1.1978 0
M  V30 4892 C 462.077 -0.610919 -2.26506 0
M  V30 4893 C 463.093 0.355152 -1.70337 0
M  V30 4894 O 464.269 0.214195 -2.00258 0
M  V30 4895 C 461.334 0.0365921 -3.46681 0
M  V30 4896 C 460.395 -0.976389 -4.18049 0
M  V30 4897 C 459.628 -0.359683 -5.32487 0
M  V30 4898 O 459.851 0.838601 -5.64202 0
M  V30 4899 O 458.785 -1.08022 -5.92127 0
M  V30 4900 H 462.611 -1.49965 -2.64091 0
M  V30 4901 H 460.196 -0.794156 -1.26545 0
M  V30 4902 H 462.078 0.39786 -4.19518 0
M  V30 4903 H 460.753 0.899398 -3.10954 0
M  V30 4904 H 459.66 -1.38916 -3.47352 0
M  V30 4905 H 460.993 -1.80941 -4.57735 0
M  V30 4906 N 462.645 1.35699 -0.801477 0
M  V30 4907 C 463.575 2.32436 -0.222658 0
M  V30 4908 C 464.556 1.5723 0.649057 0
M  V30 4909 O 465.741 1.85324 0.580387 0
M  V30 4910 C 462.871 3.41469 0.633719 0
M  V30 4911 C 461.825 4.27774 -0.139083 0
M  V30 4912 C 461.151 5.28082 0.838666 0
M  V30 4913 C 462.451 5.04946 -1.33517 0
M  V30 4914 H 464.145 2.81094 -1.03086 0
M  V30 4915 H 461.691 1.35146 -0.497155 0
M  V30 4916 H 463.644 4.08143 1.04868 0
M  V30 4917 H 462.368 2.91408 1.47475 0
M  V30 4918 H 461.027 3.62673 -0.535156 0
M  V30 4919 H 460.675 4.7429 1.67506 0
M  V30 4920 H 460.375 5.86695 0.32594 0
M  V30 4921 H 461.899 5.97628 1.25194 0
M  V30 4922 H 463.313 5.64593 -0.995349 0
M  V30 4923 H 461.71 5.7303 -1.78202 0
M  V30 4924 H 462.78 4.35886 -2.12442 0
M  V30 4925 N 464.123 0.554532 1.47522 0
M  V30 4926 C 465.033 -0.197865 2.33764 0
M  V30 4927 C 466.049 -0.914576 1.48025 0
M  V30 4928 O 467.225 -0.884067 1.80959 0
M  V30 4929 C 464.29 -1.21628 3.24665 0
M  V30 4930 C 463.351 -0.507283 4.26292 0
M  V30 4931 C 462.584 -1.47718 5.1285 0
M  V30 4932 O 462.807 -2.7118 5.01814 0
M  V30 4933 O 461.741 -1.00313 5.93482 0
M  V30 4934 H 465.567 0.50949 2.99396 0
M  V30 4935 H 463.152 0.315176 1.46038 0
M  V30 4936 H 465.034 -1.80421 3.80823 0
M  V30 4937 H 463.709 -1.9056 2.61665 0
M  V30 4938 H 462.616 0.121778 3.73902 0
M  V30 4939 H 463.949 0.140544 4.91999 0
M  V30 4940 N 465.601 -1.54893 0.290851 0
M  V30 4941 C 466.829 -2.04343 -0.324288 0
M  V30 4942 C 467.244 -1.16859 -1.48289 0
M  V30 4943 O 466.601 -0.192018 -1.81487 0
M  V30 4944 C 466.652 -3.52756 -0.79026 0
M  V30 4945 O 466.373 -4.36913 0.322213 0
M  V30 4946 C 467.874 -4.18161 -1.4716 0
M  V30 4947 H 465.094 -0.667135 -0.0719173 0
M  V30 4948 H 467.638 -1.99981 0.427529 0
M  V30 4949 H 465.793 -3.57511 -1.49213 0
M  V30 4950 H 466.207 -5.24486 -0.0387372 0
M  V30 4951 H 467.681 -5.23562 -1.7489 0
M  V30 4952 H 468.158 -3.67282 -2.40834 0
M  V30 4953 H 468.764 -4.17454 -0.813178 0
M  V30 4954 N 467.08 -0.0183926 -1.57589 0
M  V30 4955 C 468.01 0.965596 -2.12599 0
M  V30 4956 C 468.991 1.34641 -1.0395 0
M  V30 4957 O 470.176 1.42693 -1.31729 0
M  V30 4958 C 467.306 2.25149 -2.64434 0
M  V30 4959 C 466.26 2.01175 -3.77773 0
M  V30 4960 C 465.586 3.35937 -4.15994 0
M  V30 4961 C 466.886 1.35953 -5.04296 0
M  V30 4962 H 468.58 0.507504 -2.95067 0
M  V30 4963 H 466.126 0.242671 -1.41941 0
M  V30 4964 H 468.079 2.94357 -3.01549 0
M  V30 4965 H 466.803 2.73105 -1.79112 0
M  V30 4966 H 465.462 1.34388 -3.4108 0
M  V30 4967 H 465.11 3.81631 -3.27669 0
M  V30 4968 H 464.81 3.20705 -4.92364 0
M  V30 4969 H 466.334 4.0643 -4.55683 0
M  V30 4970 H 467.748 1.95144 -5.39065 0
M  V30 4971 H 466.145 1.31152 -5.85593 0
M  V30 4972 H 467.215 0.331071 -4.83768 0
M  V30 4973 N 468.558 1.5553 0.254621 0
M  V30 4974 C 469.798 1.7876 0.991179 0
M  V30 4975 C 470.162 0.586669 1.82817 0
M  V30 4976 O 471.363 0.697585 2.5959 0
M  V30 4977 C 469.634 3.06679 1.83529 0
M  V30 4978 S 471.193 3.511 2.632 0
M  V30 4979 H 468.011 0.627916 0.333531 0
M  V30 4980 H 470.613 1.93766 0.259778 0
M  V30 4981 H 469.317 3.92158 1.20996 0
M  V30 4982 H 468.848 2.94388 2.60958 0
M  V30 4983 H 470.863 3.11823 3.8598 0
M  V30 4984 N 470.036 -0.519951 1.48776 0
M  V30 4985 C 470.986 -1.61995 1.60442 0
M  V30 4986 C 471.97 -1.54155 0.460991 0
M  V30 4987 O 473.162 -1.62006 0.712965 0
M  V30 4988 C 470.291 -3.00683 1.65664 0
M  V30 4989 C 469.377 -3.1359 2.8552 0
M  V30 4990 N 469.768 -2.96441 4.09825 0
M  V30 4991 C 468.066 -3.44662 2.83062 0
M  V30 4992 C 468.767 -3.1303 4.90293 0
M  V30 4993 N 467.743 -3.41058 4.23297 0
M  V30 4994 H 471.545 -1.47362 2.54287 0
M  V30 4995 H 469.059 -0.725649 1.45286 0
M  V30 4996 H 471.056 -3.79712 1.72117 0
M  V30 4997 H 469.716 -3.16401 0.729425 0
M  V30 4998 H 470.727 -2.72999 4.40104 0
M  V30 4999 H 467.404 -3.66675 1.9964 0
M  V30 5000 H 468.794 -3.04424 5.98979 0
M  V30 5001 N 471.514 -1.37532 -0.769588 0
M  V30 5002 C 472.477 -1.33292 -1.86456 0
M  V30 5003 C 473.477 -0.236537 -1.59051 0
M  V30 5004 O 474.667 -0.492511 -1.67093 0
M  V30 5005 C 471.799 -1.07118 -3.23633 0
M  V30 5006 H 472.992 -2.30692 -1.91628 0
M  V30 5007 H 470.545 -1.22593 -0.969572 0
M  V30 5008 H 471.28 -0.102578 -3.24138 0
M  V30 5009 H 471.065 -1.86479 -3.44917 0
M  V30 5010 H 472.555 -1.06806 -4.03711 0
M  V30 5011 N 472.992 0.995999 -1.22138 0
M  V30 5012 C 474.24 1.73167 -1.042 0
M  V30 5013 C 474.561 1.90329 0.42423 0
M  V30 5014 O 473.831 1.4607 1.30539 0
M  V30 5015 H 472.411 0.641593 -0.38258 0
M  V30 5016 H 475.073 1.19974 -1.53598 0
M  V30 5017 H 474.169 2.72734 -1.51731 0
M  V30 5018 N 474.47 1.03057 1.19235 0
M  V30 5019 C 475.719 0.72326 1.88287 0
M  V30 5020 C 476.032 -0.751333 1.80594 0
M  V30 5021 O 477.238 -1.17176 2.44912 0
M  V30 5022 C 475.694 1.24338 3.3774 0
M  V30 5023 C 475.302 2.74587 3.53986 0
M  V30 5024 C 477.046 1.01213 4.12257 0
M  V30 5025 C 474.953 3.20009 4.97341 0
M  V30 5026 H 473.883 0.266848 0.705201 0
M  V30 5027 H 476.534 1.24509 1.34795 0
M  V30 5028 H 474.916 0.649457 3.90638 0
M  V30 5029 H 476.09 3.39649 3.11408 0
M  V30 5030 H 474.405 2.9601 2.9286 0
M  V30 5031 H 477.002 1.32675 5.17978 0
M  V30 5032 H 477.345 -0.051001 4.16269 0
M  V30 5033 H 477.878 1.57014 3.65501 0
M  V30 5034 H 474.617 4.25659 4.98493 0
M  V30 5035 H 474.137 2.59676 5.40674 0
M  V30 5036 H 475.816 3.13447 5.66003 0
M  V30 5037 N 475.948 -1.35272 0.808662 0
M  V30 5038 C 477.359 -1.81179 0.450688 0
M  V30 5039 C 477.71 -1.67143 -1.02751 0
M  V30 5040 O 476.835 -1.20325 -1.79864 0
M  V30 5041 C 477.43 -3.28943 0.811275 0
M  V30 5042 C 475.989 -3.72985 0.505871 0
M  V30 5043 C 475.136 -2.57229 1.03578 0
M  V30 5044 H 478.087 -1.2322 1.00012 0
M  V30 5045 H 478.108 -3.80342 0.109588 0
M  V30 5046 H 477.62 -3.39127 1.88718 0
M  V30 5047 H 475.721 -3.68349 -0.561209 0
M  V30 5048 H 475.834 -4.67677 1.03995 0
M  V30 5049 H 474.198 -2.50548 0.458005 0
M  V30 5050 H 474.981 -2.7019 2.11784 0
M  V30 5051 N 477.426 -0.562348 -1.47226 0
M  V30 5052 C 478.673 -0.0402165 -2.0246 0
M  V30 5053 C 479.001 1.31169 -1.43614 0
M  V30 5054 O 478.256 1.86805 -0.5833 0
M  V30 5055 C 478.555 0.0969817 -3.57268 0
M  V30 5056 C 478.221 -1.1847 -4.35058 0
M  V30 5057 C 476.883 -1.53588 -4.56031 0
M  V30 5058 C 479.235 -2.03378 -4.79882 0
M  V30 5059 C 476.563 -2.73452 -5.19077 0
M  V30 5060 C 478.915 -3.2245 -5.44251 0
M  V30 5061 C 477.579 -3.57876 -5.63455 0
M  V30 5062 H 476.849 -0.0147163 -0.740854 0
M  V30 5063 H 479.496 -0.734895 -1.76838 0
M  V30 5064 H 477.801 0.87466 -3.81912 0
M  V30 5065 H 479.498 0.516408 -3.97661 0
M  V30 5066 H 476.088 -0.90126 -4.19017 0
M  V30 5067 H 480.272 -1.77553 -4.63453 0
M  V30 5068 H 475.528 -3.01062 -5.32139 0
M  V30 5069 H 479.702 -3.88526 -5.77945 0
M  V30 5070 H 477.329 -4.50849 -6.12078 0
M  V30 5071 N 478.904 1.54736 -0.299062 0
M  V30 5072 C 480.129 2.04975 0.316254 0
M  V30 5073 C 480.554 1.17501 1.46885 0
M  V30 5074 O 479.912 0.178678 1.80417 0
M  V30 5075 C 479.96 3.52672 0.751997 0
M  V30 5076 O 479.064 3.68226 1.85697 0
M  V30 5077 H 478.405 0.661126 0.0617175 0
M  V30 5078 H 480.935 1.99805 -0.440341 0
M  V30 5079 H 480.945 3.94488 1.04133 0
M  V30 5080 H 479.62 4.158 -0.0911482 0
M  V30 5081 H 478.197 3.38316 1.56834 0
M  V30 5082 N 480.382 0.0267497 1.57577 0
M  V30 5083 C 481.628 -0.653371 1.91987 0
M  V30 5084 C 481.961 -1.71915 0.903263 0
M  V30 5085 O 481.236 -1.94358 -0.0743387 0
M  V30 5086 C 481.519 -1.272 3.36886 0
M  V30 5087 C 481.372 -0.215938 4.49281 0
M  V30 5088 C 482.691 -2.19069 3.81703 0
M  V30 5089 H 479.81 -0.236047 0.698177 0
M  V30 5090 H 482.452 0.0835236 1.89816 0
M  V30 5091 H 480.602 -1.90005 3.38866 0
M  V30 5092 H 482.274 0.41449 4.59434 0
M  V30 5093 H 480.517 0.458855 4.31366 0
M  V30 5094 H 481.188 -0.688347 5.47691 0
M  V30 5095 H 483.664 -1.66253 3.81444 0
M  V30 5096 H 482.54 -2.59307 4.83788 0
M  V30 5097 H 482.801 -3.08087 3.17072 0
M  V30 5098 N 481.861 -1.55662 -0.24637 0
M  V30 5099 C 483.107 -1.77782 -0.975779 0
M  V30 5100 C 483.44 -0.592103 -1.84953 0
M  V30 5101 O 482.715 0.409588 -1.90138 0
M  V30 5102 C 482.998 -3.09788 -1.83584 0
M  V30 5103 C 482.851 -4.38764 -0.990241 0
M  V30 5104 C 484.17 -3.38029 -2.81823 0
M  V30 5105 H 481.289 -0.646789 -0.353317 0
M  V30 5106 H 483.931 -1.88398 -0.246248 0
M  V30 5107 H 482.081 -3.00869 -2.45784 0
M  V30 5108 H 483.753 -4.59675 -0.386897 0
M  V30 5109 H 481.996 -4.32798 -0.294626 0
M  V30 5110 H 482.667 -5.27514 -1.62584 0
M  V30 5111 H 485.143 -3.46915 -2.2976 0
M  V30 5112 H 484.019 -4.3161 -3.39122 0
M  V30 5113 H 484.28 -2.58968 -3.58313 0
M  V30 5114 N 483.339 0.512053 -1.4905 0
M  V30 5115 C 484.75 1.09376 -1.51307 0
M  V30 5116 C 485.101 1.94 -0.292971 0
M  V30 5117 O 484.226 2.07965 0.598277 0
M  V30 5118 C 484.821 1.99031 -2.74176 0
M  V30 5119 C 483.38 2.52385 -2.79247 0
M  V30 5120 C 482.527 1.29749 -2.45073 0
M  V30 5121 H 485.478 0.296467 -1.55906 0
M  V30 5122 H 485.499 2.83569 -2.53711 0
M  V30 5123 H 485.011 1.37412 -3.62959 0
M  V30 5124 H 483.112 3.17673 -1.94716 0
M  V30 5125 H 483.225 2.90293 -3.81139 0
M  V30 5126 H 481.589 1.61912 -1.96612 0
M  V30 5127 H 482.372 0.698555 -3.36118 0
M  V30 5128 N 484.817 1.37938 0.762283 0
M  V30 5129 C 486.065 1.33404 1.51815 0
M  V30 5130 C 486.386 -0.0780975 1.94844 0
M  V30 5131 O 485.656 -1.02405 1.67003 0
M  V30 5132 H 484.236 0.490839 0.563104 0
M  V30 5133 H 486.898 1.72527 0.906669 0
M  V30 5134 H 485.994 1.97926 2.41313 0
M  V30 5135 N 486.295 -0.989507 1.22664 0
M  V30 5136 C 487.544 -1.72375 1.04737 0
M  V30 5137 C 487.857 -1.91096 -0.417316 0
M  V30 5138 O 489.063 -2.6188 -0.716334 0
M  V30 5139 C 487.519 -3.10161 1.82561 0
M  V30 5140 C 487.127 -2.99358 3.333 0
M  V30 5141 C 488.871 -3.87607 1.73093 0
M  V30 5142 C 486.778 -4.32319 4.03552 0
M  V30 5143 H 485.708 -0.646326 0.388302 0
M  V30 5144 H 488.359 -1.10437 1.46546 0
M  V30 5145 H 486.741 -3.728 1.33552 0
M  V30 5146 H 487.915 -2.45863 3.89728 0
M  V30 5147 H 486.23 -2.35392 3.43481 0
M  V30 5148 H 488.827 -4.86025 2.22899 0
M  V30 5149 H 489.17 -4.10509 0.691976 0
M  V30 5150 H 489.703 -3.31652 2.19663 0
M  V30 5151 H 486.442 -4.14616 5.07714 0
M  V30 5152 H 485.962 -4.85714 3.51911 0
M  V30 5153 H 487.641 -5.01051 4.09337 0
M  V30 5154 N 487.773 -1.03688 -1.18687 0
M  V30 5155 C 489.001 -0.757918 -1.92518 0
M  V30 5156 C 489.416 0.684398 -1.75959 0
M  V30 5157 O 488.773 1.46617 -1.08673 0
M  V30 5158 C 488.824 -1.10985 -3.44042 0
M  V30 5159 O 488.545 -2.49554 -3.60076 0
M  V30 5160 C 490.046 -0.854844 -4.3498 0
M  V30 5161 H 487.266 -0.276699 -0.611293 0
M  V30 5162 H 489.81 -1.38352 -1.50595 0
M  V30 5163 H 487.965 -0.529279 -3.83767 0
M  V30 5164 H 488.379 -2.6291 -4.53849 0
M  V30 5165 H 489.853 -1.15098 -5.39867 0
M  V30 5166 H 490.33 0.210507 -4.38695 0
M  V30 5167 H 490.936 -1.41853 -4.00946 0
M  V30 5168 N 489.251 1.34841 -0.815825 0
M  V30 5169 C 490.214 2.27959 -0.238185 0
M  V30 5170 C 491.214 1.49983 0.579816 0
M  V30 5171 O 492.404 1.69617 0.396953 0
M  V30 5172 C 489.536 3.34314 0.666876 0
M  V30 5173 H 490.729 2.80558 -1.05958 0
M  V30 5174 H 488.282 1.44852 -0.587156 0
M  V30 5175 H 489.017 2.86916 1.5116 0
M  V30 5176 H 488.802 3.92014 0.0819106 0
M  V30 5177 H 490.292 4.0379 1.06506 0
M  V30 5178 N 490.729 0.570148 1.46925 0
M  V30 5179 C 491.692 -0.159933 2.28641 0
M  V30 5180 C 492.692 -0.830638 1.37685 0
M  V30 5181 O 493.882 -0.684516 1.60187 0
M  V30 5182 C 491.014 -1.2354 3.17727 0
M  V30 5183 H 492.207 0.558035 2.94662 0
M  V30 5184 H 489.76 0.327603 1.52828 0
M  V30 5185 H 490.495 -1.98535 2.56426 0
M  V30 5186 H 490.28 -0.759125 3.84681 0
M  V30 5187 H 491.77 -1.74782 3.79264 0
M  V30 5188 N 492.207 -1.54576 0.307264 0
M  V30 5189 C 493.432 -2.05139 -0.305379 0
M  V30 5190 C 493.857 -1.18278 -1.46259 0
M  V30 5191 O 493.215 -0.188243 -1.8032 0
M  V30 5192 C 493.263 -3.53066 -0.733283 0
M  V30 5193 O 492.367 -3.69206 -1.83741 0
M  V30 5194 H 491.708 -0.661444 -0.0582105 0
M  V30 5195 H 494.238 -1.99569 0.450931 0
M  V30 5196 H 494.248 -3.95034 -1.02039 0
M  V30 5197 H 492.923 -4.15746 0.113198 0
M  V30 5198 H 491.5 -3.39143 -1.55037 0
M  V30 5199 N 493.685 -0.035106 -1.57561 0
M  V30 5200 C 494.933 0.64096 -1.91667 0
M  V30 5201 C 495.254 1.72323 -0.912681 0
M  V30 5202 O 494.524 1.95849 0.0449089 0
M  V30 5203 H 493.104 0.239743 -0.707483 0
M  V30 5204 H 495.766 -0.084321 -1.94718 0
M  V30 5205 H 494.862 1.08987 -2.92452 0
M  V30 5206 N 495.163 1.55791 0.238111 0
M  V30 5207 C 496.403 1.79801 0.972163 0
M  V30 5208 C 496.767 0.606027 1.82185 0
M  V30 5209 O 497.968 0.725079 2.58836 0
M  V30 5210 C 496.239 3.08608 1.80266 0
M  V30 5211 S 497.798 3.53872 2.59461 0
M  V30 5212 H 494.616 0.631418 0.326852 0
M  V30 5213 H 497.218 1.94031 0.239212 0
M  V30 5214 H 495.922 3.93419 1.1683 0
M  V30 5215 H 495.453 2.9714 2.57821 0
M  V30 5216 H 497.468 3.15899 3.82651 0
M  V30 5217 N 496.642 -0.504142 1.49319 0
M  V30 5218 C 497.867 -1.28729 1.62615 0
M  V30 5219 C 498.292 -1.85752 0.296309 0
M  V30 5220 O 497.65 -1.65704 -0.735649 0
M  V30 5221 C 497.698 -2.39561 2.69524 0
M  V30 5222 O 496.802 -3.43324 2.28478 0
M  V30 5223 H 496.143 -0.380172 0.544395 0
M  V30 5224 H 498.673 -0.603872 1.95485 0
M  V30 5225 H 498.683 -2.8537 2.91595 0
M  V30 5226 H 497.358 -1.97423 3.66056 0
M  V30 5227 H 495.935 -3.03455 2.16725 0
M  V30 5228 N 498.12 -1.38341 -0.754957 0
M  V30 5229 C 499.083 -1.35262 -1.85032 0
M  V30 5230 C 500.083 -0.253393 -1.58791 0
M  V30 5231 O 501.273 -0.510205 -1.66561 0
M  V30 5232 C 498.405 -1.10544 -3.22479 0
M  V30 5233 H 499.598 -2.32712 -1.8917 0
M  V30 5234 H 497.151 -1.23614 -0.956515 0
M  V30 5235 H 497.886 -0.136952 -3.24011 0
M  V30 5236 H 497.671 -1.90127 -3.4292 0
M  V30 5237 H 499.161 -1.11082 -4.02555 0
M  V30 5238 N 499.598 0.982988 -1.23187 0
M  V30 5239 C 500.828 1.75666 -1.08743 0
M  V30 5240 C 501.236 1.85662 0.364195 0
M  V30 5241 O 500.579 1.33317 1.26382 0
M  V30 5242 C 500.641 3.20144 -1.63549 0
M  V30 5243 C 500.305 3.33665 -3.12277 0
M  V30 5244 C 501.302 3.20194 -4.096 0
M  V30 5245 C 498.987 3.58397 -3.51933 0
M  V30 5246 C 500.981 3.31256 -5.44563 0
M  V30 5247 C 498.668 3.69098 -4.87042 0
M  V30 5248 C 499.666 3.55537 -5.83166 0
M  V30 5249 O 499.354 3.65864 -7.1582 0
M  V30 5250 H 499.086 0.558194 -0.381307 0
M  V30 5251 H 501.64 1.24387 -1.63454 0
M  V30 5252 H 499.87 3.72659 -1.03256 0
M  V30 5253 H 501.559 3.79262 -1.4462 0
M  V30 5254 H 502.325 3.00987 -3.80305 0
M  V30 5255 H 498.204 3.68025 -2.77631 0
M  V30 5256 H 501.748 3.20588 -6.19572 0
M  V30 5257 H 497.645 3.87814 -5.16014 0
M  V30 5258 H 498.413 3.82675 -7.23534 0
M  V30 5259 N 501.076 1.04316 1.18135 0
M  V30 5260 C 502.301 0.768047 1.92655 0
M  V30 5261 C 502.726 -0.66904 1.758 0
M  V30 5262 O 502.084 -1.46372 1.06981 0
M  V30 5263 C 502.132 1.14239 3.42026 0
M  V30 5264 O 501.236 0.269333 4.1152 0
M  V30 5265 H 500.577 0.282436 0.600937 0
M  V30 5266 H 503.107 1.39367 1.49793 0
M  V30 5267 H 503.117 1.10538 3.92741 0
M  V30 5268 H 501.792 2.18928 3.53615 0
M  V30 5269 H 500.369 0.366175 3.71098 0
M  V30 5270 N 502.554 -1.34406 0.822964 0
M  V30 5271 C 503.802 -1.97892 0.410245 0
M  V30 5272 C 504.123 -1.65567 -1.03017 0
M  V30 5273 O 503.393 -0.94642 -1.71522 0
M  V30 5274 H 501.973 -0.732049 0.148707 0
M  V30 5275 H 504.635 -1.64043 1.05242 0
M  V30 5276 H 503.731 -3.07579 0.529284 0
M  V30 5277 N 504.032 -0.577932 -1.46621 0
M  V30 5278 C 505.281 -0.0594281 -2.01612 0
M  V30 5279 C 505.594 1.30663 -1.45556 0
M  V30 5280 O 506.8 1.91621 -1.92337 0
M  V30 5281 C 505.256 -0.0556666 -3.59857 0
M  V30 5282 C 504.864 -1.41975 -4.24908 0
M  V30 5283 C 506.608 0.409143 -4.22524 0
M  V30 5284 C 504.515 -1.37397 -5.75218 0
M  V30 5285 H 503.445 -0.0184469 -0.753774 0
M  V30 5286 H 506.096 -0.728869 -1.68404 0
M  V30 5287 H 504.478 0.679843 -3.90121 0
M  V30 5288 H 505.652 -2.17461 -4.0626 0
M  V30 5289 H 503.967 -1.82419 -3.74316 0
M  V30 5290 H 506.564 0.46211 -5.32699 0
M  V30 5291 H 506.907 1.42565 -3.91128 0
M  V30 5292 H 507.44 -0.272152 -3.96868 0
M  V30 5293 H 504.179 -2.36714 -6.11267 0
M  V30 5294 H 503.699 -0.661239 -5.96144 0
M  V30 5295 H 505.378 -1.08484 -6.3784 0
M  V30 5296 N 505.51 1.54411 -0.315457 0
M  V30 5297 C 506.921 1.85885 0.174265 0
M  V30 5298 C 507.272 1.23723 1.52273 0
M  V30 5299 O 506.397 0.540246 2.09548 0
M  V30 5300 C 506.992 3.37257 0.322981 0
M  V30 5301 C 505.551 3.68711 0.756922 0
M  V30 5302 C 504.698 2.77013 -0.126195 0
M  V30 5303 H 507.649 1.49374 -0.536007 0
M  V30 5304 H 507.67 3.62539 1.15522 0
M  V30 5305 H 507.182 3.82471 -0.658602 0
M  V30 5306 H 505.283 3.29024 1.74854 0
M  V30 5307 H 505.396 4.75741 0.566291 0
M  V30 5308 H 503.76 2.51588 0.39692 0
M  V30 5309 H 504.543 3.25051 -1.1044 0
M  V30 5310 N 506.988 0.0434614 1.5754 0
M  V30 5311 C 507.918 -0.931651 2.14109 0
M  V30 5312 C 508.899 -1.32971 1.06079 0
M  V30 5313 O 510.084 -1.40579 1.33982 0
M  V30 5314 C 507.214 -2.20914 2.67982 0
M  V30 5315 C 506.168 -1.95139 3.80926 0
M  V30 5316 C 505.494 -3.29276 4.21285 0
M  V30 5317 C 506.794 -1.27913 5.06395 0
M  V30 5318 H 508.488 -0.460497 2.95837 0
M  V30 5319 H 506.034 -0.220058 1.42309 0
M  V30 5320 H 507.987 -2.89522 3.06194 0
M  V30 5321 H 506.711 -2.70221 1.83434 0
M  V30 5322 H 505.37 -1.28945 3.43175 0
M  V30 5323 H 505.018 -3.76369 3.33699 0
M  V30 5324 H 504.718 -3.12831 4.97404 0
M  V30 5325 H 506.242 -3.99129 4.62091 0
M  V30 5326 H 507.656 -1.86544 5.42102 0
M  V30 5327 H 506.053 -1.2182 5.87605 0
M  V30 5328 H 507.123 -0.254066 4.84234 0
M  V30 5329 N 508.466 -1.55915 -0.229846 0
M  V30 5330 C 509.694 -1.82617 -0.972562 0
M  V30 5331 C 510.109 -0.621488 -1.78278 0
M  V30 5332 O 509.466 0.409956 -1.77836 0
M  V30 5333 C 509.517 -3.0774 -1.89679 0
M  V30 5334 O 509.238 -4.23559 -1.11934 0
M  V30 5335 C 510.739 -3.47368 -2.75409 0
M  V30 5336 H 507.959 -0.60727 -0.285419 0
M  V30 5337 H 510.503 -2.02996 -0.247579 0
M  V30 5338 H 508.658 -2.89361 -2.57583 0
M  V30 5339 H 509.072 -4.94586 -1.74599 0
M  V30 5340 H 510.546 -4.37977 -3.35977 0
M  V30 5341 H 511.023 -2.68737 -3.47386 0
M  V30 5342 H 511.629 -3.68158 -2.12931 0
M  V30 5343 N 509.944 0.496216 -1.49584 0
M  V30 5344 C 510.894 1.59422 -1.62999 0
M  V30 5345 C 511.878 1.53402 -0.485457 0
M  V30 5346 O 513.07 1.60851 -0.738649 0
M  V30 5347 C 510.199 2.98009 -1.70427 0
M  V30 5348 C 509.285 3.09008 -2.90473 0
M  V30 5349 N 509.676 2.89884 -4.14489 0
M  V30 5350 C 507.974 3.40115 -2.8851 0
M  V30 5351 C 508.675 3.0519 -4.95211 0
M  V30 5352 N 507.651 3.3428 -4.2867 0
M  V30 5353 H 511.453 1.43297 -2.56599 0
M  V30 5354 H 508.967 0.702443 -1.46422 0
M  V30 5355 H 510.964 3.76926 -1.78136 0
M  V30 5356 H 509.624 3.152 -0.77967 0
M  V30 5357 H 510.635 2.65963 -4.44392 0
M  V30 5358 H 507.312 3.63452 -2.05448 0
M  V30 5359 H 508.702 2.94856 -6.03746 0
M  V30 5360 N 511.423 1.38739 0.74761 0
M  V30 5361 C 512.839 1.20067 1.05148 0
M  V30 5362 C 513.039 0.0534835 2.01429 0
M  V30 5363 O 512.095 -0.59886 2.45296 0
M  V30 5364 C 513.408 2.52957 1.62584 0
M  V30 5365 C 514.956 2.59692 1.74726 0
M  V30 5366 C 515.431 3.92772 2.35573 0
M  V30 5367 N 516.922 3.94343 2.42997 0
M  V30 5368 C 517.657 4.9408 2.90985 0
M  V30 5369 N 517.153 6.04214 3.38965 0
M  V30 5370 N 518.946 4.81466 2.9008 0
M  V30 5371 H 511.097 2.12121 0.108808 0
M  V30 5372 H 513.36 0.941491 0.110899 0
M  V30 5373 H 513.066 3.37389 0.993051 0
M  V30 5374 H 512.94 2.71779 2.61565 0
M  V30 5375 H 515.327 1.75651 2.3713 0
M  V30 5376 H 515.408 2.44731 0.744326 0
M  V30 5377 H 515.052 4.77238 1.738 0
M  V30 5378 H 514.982 4.05046 3.36519 0
M  V30 5379 H 517.473 3.14799 2.0907 0
M  V30 5380 H 517.786 6.76241 3.74056 0
M  V30 5381 H 516.131 6.07825 3.37007 0
M  V30 5382 H 519.322 3.94535 2.51912 0
M  V30 5383 H 519.495 5.59344 3.27166 0
M  V30 5384 N 512.901 -0.976442 1.23707 0
M  V30 5385 C 514.178 -1.69296 0.979699 0
M  V30 5386 C 514.558 -2.0508 -0.500555 0
M  V30 5387 O 513.906 -1.74708 -1.47273 0
M  V30 5388 C 514.116 -2.93143 1.89389 0
M  V30 5389 C 515.464 -3.65572 2.15968 0
M  V30 5390 O 516.488 -3.03184 1.86971 0
M  V30 5391 O 515.347 -4.77859 2.65167 0
M  V30 5392 H 512.441 -0.739708 0.369812 0
M  V30 5393 H 514.987 -1.03131 1.34767 0
M  V30 5394 H 513.759 -2.63327 2.89439 0
M  V30 5395 H 513.382 -3.67044 1.52854 0
M  V30 5396 N 514.379 -1.04941 -1.1758 0
M  V30 5397 C 515.609 -0.777166 -1.91425 0
M  V30 5398 C 516.017 0.670647 -1.76915 0
M  V30 5399 O 515.36 1.46965 -1.10213 0
M  V30 5400 C 515.422 -1.07495 -3.43052 0
M  V30 5401 C 515.086 -2.51844 -3.81345 0
M  V30 5402 C 516.083 -3.50047 -3.844 0
M  V30 5403 C 513.768 -2.86787 -4.12382 0
M  V30 5404 C 515.762 -4.81239 -4.17957 0
M  V30 5405 C 513.449 -4.18182 -4.45608 0
M  V30 5406 C 514.447 -5.15219 -4.48373 0
M  V30 5407 O 514.135 -6.44258 -4.80819 0
M  V30 5408 H 513.867 -0.282209 -0.614275 0
M  V30 5409 H 516.421 -1.40258 -1.50056 0
M  V30 5410 H 514.651 -0.392437 -3.84704 0
M  V30 5411 H 516.34 -0.78912 -3.98155 0
M  V30 5412 H 517.106 -3.24391 -3.60548 0
M  V30 5413 H 512.985 -2.11922 -4.09402 0
M  V30 5414 H 516.529 -5.56974 -4.2003 0
M  V30 5415 H 512.426 -4.43602 -4.68922 0
M  V30 5416 H 513.194 -6.49041 -4.98686 0
M  V30 5417 N 515.857 1.33968 -0.830081 0
M  V30 5418 C 516.82 2.27694 -0.26235 0
M  V30 5419 C 517.82 1.50589 0.563876 0
M  V30 5420 O 519.01 1.70028 0.378941 0
M  V30 5421 C 516.142 3.35002 0.63138 0
M  V30 5422 H 517.335 2.79419 -1.08928 0
M  V30 5423 H 514.888 1.44221 -0.602486 0
M  V30 5424 H 515.623 2.88504 1.48109 0
M  V30 5425 H 515.408 3.92079 0.0403276 0
M  V30 5426 H 516.898 4.04897 1.02217 0
M  V30 5427 N 517.335 0.585699 1.46312 0
M  V30 5428 C 518.267 -0.183687 2.28463 0
M  V30 5429 C 519.28 -0.85264 1.38686 0
M  V30 5430 O 520.469 -0.721701 1.6326 0
M  V30 5431 C 517.569 -1.27977 3.13808 0
M  V30 5432 C 516.742 -0.702164 4.31727 0
M  V30 5433 C 515.801 -1.68633 4.98447 0
M  V30 5434 O 514.827 -1.22121 5.55945 0
M  V30 5435 N 516.029 -3.02047 4.95729 0
M  V30 5436 H 518.794 0.521127 2.95134 0
M  V30 5437 H 516.355 0.423673 1.56258 0
M  V30 5438 H 518.347 -1.9375 3.55307 0
M  V30 5439 H 516.917 -1.8874 2.4919 0
M  V30 5440 H 516.137 0.1331 3.93975 0
M  V30 5441 H 517.425 -0.296101 5.07938 0
M  V30 5442 H 516.823 -3.42457 4.50266 0
M  V30 5443 H 515.38 -3.63301 5.41161 0
M  V30 5444 N 518.813 -1.54241 0.323641 0
M  V30 5445 C 520.038 -2.05452 -0.283605 0
M  V30 5446 C 520.463 -1.19823 -1.44997 0
M  V30 5447 O 519.821 -0.207358 -1.8011 0
M  V30 5448 C 519.869 -3.53823 -0.695795 0
M  V30 5449 O 518.973 -3.71134 -1.79815 0
M  V30 5450 H 518.314 -0.662024 -0.0511917 0
M  V30 5451 H 520.844 -1.99079 0.472073 0
M  V30 5452 H 520.854 -3.96094 -0.978434 0
M  V30 5453 H 519.529 -4.15602 0.157287 0
M  V30 5454 H 518.106 -3.40768 -1.51431 0
M  V30 5455 N 520.291 -0.0518155 -1.57515 0
M  V30 5456 C 521.537 0.622745 -1.93002 0
M  V30 5457 C 521.87 1.70456 -0.930499 0
M  V30 5458 O 521.145 1.94452 0.0434086 0
M  V30 5459 C 521.428 1.21824 -3.38867 0
M  V30 5460 C 521.281 0.144434 -4.49568 0
M  V30 5461 C 522.6 2.12968 -3.8514 0
M  V30 5462 H 519.719 0.22491 -0.701844 0
M  V30 5463 H 522.361 -0.113711 -1.89659 0
M  V30 5464 H 520.511 1.8459 -3.41846 0
M  V30 5465 H 522.183 -0.48753 -4.58717 0
M  V30 5466 H 520.426 -0.527424 -4.30582 0
M  V30 5467 H 521.097 0.601127 -5.48717 0
M  V30 5468 H 523.573 1.60163 -3.8404 0
M  V30 5469 H 522.449 2.51578 -4.87852 0
M  V30 5470 H 522.71 3.03004 -3.21934 0
M  V30 5471 N 521.769 1.56035 0.221574 0
M  V30 5472 C 523.185 1.49026 0.571271 0
M  V30 5473 C 523.385 0.746912 1.87146 0
M  V30 5474 O 522.441 0.286566 2.50869 0
M  V30 5475 C 523.754 2.93579 0.650522 0
M  V30 5476 C 525.302 3.04099 0.741151 0
M  V30 5477 C 525.777 4.5001 0.851747 0
M  V30 5478 N 527.268 4.54053 0.915968 0
M  V30 5479 C 528.003 5.64232 1.02125 0
M  V30 5480 N 527.499 6.84164 1.09049 0
M  V30 5481 N 529.292 5.52084 1.05639 0
M  V30 5482 H 521.443 2.02791 -0.63162 0
M  V30 5483 H 523.706 0.921736 -0.221602 0
M  V30 5484 H 523.412 3.50912 -0.235253 0
M  V30 5485 H 523.286 3.45476 1.51413 0
M  V30 5486 H 525.673 2.4683 1.61737 0
M  V30 5487 H 525.754 2.55371 -0.148128 0
M  V30 5488 H 525.398 5.07896 -0.0200117 0
M  V30 5489 H 525.328 4.96444 1.75644 0
M  V30 5490 H 527.819 3.67683 0.872782 0
M  V30 5491 H 528.132 7.63883 1.1706 0
M  V30 5492 H 526.477 6.86875 1.05962 0
M  V30 5493 H 529.668 4.57317 0.998953 0
M  V30 5494 H 529.841 6.37983 1.13498 0
M  V30 5495 N 523.247 -0.488276 1.49845 0
M  V30 5496 C 524.177 -1.59675 1.70371 0
M  V30 5497 C 525.158 -1.60878 0.552473 0
M  V30 5498 O 526.343 -1.77417 0.78973 0
M  V30 5499 C 523.473 -2.98098 1.782 0
M  V30 5500 C 522.427 -3.11761 2.93239 0
M  V30 5501 C 521.753 -4.51661 2.86193 0
M  V30 5502 C 523.053 -2.90589 4.33999 0
M  V30 5503 H 524.747 -1.42752 2.63177 0
M  V30 5504 H 522.293 -0.685317 1.26647 0
M  V30 5505 H 524.246 -3.75555 1.91144 0
M  V30 5506 H 522.97 -3.16138 0.820018 0
M  V30 5507 H 521.629 -2.36732 2.79917 0
M  V30 5508 H 521.277 -4.66595 1.87877 0
M  V30 5509 H 520.977 -4.61742 3.63412 0
M  V30 5510 H 522.501 -5.31162 3.01163 0
M  V30 5511 H 523.915 -3.57807 4.47936 0
M  V30 5512 H 522.312 -3.1213 5.12538 0
M  V30 5513 H 523.382 -1.86595 4.4756 0
M  V30 5514 N 524.725 -1.39134 -0.740242 0
M  V30 5515 C 525.971 -1.36273 -1.50192 0
M  V30 5516 C 526.304 0.0430136 -1.94152 0
M  V30 5517 O 525.579 1.00691 -1.66408 0
M  V30 5518 C 525.862 -2.33041 -2.74525 0
M  V30 5519 C 525.715 -3.82535 -2.36617 0
M  V30 5520 C 527.034 -2.27723 -3.76604 0
M  V30 5521 H 524.153 -0.496323 -0.544823 0
M  V30 5522 H 526.795 -1.70085 -0.846815 0
M  V30 5523 H 524.945 -2.04337 -3.30422 0
M  V30 5524 H 526.617 -4.21967 -1.86391 0
M  V30 5525 H 524.86 -3.99565 -1.68909 0
M  V30 5526 H 525.531 -4.45723 -3.2563 0
M  V30 5527 H 528.007 -2.53091 -3.30279 0
M  V30 5528 H 526.883 -2.97519 -4.61274 0
M  V30 5529 H 527.144 -1.28049 -4.2315 0
M  V30 5530 N 526.204 0.969867 -1.24223 0
M  V30 5531 C 527.432 1.74756 -1.10761 0
M  V30 5532 C 527.847 1.85713 0.340041 0
M  V30 5533 O 527.204 1.34389 1.23474 0
M  V30 5534 C 527.255 3.16915 -1.73917 0
M  V30 5535 O 526.976 3.06511 -3.13021 0
M  V30 5536 C 528.477 4.11032 -1.66036 0
M  V30 5537 H 525.697 0.548092 -0.387087 0
M  V30 5538 H 528.241 1.2178 -1.64286 0
M  V30 5539 H 526.396 3.66884 -1.244 0
M  V30 5540 H 526.81 3.96079 -3.43834 0
M  V30 5541 H 528.284 5.08446 -2.14911 0
M  V30 5542 H 528.761 4.34785 -0.621159 0
M  V30 5543 H 529.367 3.66972 -2.14969 0
M  V30 5544 N 527.682 1.05563 1.17022 0
M  V30 5545 C 528.93 0.76642 1.87004 0
M  V30 5546 C 529.251 -0.708854 1.8166 0
M  V30 5547 O 528.521 -1.51242 1.2451 0
M  V30 5548 H 527.101 0.280516 0.692329 0
M  V30 5549 H 529.763 1.33557 1.41945 0
M  V30 5550 H 528.859 1.08472 2.92644 0
M  V30 5551 N 529.16 -1.33526 0.837174 0
M  V30 5552 C 530.11 -2.2672 0.241269 0
M  V30 5553 C 531.094 -1.49183 -0.602756 0
M  V30 5554 O 532.286 -1.71052 -0.455002 0
M  V30 5555 C 529.415 -3.38294 -0.584125 0
M  V30 5556 C 528.501 -4.23231 0.271315 0
M  V30 5557 N 528.892 -4.87473 1.34922 0
M  V30 5558 C 527.19 -4.45962 0.0580589 0
M  V30 5559 C 527.891 -5.50685 1.87405 0
M  V30 5560 N 526.867 -5.30732 1.17578 0
M  V30 5561 H 530.669 -2.73903 1.06558 0
M  V30 5562 H 528.183 -1.47411 0.68145 0
M  V30 5563 H 530.18 -4.04044 -1.02731 0
M  V30 5564 H 528.84 -2.9266 -1.40643 0
M  V30 5565 H 529.851 -4.88077 1.7321 0
M  V30 5566 H 526.528 -4.11052 -0.730938 0
M  V30 5567 H 527.918 -6.11845 2.77661 0
M  V30 5568 N 530.638 -0.59345 -1.46 0
M  V30 5569 C 531.568 0.121192 -2.33185 0
M  V30 5570 C 532.549 0.872977 -1.4599 0
M  V30 5571 O 533.734 0.846321 -1.74789 0
M  V30 5572 C 530.864 1.12844 -3.28456 0
M  V30 5573 C 529.818 0.4908 -4.25177 0
M  V30 5574 C 529.144 1.60529 -5.10034 0
M  V30 5575 C 530.444 -0.578949 -5.19081 0
M  V30 5576 H 532.138 -0.606767 -2.93187 0
M  V30 5577 H 529.684 -0.293242 -1.40983 0
M  V30 5578 H 531.637 1.63684 -3.88311 0
M  V30 5579 H 530.361 1.88681 -2.66584 0
M  V30 5580 H 529.02 0.00339328 -3.666 0
M  V30 5581 H 528.668 2.35359 -4.44539 0
M  V30 5582 H 528.368 1.18422 -5.75543 0
M  V30 5583 H 529.892 2.11623 -5.72755 0
M  V30 5584 H 531.306 -0.155199 -5.7309 0
M  V30 5585 H 529.703 -0.920947 -5.92991 0
M  V30 5586 H 530.773 -1.46109 -4.62364 0
M  V30 5587 N 532.116 1.54067 -0.331816 0
M  V30 5588 C 533.063 2.24623 0.530372 0
M  V30 5589 C 534.033 1.24009 1.10503 0
M  V30 5590 O 535.218 1.52712 1.14384 0
M  V30 5591 C 532.358 3.01374 1.68129 0
M  V30 5592 C 531.471 4.16821 1.13507 0
M  V30 5593 C 530.606 4.81085 2.25234 0
M  V30 5594 C 529.645 5.88621 1.67903 0
M  V30 5595 N 528.782 6.46713 2.73326 0
M  V30 5596 H 533.622 2.97898 -0.0778607 0
M  V30 5597 H 531.159 1.47014 -0.0501965 0
M  V30 5598 H 533.117 3.44125 2.35868 0
M  V30 5599 H 531.747 2.30419 2.26069 0
M  V30 5600 H 530.799 3.78796 0.348979 0
M  V30 5601 H 532.111 4.94203 0.675633 0
M  V30 5602 H 531.265 5.26846 3.00862 0
M  V30 5603 H 530.004 4.03102 2.74518 0
M  V30 5604 H 529.009 5.42254 0.907773 0
M  V30 5605 H 530.234 6.68506 1.19487 0
M  V30 5606 H 528.18 5.71599 3.21886 0
M  V30 5607 H 528.097 7.19532 2.3197 0
M  V30 5608 H 529.365 6.97129 3.48758 0
M  V30 5609 N 533.594 0.0601682 1.57485 0
M  V30 5610 C 534.822 -0.620937 1.97363 0
M  V30 5611 C 535.237 -1.63846 0.938082 0
M  V30 5612 O 534.594 -1.82339 -0.0766578 0
M  V30 5613 C 534.645 -1.29987 3.37321 0
M  V30 5614 O 534.366 -0.323081 4.36907 0
M  V30 5615 C 535.867 -2.06989 3.92008 0
M  V30 5616 H 533.087 -0.169135 0.649334 0
M  V30 5617 H 535.631 0.129132 2.04092 0
M  V30 5618 H 533.786 -2.0011 3.31715 0
M  V30 5619 H 534.2 -0.808754 5.18227 0
M  V30 5620 H 535.674 -2.49901 4.92192 0
M  V30 5621 H 536.151 -2.92173 3.2792 0
M  V30 5622 H 536.757 -1.41757 4.0098 0
M  V30 5623 N 535.072 -1.5615 -0.213296 0
M  V30 5624 C 536.32 -1.79191 -0.934612 0
M  V30 5625 C 536.641 -0.630112 -1.84539 0
M  V30 5626 O 535.911 0.35257 -1.92701 0
M  V30 5627 H 534.491 -0.660937 -0.348097 0
M  V30 5628 H 537.153 -1.93618 -0.22317 0
M  V30 5629 H 536.249 -2.71656 -1.53654 0
M  V30 5630 N 536.55 0.480323 -1.50102 0
M  V30 5631 C 537.798 1.23063 -1.60312 0
M  V30 5632 C 538.119 1.92659 -0.301226 0
M  V30 5633 O 537.389 1.83691 0.680753 0
M  V30 5634 H 535.969 0.457231 -0.590719 0
M  V30 5635 H 538.631 0.554893 -1.86834 0
M  V30 5636 H 537.727 1.9835 -2.40964 0
M  V30 5637 N 538.028 1.39524 0.732853 0
M  V30 5638 C 538.938 1.40695 1.87729 0
M  V30 5639 C 539.954 0.301496 1.71368 0
M  V30 5640 O 541.13 0.543313 1.93933 0
M  V30 5641 C 538.195 1.25098 3.23344 0
M  V30 5642 C 537.256 2.45634 3.52083 0
M  V30 5643 C 536.489 2.30772 4.81228 0
M  V30 5644 O 536.712 1.31233 5.55098 0
M  V30 5645 O 535.646 3.19799 5.09914 0
M  V30 5646 H 539.472 2.37168 1.89697 0
M  V30 5647 H 537.057 1.20663 0.880959 0
M  V30 5648 H 538.939 1.18541 4.04383 0
M  V30 5649 H 537.614 0.317209 3.22142 0
M  V30 5650 H 536.521 2.57767 2.71122 0
M  V30 5651 H 537.854 3.37712 3.58066 0
M  V30 5652 N 539.506 -0.963266 1.24736 0
M  V30 5653 C 540.436 -2.07628 1.06832 0
M  V30 5654 C 541.417 -1.70088 -0.0200566 0
M  V30 5655 O 542.602 -1.93636 0.147854 0
M  V30 5656 C 539.732 -3.40636 0.677069 0
M  V30 5657 C 538.686 -3.9215 1.71471 0
M  V30 5658 C 538.012 -5.21553 1.1784 0
M  V30 5659 C 539.312 -4.19493 3.11164 0
M  V30 5660 H 541.006 -2.22864 1.9993 0
M  V30 5661 H 538.552 -1.07093 0.96266 0
M  V30 5662 H 540.505 -4.17941 0.538792 0
M  V30 5663 H 539.229 -3.25313 -0.289612 0
M  V30 5664 H 537.888 -3.17005 1.84128 0
M  V30 5665 H 537.536 -5.02593 0.202195 0
M  V30 5666 H 537.236 -5.56988 1.87185 0
M  V30 5667 H 538.76 -6.01463 1.05233 0
M  V30 5668 H 540.174 -4.87487 3.01711 0
M  V30 5669 H 538.571 -4.66165 3.77902 0
M  V30 5670 H 539.641 -3.26097 3.58871 0
M  V30 5671 N 540.985 -1.06182 -1.16461 0
M  V30 5672 C 542.262 -0.691364 -1.82974 0
M  V30 5673 C 542.642 0.827377 -1.9421 0
M  V30 5674 O 541.99 1.73723 -1.48434 0
M  V30 5675 C 542.2 -1.39199 -3.20038 0
M  V30 5676 C 543.548 -1.53647 -3.95825 0
M  V30 5677 O 544.572 -1.35181 -3.29552 0
M  V30 5678 O 543.431 -1.83932 -5.14618 0
M  V30 5679 H 540.525 -0.244605 -0.789998 0
M  V30 5680 H 543.071 -1.16203 -1.23673 0
M  V30 5681 H 541.843 -2.42766 -3.06888 0
M  V30 5682 H 541.466 -0.911335 -3.87015 0
M  V30 5683 N 542.463 1.3308 -0.844243 0
M  V30 5684 C 543.709 1.98304 -0.452453 0
M  V30 5685 C 544.064 1.65645 0.978746 0
M  V30 5686 O 543.357 0.928849 1.6758 0
M  V30 5687 C 543.551 3.52045 -0.616354 0
M  V30 5688 C 543.38 3.99643 -2.06193 0
M  V30 5689 C 542.15 4.27224 -2.69829 0
M  V30 5690 C 544.348 4.15471 -3.03131 0
M  V30 5691 N 542.33 4.60998 -4.05406 0
M  V30 5692 C 543.701 4.52665 -4.23668 0
M  V30 5693 C 545.756 3.97776 -2.99465 0
M  V30 5694 C 544.459 4.74011 -5.41023 0
M  V30 5695 C 546.485 4.20301 -4.16055 0
M  V30 5696 C 545.847 4.57801 -5.35348 0
M  V30 5697 H 541.946 0.752122 -0.214096 0
M  V30 5698 H 544.53 1.61096 -1.09344 0
M  V30 5699 H 542.701 3.884 -0.00513205 0
M  V30 5700 H 544.433 4.04228 -0.19548 0
M  V30 5701 H 541.188 4.18911 -2.20931 0
M  V30 5702 H 541.612 4.82087 -4.75312 0
M  V30 5703 H 546.254 3.67893 -2.08362 0
M  V30 5704 H 543.972 5.02753 -6.32665 0
M  V30 5705 H 547.558 4.08122 -4.14641 0
M  V30 5706 H 546.438 4.74884 -6.24063 0
M  V30 5707 N 543.941 0.601185 1.45683 0
M  V30 5708 C 544.851 -0.123395 2.34275 0
M  V30 5709 C 545.867 -0.86702 1.5086 0
M  V30 5710 O 547.043 -0.826049 1.8368 0
M  V30 5711 C 544.108 -1.11237 3.2837 0
M  V30 5712 C 543.169 -0.371405 4.2769 0
M  V30 5713 C 542.402 -1.31327 5.1729 0
M  V30 5714 O 542.625 -2.55078 5.10188 0
M  V30 5715 O 541.559 -0.813811 5.96373 0
M  V30 5716 H 545.385 0.604483 2.97623 0
M  V30 5717 H 542.97 0.361477 1.44961 0
M  V30 5718 H 544.852 -1.68214 3.8637 0
M  V30 5719 H 543.527 -1.82139 2.67595 0
M  V30 5720 H 542.434 0.24067 3.73325 0
M  V30 5721 H 543.767 0.296998 4.91303 0
M  V30 5722 N 545.419 -1.53889 0.339982 0
M  V30 5723 C 546.367 -2.26391 -0.533822 0
M  V30 5724 C 547.361 -1.28404 -1.10493 0
M  V30 5725 O 548.567 -1.46124 -1.05108 0
M  V30 5726 H 544.942 -0.727385 -0.190828 0
M  V30 5727 H 546.913 -2.98233 0.0997484 0
M  V30 5728 C 545.662 -3.04707 -1.67479 0
M  V30 5729 H 544.985 -3.79934 -1.2446 0
M  V30 5730 H 546.425 -3.58657 -2.26144 0
M  V30 5731 C 544.884 -2.13989 -2.60212 0
M  V30 5732 O 545.414 -1.73361 -3.62366 0
M  V30 5733 N 543.62 -1.79141 -2.28816 0
M  V30 5734 H 543.167 -2.12378 -1.45785 0
M  V30 5735 H 543.125 -1.18725 -2.91121 0
M  V30 5736 N 546.897 -0.0685191 -1.57451 0
M  V30 5737 C 547.827 0.89747 -2.15564 0
M  V30 5738 C 548.808 1.31266 -1.08181 0
M  V30 5739 O 549.993 1.38429 -1.36202 0
M  V30 5740 C 547.123 2.16623 -2.71463 0
M  V30 5741 C 546.077 1.89054 -3.83982 0
M  V30 5742 C 545.403 3.22532 -4.26471 0
M  V30 5743 C 546.703 1.1984 -5.08366 0
M  V30 5744 H 548.397 0.413373 -2.96533 0
M  V30 5745 H 545.943 0.197391 -1.42641 0
M  V30 5746 H 547.896 2.84614 -3.10761 0
M  V30 5747 H 546.62 2.67269 -1.8771 0
M  V30 5748 H 545.279 1.23469 -3.45183 0
M  V30 5749 H 544.927 3.71013 -3.39644 0
M  V30 5750 H 544.627 3.04879 -5.02317 0
M  V30 5751 H 546.151 3.91727 -4.68383 0
M  V30 5752 H 547.565 1.77896 -5.45001 0
M  V30 5753 H 545.962 1.12456 -5.89469 0
M  V30 5754 H 547.032 0.176996 -4.84577 0
M  V30 5755 N 548.375 1.56261 0.205012 0
M  V30 5756 C 549.338 1.92908 1.23771 0
M  V30 5757 C 550.338 0.809208 1.38955 0
M  V30 5758 O 551.528 1.07676 1.36936 0
M  V30 5759 C 548.66 2.19442 2.60879 0
M  V30 5760 H 549.853 2.85287 0.924728 0
M  V30 5761 H 547.406 1.49798 0.446125 0
M  V30 5762 H 548.141 1.29668 2.97248 0
M  V30 5763 H 547.926 3.0104 2.51232 0
M  V30 5764 H 549.416 2.48833 3.35368 0
M  V30 5765 N 549.853 -0.472356 1.50355 0
M  V30 5766 C 550.816 -1.5529 1.68576 0
M  V30 5767 C 551.816 -1.50863 0.556511 0
M  V30 5768 O 553.006 -1.53505 0.823516 0
M  V30 5769 C 550.138 -2.94921 1.70981 0
M  V30 5770 H 551.331 -1.40451 2.64978 0
M  V30 5771 H 548.884 -0.698645 1.39816 0
M  V30 5772 H 549.619 -3.15204 0.762675 0
M  V30 5773 H 549.404 -2.99541 2.53017 0
M  V30 5774 H 550.894 -3.73372 1.87037 0
M  V30 5775 N 551.331 -1.39911 -0.725443 0
M  V30 5776 C 552.241 -1.41688 -1.8698 0
M  V30 5777 C 553.257 -0.310579 -1.71206 0
M  V30 5778 O 554.433 -0.55359 -1.93642 0
M  V30 5779 C 551.498 -1.26811 -3.22676 0
M  V30 5780 C 550.559 -2.47497 -3.50776 0
M  V30 5781 C 549.792 -2.3332 -4.79997 0
M  V30 5782 O 550.015 -1.34175 -5.54394 0
M  V30 5783 O 548.949 -3.22498 -5.08211 0
M  V30 5784 H 552.775 -2.38171 -1.88436 0
M  V30 5785 H 550.36 -1.21128 -0.874548 0
M  V30 5786 H 552.242 -1.20684 -4.03749 0
M  V30 5787 H 550.917 -0.334289 -3.21969 0
M  V30 5788 H 549.824 -2.59201 -2.69751 0
M  V30 5789 H 551.157 -3.39606 -3.5627 0
M  V30 5790 N 552.809 0.956637 -1.25245 0
M  V30 5791 C 553.756 2.053 -1.05454 0
M  V30 5792 C 554.726 1.66062 0.0356889 0
M  V30 5793 O 555.911 1.90415 -0.121099 0
M  V30 5794 C 553.051 3.38391 -0.677191 0
M  V30 5795 C 552.164 3.90758 -1.84206 0
M  V30 5796 C 551.299 5.12165 -1.40926 0
M  V30 5797 C 550.338 5.56757 -2.54338 0
M  V30 5798 N 549.475 6.69376 -2.11848 0
M  V30 5799 H 554.315 2.21562 -1.99284 0
M  V30 5800 H 551.852 1.08578 -0.992434 0
M  V30 5801 H 553.81 4.1488 -0.43938 0
M  V30 5802 H 552.44 3.22021 0.224127 0
M  V30 5803 H 551.492 3.10808 -2.19323 0
M  V30 5804 H 552.804 4.19802 -2.69383 0
M  V30 5805 H 551.958 5.96065 -1.13098 0
M  V30 5806 H 550.697 4.84832 -0.528175 0
M  V30 5807 H 549.702 4.71423 -2.82913 0
M  V30 5808 H 550.927 5.861 -3.43022 0
M  V30 5809 H 548.873 6.43756 -1.26153 0
M  V30 5810 H 548.79 6.97927 -2.90574 0
M  V30 5811 H 550.058 7.5669 -1.87191 0
M  V30 5812 N 554.287 1.06798 1.15896 0
M  V30 5813 C 555.219 0.641263 2.20046 0
M  V30 5814 C 556.232 -0.303355 1.59949 0
M  V30 5815 O 557.421 -0.0935478 1.78255 0
M  V30 5816 C 554.521 -0.0794029 3.38807 0
M  V30 5817 C 553.694 0.879986 4.28457 0
M  V30 5818 C 552.753 0.197638 5.25829 0
M  V30 5819 O 551.779 0.836913 5.63014 0
M  V30 5820 N 552.981 -1.05886 5.70761 0
M  V30 5821 H 555.746 1.53718 2.57276 0
M  V30 5822 H 553.307 0.951951 1.30956 0
M  V30 5823 H 555.299 -0.546418 4.00994 0
M  V30 5824 H 553.869 -0.877193 3.0004 0
M  V30 5825 H 553.089 1.52625 3.63454 0
M  V30 5826 H 554.377 1.53065 4.8523 0
M  V30 5827 H 553.775 -1.59828 5.42652 0
M  V30 5828 H 552.332 -1.46965 6.35015 0
M  V30 5829 N 555.766 -1.3263 0.851289 0
M  V30 5830 C 556.994 -2.01563 0.466899 0
M  V30 5831 C 557.409 -1.63996 -0.935447 0
M  V30 5832 O 556.766 -0.85957 -1.6099 0
M  V30 5833 C 556.817 -3.56613 0.592433 0
M  V30 5834 O 556.538 -3.92828 1.93954 0
M  V30 5835 C 558.039 -4.42818 0.206612 0
M  V30 5836 H 555.259 -0.645307 0.183902 0
M  V30 5837 H 557.803 -1.69285 1.1473 0
M  V30 5838 H 555.958 -3.87379 -0.0401936 0
M  V30 5839 H 556.372 -4.87545 1.9339 0
M  V30 5840 H 557.846 -5.50918 0.345462 0
M  V30 5841 H 558.323 -4.30844 -0.85264 0
M  V30 5842 H 558.929 -4.17434 0.814176 0
M  V30 5843 N 557.244 -0.608902 -1.45362 0
M  V30 5844 C 558.174 0.0964526 -2.33301 0
M  V30 5845 C 559.155 0.857444 -1.46908 0
M  V30 5846 O 560.34 0.827735 -1.75676 0
M  V30 5847 C 557.47 1.09354 -3.29635 0
M  V30 5848 C 556.424 0.445676 -4.25673 0
M  V30 5849 C 555.75 1.5511 -5.11708 0
M  V30 5850 C 557.05 -0.633972 -5.18438 0
M  V30 5851 H 558.744 -0.637829 -2.92527 0
M  V30 5852 H 556.29 -0.308178 -1.40664 0
M  V30 5853 H 558.243 1.59556 -3.90025 0
M  V30 5854 H 556.967 1.85843 -2.6857 0
M  V30 5855 H 555.626 -0.0354897 -3.66583 0
M  V30 5856 H 555.274 2.30631 -4.4701 0
M  V30 5857 H 554.974 1.12311 -5.76767 0
M  V30 5858 H 556.498 2.05537 -5.74967 0
M  V30 5859 H 557.912 -0.215974 -5.72893 0
M  V30 5860 H 556.309 -0.983789 -5.91981 0
M  V30 5861 H 557.379 -1.51005 -4.60788 0
M  V30 5862 N 558.722 1.53707 -0.348139 0
M  V30 5863 C 559.968 2.01286 0.247332 0
M  V30 5864 C 560.301 1.23546 1.49834 0
M  V30 5865 O 559.576 0.324331 1.91777 0
M  V30 5866 C 559.859 3.55768 0.556858 0
M  V30 5867 C 559.712 4.44216 -0.706564 0
M  V30 5868 C 561.031 4.1841 1.3646 0
M  V30 5869 H 558.15 0.731677 0.0884201 0
M  V30 5870 H 560.792 1.84106 -0.469584 0
M  V30 5871 H 558.942 3.70539 1.16761 0
M  V30 5872 H 560.614 4.41274 -1.34444 0
M  V30 5873 H 558.857 4.12892 -1.33052 0
M  V30 5874 H 559.528 5.50202 -0.445186 0
M  V30 5875 H 562.004 4.07365 0.848113 0
M  V30 5876 H 560.88 5.26563 1.54992 0
M  V30 5877 H 561.141 3.7333 2.36805 0
M  V30 5878 N 560.2 0.0768682 1.57412 0
M  V30 5879 C 561.447 -0.591085 1.93681 0
M  V30 5880 C 561.775 -1.69311 0.957286 0
M  V30 5881 O 561.03 -1.95682 -0.0262428 0
M  V30 5882 C 561.329 -1.20268 3.36557 0
M  V30 5883 C 560.995 -0.226286 4.50332 0
M  V30 5884 C 559.657 0.0423142 4.81181 0
M  V30 5885 C 562.009 0.441415 5.19327 0
M  V30 5886 C 559.337 0.985616 5.78362 0
M  V30 5887 C 561.689 1.37307 6.17519 0
M  V30 5888 C 560.353 1.65009 6.46783 0
M  V30 5889 H 559.623 -0.216293 0.70873 0
M  V30 5890 H 562.27 0.148824 1.90921 0
M  V30 5891 H 560.575 -2.01844 3.35807 0
M  V30 5892 H 562.272 -1.72688 3.61911 0
M  V30 5893 H 558.862 -0.445821 4.26275 0
M  V30 5894 H 563.046 0.247023 4.95685 0
M  V30 5895 H 558.302 1.20743 5.99359 0
M  V30 5896 H 562.476 1.89637 6.70083 0
M  V30 5897 H 560.103 2.38263 7.21897 0
M  V30 5898 N 561.678 -1.56367 -0.196722 0
M  V30 5899 C 562.908 -1.84371 -0.932254 0
M  V30 5900 C 563.316 -0.657013 -1.77426 0
M  V30 5901 O 562.659 0.383576 -1.79651 0
M  V30 5902 C 562.721 -3.06454 -1.87952 0
M  V30 5903 C 562.385 -4.40425 -1.21962 0
M  V30 5904 C 563.382 -5.16457 -0.597343 0
M  V30 5905 C 561.067 -4.8716 -1.22396 0
M  V30 5906 C 563.061 -6.37399 0.0117913 0
M  V30 5907 C 560.748 -6.08038 -0.610995 0
M  V30 5908 C 561.746 -6.83 0.00580487 0
M  V30 5909 O 561.434 -8.01589 0.609173 0
M  V30 5910 H 561.166 -0.616377 -0.277589 0
M  V30 5911 H 563.72 -2.04329 -0.209452 0
M  V30 5912 H 561.95 -2.82377 -2.64197 0
M  V30 5913 H 563.639 -3.21118 -2.48271 0
M  V30 5914 H 564.405 -4.81445 -0.586142 0
M  V30 5915 H 560.284 -4.2877 -1.69345 0
M  V30 5916 H 563.828 -6.9585 0.493836 0
M  V30 5917 H 559.725 -6.42519 -0.619693 0
M  V30 5918 H 560.493 -8.16935 0.505919 0
M  V30 5919 N 563.156 0.464375 -1.50603 0
M  V30 5920 C 564.089 1.58052 -1.64605 0
M  V30 5921 C 565.067 1.54914 -0.494016 0
M  V30 5922 O 566.251 1.74438 -0.714393 0
M  V30 5923 C 563.378 2.96634 -1.63481 0
M  V30 5924 C 562.424 3.17901 -2.84325 0
M  V30 5925 S 563.257 2.97083 -4.45536 0
M  V30 5926 C 564.413 4.37994 -4.47115 0
M  V30 5927 H 564.646 1.45937 -2.59017 0
M  V30 5928 H 562.179 0.652189 -1.39949 0
M  V30 5929 H 564.137 3.76527 -1.63517 0
M  V30 5930 H 562.798 3.06134 -0.702928 0
M  V30 5931 H 561.991 4.19158 -2.79862 0
M  V30 5932 H 561.593 2.45792 -2.81891 0
M  V30 5933 H 563.885 5.30743 -4.21091 0
M  V30 5934 H 564.828 4.47499 -5.48772 0
M  V30 5935 H 565.236 4.20386 -3.76743 0
M  V30 5936 N 564.634 1.40294 0.718013 0
M  V30 5937 C 565.882 1.38167 1.47494 0
M  V30 5938 C 566.203 -0.01607 1.94993 0
M  V30 5939 O 565.473 -0.970396 1.70177 0
M  V30 5940 H 564.053 0.508505 0.547203 0
M  V30 5941 H 566.715 1.75324 0.851322 0
M  V30 5942 H 565.811 2.05503 2.34894 0
M  V30 5943 N 566.112 -0.949982 1.2575 0
M  V30 5944 C 567.042 -2.06483 1.09028 0
M  V30 5945 C 568.023 -1.701 -0.00201532 0
M  V30 5946 O 569.208 -1.93469 0.168383 0
M  V30 5947 C 566.338 -3.39899 0.71316 0
M  V30 5948 C 565.292 -3.90309 1.75621 0
M  V30 5949 C 564.618 -5.20274 1.23365 0
M  V30 5950 C 565.918 -4.16169 3.15596 0
M  V30 5951 H 567.612 -2.20731 2.02283 0
M  V30 5952 H 565.158 -1.06066 0.973964 0
M  V30 5953 H 567.111 -4.17346 0.58309 0
M  V30 5954 H 565.835 -3.25602 -0.255091 0
M  V30 5955 H 564.494 -3.15035 1.8748 0
M  V30 5956 H 564.142 -5.02351 0.255491 0
M  V30 5957 H 563.842 -5.54971 1.93082 0
M  V30 5958 H 565.366 -6.00314 1.11607 0
M  V30 5959 H 566.78 -4.84259 3.06864 0
M  V30 5960 H 565.177 -4.62131 3.82825 0
M  V30 5961 H 566.247 -3.22273 3.6231 0
M  V30 5962 N 567.59 -1.07411 -1.15328 0
M  V30 5963 C 568.538 -0.689316 -2.22151 0
M  V30 5964 C 569.532 0.300156 -1.6672 0
M  V30 5965 O 570.738 0.163804 -1.79253 0
M  V30 5966 H 567.113 -0.204834 -0.723566 0
M  V30 5967 H 569.084 -1.59988 -2.51886 0
M  V30 5968 C 567.833 -0.103848 -3.47545 0
M  V30 5969 H 567.156 -0.856367 -3.90521 0
M  V30 5970 H 568.596 0.127725 -4.23808 0
M  V30 5971 C 567.055 1.15563 -3.1646 0
M  V30 5972 O 567.585 2.242 -3.33312 0
M  V30 5973 N 565.791 1.06203 -2.70498 0
M  V30 5974 H 565.338 0.177933 -2.56985 0
M  V30 5975 H 565.296 1.90553 -2.50074 0
M  V30 5976 N 569.068 1.32177 -0.85831 0
M  V30 5977 C 570 2.27688 -0.262835 0
M  V30 5978 C 571.013 1.52588 0.567513 0
M  V30 5979 O 572.202 1.74156 0.391407 0
M  V30 5980 C 569.302 3.32668 0.646937 0
M  V30 5981 C 568.475 4.37148 -0.148372 0
M  V30 5982 C 567.534 5.21686 0.687728 0
M  V30 5983 O 566.56 5.69074 0.119934 0
M  V30 5984 N 567.762 5.44892 2.00182 0
M  V30 5985 H 570.527 2.79426 -1.08356 0
M  V30 5986 H 568.088 1.45076 -0.718647 0
M  V30 5987 H 570.08 3.86134 1.2117 0
M  V30 5988 H 568.65 2.81061 1.36834 0
M  V30 5989 H 567.87 3.83915 -0.894572 0
M  V30 5990 H 569.158 5.04038 -0.694514 0
M  V30 5991 H 568.556 5.08128 2.4864 0
M  V30 5992 H 567.113 6.0134 2.51463 0
M  V30 5993 N 570.547 0.616602 1.45037 0
M  V30 5994 C 571.51 -0.0871112 2.29034 0
M  V30 5995 C 572.51 -0.786414 1.40258 0
M  V30 5996 O 573.7 -0.633207 1.62284 0
M  V30 5997 C 570.832 -1.13369 3.21497 0
M  V30 5998 H 572.025 0.651497 2.92738 0
M  V30 5999 H 569.578 0.376058 1.51709 0
M  V30 6000 H 570.313 -1.90277 2.62612 0
M  V30 6001 H 570.098 -0.636358 3.86902 0
M  V30 6002 H 571.588 -1.62627 3.84633 0
M  V30 6003 N 572.025 -1.5352 0.356285 0
M  V30 6004 C 572.988 -2.24071 -0.482182 0
M  V30 6005 C 573.988 -1.24531 -1.01729 0
M  V30 6006 O 575.178 -1.48876 -0.904513 0
M  V30 6007 C 572.31 -2.97025 -1.67299 0
M  V30 6008 H 573.503 -2.99596 0.135031 0
M  V30 6009 H 571.056 -1.55928 0.107825 0
M  V30 6010 H 571.791 -2.25719 -2.32855 0
M  V30 6011 H 571.576 -3.7005 -1.29636 0
M  V30 6012 H 573.066 -3.50683 -2.26741 0
M  V30 6013 N 573.503 -0.0852151 -1.57369 0
M  V30 6014 C 574.731 0.58946 -1.98325 0
M  V30 6015 C 575.146 1.62333 -0.96403 0
M  V30 6016 O 574.503 1.82438 0.0476395 0
M  V30 6017 C 574.554 1.24604 -3.39347 0
M  V30 6018 O 574.275 0.253532 -4.37366 0
M  V30 6019 C 575.776 2.00726 -3.95252 0
M  V30 6020 H 572.996 0.158783 -0.651942 0
M  V30 6021 H 575.54 -0.161584 -2.03861 0
M  V30 6022 H 573.695 1.94808 -3.34856 0
M  V30 6023 H 574.109 0.726207 -5.19448 0
M  V30 6024 H 575.583 2.42039 -4.96106 0
M  V30 6025 H 576.06 2.86919 -3.32527 0
M  V30 6026 H 576.666 1.3536 -4.03185 0
M  V30 6027 N 574.981 1.5647 0.188427 0
M  V30 6028 C 576.23 1.80207 0.905995 0
M  V30 6029 C 576.543 0.659579 1.84144 0
M  V30 6030 O 577.749 0.781431 2.60011 0
M  V30 6031 C 576.205 3.19255 1.66145 0
M  V30 6032 C 575.813 4.41324 0.770504 0
M  V30 6033 C 577.557 3.52298 2.36826 0
M  V30 6034 C 575.464 5.71394 1.52521 0
M  V30 6035 H 574.394 0.671953 0.342045 0
M  V30 6036 H 577.045 1.82808 0.159164 0
M  V30 6037 H 575.427 3.10922 2.45242 0
M  V30 6038 H 576.601 4.60797 0.0177261 0
M  V30 6039 H 574.916 4.16035 0.174199 0
M  V30 6040 H 577.513 4.46715 2.93854 0
M  V30 6041 H 577.856 2.76359 3.11338 0
M  V30 6042 H 578.389 3.62108 1.6469 0
M  V30 6043 H 575.128 6.50316 0.82275 0
M  V30 6044 H 574.648 5.55928 2.25175 0
M  V30 6045 H 576.327 6.12747 2.07725 0
M  V30 6046 N 576.459 -0.456382 1.50847 0
M  V30 6047 C 577.391 -1.57033 1.66953 0
M  V30 6048 C 578.404 -1.53207 0.550593 0
M  V30 6049 O 579.593 -1.58328 0.824285 0
M  V30 6050 C 576.693 -2.95937 1.65149 0
M  V30 6051 C 575.866 -3.24475 2.93317 0
M  V30 6052 C 574.925 -4.43007 2.83957 0
M  V30 6053 O 573.951 -4.42592 3.57912 0
M  V30 6054 N 575.153 -5.45503 1.9851 0
M  V30 6055 H 577.918 -1.43629 2.63042 0
M  V30 6056 H 575.479 -0.645037 1.48495 0
M  V30 6057 H 577.471 -3.73224 1.56481 0
M  V30 6058 H 576.041 -3.03036 0.767343 0
M  V30 6059 H 575.261 -2.35664 3.16 0
M  V30 6060 H 576.549 -3.4036 3.78196 0
M  V30 6061 H 575.947 -5.48668 1.37766 0
M  V30 6062 H 574.504 -6.21716 1.95735 0
M  V30 6063 N 577.937 -1.40673 -0.710563 0
M  V30 6064 C 578.847 -1.43663 -1.85467 0
M  V30 6065 C 579.863 -0.328721 -1.70867 0
M  V30 6066 O 581.039 -0.574098 -1.93044 0
M  V30 6067 C 578.104 -1.30226 -3.21313 0
M  V30 6068 C 577.165 -2.51204 -3.48131 0
M  V30 6069 C 576.398 -2.38398 -4.77495 0
M  V30 6070 O 576.621 -1.40048 -5.5294 0
M  V30 6071 O 575.555 -3.2787 -5.04762 0
M  V30 6072 H 579.381 -2.40156 -1.859 0
M  V30 6073 H 576.966 -1.22049 -0.861652 0
M  V30 6074 H 578.848 -1.2496 -4.02446 0
M  V30 6075 H 577.523 -0.368419 -3.21597 0
M  V30 6076 H 576.43 -2.62048 -2.66987 0
M  V30 6077 H 577.763 -3.43366 -3.52648 0
M  V30 6078 N 579.415 0.9433 -1.26252 0
M  V30 6079 C 580.362 2.0417 -1.07625 0
M  V30 6080 C 581.332 1.6609 0.0180738 0
M  V30 6081 O 582.517 1.90276 -0.141289 0
M  V30 6082 C 579.657 3.37653 -0.713043 0
M  V30 6083 C 578.77 3.88783 -1.8834 0
M  V30 6084 C 577.905 5.10642 -1.4635 0
M  V30 6085 C 576.944 5.54028 -2.60229 0
M  V30 6086 N 576.081 6.67092 -2.18936 0
M  V30 6087 H 580.921 2.19436 -2.01623 0
M  V30 6088 H 578.458 1.07519 -1.00389 0
M  V30 6089 H 580.416 4.14391 -0.483358 0
M  V30 6090 H 579.046 3.22241 0.18996 0
M  V30 6091 H 578.098 3.08464 -2.22608 0
M  V30 6092 H 579.41 4.16922 -2.73821 0
M  V30 6093 H 578.564 5.94832 -1.19414 0
M  V30 6094 H 577.303 4.84244 -0.579568 0
M  V30 6095 H 576.308 4.68396 -2.87898 0
M  V30 6096 H 577.533 5.82429 -3.49219 0
M  V30 6097 H 575.479 6.42381 -1.32974 0
M  V30 6098 H 575.396 6.94806 -2.97961 0
M  V30 6099 H 576.664 7.54662 -1.95206 0
M  V30 6100 N 580.893 1.08022 1.14757 0
M  V30 6101 C 581.823 0.728248 2.21853 0
M  V30 6102 C 582.804 -0.287486 1.67653 0
M  V30 6103 O 583.989 -0.158727 1.9355 0
M  V30 6104 C 581.119 0.132549 3.47047 0
M  V30 6105 C 580.073 1.07619 4.14249 0
M  V30 6106 C 579.399 0.342907 5.33599 0
M  V30 6107 C 580.699 2.41268 4.63235 0
M  V30 6108 H 582.393 1.62365 2.51551 0
M  V30 6109 H 579.939 0.782125 1.20908 0
M  V30 6110 H 581.892 -0.125665 4.21213 0
M  V30 6111 H 580.616 -0.797971 3.16702 0
M  V30 6112 H 579.275 1.31944 3.42033 0
M  V30 6113 H 578.923 -0.59129 4.99513 0
M  V30 6114 H 578.623 0.971955 5.79506 0
M  V30 6115 H 580.147 0.0926538 6.1053 0
M  V30 6116 H 581.561 2.21232 5.28894 0
M  V30 6117 H 579.958 2.9983 5.19829 0
M  V30 6118 H 581.028 3.03079 3.78512 0
M  V30 6119 N 582.371 -1.3172 0.865308 0
M  V30 6120 C 583.62 -1.96145 0.470098 0
M  V30 6121 C 583.933 -1.69182 -0.981674 0
M  V30 6122 O 585.139 -2.27431 -1.48281 0
M  V30 6123 C 583.595 -3.51129 0.789732 0
M  V30 6124 C 583.203 -3.86938 2.25795 0
M  V30 6125 C 584.947 -4.2197 0.462765 0
M  V30 6126 C 582.854 -5.35012 2.52024 0
M  V30 6127 H 581.784 -0.734105 0.172065 0
M  V30 6128 H 584.435 -1.49959 1.05757 0
M  V30 6129 H 582.817 -3.95781 0.131571 0
M  V30 6130 H 583.991 -3.5326 2.95879 0
M  V30 6131 H 582.306 -3.29149 2.55049 0
M  V30 6132 H 584.903 -5.30904 0.636019 0
M  V30 6133 H 585.246 -4.12005 -0.59645 0
M  V30 6134 H 585.779 -3.82936 1.07727 0
M  V30 6135 H 582.518 -5.50008 3.56611 0
M  V30 6136 H 582.038 -5.70058 1.8653 0
M  V30 6137 H 583.717 -6.0222 2.36515 0
M  V30 6138 N 583.85 -0.624285 -1.44708 0
M  V30 6139 C 584.812 0.0749638 -2.29077 0
M  V30 6140 C 585.812 0.778965 -1.40673 0
M  V30 6141 O 587.003 0.624591 -1.62618 0
M  V30 6142 C 584.135 1.11663 -3.22094 0
M  V30 6143 H 585.327 -0.667013 -2.92388 0
M  V30 6144 H 582.88 -0.384098 -1.51507 0
M  V30 6145 H 583.615 1.88881 -2.63618 0
M  V30 6146 H 583.401 0.61583 -3.87234 0
M  V30 6147 H 584.891 1.60585 -3.8549 0
M  V30 6148 N 585.328 1.53329 -0.364422 0
M  V30 6149 C 586.575 2.01239 0.225634 0
M  V30 6150 C 586.903 1.25172 1.48869 0
M  V30 6151 O 586.158 0.333289 1.92841 0
M  V30 6152 C 586.457 3.52911 0.564661 0
M  V30 6153 C 586.123 4.46837 -0.603936 0
M  V30 6154 C 584.785 4.72234 -0.924585 0
M  V30 6155 C 587.137 5.02409 -1.38691 0
M  V30 6156 C 584.465 5.50454 -2.0302 0
M  V30 6157 C 586.817 5.81836 -2.48293 0
M  V30 6158 C 585.481 6.0552 -2.80894 0
M  V30 6159 H 584.751 0.736386 0.0825654 0
M  V30 6160 H 587.398 1.84948 -0.496645 0
M  V30 6161 H 585.703 3.67144 1.36794 0
M  V30 6162 H 587.4 3.87455 1.03344 0
M  V30 6163 H 583.99 4.27217 -0.343983 0
M  V30 6164 H 588.174 4.82735 -1.15243 0
M  V30 6165 H 583.43 5.67024 -2.28678 0
M  V30 6166 H 587.604 6.23905 -3.0938 0
M  V30 6167 H 585.231 6.65916 -3.66688 0
M  V30 6168 N 586.806 0.0935595 1.57322 0
M  V30 6169 C 588.054 -0.569383 1.93913 0
M  V30 6170 C 588.375 -1.68817 0.976009 0
M  V30 6171 O 587.645 -1.9588 0.0278099 0
M  V30 6172 H 586.225 -0.21332 0.715894 0
M  V30 6173 H 588.887 0.156531 1.9427 0
M  V30 6174 H 587.983 -0.980577 2.96296 0
M  V30 6175 N 588.284 -1.56567 -0.180126 0
M  V30 6176 C 589.217 -1.90813 -1.25163 0
M  V30 6177 C 590.195 -0.7699 -1.43218 0
M  V30 6178 O 591.379 -1.02236 -1.58367 0
M  V30 6179 C 588.506 -2.15138 -2.61597 0
M  V30 6180 C 587.552 -3.37834 -2.60328 0
M  V30 6181 S 588.385 -4.92486 -2.1028 0
M  V30 6182 C 589.541 -5.19896 -3.48509 0
M  V30 6183 H 589.774 -2.81398 -0.959283 0
M  V30 6184 H 587.307 -1.49541 -0.3843 0
M  V30 6185 H 589.265 -2.29835 -3.40127 0
M  V30 6186 H 587.926 -1.25276 -2.88036 0
M  V30 6187 H 587.119 -3.52027 -3.60684 0
M  V30 6188 H 586.721 -3.22208 -1.8989 0
M  V30 6189 H 589.013 -5.11334 -4.44459 0
M  V30 6190 H 589.956 -6.21571 -3.39198 0
M  V30 6191 H 590.364 -4.47489 -3.44114 0
M  V30 6192 N 589.762 0.448376 -1.51087 0
M  V30 6193 C 590.694 1.56146 -1.67783 0
M  V30 6194 C 591.707 1.52913 -0.55871 0
M  V30 6195 O 592.896 1.57889 -0.83267 0
M  V30 6196 C 589.996 2.95057 -1.66716 0
M  V30 6197 C 589.169 3.22915 -2.95033 0
M  V30 6198 C 588.228 4.41495 -2.86302 0
M  V30 6199 O 587.254 4.40688 -3.60254 0
M  V30 6200 N 588.456 5.44443 -2.014 0
M  V30 6201 H 591.221 1.42232 -2.638 0
M  V30 6202 H 588.782 0.637153 -1.48835 0
M  V30 6203 H 590.774 3.72388 -1.58458 0
M  V30 6204 H 589.344 3.02624 -0.783403 0
M  V30 6205 H 588.564 2.33985 -3.17245 0
M  V30 6206 H 589.852 3.38349 -3.79996 0
M  V30 6207 H 589.25 5.4793 -1.40674 0
M  V30 6208 H 587.807 6.2067 -1.99029 0
M  V30 6209 N 591.24 1.41047 0.703093 0
M  V30 6210 C 592.203 1.42036 1.79884 0
M  V30 6211 C 593.203 0.312153 1.57741 0
M  V30 6212 O 594.393 0.571672 1.64553 0
M  V30 6213 C 591.525 1.22437 3.18154 0
M  V30 6214 H 592.718 2.39572 1.80403 0
M  V30 6215 H 590.271 1.27079 0.909977 0
M  V30 6216 H 591.006 0.257112 3.23279 0
M  V30 6217 H 590.791 2.02723 3.35627 0
M  V30 6218 H 592.281 1.25946 3.98155 0
M  V30 6219 N 592.718 -0.936591 1.26751 0
M  V30 6220 C 593.995 -1.66094 1.03306 0
M  V30 6221 C 594.375 -2.06568 -0.435058 0
M  V30 6222 O 593.723 -1.79305 -1.41641 0
M  V30 6223 C 593.933 -2.86969 1.98619 0
M  V30 6224 C 595.281 -3.58516 2.27489 0
M  V30 6225 O 596.305 -2.97082 1.96522 0
M  V30 6226 O 595.164 -4.69181 2.80235 0
M  V30 6227 H 592.258 -0.727568 0.393158 0
M  V30 6228 H 594.804 -0.987914 1.3798 0
M  V30 6229 H 593.576 -2.53985 2.9767 0
M  V30 6230 H 593.199 -3.61996 1.64454 0
M  V30 6231 N 594.196 -1.08629 -1.14182 0
M  V30 6232 C 595.129 -0.662329 -2.18377 0
M  V30 6233 C 596.107 0.327054 -1.59277 0
M  V30 6234 O 597.291 0.230376 -1.87087 0
M  V30 6235 C 594.418 0.0254765 -3.3869 0
M  V30 6236 C 593.464 -0.924414 -4.16361 0
M  V30 6237 S 594.297 -2.43226 -4.77076 0
M  V30 6238 C 595.453 -1.75663 -6.00744 0
M  V30 6239 H 595.686 -1.54501 -2.54001 0
M  V30 6240 H 593.219 -0.901484 -1.2535 0
M  V30 6241 H 595.177 0.416032 -4.08386 0
M  V30 6242 H 593.838 0.884689 -3.01384 0
M  V30 6243 H 593.031 -0.390099 -5.02488 0
M  V30 6244 H 592.633 -1.25598 -3.5228 0
M  V30 6245 H 594.925 -1.07589 -6.68903 0
M  V30 6246 H 595.868 -2.59673 -6.58768 0
M  V30 6247 H 596.276 -1.22903 -5.50958 0
M  V30 6248 N 595.674 1.31259 -0.872281 0
M  V30 6249 C 597.085 1.78822 -0.536617 0
M  V30 6250 C 597.436 1.71855 0.946594 0
M  V30 6251 O 596.561 1.28769 1.73918 0
M  V30 6252 C 597.156 3.24698 -0.967294 0
M  V30 6253 C 595.715 3.70147 -0.683251 0
M  V30 6254 C 594.862 2.51994 -1.15733 0
M  V30 6255 H 597.813 1.18308 -1.05777 0
M  V30 6256 H 597.834 3.79386 -0.290929 0
M  V30 6257 H 597.346 3.29737 -2.04683 0
M  V30 6258 H 595.447 3.70607 0.384825 0
M  V30 6259 H 595.56 4.62183 -1.2619 0
M  V30 6260 H 593.924 2.48078 -0.577024 0
M  V30 6261 H 594.707 2.59778 -2.24434 0
M  V30 6262 N 597.152 0.631951 1.44375 0
M  V30 6263 C 598.398 0.13697 2.02337 0
M  V30 6264 C 598.731 -1.23826 1.49602 0
M  V30 6265 O 598.006 -1.8221 0.680415 0
M  V30 6266 C 598.289 0.124536 3.59885 0
M  V30 6267 C 598.142 1.53217 4.229 0
M  V30 6268 C 599.461 -0.550481 4.36644 0
M  V30 6269 H 596.58 0.051247 0.735216 0
M  V30 6270 H 599.222 0.808581 1.71936 0
M  V30 6271 H 597.372 -0.44737 3.85916 0
M  V30 6272 H 599.044 2.15303 4.07973 0
M  V30 6273 H 597.287 2.0858 3.80364 0
M  V30 6274 H 597.958 1.4755 5.31914 0
M  V30 6275 H 600.434 -0.0641154 4.16051 0
M  V30 6276 H 599.31 -0.528371 5.46351 0
M  V30 6277 H 599.571 -1.62097 4.11311 0
M  V30 6278 N 598.631 -1.53133 0.372548 0
M  V30 6279 C 599.594 -2.24569 -0.458389 0
M  V30 6280 C 600.594 -1.25603 -1.00402 0
M  V30 6281 O 601.784 -1.49827 -0.888672 0
M  V30 6282 C 598.916 -2.98783 -1.6414 0
M  V30 6283 H 600.109 -2.99436 0.166799 0
M  V30 6284 H 597.662 -1.55805 0.124357 0
M  V30 6285 H 598.397 -2.28176 -2.30448 0
M  V30 6286 H 598.182 -3.71404 -1.25704 0
M  V30 6287 H 599.672 -3.53068 -2.23008 0
M  V30 6288 N 600.109 -0.101901 -1.5727 0
M  V30 6289 C 601.039 0.851544 -2.17419 0
M  V30 6290 C 602.02 1.28942 -1.10941 0
M  V30 6291 O 603.205 1.35509 -1.39107 0
M  V30 6292 C 600.335 2.10816 -2.75996 0
M  V30 6293 C 599.289 1.80867 -3.87906 0
M  V30 6294 C 598.615 3.13413 -4.33216 0
M  V30 6295 C 599.915 1.0903 -5.10793 0
M  V30 6296 H 601.609 0.350381 -2.97343 0
M  V30 6297 H 599.155 0.16709 -1.43027 0
M  V30 6298 H 601.108 2.77959 -3.16729 0
M  V30 6299 H 599.832 2.63227 -1.93337 0
M  V30 6300 H 598.491 1.16119 -3.47724 0
M  V30 6301 H 598.139 3.63725 -3.47438 0
M  V30 6302 H 597.839 2.94155 -5.08671 0
M  V30 6303 H 599.363 3.81704 -4.76586 0
M  V30 6304 H 600.777 1.66295 -5.48652 0
M  V30 6305 H 599.174 0.99927 -5.91722 0
M  V30 6306 H 600.244 0.0741704 -4.84843 0
M  V30 6307 N 601.587 1.56661 0.17182 0
M  V30 6308 C 602.833 1.82235 0.889845 0
M  V30 6309 C 603.166 0.679673 1.81918 0
M  V30 6310 O 602.441 -0.318404 1.91876 0
M  V30 6311 C 602.724 3.18195 1.68595 0
M  V30 6312 C 602.577 4.42989 0.779773 0
M  V30 6313 C 603.896 3.5109 2.65375 0
M  V30 6314 H 601.015 0.66291 0.322056 0
M  V30 6315 H 603.657 1.89358 0.15608 0
M  V30 6316 H 601.807 3.12253 2.3115 0
M  V30 6317 H 603.479 4.60997 0.16714 0
M  V30 6318 H 601.722 4.33711 0.0877964 0
M  V30 6319 H 602.393 5.3467 1.3723 0
M  V30 6320 H 604.869 3.57482 2.12946 0
M  V30 6321 H 603.745 4.47298 3.18144 0
M  V30 6322 H 604.006 2.75768 3.45549 0
M  V30 6323 N 603.065 -0.440357 1.51323 0
M  V30 6324 C 603.975 -1.55955 1.75258 0
M  V30 6325 C 604.991 -1.61933 0.636687 0
M  V30 6326 O 606.167 -1.79231 0.918593 0
M  V30 6327 C 603.232 -2.9196 1.86977 0
M  V30 6328 C 602.293 -2.96122 3.10822 0
M  V30 6329 C 601.526 -4.2564 3.21973 0
M  V30 6330 O 601.749 -5.17851 2.39137 0
M  V30 6331 O 600.683 -4.36025 4.14929 0
M  V30 6332 H 604.509 -1.38673 2.70191 0
M  V30 6333 H 602.094 -0.623055 1.35788 0
M  V30 6334 H 603.976 -3.72682 1.96688 0
M  V30 6335 H 602.651 -3.09375 0.952307 0
M  V30 6336 H 601.558 -2.14366 3.06591 0
M  V30 6337 H 602.891 -2.83651 4.02247 0
M  V30 6338 N 604.543 -1.41418 -0.695603 0
M  V30 6339 C 605.491 -1.43467 -1.83084 0
M  V30 6340 C 606.485 -0.312719 -1.66489 0
M  V30 6341 O 607.691 -0.484744 -1.7335 0
M  V30 6342 H 604.066 -0.448891 -0.603325 0
M  V30 6343 H 606.037 -2.39144 -1.78473 0
M  V30 6344 C 604.786 -1.3337 -3.21104 0
M  V30 6345 H 604.109 -2.18989 -3.3449 0
M  V30 6346 H 605.549 -1.38865 -4.00615 0
M  V30 6347 C 604.008 -0.0460484 -3.36869 0
M  V30 6348 O 604.538 0.909258 -3.91274 0
M  V30 6349 N 602.744 0.0300222 -2.90584 0
M  V30 6350 H 602.291 -0.748129 -2.46497 0
M  V30 6351 H 602.249 0.890991 -3.01511 0
M  V30 6352 N 606.021 0.929856 -1.27246 0
M  V30 6353 C 607.269 1.674 -1.13233 0
M  V30 6354 C 607.59 1.92311 0.322744 0
M  V30 6355 O 606.86 1.52784 1.22612 0
M  V30 6356 H 605.44 0.620411 -0.416052 0
M  V30 6357 H 608.102 1.11663 -1.59741 0
M  V30 6358 H 607.198 2.64308 -1.65975 0
M  V30 6359 N 607.499 1.09233 1.13605 0
M  V30 6360 C 608.727 0.848908 1.88683 0
M  V30 6361 C 609.142 -0.599667 1.79024 0
M  V30 6362 O 608.499 -1.41265 1.15544 0
M  V30 6363 C 608.55 1.27273 3.38355 0
M  V30 6364 O 608.271 2.66449 3.47759 0
M  V30 6365 C 609.772 1.0614 4.30406 0
M  V30 6366 H 606.992 0.305549 0.597395 0
M  V30 6367 H 609.536 1.4538 1.43823 0
M  V30 6368 H 607.691 0.711776 3.80805 0
M  V30 6369 H 608.105 2.84264 4.40788 0
M  V30 6370 H 609.579 1.40725 5.33761 0
M  V30 6371 H 610.056 -0.000960332 4.392 0
M  V30 6372 H 610.662 1.60821 3.93722 0
M  V30 6373 N 608.977 -1.30795 0.87923 0
M  V30 6374 C 610.202 -2.01063 0.508769 0
M  V30 6375 C 610.627 -1.65508 -0.893803 0
M  V30 6376 O 609.985 -0.868616 -1.59138 0
M  V30 6377 C 610.033 -3.54054 0.683991 0
M  V30 6378 O 609.137 -4.11498 -0.272654 0
M  V30 6379 H 608.478 -0.632786 0.201191 0
M  V30 6380 H 611.008 -1.66776 1.18519 0
M  V30 6381 H 611.018 -4.03845 0.580798 0
M  V30 6382 H 609.693 -3.79271 1.70665 0
M  V30 6383 H 608.27 -3.72695 -0.12364 0
M  V30 6384 N 610.455 -0.639598 -1.44038 0
M  V30 6385 C 611.701 -0.147698 -2.02261 0
M  V30 6386 C 612.034 1.23031 -1.50256 0
M  V30 6387 O 611.309 1.81847 -0.690068 0
M  V30 6388 C 611.592 -0.14362 -3.59813 0
M  V30 6389 C 611.445 -1.55458 -4.22082 0
M  V30 6390 C 612.764 0.527317 -4.36929 0
M  V30 6391 H 609.883 -0.0551453 -0.734934 0
M  V30 6392 H 612.525 -0.817688 -1.71505 0
M  V30 6393 H 610.675 0.426898 -3.86147 0
M  V30 6394 H 612.347 -2.17464 -4.06826 0
M  V30 6395 H 610.59 -2.10594 -3.79253 0
M  V30 6396 H 611.261 -1.50369 -5.31124 0
M  V30 6397 H 613.737 0.0420504 -4.16079 0
M  V30 6398 H 612.613 0.499389 -5.46624 0
M  V30 6399 H 612.874 1.59914 -4.12165 0
M  V30 6400 N 611.933 1.52934 -0.380664 0
M  V30 6401 C 612.88 2.26197 0.458641 0
M  V30 6402 C 613.85 1.27462 1.06502 0
M  V30 6403 O 615.035 1.56274 1.09467 0
M  V30 6404 C 612.175 3.06571 1.58456 0
M  V30 6405 C 611.288 4.20222 1.00189 0
M  V30 6406 C 610.423 4.88007 2.09815 0
M  V30 6407 C 609.462 5.93665 1.49092 0
M  V30 6408 N 608.599 6.55081 2.52613 0
M  V30 6409 H 613.439 2.975 -0.172595 0
M  V30 6410 H 610.976 1.4678 -0.0969426 0
M  V30 6411 H 612.934 3.51455 2.24801 0
M  V30 6412 H 611.564 2.37494 2.18624 0
M  V30 6413 H 610.616 3.79714 0.228292 0
M  V30 6414 H 611.928 4.96102 0.518064 0
M  V30 6415 H 611.082 5.36151 2.83948 0
M  V30 6416 H 609.821 4.11632 2.61555 0
M  V30 6417 H 608.826 5.44868 0.7348 0
M  V30 6418 H 610.051 6.71969 0.981582 0
M  V30 6419 H 607.997 5.8155 3.03538 0
M  V30 6420 H 607.914 7.26548 2.08961 0
M  V30 6421 H 609.182 7.07871 3.26402 0
M  V30 6422 N 613.412 0.11024 1.57214 0
M  V30 6423 C 614.344 -0.873497 2.11902 0
M  V30 6424 C 615.357 -1.23588 1.05971 0
M  V30 6425 O 616.546 -1.18636 1.33371 0
M  V30 6426 C 613.646 -2.17805 2.59643 0
M  V30 6427 C 612.819 -1.98869 3.89576 0
M  V30 6428 C 611.878 -3.12974 4.23006 0
M  V30 6429 O 610.904 -2.86272 4.91973 0
M  V30 6430 N 612.106 -4.39167 3.79622 0
M  V30 6431 H 614.871 -0.406317 2.96933 0
M  V30 6432 H 612.432 -0.074437 1.61729 0
M  V30 6433 H 614.424 -2.93117 2.79042 0
M  V30 6434 H 612.994 -2.55899 1.7954 0
M  V30 6435 H 612.214 -1.078 3.79174 0
M  V30 6436 H 613.502 -1.83512 4.74553 0
M  V30 6437 H 612.9 -4.63739 3.2398 0
M  V30 6438 H 611.457 -5.11379 4.04147 0
M  V30 6439 N 614.89 -1.56749 -0.16351 0
M  V30 6440 C 616.306 -1.51043 -0.515567 0
M  V30 6441 C 616.506 -0.815855 -1.84245 0
M  V30 6442 O 615.562 -0.379477 -2.49632 0
M  V30 6443 C 616.875 -2.95791 -0.541114 0
M  V30 6444 C 618.423 -3.0664 -0.627776 0
M  V30 6445 C 618.898 -4.52861 -0.684141 0
M  V30 6446 N 620.389 -4.5714 -0.746818 0
M  V30 6447 C 621.124 -5.67634 -0.811137 0
M  V30 6448 N 620.62 -6.8774 -0.835811 0
M  V30 6449 N 622.413 -5.55624 -0.850756 0
M  V30 6450 H 614.564 -2.00307 0.70645 0
M  V30 6451 H 616.827 -0.912876 0.255659 0
M  V30 6452 H 616.533 -3.49797 0.365329 0
M  V30 6453 H 616.407 -3.50858 -1.38487 0
M  V30 6454 H 618.794 -2.52663 -1.52464 0
M  V30 6455 H 618.875 -2.54645 0.242805 0
M  V30 6456 H 618.519 -5.07472 0.2085 0
M  V30 6457 H 618.449 -5.02621 -1.57098 0
M  V30 6458 H 620.94 -3.70669 -0.735717 0
M  V30 6459 H 621.253 -7.67701 -0.886279 0
M  V30 6460 H 619.598 -6.90334 -0.803958 0
M  V30 6461 H 622.789 -4.60709 -0.828535 0
M  V30 6462 H 622.962 -6.41756 -0.897418 0
M  V30 6463 N 616.368 0.432326 -1.51554 0
M  V30 6464 C 617.614 1.18309 -1.64714 0
M  V30 6465 C 617.947 1.90745 -0.364696 0
M  V30 6466 O 617.222 1.8381 0.635936 0
M  V30 6467 C 617.505 2.1961 -2.85383 0
M  V30 6468 C 617.358 1.51223 -4.23617 0
M  V30 6469 C 618.677 3.20538 -3.01569 0
M  V30 6470 H 615.796 0.428751 -0.599451 0
M  V30 6471 H 618.438 0.471689 -1.84052 0
M  V30 6472 H 616.588 2.8028 -2.69027 0
M  V30 6473 H 618.26 0.938516 -4.51652 0
M  V30 6474 H 616.503 0.814501 -4.26085 0
M  V30 6475 H 617.174 2.25024 -5.04052 0
M  V30 6476 H 619.65 2.69926 -3.16669 0
M  V30 6477 H 618.526 3.88706 -3.87555 0
M  V30 6478 H 618.787 3.86933 -2.13859 0
M  V30 6479 N 617.846 1.41785 0.688094 0
M  V30 6480 C 619.092 1.41753 1.4503 0
M  V30 6481 C 619.425 0.0290745 1.94178 0
M  V30 6482 O 618.7 -0.944456 1.7003 0
M  V30 6483 C 618.983 2.43069 2.65686 0
M  V30 6484 C 618.836 3.91053 2.22256 0
M  V30 6485 C 620.155 2.41543 3.67893 0
M  V30 6486 H 617.274 0.516202 0.526027 0
M  V30 6487 H 619.916 1.73111 0.783105 0
M  V30 6488 H 618.066 2.1646 3.2261 0
M  V30 6489 H 619.738 4.28594 1.70602 0
M  V30 6490 H 617.981 4.05559 1.53963 0
M  V30 6491 H 618.652 4.57501 3.08863 0
M  V30 6492 H 621.128 2.65175 3.20658 0
M  V30 6493 H 620.004 3.14434 4.49914 0
M  V30 6494 H 620.265 1.43666 4.18106 0
M  V30 6495 N 619.324 -0.923095 1.27737 0
M  V30 6496 C 620.274 -2.01061 1.0751 0
M  V30 6497 C 621.258 -1.609 0.00165451 0
M  V30 6498 O 622.45 -1.75618 0.220724 0
M  V30 6499 C 619.579 -3.35467 0.729162 0
M  V30 6500 C 618.665 -3.82059 1.84098 0
M  V30 6501 N 619.056 -4.01115 3.08124 0
M  V30 6502 C 617.354 -4.11135 1.7287 0
M  V30 6503 C 618.055 -4.39989 3.80506 0
M  V30 6504 N 617.031 -4.47721 3.08297 0
M  V30 6505 H 620.833 -2.13832 2.01626 0
M  V30 6506 H 618.347 -1.11027 1.18519 0
M  V30 6507 H 620.344 -4.13049 0.565355 0
M  V30 6508 H 619.004 -3.24056 -0.204334 0
M  V30 6509 H 620.015 -3.87294 3.43836 0
M  V30 6510 H 616.692 -4.08412 0.866352 0
M  V30 6511 H 618.082 -4.62773 4.87125 0
M  V30 6512 N 620.802 -1.09834 -1.13024 0
M  V30 6513 C 622.05 -0.835297 -1.8403 0
M  V30 6514 C 622.371 0.640944 -1.84165 0
M  V30 6515 O 621.641 1.46517 -1.30037 0
M  V30 6516 H 620.221 -0.306018 -0.681441 0
M  V30 6517 H 622.883 -1.38734 -1.36891 0
M  V30 6518 H 621.979 -1.19258 -2.88416 0
M  V30 6519 N 622.28 1.30327 -0.886154 0
M  V30 6520 C 623.526 1.96388 -0.505941 0
M  V30 6521 C 623.859 1.69784 0.942712 0
M  V30 6522 O 623.134 1.00322 1.6663 0
M  V30 6523 C 623.417 3.51488 -0.782826 0
M  V30 6524 C 623.27 3.87603 -2.28219 0
M  V30 6525 C 624.589 4.39331 -0.260128 0
M  V30 6526 H 621.708 0.713327 -0.185292 0
M  V30 6527 H 624.35 1.54178 -1.11036 0
M  V30 6528 H 622.5 3.87572 -0.268399 0
M  V30 6529 H 624.172 3.61537 -2.86512 0
M  V30 6530 H 622.415 3.3563 -2.74837 0
M  V30 6531 H 623.086 4.95806 -2.42653 0
M  V30 6532 H 625.562 4.10162 -0.700444 0
M  V30 6533 H 624.438 5.46769 -0.483179 0
M  V30 6534 H 624.699 4.34072 0.838674 0
M  V30 6535 N 623.758 0.647228 1.43697 0
M  V30 6536 C 624.688 -0.0345631 2.33474 0
M  V30 6537 C 625.669 -0.818193 1.4913 0
M  V30 6538 O 626.854 -0.780867 1.77809 0
M  V30 6539 C 623.984 -1.00576 3.32418 0
M  V30 6540 C 622.938 -0.33266 4.26705 0
M  V30 6541 C 622.264 -1.41489 5.1564 0
M  V30 6542 C 623.564 0.771204 5.16575 0
M  V30 6543 H 625.258 0.715163 2.90733 0
M  V30 6544 H 622.804 0.345364 1.39797 0
M  V30 6545 H 624.757 -1.49159 3.94119 0
M  V30 6546 H 623.481 -1.78657 2.73403 0
M  V30 6547 H 622.14 0.13267 3.6636 0
M  V30 6548 H 621.788 -2.18698 4.52968 0
M  V30 6549 H 621.488 -0.969799 5.79542 0
M  V30 6550 H 623.012 -1.9022 5.80214 0
M  V30 6551 H 624.426 0.36779 5.72119 0
M  V30 6552 H 622.823 1.1404 5.89165 0
M  V30 6553 H 623.893 1.63169 4.56622 0
M  V30 6554 N 625.236 -1.5273 0.388769 0
M  V30 6555 C 626.464 -2.05992 -0.193677 0
M  V30 6556 C 626.879 -1.26053 -1.40557 0
M  V30 6557 O 626.236 -0.307049 -1.79898 0
M  V30 6558 C 626.287 -3.57068 -0.564321 0
M  V30 6559 O 626.008 -4.3398 0.599422 0
M  V30 6560 C 627.509 -4.26674 -1.20269 0
M  V30 6561 H 624.729 -0.670358 -0.0293445 0
M  V30 6562 H 627.273 -1.96857 0.553844 0
M  V30 6563 H 625.428 -3.66277 -1.26174 0
M  V30 6564 H 625.842 -5.2367 0.294895 0
M  V30 6565 H 627.316 -5.33625 -1.4124 0
M  V30 6566 H 627.793 -3.81854 -2.16989 0
M  V30 6567 H 628.399 -4.2178 -0.546047 0
M  V30 6568 N 626.714 -0.118576 -1.57153 0
M  V30 6569 C 627.646 0.862247 -2.12363 0
M  V30 6570 C 628.659 1.23025 -1.06625 0
M  V30 6571 O 629.848 1.17927 -1.33998 0
M  V30 6572 C 626.948 2.16425 -2.60794 0
M  V30 6573 C 626.121 1.96801 -3.90626 0
M  V30 6574 C 625.18 3.10726 -4.2466 0
M  V30 6575 O 624.206 2.83659 -4.93484 0
M  V30 6576 N 625.408 4.37147 -3.81946 0
M  V30 6577 H 628.173 0.390564 -2.97144 0
M  V30 6578 H 625.734 0.0658591 -1.61766 0
M  V30 6579 H 627.726 2.91633 -2.80593 0
M  V30 6580 H 626.296 2.54943 -1.80895 0
M  V30 6581 H 625.516 1.05787 -3.7974 0
M  V30 6582 H 626.804 1.80993 -4.7552 0
M  V30 6583 H 626.202 4.62014 -3.26435 0
M  V30 6584 H 624.759 5.09229 -4.06853 0
M  V30 6585 N 628.193 1.56834 0.155195 0
M  V30 6586 C 629.123 2.00678 1.19376 0
M  V30 6587 C 630.104 0.884973 1.45266 0
M  V30 6588 O 631.289 1.1522 1.56326 0
M  V30 6589 C 628.419 2.38042 2.5289 0
M  V30 6590 C 627.373 3.53332 2.41538 0
M  V30 6591 C 626.699 3.76485 3.79688 0
M  V30 6592 C 627.999 4.86265 1.9064 0
M  V30 6593 H 629.693 2.87688 0.829232 0
M  V30 6594 H 627.239 1.38407 0.397445 0
M  V30 6595 H 629.192 2.67314 3.25763 0
M  V30 6596 H 627.916 1.4796 2.91162 0
M  V30 6597 H 626.575 3.24213 1.71117 0
M  V30 6598 H 626.223 2.83667 4.15382 0
M  V30 6599 H 625.923 4.54068 3.72956 0
M  V30 6600 H 627.447 4.08174 4.54122 0
M  V30 6601 H 628.861 5.14308 2.53299 0
M  V30 6602 H 627.258 5.67597 1.94818 0
M  V30 6603 H 628.328 4.77184 0.861596 0
M  V30 6604 N 629.671 -0.424282 1.51781 0
M  V30 6605 C 630.919 -1.17028 1.64769 0
M  V30 6606 C 631.24 -1.91409 0.372523 0
M  V30 6607 O 630.51 -1.86091 -0.612108 0
M  V30 6608 H 629.09 -0.434992 0.607282 0
M  V30 6609 H 631.752 -0.485169 1.88765 0
M  V30 6610 H 630.848 -1.8927 2.4816 0
M  V30 6611 N 631.149 -1.42148 -0.680565 0
M  V30 6612 C 632.059 -1.47565 -1.82378 0
M  V30 6613 C 633.075 -0.36489 -1.70131 0
M  V30 6614 O 634.251 -0.614916 -1.91783 0
M  V30 6615 C 631.316 -1.37013 -3.18478 0
M  V30 6616 C 630.377 -2.58532 -3.42724 0
M  V30 6617 C 629.61 -2.48473 -4.72331 0
M  V30 6618 O 629.833 -1.51745 -5.49845 0
M  V30 6619 O 628.767 -3.38503 -4.97694 0
M  V30 6620 H 632.593 -2.44045 -1.80764 0
M  V30 6621 H 630.178 -1.23849 -0.835569 0
M  V30 6622 H 632.06 -1.33468 -3.99705 0
M  V30 6623 H 630.735 -0.436552 -3.20743 0
M  V30 6624 H 629.642 -2.67652 -2.61368 0
M  V30 6625 H 630.975 -3.50769 -3.45286 0
M  V30 6626 N 632.627 0.916307 -1.28225 0
M  V30 6627 C 633.557 2.0352 -1.14464 0
M  V30 6628 C 634.538 1.70045 -0.0430844 0
M  V30 6629 O 635.723 1.92954 -0.219619 0
M  V30 6630 C 632.853 3.37889 -0.803027 0
M  V30 6631 C 631.807 3.85516 -1.85908 0
M  V30 6632 C 631.133 5.1682 -1.37116 0
M  V30 6633 C 632.433 4.07655 -3.26519 0
M  V30 6634 H 634.127 2.1529 -2.08064 0
M  V30 6635 H 631.673 1.03446 -1.00174 0
M  V30 6636 H 633.626 4.15654 -0.693537 0
M  V30 6637 H 632.35 3.26164 0.168674 0
M  V30 6638 H 631.009 3.09953 -1.95767 0
M  V30 6639 H 630.657 5.01497 -0.38859 0
M  V30 6640 H 630.357 5.49657 -2.07728 0
M  V30 6641 H 631.881 5.97143 -1.27484 0
M  V30 6642 H 633.295 4.75953 -3.19596 0
M  V30 6643 H 631.692 4.51818 -3.94943 0
M  V30 6644 H 632.762 3.12553 -3.70727 0
M  V30 6645 N 634.105 1.10431 1.1244 0
M  V30 6646 C 635.068 0.756542 2.16354 0
M  V30 6647 C 636.068 -0.21899 1.59302 0
M  V30 6648 O 637.258 0.00415969 1.742 0
M  V30 6649 C 634.39 0.120612 3.40687 0
M  V30 6650 H 635.583 1.67696 2.48632 0
M  V30 6651 H 633.136 0.904832 1.27446 0
M  V30 6652 H 633.871 -0.810536 3.14008 0
M  V30 6653 H 633.656 0.822693 3.83372 0
M  V30 6654 H 635.146 -0.106945 4.17463 0
M  V30 6655 N 635.583 -1.29855 0.893053 0
M  V30 6656 C 636.515 -2.26911 0.32311 0
M  V30 6657 C 637.528 -1.54039 -0.526858 0
M  V30 6658 O 638.717 -1.75132 -0.345095 0
M  V30 6659 C 635.817 -3.34266 -0.558509 0
M  V30 6660 C 634.99 -4.36601 0.264222 0
M  V30 6661 C 634.049 -5.23326 -0.549171 0
M  V30 6662 O 633.075 -5.69192 0.0309883 0
M  V30 6663 N 634.277 -5.50008 -1.85664 0
M  V30 6664 H 637.042 -2.76455 1.15726 0
M  V30 6665 H 634.603 -1.4312 0.756859 0
M  V30 6666 H 636.595 -3.89211 -1.1089 0
M  V30 6667 H 635.165 -2.8459 -1.29334 0
M  V30 6668 H 634.385 -3.81409 0.996046 0
M  V30 6669 H 635.673 -5.02019 0.827906 0
M  V30 6670 H 635.071 -5.14542 -2.35081 0
M  V30 6671 H 633.628 -6.07796 -2.35431 0
M  V30 6672 N 637.061 -0.65484 -1.43351 0
M  V30 6673 C 637.993 0.0744757 -2.29079 0
M  V30 6674 C 639.006 0.7855 -1.42596 0
M  V30 6675 O 640.195 0.642986 -1.66517 0
M  V30 6676 C 637.295 1.12859 -3.19556 0
M  V30 6677 C 636.468 0.495381 -4.34586 0
M  V30 6678 C 635.527 1.44659 -5.05925 0
M  V30 6679 O 634.553 0.954567 -5.61139 0
M  V30 6680 N 635.755 2.78051 -5.09576 0
M  V30 6681 H 638.52 -0.661346 -2.92312 0
M  V30 6682 H 636.081 -0.497744 -1.54059 0
M  V30 6683 H 638.073 1.76577 -3.64147 0
M  V30 6684 H 636.643 1.76636 -2.57912 0
M  V30 6685 H 635.863 -0.32092 -3.92892 0
M  V30 6686 H 637.151 0.0534203 -5.08772 0
M  V30 6687 H 636.549 3.20584 -4.66093 0
M  V30 6688 H 635.106 3.37068 -5.57878 0
M  V30 6689 N 638.539 1.52521 -0.396863 0
M  V30 6690 C 639.785 2.01971 0.183169 0
M  V30 6691 C 640.118 1.2825 1.45827 0
M  V30 6692 O 639.393 0.385179 1.90648 0
M  V30 6693 C 639.676 3.5736 0.443391 0
M  V30 6694 C 639.529 4.41743 -0.84753 0
M  V30 6695 C 640.848 4.22539 1.2308 0
M  V30 6696 H 637.967 0.734119 0.0650976 0
M  V30 6697 H 640.609 1.82519 -0.527918 0
M  V30 6698 H 638.759 3.74066 1.04914 0
M  V30 6699 H 640.431 4.36773 -1.48414 0
M  V30 6700 H 638.674 4.0845 -1.4612 0
M  V30 6701 H 639.345 5.48507 -0.620003 0
M  V30 6702 H 641.821 4.09857 0.718084 0
M  V30 6703 H 640.697 5.31227 1.38162 0
M  V30 6704 H 640.958 3.80675 2.24808 0
M  V30 6705 N 640.017 0.126909 1.57088 0
M  V30 6706 C 640.927 -0.833867 2.1928 0
M  V30 6707 C 641.943 -1.2868 1.17122 0
M  V30 6708 O 643.119 -1.34815 1.49622 0
M  V30 6709 C 640.184 -2.0632 2.78627 0
M  V30 6710 C 639.245 -1.66143 3.95847 0
M  V30 6711 C 638.478 -2.83217 4.52354 0
M  V30 6712 O 638.701 -3.98868 4.0775 0
M  V30 6713 O 637.635 -2.59846 5.42922 0
M  V30 6714 H 641.461 -0.334564 3.01852 0
M  V30 6715 H 639.046 -0.0991091 1.49071 0
M  V30 6716 H 640.928 -2.78304 3.16425 0
M  V30 6717 H 639.603 -2.55242 1.99082 0
M  V30 6718 H 638.51 -0.912435 3.62802 0
M  V30 6719 H 639.843 -1.21957 4.76852 0
M  V30 6720 N 641.495 -1.56914 -0.146875 0
M  V30 6721 C 642.72 -1.87881 -0.878386 0
M  V30 6722 C 643.145 -0.715945 -1.73942 0
M  V30 6723 O 642.503 0.334447 -1.78189 0
M  V30 6724 C 642.551 -3.17431 -1.71084 0
M  V30 6725 O 641.655 -3.01374 -2.81509 0
M  V30 6726 H 640.996 -0.617289 -0.244644 0
M  V30 6727 H 643.526 -2.04136 -0.137654 0
M  V30 6728 H 643.536 -3.49455 -2.10582 0
M  V30 6729 H 642.211 -4.01671 -1.07856 0
M  V30 6730 H 640.788 -2.80758 -2.45416 0
M  V30 6731 N 642.974 0.416227 -1.52004 0
M  V30 6732 C 644.385 0.995319 -1.57957 0
M  V30 6733 C 644.736 1.91744 -0.415754 0
M  V30 6734 O 643.861 2.11349 0.464808 0
M  V30 6735 C 644.456 1.81191 -2.86278 0
M  V30 6736 C 643.015 2.34115 -2.94732 0
M  V30 6737 C 642.162 1.139 -2.52828 0
M  V30 6738 H 645.113 0.196716 -1.57476 0
M  V30 6739 H 645.134 2.66859 -2.71231 0
M  V30 6740 H 644.646 1.14051 -3.70963 0
M  V30 6741 H 642.747 3.04647 -2.14525 0
M  V30 6742 H 642.86 2.65466 -3.98829 0
M  V30 6743 H 641.224 1.49081 -2.06511 0
M  V30 6744 H 642.007 0.483383 -3.3988 0
M  V30 6745 N 644.452 1.42507 0.673017 0
M  V30 6746 C 645.415 1.4582 1.76831 0
M  V30 6747 C 646.415 0.345542 1.57043 0
M  V30 6748 O 647.605 0.606447 1.63303 0
M  V30 6749 C 644.737 1.29158 3.15485 0
M  V30 6750 H 645.93 2.43345 1.7528 0
M  V30 6751 H 643.483 1.28981 0.882817 0
M  V30 6752 H 644.218 0.325626 3.22661 0
M  V30 6753 H 644.003 2.09797 3.31252 0
M  V30 6754 H 645.493 1.34363 3.95394 0
M  V30 6755 N 645.93 -0.909495 1.28709 0
M  V30 6756 C 646.86 -2.0291 1.15542 0
M  V30 6757 C 647.841 -1.7002 0.0521017 0
M  V30 6758 O 649.026 -1.92835 0.229849 0
M  V30 6759 C 646.156 -3.37458 0.820935 0
M  V30 6760 C 645.11 -3.84524 1.87949 0
M  V30 6761 C 644.436 -5.16086 1.39854 0
M  V30 6762 C 645.736 -4.05918 3.28676 0
M  V30 6763 H 647.43 -2.14183 2.09203 0
M  V30 6764 H 644.976 -1.02913 1.00722 0
M  V30 6765 H 646.929 -4.1528 0.715571 0
M  V30 6766 H 645.653 -3.26249 -0.151374 0
M  V30 6767 H 644.312 -3.08911 1.97408 0
M  V30 6768 H 643.96 -5.01284 0.41518 0
M  V30 6769 H 643.66 -5.48547 2.1064 0
M  V30 6770 H 645.184 -5.96459 1.30649 0
M  V30 6771 H 646.598 -4.74252 3.22115 0
M  V30 6772 H 644.995 -4.49717 3.97334 0
M  V30 6773 H 646.065 -3.10583 3.72379 0
M  V30 6774 N 647.408 -1.11026 -1.11852 0
M  V30 6775 C 648.657 -0.851249 -1.82857 0
M  V30 6776 C 648.97 0.62514 -1.85341 0
M  V30 6777 O 650.176 1.00026 -2.52403 0
M  V30 6778 C 648.632 -1.47309 -3.28372 0
M  V30 6779 C 648.24 -2.9832 -3.34229 0
M  V30 6780 C 649.984 -1.29373 -4.04306 0
M  V30 6781 C 647.891 -3.53509 -4.74115 0
M  V30 6782 H 646.821 -0.314794 -0.685143 0
M  V30 6783 H 649.472 -1.33499 -1.25898 0
M  V30 6784 H 647.854 -0.917017 -3.85236 0
M  V30 6785 H 649.028 -3.60295 -2.87271 0
M  V30 6786 H 647.343 -3.15482 -2.71772 0
M  V30 6787 H 649.94 -1.68042 -5.07608 0
M  V30 6788 H 650.283 -0.235879 -4.15631 0
M  V30 6789 H 650.816 -1.8182 -3.53817 0
M  V30 6790 H 647.555 -4.58987 -4.67986 0
M  V30 6791 H 647.075 -2.96305 -5.21501 0
M  V30 6792 H 648.754 -3.51693 -5.43066 0
M  V30 6793 N 648.886 1.2938 -0.899927 0
M  V30 6794 C 650.135 1.9483 -0.521937 0
M  V30 6795 C 650.448 1.71725 0.936473 0
M  V30 6796 O 651.654 2.31282 1.42199 0
M  V30 6797 C 650.11 3.48911 -0.88255 0
M  V30 6798 C 649.718 3.80815 -2.35974 0
M  V30 6799 C 651.462 4.20595 -0.57448 0
M  V30 6800 C 649.369 5.28142 -2.66121 0
M  V30 6801 H 648.299 0.729285 -0.191468 0
M  V30 6802 H 650.95 1.47103 -1.09695 0
M  V30 6803 H 649.332 3.95293 -0.236459 0
M  V30 6804 H 650.506 3.45291 -3.05141 0
M  V30 6805 H 648.821 3.22271 -2.63686 0
M  V30 6806 H 651.418 5.29031 -0.776556 0
M  V30 6807 H 651.761 4.13442 0.487005 0
M  V30 6808 H 652.294 3.79945 -1.17842 0
M  V30 6809 H 649.033 5.4036 -3.71068 0
M  V30 6810 H 648.553 5.64913 -2.01578 0
M  V30 6811 H 650.232 5.95738 -2.52399 0
M  V30 6812 N 650.364 0.662433 1.43002 0
M  V30 6813 C 651.61 0.179857 2.02001 0
M  V30 6814 C 651.943 -1.20625 1.52195 0
M  V30 6815 O 651.218 -1.80726 0.718911 0
M  V30 6816 C 651.501 0.200845 3.59539 0
M  V30 6817 C 651.354 1.62153 4.19555 0
M  V30 6818 C 652.673 -0.457738 4.37713 0
M  V30 6819 H 649.792 0.0668305 0.733964 0
M  V30 6820 H 652.434 0.84487 1.70182 0
M  V30 6821 H 650.584 -0.365411 3.86778 0
M  V30 6822 H 652.256 2.23908 4.03315 0
M  V30 6823 H 650.499 2.16601 3.75854 0
M  V30 6824 H 651.17 1.58799 5.28665 0
M  V30 6825 H 653.646 0.0241495 4.16093 0
M  V30 6826 H 652.522 -0.412363 5.47349 0
M  V30 6827 H 652.783 -1.53336 4.14657 0
M  V30 6828 N 651.842 -1.52309 0.404946 0
M  V30 6829 C 653.09 -2.01368 -0.17186 0
M  V30 6830 C 653.411 -1.29261 -1.46002 0
M  V30 6831 O 652.681 -0.41729 -1.91404 0
M  V30 6832 H 651.261 -0.744034 -0.0664993 0
M  V30 6833 H 653.923 -1.87263 0.540228 0
M  V30 6834 H 653.019 -3.09888 -0.370957 0
M  V30 6835 N 653.32 -0.135238 -1.57019 0
M  V30 6836 C 654.736 0.221262 -1.58059 0
M  V30 6837 C 654.936 1.65538 -1.14889 0
M  V30 6838 O 653.992 2.37985 -0.843751 0
M  V30 6839 C 655.305 -0.0268114 -3.00688 0
M  V30 6840 C 656.853 0.0378206 -3.12977 0
M  V30 6841 C 657.328 -0.182769 -4.57635 0
M  V30 6842 N 658.819 -0.129292 -4.6302 0
M  V30 6843 C 659.554 -0.274648 -5.72742 0
M  V30 6844 N 659.05 -0.477075 -6.91155 0
M  V30 6845 N 660.843 -0.213077 -5.61696 0
M  V30 6846 H 652.994 -1.07177 -1.83376 0
M  V30 6847 H 655.257 -0.423338 -0.848227 0
M  V30 6848 H 654.963 -1.01889 -3.36618 0
M  V30 6849 H 654.837 0.697863 -3.70688 0
M  V30 6850 H 657.224 1.02043 -2.76896 0
M  V30 6851 H 657.305 -0.718996 -2.45487 0
M  V30 6852 H 656.949 -1.16243 -4.94419 0
M  V30 6853 H 656.879 0.59423 -5.23237 0
M  V30 6854 H 659.37 0.0229896 -3.77893 0
M  V30 6855 H 659.683 -0.578413 -7.70632 0
M  V30 6856 H 658.028 -0.513252 -6.93102 0
M  V30 6857 H 661.219 -0.0557796 -4.68067 0
M  V30 6858 H 661.392 -0.329796 -6.4716 0
M  V30 6859 N 654.798 1.5699 0.138552 0
M  V30 6860 C 656.044 1.84081 0.85099 0
M  V30 6861 C 656.377 0.718107 1.80435 0
M  V30 6862 O 655.652 -0.277633 1.92508 0
M  V30 6863 C 655.935 3.21699 1.61808 0
M  V30 6864 C 655.788 4.44544 0.685633 0
M  V30 6865 C 657.107 3.5664 2.57868 0
M  V30 6866 H 654.226 0.669592 0.307922 0
M  V30 6867 H 656.868 1.89646 0.11588 0
M  V30 6868 H 655.018 3.17086 2.24474 0
M  V30 6869 H 656.69 4.61248 0.0693179 0
M  V30 6870 H 654.933 4.338 -0.00421993 0
M  V30 6871 H 655.604 5.3746 1.25858 0
M  V30 6872 H 658.08 3.61918 2.05316 0
M  V30 6873 H 656.956 4.53946 3.08584 0
M  V30 6874 H 657.217 2.83036 3.39622 0
M  V30 6875 N 656.276 -0.40816 1.52223 0
M  V30 6876 C 657.522 -1.15673 1.66576 0
M  V30 6877 C 657.855 -1.90141 0.394996 0
M  V30 6878 O 657.13 -1.84798 -0.606613 0
M  V30 6879 C 657.413 -2.15042 2.88841 0
M  V30 6880 C 657.266 -1.44465 4.25969 0
M  V30 6881 C 658.585 -3.15699 3.0663 0
M  V30 6882 H 655.704 -0.41916 0.606196 0
M  V30 6883 H 658.346 -0.442348 1.84779 0
M  V30 6884 H 656.496 -2.75964 2.73452 0
M  V30 6885 H 658.168 -0.866544 4.53088 0
M  V30 6886 H 656.411 -0.746612 4.27327 0
M  V30 6887 H 657.082 -2.16976 5.07568 0
M  V30 6888 H 659.558 -2.64854 3.20923 0
M  V30 6889 H 658.434 -3.82491 3.9369 0
M  V30 6890 H 658.695 -3.83481 2.19987 0
M  V30 6891 N 657.755 -1.42862 -0.66545 0
M  V30 6892 C 658.718 -1.46756 -1.76055 0
M  V30 6893 C 659.718 -0.353866 -1.56858 0
M  V30 6894 O 660.908 -0.615099 -1.62979 0
M  V30 6895 C 658.04 -1.30829 -3.14796 0
M  V30 6896 H 659.233 -2.44271 -1.73987 0
M  V30 6897 H 656.786 -1.29447 -0.875965 0
M  V30 6898 H 657.521 -0.342733 -3.22484 0
M  V30 6899 H 657.306 -2.11551 -3.30134 0
M  V30 6900 H 658.796 -1.36458 -3.94676 0
M  V30 6901 N 659.233 0.902656 -1.29189 0
M  V30 6902 C 660.163 2.02294 -1.16616 0
M  V30 6903 C 661.144 1.6999 -0.0611175 0
M  V30 6904 O 662.329 1.9271 -0.240072 0
M  V30 6905 C 659.459 3.37018 -0.83882 0
M  V30 6906 C 658.413 3.83522 -1.89986 0
M  V30 6907 C 657.739 5.15337 -1.42589 0
M  V30 6908 C 659.039 4.04169 -3.30824 0
M  V30 6909 H 660.733 2.13071 -2.10336 0
M  V30 6910 H 658.279 1.02378 -1.01266 0
M  V30 6911 H 660.232 4.14895 -0.737584 0
M  V30 6912 H 658.956 3.26325 0.134071 0
M  V30 6913 H 657.615 3.07859 -1.99043 0
M  V30 6914 H 657.263 5.01056 -0.441759 0
M  V30 6915 H 656.963 5.47423 -2.13547 0
M  V30 6916 H 658.487 5.95758 -1.3381 0
M  V30 6917 H 659.901 4.72537 -3.24626 0
M  V30 6918 H 658.298 4.47604 -3.99713 0
M  V30 6919 H 659.368 3.08604 -3.74021 0
M  V30 6920 N 660.711 1.11618 1.11262 0
M  V30 6921 C 662.127 0.850468 1.35053 0
M  V30 6922 C 662.327 -0.523868 1.94571 0
M  V30 6923 O 661.383 -1.2743 2.17986 0
M  V30 6924 C 662.696 1.96005 2.28041 0
M  V30 6925 C 664.244 1.98993 2.416 0
M  V30 6926 C 664.719 3.0916 3.37911 0
M  V30 6927 N 666.21 3.08547 3.45475 0
M  V30 6928 C 666.945 3.9043 4.19943 0
M  V30 6929 N 666.441 4.8228 4.97371 0
M  V30 6930 N 668.234 3.786 4.15474 0
M  V30 6931 H 660.385 2.00184 0.709932 0
M  V30 6932 H 662.648 0.870635 0.375099 0
M  V30 6933 H 662.354 2.9499 1.91503 0
M  V30 6934 H 662.228 1.85782 3.28275 0
M  V30 6935 H 664.615 1.00633 2.77411 0
M  V30 6936 H 664.696 2.13292 1.4121 0
M  V30 6937 H 664.34 4.07748 3.02827 0
M  V30 6938 H 664.27 2.92102 4.3816 0
M  V30 6939 H 666.761 2.42 2.90249 0
M  V30 6940 H 667.074 5.41289 5.51567 0
M  V30 6941 H 665.419 4.863 4.96525 0
M  V30 6942 H 668.61 3.06185 3.54074 0
M  V30 6943 H 668.783 4.42647 4.73253 0
M  V30 6944 N 662.189 -1.289 0.906776 0
M  V30 6945 C 663.466 -1.90221 0.455537 0
M  V30 6946 C 663.846 -1.82251 -1.06527 0
M  V30 6947 O 663.194 -1.25385 -1.91026 0
M  V30 6948 C 663.404 -3.35015 0.97806 0
M  V30 6949 C 664.752 -4.12018 1.02598 0
M  V30 6950 O 665.776 -3.43947 0.926218 0
M  V30 6951 O 664.635 -5.33677 1.17689 0
M  V30 6952 H 661.729 -0.814505 0.143214 0
M  V30 6953 H 664.275 -1.37317 0.997104 0
M  V30 6954 H 663.047 -3.35006 2.02204 0
M  V30 6955 H 662.67 -3.95408 0.416914 0
M  V30 6956 N 663.667 -0.670007 -1.42649 0
M  V30 6957 C 664.614 0.0112928 -2.30797 0
M  V30 6958 C 665.584 0.797627 -1.45695 0
M  V30 6959 O 666.769 0.770845 -1.74535 0
M  V30 6960 C 663.909 0.95998 -3.31479 0
M  V30 6961 C 663.022 0.167975 -4.31673 0
M  V30 6962 C 662.157 1.11198 -5.19431 0
M  V30 6963 C 661.196 0.311381 -6.11307 0
M  V30 6964 N 660.333 1.20784 -6.91633 0
M  V30 6965 H 665.173 -0.746231 -2.88505 0
M  V30 6966 H 662.71 -0.379739 -1.42114 0
M  V30 6967 H 664.668 1.52379 -3.88377 0
M  V30 6968 H 663.298 1.68419 -2.75382 0
M  V30 6969 H 662.35 -0.512385 -3.76933 0
M  V30 6970 H 663.662 -0.453814 -4.96731 0
M  V30 6971 H 662.816 1.74587 -5.81037 0
M  V30 6972 H 661.555 1.76766 -4.54538 0
M  V30 6973 H 660.56 -0.335758 -5.48774 0
M  V30 6974 H 661.785 -0.340135 -6.78248 0
M  V30 6975 H 659.731 1.85001 -6.29373 0
M  V30 6976 H 659.648 0.64102 -7.53277 0
M  V30 6977 H 660.916 1.82936 -7.5773 0
M  V30 6978 N 665.145 1.52092 -0.413018 0
M  V30 6979 C 666.075 2.30021 0.401567 0
M  V30 6980 C 667.056 1.34395 1.04269 0
M  V30 6981 O 668.241 1.63304 1.05097 0
M  V30 6982 C 665.371 3.12447 1.51638 0
M  V30 6983 C 664.325 4.16153 1.00005 0
M  V30 6984 C 663.651 4.86948 2.20875 0
M  V30 6985 C 664.951 5.22275 0.0513757 0
M  V30 6986 H 666.645 2.98365 -0.248704 0
M  V30 6987 H 664.191 1.4349 -0.121052 0
M  V30 6988 H 666.144 3.65733 2.09326 0
M  V30 6989 H 664.868 2.41879 2.19458 0
M  V30 6990 H 663.527 3.63882 0.445549 0
M  V30 6991 H 663.175 4.12905 2.8726 0
M  V30 6992 H 662.875 5.57057 1.86978 0
M  V30 6993 H 664.399 5.43048 2.79162 0
M  V30 6994 H 665.813 5.70778 0.537176 0
M  V30 6995 H 664.21 5.9977 -0.198977 0
M  V30 6996 H 665.28 4.76611 -0.892736 0
M  V30 6997 N 666.623 0.143563 1.56945 0
M  V30 6998 C 667.571 -0.814556 2.17871 0
M  V30 6999 C 668.565 -1.25778 1.13474 0
M  V30 7000 O 669.771 -1.22666 1.31731 0
M  V30 7001 H 666.146 -0.280873 0.697578 0
M  V30 7002 H 668.117 -0.276459 2.97117 0
M  V30 7003 C 666.866 -2.04503 2.81201 0
M  V30 7004 H 666.189 -1.71296 3.61245 0
M  V30 7005 H 667.629 -2.69493 3.27337 0
M  V30 7006 C 666.088 -2.85079 1.79532 0
M  V30 7007 O 666.618 -3.81306 1.26368 0
M  V30 7008 N 664.824 -2.49546 1.48913 0
M  V30 7009 H 664.371 -1.71359 1.92338 0
M  V30 7010 H 664.329 -3.03751 0.811348 0
M  V30 7011 N 668.101 -1.57061 -0.130224 0
M  V30 7012 C 669.347 -1.85412 -0.836295 0
M  V30 7013 C 669.702 -0.729831 -1.7802 0
M  V30 7014 O 668.995 0.271021 -1.89673 0
M  V30 7015 C 669.189 -3.17878 -1.63365 0
M  V30 7016 C 669.018 -4.43086 -0.768453 0
M  V30 7017 C 667.788 -5.03488 -0.427598 0
M  V30 7018 C 669.986 -5.14219 -0.0911495 0
M  V30 7019 N 667.968 -6.12253 0.449439 0
M  V30 7020 C 669.339 -6.16632 0.645341 0
M  V30 7021 C 671.394 -4.97898 -0.0135625 0
M  V30 7022 C 670.097 -7.0449 1.45212 0
M  V30 7023 C 672.123 -5.86234 0.780001 0
M  V30 7024 C 671.485 -6.88141 1.50472 0
M  V30 7025 H 667.584 -0.728875 -0.283311 0
M  V30 7026 H 670.168 -1.9444 -0.100662 0
M  V30 7027 H 668.339 -3.09967 -2.3404 0
M  V30 7028 H 670.071 -3.34076 -2.28419 0
M  V30 7029 H 666.826 -4.67344 -0.767264 0
M  V30 7030 H 667.25 -6.71263 0.879476 0
M  V30 7031 H 671.892 -4.19082 -0.559511 0
M  V30 7032 H 669.61 -7.82722 2.00926 0
M  V30 7033 H 673.196 -5.75671 0.842246 0
M  V30 7034 H 672.076 -7.55311 2.1089 0
M  V30 7035 N 669.579 0.400081 -1.52437 0
M  V30 7036 C 670.826 1.14619 -1.6694 0
M  V30 7037 C 671.154 1.90262 -0.403797 0
M  V30 7038 O 670.409 1.85835 0.61351 0
M  V30 7039 C 670.708 2.15914 -2.84808 0
M  V30 7040 C 670.374 1.57011 -4.2268 0
M  V30 7041 C 669.036 1.40672 -4.60179 0
M  V30 7042 C 671.388 1.14081 -5.08562 0
M  V30 7043 C 668.716 0.799335 -5.81229 0
M  V30 7044 C 671.068 0.547573 -6.30226 0
M  V30 7045 C 669.732 0.371389 -6.66466 0
M  V30 7046 H 669.002 0.419419 -0.610875 0
M  V30 7047 H 671.649 0.432227 -1.86558 0
M  V30 7048 H 669.954 2.93488 -2.59561 0
M  V30 7049 H 671.651 2.73533 -2.93225 0
M  V30 7050 H 668.241 1.70713 -3.93135 0
M  V30 7051 H 672.425 1.2551 -4.80168 0
M  V30 7052 H 667.681 0.65093 -6.07925 0
M  V30 7053 H 671.855 0.206575 -6.96094 0
M  V30 7054 H 669.482 -0.10135 -7.60132 0
M  V30 7055 N 671.057 1.43213 0.657864 0
M  V30 7056 C 672.282 1.48227 1.45064 0
M  V30 7057 C 672.707 0.0999939 1.87834 0
M  V30 7058 O 672.065 -0.905269 1.57081 0
M  V30 7059 C 672.113 2.42931 2.6649 0
M  V30 7060 O 671.217 1.91237 3.6538 0
M  V30 7061 H 670.558 0.501551 0.435135 0
M  V30 7062 H 673.088 1.8808 0.805431 0
M  V30 7063 H 673.098 2.6008 3.1436 0
M  V30 7064 H 671.773 3.43348 2.34701 0
M  V30 7065 H 670.35 1.83726 3.24498 0
M  V30 7066 N 672.536 -0.895792 1.29666 0
M  V30 7067 C 673.484 -2.02173 1.15017 0
M  V30 7068 C 674.478 -1.69276 0.0647651 0
M  V30 7069 O 675.684 -1.7859 0.224846 0
M  V30 7070 H 672.059 -0.662719 0.355397 0
M  V30 7071 H 674.03 -2.11666 2.10334 0
M  V30 7072 C 672.779 -3.37212 0.847555 0
M  V30 7073 H 672.102 -3.6303 1.67479 0
M  V30 7074 H 673.542 -4.16668 0.785106 0
M  V30 7075 C 672.001 -3.33891 -0.44929 0
M  V30 7076 O 672.531 -3.73673 -1.47415 0
M  V30 7077 N 670.737 -2.86991 -0.456547 0
M  V30 7078 H 670.284 -2.54813 0.377925 0
M  V30 7079 H 670.242 -2.85152 -1.32423 0
M  V30 7080 N 674.014 -1.12206 -1.10668 0
M  V30 7081 C 674.964 -0.75669 -2.15077 0
M  V30 7082 C 675.948 0.243154 -1.59052 0
M  V30 7083 O 677.14 0.0490268 -1.76932 0
M  V30 7084 C 674.269 -0.210303 -3.42655 0
M  V30 7085 C 673.355 -1.23829 -4.05619 0
M  V30 7086 N 673.746 -2.43513 -4.43323 0
M  V30 7087 C 672.044 -1.08309 -4.32649 0
M  V30 7088 C 672.745 -3.09138 -4.92756 0
M  V30 7089 N 671.721 -2.36593 -4.89413 0
M  V30 7090 H 675.523 -1.66747 -2.42018 0
M  V30 7091 H 673.037 -1.00248 -1.27765 0
M  V30 7092 H 675.034 0.0696287 -4.16842 0
M  V30 7093 H 673.694 0.694967 -3.17176 0
M  V30 7094 H 674.705 -2.80912 -4.35097 0
M  V30 7095 H 671.382 -0.234919 -4.16839 0
M  V30 7096 H 672.772 -4.11049 -5.31496 0
M  V30 7097 O 675.531 1.23095 -1.04546 0
M  V30 7098 H 676.222 1.79876 -0.718642 0
M  V30 END ATOM
M  V30 BEGIN BOND
M  V30 END BOND
M  V30 END CTAB
M  END
$$$$
