drugbank_target|P25942 Tumor necrosis factor receptor superfamily member 5 (DB06360; DB12589)
 OpenBabel12092119493D

  0  0  0     0  0            999 V3000
M  V30 BEGIN CTAB
M  V30 COUNTS 4226 4275 0 0 0
M  V30 BEGIN ATOM
M  V30 1 H -0.908 1.98254 -0.117106 0
M  V30 2 N 0 1.576 0 0
M  V30 3 C 0.933 2.03868 1.02534 0
M  V30 4 C 1.911 0.928543 1.3348 0
M  V30 5 O 3.095 1.19667 1.45644 0
M  V30 6 C 0.222 2.43627 2.35294 0
M  V30 7 C -0.732 3.65373 2.2001 0
M  V30 8 S 0.101 5.13292 1.52614 0
M  V30 9 C 1.257 5.56322 2.86805 0
M  V30 10 H 1.49 2.90518 0.631377 0
M  V30 11 H -0.977 1.52953 0.210867 0
M  V30 12 H 0.981 2.67203 3.11629 0
M  V30 13 H -0.358 1.57376 2.7183 0
M  V30 14 H -1.165 3.90944 3.18086 0
M  V30 15 H -1.563 3.418 1.51819 0
M  V30 16 H 0.729 5.58782 3.83104 0
M  V30 17 H 1.672 6.56266 2.65933 0
M  V30 18 H 2.08 4.83886 2.90714 0
M  V30 19 N 1.4781 -0.272755 1.55222 0
M  V30 20 C 2.7241 -1.00581 1.761 0
M  V30 21 C 3.0571 -1.85932 0.560625 0
M  V30 22 O 2.3321 -1.89416 -0.441801 0
M  V30 23 C 2.6151 -1.88816 3.06628 0
M  V30 24 C 2.4681 -1.06457 4.37021 0
M  V30 25 C 3.7871 -2.8752 3.33197 0
M  V30 26 H 0.9061 -0.364244 0.640699 0
M  V30 27 H 3.5481 -0.278189 1.87952 0
M  V30 28 H 1.6981 -2.50856 2.96654 0
M  V30 29 H 3.3701 -0.464863 4.58952 0
M  V30 30 H 1.6131 -0.368043 4.32236 0
M  V30 31 H 2.2841 -1.71514 5.24678 0
M  V30 32 H 4.7601 -2.35615 3.42965 0
M  V30 33 H 3.6361 -3.46399 4.25792 0
M  V30 34 H 3.8971 -3.62657 2.52849 0
M  V30 35 N 2.9562 -1.48159 -0.537278 0
M  V30 36 C 4.3722 -1.34118 -0.865129 0
M  V30 37 C 4.5722 -0.346678 -1.98495 0
M  V30 38 O 3.6282 0.234715 -2.51407 0
M  V30 39 C 4.9412 -2.73963 -1.23954 0
M  V30 40 C 6.4892 -2.82397 -1.34984 0
M  V30 41 C 6.9642 -4.22928 -1.75772 0
M  V30 42 N 8.4552 -4.25566 -1.82887 0
M  V30 43 C 9.1902 -5.31235 -2.15817 0
M  V30 44 N 8.6862 -6.47189 -2.47222 0
M  V30 45 N 10.4792 -5.18624 -2.16761 0
M  V30 46 H 2.6302 -2.1144 0.201715 0
M  V30 47 H 4.8932 -0.947598 0.0275949 0
M  V30 48 H 4.5992 -3.48264 -0.490381 0
M  V30 49 H 4.4732 -3.0702 -2.19132 0
M  V30 50 H 6.8602 -2.08356 -2.08978 0
M  V30 51 H 6.9412 -2.5297 -0.379448 0
M  V30 52 H 6.5852 -4.97482 -1.02341 0
M  V30 53 H 6.5152 -4.49794 -2.73848 0
M  V30 54 H 9.0062 -3.41924 -1.60924 0
M  V30 55 H 9.3192 -7.23564 -2.71433 0
M  V30 56 H 7.6642 -6.50476 -2.44757 0
M  V30 57 H 10.8552 -4.27056 -1.91679 0
M  V30 58 H 11.0282 -6.01078 -2.42093 0
M  V30 59 N 4.4343 0.785586 -1.36625 0
M  V30 60 C 5.3643 1.91259 -1.33949 0
M  V30 61 C 6.3453 1.68795 -0.210325 0
M  V30 62 O 7.5303 1.89854 -0.408561 0
M  V30 63 C 4.6603 3.28339 -1.13186 0
M  V30 64 C 3.6143 3.65335 -2.22967 0
M  V30 65 C 2.9403 5.00806 -1.87342 0
M  V30 66 C 4.2403 3.7352 -3.65075 0
M  V30 67 H 5.9343 1.93755 -2.28253 0
M  V30 68 H 3.4803 0.930788 -1.09874 0
M  V30 69 H 5.4333 4.06804 -1.09948 0
M  V30 70 H 4.1573 3.2624 -0.153332 0
M  V30 71 H 2.8163 2.89169 -2.25337 0
M  V30 72 H 2.4643 4.95233 -0.880545 0
M  V30 73 H 2.1643 5.26529 -2.60846 0
M  V30 74 H 3.6883 5.81687 -1.85667 0
M  V30 75 H 5.1023 4.42168 -3.64911 0
M  V30 76 H 3.4993 4.10731 -4.37516 0
M  V30 77 H 4.5693 2.74527 -3.99703 0
M  V30 78 N 5.9124 1.20967 1.01018 0
M  V30 79 C 7.3234 1.02319 1.56165 0
M  V30 80 C 7.6744 -0.418546 1.91684 0
M  V30 81 O 6.7994 -1.30096 1.72928 0
M  V30 82 C 7.3944 1.85109 2.8376 0
M  V30 83 C 5.9534 1.70809 3.35412 0
M  V30 84 C 5.1004 1.82643 2.08655 0
M  V30 85 H 8.0514 1.35065 0.833255 0
M  V30 86 H 8.0724 1.35827 3.55431 0
M  V30 87 H 7.5844 2.90035 2.57878 0
M  V30 88 H 5.6854 0.685464 3.66241 0
M  V30 89 H 5.7984 2.52467 4.07182 0
M  V30 90 H 4.1624 1.25896 2.21409 0
M  V30 91 H 4.9454 2.89066 1.85191 0
M  V30 92 N 7.3905 -1.2043 1.01659 0
M  V30 93 C 8.3205 -2.25466 0.607226 0
M  V30 94 C 9.3015 -1.65853 -0.377716 0
M  V30 95 O 10.4865 -1.92409 -0.263149 0
M  V30 96 C 7.6165 -3.47256 -0.0552949 0
M  V30 97 C 6.5705 -4.19462 0.850632 0
M  V30 98 C 5.8965 -5.34673 0.0538859 0
M  V30 99 C 7.1965 -4.75603 2.15868 0
M  V30 100 H 8.8905 -2.59962 1.48526 0
M  V30 101 H 6.4365 -1.2496 0.715605 0
M  V30 102 H 8.3895 -4.19917 -0.353233 0
M  V30 103 H 7.1135 -3.11924 -0.968045 0
M  V30 104 H 5.7725 -3.48667 1.13257 0
M  V30 105 H 5.4205 -4.95585 -0.860514 0
M  V30 106 H 5.1205 -5.83913 0.657192 0
M  V30 107 H 6.6445 -6.10138 -0.237598 0
M  V30 108 H 8.0585 -5.40083 1.92311 0
M  V30 109 H 6.4555 -5.3528 2.71284 0
M  V30 110 H 7.5255 -3.94346 2.82169 0
M  V30 111 N 8.8686 -0.792821 -1.36206 0
M  V30 112 C 9.8006 -0.151469 -2.28699 0
M  V30 113 C 10.8136 0.641262 -1.49638 0
M  V30 114 O 12.0026 0.475885 -1.72039 0
M  V30 115 C 9.1026 0.808424 -3.29117 0
M  V30 116 C 8.2756 0.0650202 -4.37352 0
M  V30 117 C 7.3346 0.941358 -5.17711 0
M  V30 118 O 6.3606 0.397352 -5.67811 0
M  V30 119 N 7.5626 2.2652 -5.3448 0
M  V30 120 H 10.3276 -0.945982 -2.84379 0
M  V30 121 H 7.8886 -0.647032 -1.48409 0
M  V30 122 H 9.8806 1.3986 -3.79765 0
M  V30 123 H 8.4506 1.5038 -2.74052 0
M  V30 124 H 7.6706 -0.706255 -3.87822 0
M  V30 125 H 8.9586 -0.447847 -5.06825 0
M  V30 126 H 8.3566 2.73128 -4.95396 0
M  V30 127 H 6.9136 2.80493 -5.88359 0
M  V30 128 N 10.3467 1.47872 -0.545128 0
M  V30 129 C 11.5867 2.04391 -0.0187854 0
M  V30 130 C 11.9507 1.41162 1.30144 0
M  V30 131 O 13.1517 1.88656 1.91474 0
M  V30 132 C 11.4227 3.57299 0.0850867 0
M  V30 133 S 12.9817 4.35221 0.559302 0
M  V30 134 H 9.7997 0.710737 -0.0193301 0
M  V30 135 H 12.4017 1.81395 -0.729125 0
M  V30 136 H 11.1057 4.00847 -0.880351 0
M  V30 137 H 10.6367 3.84773 0.819348 0
M  V30 138 H 12.6517 4.61571 1.82118 0
M  V30 139 N 11.8248 0.280983 1.55075 0
M  V30 140 C 13.0708 -0.33461 2.00021 0
M  V30 141 C 13.4038 -1.55063 1.16915 0
M  V30 142 O 12.6788 -1.93006 0.240646 0
M  V30 143 C 12.9618 -0.711007 3.53011 0
M  V30 144 C 12.8148 0.512766 4.46868 0
M  V30 145 C 14.1338 -1.54522 4.12081 0
M  V30 146 H 11.2528 -0.120147 0.727141 0
M  V30 147 H 13.8948 0.389097 1.85973 0
M  V30 148 H 12.0448 -1.32761 3.65112 0
M  V30 149 H 13.7168 1.15131 4.46702 0
M  V30 150 H 11.9598 1.14975 4.18286 0
M  V30 151 H 12.6308 0.205556 5.51617 0
M  V30 152 H 15.1068 -1.02442 4.03293 0
M  V30 153 H 13.9828 -1.77739 5.19327 0
M  V30 154 H 14.2438 -2.52813 3.62682 0
M  V30 155 N 13.3029 -1.57598 0.00835791 0
M  V30 156 C 14.2329 -2.1198 -0.979113 0
M  V30 157 C 15.2139 -1.03091 -1.35301 0
M  V30 158 O 16.3989 -1.30818 -1.43528 0
M  V30 159 C 13.5289 -2.62995 -2.26828 0
M  V30 160 C 12.4829 -3.76485 -2.03576 0
M  V30 161 C 11.8089 -4.13846 -3.38579 0
M  V30 162 C 13.1089 -5.0342 -1.39161 0
M  V30 163 H 14.8029 -2.94738 -0.526281 0
M  V30 164 H 12.3489 -1.41783 -0.251704 0
M  V30 165 H 14.3019 -2.99669 -2.96271 0
M  V30 166 H 13.0259 -1.7737 -2.7424 0
M  V30 167 H 11.6849 -3.40217 -1.36557 0
M  V30 168 H 11.3329 -3.25232 -3.83709 0
M  V30 169 H 11.0329 -4.90312 -3.23834 0
M  V30 170 H 12.5569 -4.53086 -4.09323 0
M  V30 171 H 13.9709 -5.37812 -1.98573 0
M  V30 172 H 12.3679 -5.84746 -1.34878 0
M  V30 173 H 13.4379 -4.83548 -0.361868 0
M  V30 174 N 14.781 0.264519 -1.55364 0
M  V30 175 C 16.027 0.992314 -1.77552 0
M  V30 176 C 16.382 1.83626 -0.574379 0
M  V30 177 O 15.675 1.86648 0.432782 0
M  V30 178 C 15.869 1.9004 -3.02687 0
M  V30 179 C 15.698 1.14583 -4.34857 0
M  V30 180 C 14.468 0.858068 -4.97961 0
M  V30 181 C 16.666 0.532069 -5.1154 0
M  V30 182 N 14.648 0.0775974 -6.13851 0
M  V30 183 C 16.019 -0.113823 -6.19896 0
M  V30 184 C 18.074 0.440763 -4.95945 0
M  V30 185 C 16.777 -0.842231 -7.14352 0
M  V30 186 C 18.803 -0.274072 -5.90765 0
M  V30 187 C 18.165 -0.90867 -6.98515 0
M  V30 188 H 14.264 0.344811 -0.701875 0
M  V30 189 H 16.848 0.267141 -1.92859 0
M  V30 190 H 15.019 2.59775 -2.88741 0
M  V30 191 H 16.751 2.56243 -3.13243 0
M  V30 192 H 13.506 1.16547 -4.59036 0
M  V30 193 H 13.93 -0.300216 -6.76334 0
M  V30 194 H 18.572 0.917064 -4.12735 0
M  V30 195 H 16.29 -1.33019 -7.97077 0
M  V30 196 H 19.876 -0.345151 -5.80775 0
M  V30 197 H 18.756 -1.45299 -7.70622 0
M  V30 198 N 16.2591 1.48442 0.529413 0
M  V30 199 C 17.5071 1.56179 1.28267 0
M  V30 200 C 17.8281 0.237721 1.93546 0
M  V30 201 O 17.0981 -0.740779 1.81354 0
M  V30 202 H 15.6781 0.575367 0.476405 0
M  V30 203 H 18.3401 1.84909 0.61602 0
M  V30 204 H 17.4361 2.34312 2.06165 0
M  V30 205 N 17.7372 -0.778329 1.37039 0
M  V30 206 C 18.9772 -1.54973 1.33276 0
M  V30 207 C 19.3412 -1.91816 -0.0839376 0
M  V30 208 O 20.5422 -2.6767 -0.246228 0
M  V30 209 C 18.8132 -2.78517 2.23971 0
M  V30 210 S 20.3722 -3.6865 2.37997 0
M  V30 211 H 17.1902 -0.530639 0.473226 0
M  V30 212 H 19.7922 -0.915806 1.72723 0
M  V30 213 H 18.4962 -2.4952 3.25835 0
M  V30 214 H 18.0272 -3.46875 1.85584 0
M  V30 215 H 20.0422 -4.70182 1.58567 0
M  V30 216 N 19.2153 -1.21501 -1.00376 0
M  V30 217 C 20.1453 -0.999478 -2.11028 0
M  V30 218 C 21.1263 0.0759671 -1.6993 0
M  V30 219 O 22.3113 -0.0841106 -1.94018 0
M  V30 220 C 19.4413 -0.564709 -3.42678 0
M  V30 221 C 18.3953 -1.58486 -3.97576 0
M  V30 222 C 17.7213 -1.00628 -5.25146 0
M  V30 223 C 19.0213 -2.97204 -4.29496 0
M  V30 224 H 20.7153 -1.92495 -2.29317 0
M  V30 225 H 18.2613 -0.92693 -1.102 0
M  V30 226 H 20.2143 -0.401091 -4.19487 0
M  V30 227 H 18.9383 0.396411 -3.24185 0
M  V30 228 H 17.5973 -1.73606 -3.22888 0
M  V30 229 H 17.2453 -0.0368439 -5.02987 0
M  V30 230 H 16.9453 -1.68771 -5.62841 0
M  V30 231 H 18.4693 -0.854015 -6.04598 0
M  V30 232 H 19.8833 -2.8552 -4.97143 0
M  V30 233 H 18.2803 -3.62372 -4.78338 0
M  V30 234 H 19.3503 -3.47956 -3.3772 0
M  V30 235 N 20.6934 1.19889 -1.02296 0
M  V30 236 C 21.6234 2.25141 -0.619174 0
M  V30 237 C 22.6044 1.66051 0.368915 0
M  V30 238 O 23.7894 1.92546 0.252941 0
M  V30 239 C 20.9194 3.4728 0.0368783 0
M  V30 240 C 19.8734 4.19005 -0.872865 0
M  V30 241 C 19.1994 5.34637 -0.0822402 0
M  V30 242 C 20.4994 4.74452 -2.18387 0
M  V30 243 H 22.1934 2.59171 -1.49903 0
M  V30 244 H 19.7394 1.24579 -0.722222 0
M  V30 245 H 21.6924 4.20098 0.330958 0
M  V30 246 H 20.4164 3.12433 0.95149 0
M  V30 247 H 19.0754 3.48061 -1.15105 0
M  V30 248 H 18.7234 4.96034 0.83422 0
M  V30 249 H 18.4234 5.83557 -0.688149 0
M  V30 250 H 19.9474 6.10255 0.205238 0
M  V30 251 H 21.3614 5.39055 -1.95172 0
M  V30 252 H 19.7584 5.33834 -2.74119 0
M  V30 253 H 20.8284 3.92844 -2.84257 0
M  V30 254 N 22.1715 0.800033 1.35784 0
M  V30 255 C 23.3995 0.389606 2.03199 0
M  V30 256 C 23.8145 -0.997375 1.60306 0
M  V30 257 O 23.1715 -1.64154 0.797481 0
M  V30 258 C 23.2225 0.455855 3.58614 0
M  V30 259 O 22.9435 1.78815 3.99946 0
M  V30 260 C 24.4445 0.0374032 4.43284 0
M  V30 261 H 21.6645 0.159132 0.651857 0
M  V30 262 H 24.2085 1.08183 1.73541 0
M  V30 263 H 22.3635 -0.188057 3.86943 0
M  V30 264 H 22.7775 1.74636 4.94573 0
M  V30 265 H 24.2515 0.134882 5.51835 0
M  V30 266 H 24.7285 -1.01651 4.27275 0
M  V30 267 H 25.3345 0.654215 4.20238 0
M  V30 268 N 23.6496 -1.47581 0.552962 0
M  V30 269 C 24.6126 -2.28439 -0.186605 0
M  V30 270 C 25.6126 -1.36706 -0.84665 0
M  V30 271 O 26.8026 -1.59378 -0.703164 0
M  V30 272 C 23.9346 -3.16264 -1.2724 0
M  V30 273 H 25.1276 -2.95294 0.523609 0
M  V30 274 H 22.6806 -1.532 0.309745 0
M  V30 275 H 23.4156 -2.54091 -2.01514 0
M  V30 276 H 23.2006 -3.83769 -0.803968 0
M  V30 277 H 24.6906 -3.77198 -1.79196 0
M  V30 278 N 25.1277 -0.289203 -1.54924 0
M  V30 279 C 26.3737 0.323998 -2.00195 0
M  V30 280 C 26.7067 1.54441 -1.17735 0
M  V30 281 O 25.9817 1.92875 -0.250878 0
M  V30 282 C 26.2647 0.692276 -3.53383 0
M  V30 283 C 26.1177 -0.536457 -4.46589 0
M  V30 284 C 27.4367 1.52335 -4.12895 0
M  V30 285 H 24.5557 0.116289 -0.727768 0
M  V30 286 H 27.1977 -0.398954 -1.85764 0
M  V30 287 H 25.3477 1.30822 -3.65811 0
M  V30 288 H 27.0197 -1.17499 -4.46085 0
M  V30 289 H 25.2627 -1.17192 -4.1767 0
M  V30 290 H 25.9337 -0.234806 -5.515 0
M  V30 291 H 28.4097 1.00302 -4.0383 0
M  V30 292 H 27.2857 1.74982 -5.20262 0
M  V30 293 H 27.5467 2.50886 -3.64018 0
M  V30 294 N 26.6058 1.57591 -0.0167156 0
M  V30 295 C 27.5558 2.05953 0.978137 0
M  V30 296 C 28.5398 0.957532 1.29306 0
M  V30 297 O 29.7318 1.22119 1.28125 0
M  V30 298 C 26.8608 2.58006 2.26468 0
M  V30 299 C 25.9468 3.75113 1.97867 0
M  V30 300 N 26.3378 4.86187 1.39486 0
M  V30 301 C 24.6358 3.83363 2.27924 0
M  V30 302 C 25.3368 5.67502 1.27735 0
M  V30 303 N 24.3128 5.14023 1.76866 0
M  V30 304 H 28.1148 2.89236 0.521522 0
M  V30 305 H 25.6288 1.61301 0.188596 0
M  V30 306 H 27.6258 2.90937 2.98599 0
M  V30 307 H 26.2858 1.76148 2.72767 0
M  V30 308 H 27.2968 5.06695 1.07147 0
M  V30 309 H 23.9738 3.1239 2.76982 0
M  V30 310 H 25.3638 6.66791 0.826978 0
M  V30 311 N 28.0839 -0.256276 1.55502 0
M  V30 312 C 29.4949 -0.826068 1.67431 0
M  V30 313 C 29.8459 -1.86396 0.612446 0
M  V30 314 O 28.9709 -2.15031 -0.243025 0
M  V30 315 C 29.5659 -1.50512 3.03532 0
M  V30 316 C 28.1249 -2.02273 3.17431 0
M  V30 317 C 27.2719 -0.870548 2.63281 0
M  V30 318 H 30.2229 -0.0322728 1.58667 0
M  V30 319 H 30.2439 -2.37279 2.97454 0
M  V30 320 H 29.7559 -0.749484 3.80794 0
M  V30 321 H 27.8569 -2.80746 2.44974 0
M  V30 322 H 27.9699 -2.22655 4.24219 0
M  V30 323 H 26.3339 -1.26851 2.20864 0
M  V30 324 H 27.1169 -0.128149 3.43061 0
M  V30 325 N 29.562 -1.4872 -0.521534 0
M  V30 326 C 30.472 -1.66569 -1.65203 0
M  V30 327 C 31.488 -0.548197 -1.65139 0
M  V30 328 O 32.664 -0.820339 -1.83936 0
M  V30 329 C 29.729 -1.70917 -3.01642 0
M  V30 330 C 28.79 -2.94356 -3.12495 0
M  V30 331 C 28.023 -2.98487 -4.42426 0
M  V30 332 O 28.246 -2.10786 -5.30024 0
M  V30 333 O 27.18 -3.90746 -4.57822 0
M  V30 334 H 31.006 -2.62298 -1.5308 0
M  V30 335 H 28.591 -1.3222 -0.695565 0
M  V30 336 H 30.473 -1.7625 -3.82771 0
M  V30 337 H 29.148 -0.783633 -3.14071 0
M  V30 338 H 28.055 -2.94552 -2.3063 0
M  V30 339 H 29.388 -3.86322 -3.04986 0
M  V30 340 N 31.0401 0.771051 -1.3745 0
M  V30 341 C 32.4511 1.34737 -1.29239 0
M  V30 342 C 32.8021 1.96109 0.0596908 0
M  V30 343 O 31.9271 1.93865 0.961534 0
M  V30 344 C 32.5221 2.44973 -2.34037 0
M  V30 345 C 31.0811 2.98372 -2.29458 0
M  V30 346 C 30.2281 1.71595 -2.17831 0
M  V30 347 H 33.1791 0.571256 -1.48062 0
M  V30 348 H 33.2001 3.24471 -1.98744 0
M  V30 349 H 32.7121 2.00276 -3.32432 0
M  V30 350 H 30.8131 3.47443 -1.34589 0
M  V30 351 H 30.9261 3.53939 -3.229 0
M  V30 352 H 29.2901 1.94547 -1.64388 0
M  V30 353 H 30.0731 1.29001 -3.18141 0
M  V30 354 N 32.5182 1.22032 0.997298 0
M  V30 355 C 33.9292 1.0397 1.55071 0
M  V30 356 C 34.2802 -0.398192 1.92117 0
M  V30 357 O 33.4052 -1.28254 1.74298 0
M  V30 358 C 34.0002 1.88109 2.81781 0
M  V30 359 C 32.5592 1.74357 3.33581 0
M  V30 360 C 31.7062 1.84846 2.06706 0
M  V30 361 H 34.6572 1.35941 0.818883 0
M  V30 362 H 34.6782 1.39589 3.53971 0
M  V30 363 H 34.1902 2.92754 2.54787 0
M  V30 364 H 32.2912 0.72427 3.65493 0
M  V30 365 H 32.4042 2.56772 4.04481 0
M  V30 366 H 30.7682 1.28238 2.20062 0
M  V30 367 H 31.5512 2.91014 1.82114 0
M  V30 368 N 33.9963 -1.19345 1.0293 0
M  V30 369 C 35.2243 -1.92997 0.745644 0
M  V30 370 C 35.6393 -1.75519 -0.695589 0
M  V30 371 O 34.9963 -1.07737 -1.47306 0
M  V30 372 C 35.0473 -3.44741 1.08792 0
M  V30 373 O 34.7683 -3.61658 2.47256 0
M  V30 374 C 36.2693 -4.35515 0.827129 0
M  V30 375 H 33.4893 -0.613042 0.272801 0
M  V30 376 H 36.0333 -1.51473 1.3739 0
M  V30 377 H 34.1883 -3.84097 0.504832 0
M  V30 378 H 34.6023 -4.55514 2.60015 0
M  V30 379 H 36.0763 -5.40589 1.11658 0
M  V30 380 H 36.5533 -4.38552 -0.238436 0
M  V30 381 H 37.1593 -4.01841 1.39297 0
M  V30 382 N 35.4744 -0.807222 -1.35358 0
M  V30 383 C 36.4374 -0.223665 -2.28106 0
M  V30 384 C 37.4374 0.589354 -1.4961 0
M  V30 385 O 38.6274 0.407745 -1.69361 0
M  V30 386 C 35.7594 0.688149 -3.33882 0
M  V30 387 H 36.9524 -1.04169 -2.81227 0
M  V30 388 H 34.5054 -0.577921 -1.45223 0
M  V30 389 H 35.2404 1.52984 -2.85948 0
M  V30 390 H 35.0254 0.10687 -3.91954 0
M  V30 391 H 36.5154 1.09075 -4.03104 0
M  V30 392 N 36.9525 1.47285 -0.560781 0
M  V30 393 C 38.1925 2.0436 -0.0404627 0
M  V30 394 C 38.5565 1.42534 1.28639 0
M  V30 395 O 39.7575 1.90677 1.89462 0
M  V30 396 C 38.0285 3.57369 0.0471856 0
M  V30 397 S 39.5875 4.3579 0.513109 0
M  V30 398 H 36.4055 0.710492 -0.0268674 0
M  V30 399 H 39.0075 1.80611 -0.748323 0
M  V30 400 H 37.7115 3.9989 -0.922817 0
M  V30 401 H 37.2425 3.8562 0.778491 0
M  V30 402 H 39.2575 4.63476 1.77212 0
M  V30 403 N 38.4306 0.297415 1.54768 0
M  V30 404 C 39.8466 -0.0560823 1.59501 0
M  V30 405 C 40.0466 -1.52725 1.31444 0
M  V30 406 O 39.1026 -2.27947 1.08611 0
M  V30 407 C 40.4156 0.338631 2.98787 0
M  V30 408 C 41.9636 0.287097 3.11681 0
M  V30 409 C 42.4386 0.656579 4.53269 0
M  V30 410 N 43.9296 0.608977 4.59179 0
M  V30 411 C 44.6646 0.867385 5.66802 0
M  V30 412 N 44.1606 1.19157 6.82476 0
M  V30 413 N 45.9536 0.794687 5.56454 0
M  V30 414 H 38.1046 1.25624 1.71267 0
M  V30 415 H 40.3676 0.509057 0.799728 0
M  V30 416 H 40.0736 1.36263 3.2423 0
M  V30 417 H 39.9476 -0.309508 3.75928 0
M  V30 418 H 42.3346 -0.727649 2.85988 0
M  V30 419 H 42.4156 0.969809 2.36703 0
M  V30 420 H 42.0596 1.66912 4.7969 0
M  V30 421 H 41.9896 -0.0481649 5.26578 0
M  V30 422 H 44.4806 0.369198 3.76092 0
M  V30 423 H 44.7936 1.37482 7.60473 0
M  V30 424 H 43.1386 1.22958 6.84037 0
M  V30 425 H 46.3296 0.541098 4.64962 0
M  V30 426 H 46.5026 0.999445 6.40246 0
M  V30 427 N 39.9087 -1.5758 0.0250728 0
M  V30 428 C 40.8187 -2.1343 -0.973905 0
M  V30 429 C 41.8347 -1.08556 -1.35984 0
M  V30 430 O 43.0107 -1.40592 -1.44207 0
M  V30 431 C 40.0757 -2.64703 -2.23904 0
M  V30 432 C 39.1367 -3.84276 -1.91391 0
M  V30 433 C 38.3697 -4.33095 -3.11873 0
M  V30 434 O 38.5927 -3.81107 -4.24398 0
M  V30 435 O 37.5267 -5.24984 -2.94406 0
M  V30 436 H 41.3527 -2.99057 -0.529036 0
M  V30 437 H 38.9377 -1.48118 -0.195288 0
M  V30 438 H 40.8197 -2.97769 -2.98181 0
M  V30 439 H 39.4947 -1.82161 -2.6758 0
M  V30 440 H 38.4017 -3.56143 -1.14511 0
M  V30 441 H 39.7347 -4.67968 -1.52534 0
M  V30 442 N 41.3868 0.248026 -1.55636 0
M  V30 443 C 42.3338 1.30707 -1.90222 0
M  V30 444 C 43.3038 1.47881 -0.756332 0
M  V30 445 O 44.4888 1.61883 -1.00988 0
M  V30 446 C 41.6288 2.65769 -2.20138 0
M  V30 447 C 40.7418 2.56612 -3.47526 0
M  V30 448 C 39.8768 3.8402 -3.67017 0
M  V30 449 C 38.9158 3.69476 -4.8801 0
M  V30 450 N 38.0528 4.88774 -5.04029 0
M  V30 451 H 42.8928 1.00512 -2.80538 0
M  V30 452 H 40.4298 0.485055 -1.38873 0
M  V30 453 H 42.3878 3.44386 -2.35487 0
M  V30 454 H 41.0178 2.94115 -1.33027 0
M  V30 455 H 40.0698 1.69571 -3.40514 0
M  V30 456 H 41.3818 2.41774 -4.36287 0
M  V30 457 H 40.5358 4.7108 -3.8232 0
M  V30 458 H 39.2748 4.01754 -2.76487 0
M  V30 459 H 38.2798 2.80799 -4.72686 0
M  V30 460 H 39.5048 3.53238 -5.8 0
M  V30 461 H 37.4508 5.0687 -4.16435 0
M  V30 462 H 37.3678 4.76562 -5.86877 0
M  V30 463 H 38.6358 5.77335 -5.23741 0
M  V30 464 N 42.8649 1.48995 0.513639 0
M  V30 465 C 43.7969 1.60836 1.63293 0
M  V30 466 C 44.8099 0.491701 1.55197 0
M  V30 467 O 45.9989 0.763238 1.6136 0
M  V30 468 C 43.0989 1.53731 3.02027 0
M  V30 469 C 42.2719 2.80715 3.35437 0
M  V30 470 C 41.3309 2.66837 4.53525 0
M  V30 471 O 40.3569 3.40753 4.55934 0
M  V30 472 N 41.5589 1.77539 5.52684 0
M  V30 473 H 44.3239 2.57366 1.53566 0
M  V30 474 H 41.8849 1.45925 0.701259 0
M  V30 475 H 43.8769 1.42118 3.78926 0
M  V30 476 H 42.4469 0.651092 3.05744 0
M  V30 477 H 41.6669 3.06772 2.47557 0
M  V30 478 H 42.9549 3.64927 3.54551 0
M  V30 479 H 42.3529 1.16719 5.53528 0
M  V30 480 H 40.9099 1.71856 6.28736 0
M  V30 481 N 44.343 -0.763751 1.37857 0
M  V30 482 C 45.573 -1.55067 1.3652 0
M  V30 483 C 45.981 -1.89135 -0.0494227 0
M  V30 484 O 45.324 -1.52529 -1.02375 0
M  V30 485 C 45.386 -2.8838 2.14656 0
M  V30 486 C 45.05 -2.76905 3.63555 0
M  V30 487 C 46.047 -2.4739 4.57268 0
M  V30 488 C 43.732 -2.94676 4.06781 0
M  V30 489 C 45.726 -2.35786 5.92186 0
M  V30 490 C 43.413 -2.82692 5.41782 0
M  V30 491 C 44.411 -2.53289 6.34298 0
M  V30 492 O 44.099 -2.41345 7.66817 0
M  V30 493 H 43.831 -0.486776 0.469069 0
M  V30 494 H 46.385 -0.953812 1.81911 0
M  V30 495 H 44.615 -3.50217 1.63967 0
M  V30 496 H 46.304 -3.49828 2.05852 0
M  V30 497 H 47.07 -2.33339 4.2518 0
M  V30 498 H 42.949 -3.16563 3.35126 0
M  V30 499 H 46.493 -2.12757 6.64365 0
M  V30 500 H 42.39 -2.96314 5.7347 0
M  V30 501 H 43.158 -2.56634 7.77226 0
M  V30 502 N 45.8211 -1.22559 -0.990812 0
M  V30 503 C 46.7511 -1.0218 -2.09956 0
M  V30 504 C 47.7321 0.0579394 -1.70001 0
M  V30 505 O 48.9171 -0.104684 -1.93918 0
M  V30 506 C 46.0471 -0.601023 -3.4206 0
M  V30 507 C 45.0011 -1.62694 -3.95872 0
M  V30 508 C 44.3271 -1.06193 -5.24049 0
M  V30 509 C 45.6271 -3.01743 -4.2632 0
M  V30 510 H 47.3211 -1.94916 -2.27262 0
M  V30 511 H 44.8671 -0.938566 -1.09211 0
M  V30 512 H 46.8201 -0.445561 -4.19038 0
M  V30 513 H 45.5441 0.362005 -3.24588 0
M  V30 514 H 44.2031 -1.77021 -3.21028 0
M  V30 515 H 43.8511 -0.0901903 -5.02919 0
M  V30 516 H 43.5511 -1.74732 -5.61019 0
M  V30 517 H 45.0751 -0.918092 -6.03658 0
M  V30 518 H 46.4891 -2.90777 -4.94087 0
M  V30 519 H 44.8861 -3.67425 -4.74467 0
M  V30 520 H 45.9561 -3.51518 -3.34011 0
M  V30 521 N 47.2992 1.18797 -1.03562 0
M  V30 522 C 48.5482 1.87978 -0.731235 0
M  V30 523 C 48.8612 1.80911 0.743671 0
M  V30 524 O 50.0672 2.45407 1.16137 0
M  V30 525 C 48.5232 3.3721 -1.25768 0
M  V30 526 C 48.1312 3.52818 -2.76085 0
M  V30 527 C 49.8752 4.11825 -1.0296 0
M  V30 528 C 47.7822 4.9598 -3.22114 0
M  V30 529 H 46.7122 0.704063 -0.269835 0
M  V30 530 H 49.3632 1.34266 -1.25079 0
M  V30 531 H 47.7452 3.90359 -0.666011 0
M  V30 532 H 48.9192 3.09965 -3.40966 0
M  V30 533 H 47.2342 2.91602 -2.97249 0
M  V30 534 H 49.8312 5.17411 -1.34869 0
M  V30 535 H 50.1742 4.16287 0.0333546 0
M  V30 536 H 50.7072 3.64833 -1.58562 0
M  V30 537 H 47.4462 4.96684 -4.27768 0
M  V30 538 H 46.9662 5.39569 -2.61965 0
M  V30 539 H 48.6452 5.6467 -3.15844 0
M  V30 540 N 48.7773 0.814389 1.34928 0
M  V30 541 C 49.7253 0.218424 2.31572 0
M  V30 542 C 50.7193 -0.636128 1.57002 0
M  V30 543 O 51.9253 -0.52842 1.72069 0
M  V30 544 H 48.3003 0.0518799 0.750208 0
M  V30 545 H 50.2713 1.04852 2.79372 0
M  V30 546 C 49.0203 -0.61207 3.4227 0
M  V30 547 H 48.3433 0.0361578 3.99784 0
M  V30 548 H 49.7833 -0.995317 4.12152 0
M  V30 549 C 48.2423 -1.78087 2.85984 0
M  V30 550 O 48.7723 -2.8787 2.80168 0
M  V30 551 N 46.9783 -1.59488 2.42924 0
M  V30 552 H 46.5253 -0.701874 2.47854 0
M  V30 553 H 46.4833 -2.37846 2.05613 0
M  V30 554 N 50.2554 -1.46986 0.568584 0
M  V30 555 C 51.4804 -2.07335 0.0520528 0
M  V30 556 C 51.9054 -1.41675 -1.23733 0
M  V30 557 O 51.2634 -0.495623 -1.74394 0
M  V30 558 C 51.3114 -3.60417 -0.11501 0
M  V30 559 O 50.4154 -3.95309 -1.17492 0
M  V30 560 H 49.7564 -0.661597 0.0564385 0
M  V30 561 H 52.2864 -1.88837 0.787507 0
M  V30 562 H 52.2964 -4.06698 -0.325644 0
M  V30 563 H 50.9714 -4.07601 0.826675 0
M  V30 564 H 49.5484 -3.60757 -0.943869 0
M  V30 565 N 51.7335 -0.305618 -1.54608 0
M  V30 566 C 52.6655 0.602161 -2.21149 0
M  V30 567 C 53.6785 1.09394 -1.20569 0
M  V30 568 O 54.8675 1.0106 -1.47136 0
M  V30 569 C 51.9675 1.83692 -2.84799 0
M  V30 570 C 51.1405 1.48686 -4.11353 0
M  V30 571 C 50.1995 2.57725 -4.58764 0
M  V30 572 O 49.2255 2.22623 -5.23858 0
M  V30 573 N 50.4275 3.88346 -4.31471 0
M  V30 574 H 53.1925 0.0324966 -2.99682 0
M  V30 575 H 50.7535 -0.128021 -1.61393 0
M  V30 576 H 52.7455 2.55994 -3.13448 0
M  V30 577 H 51.3155 2.31486 -2.10078 0
M  V30 578 H 50.5355 0.596269 -3.89664 0
M  V30 579 H 51.8235 1.22842 -4.93748 0
M  V30 580 H 51.2215 4.19671 -3.79331 0
M  V30 581 H 49.7785 4.56932 -4.64818 0
M  V30 582 N 53.2116 1.57565 -0.0334293 0
M  V30 583 C 54.4516 1.93844 0.648379 0
M  V30 584 C 54.8156 0.910387 1.69044 0
M  V30 585 O 56.0166 1.15952 2.42505 0
M  V30 586 C 54.2876 3.35017 1.24492 0
M  V30 587 S 55.8466 3.93229 1.94721 0
M  V30 588 H 52.6646 0.678231 0.213364 0
M  V30 589 H 55.2666 1.95254 -0.0981253 0
M  V30 590 H 53.9706 4.07652 0.474128 0
M  V30 591 H 53.5016 3.37061 2.02864 0
M  V30 592 H 55.5166 3.77014 3.22606 0
M  V30 593 N 54.6897 -0.239769 1.55765 0
M  V30 594 C 55.9297 -0.974076 1.79697 0
M  V30 595 C 56.2937 -1.82249 0.604088 0
M  V30 596 O 57.4947 -2.58913 0.722324 0
M  V30 597 C 55.7657 -1.80595 3.08416 0
M  V30 598 S 57.3247 -2.59838 3.53596 0
M  V30 599 H 54.1427 -0.327524 0.63107 0
M  V30 600 H 56.7447 -0.241277 1.94005 0
M  V30 601 H 55.4487 -1.17249 3.93295 0
M  V30 602 H 54.9797 -2.58137 2.96865 0
M  V30 603 H 56.9947 -3.82987 3.15492 0
M  V30 604 N 56.1678 -1.49265 -0.50573 0
M  V30 605 C 57.3928 -1.62478 -1.28902 0
M  V30 606 C 57.8178 -0.294332 -1.85783 0
M  V30 607 O 57.1758 0.737412 -1.65626 0
M  V30 608 C 57.2238 -2.69268 -2.39848 0
M  V30 609 O 56.3278 -2.28113 -3.43567 0
M  V30 610 H 55.6688 -0.54399 -0.380751 0
M  V30 611 H 58.1988 -1.95421 -0.605952 0
M  V30 612 H 58.2088 -2.91291 -2.85681 0
M  V30 613 H 56.8838 -3.65846 -1.97812 0
M  V30 614 H 55.4608 -2.16401 -3.03685 0
M  V30 615 N 57.6459 0.756429 -1.3826 0
M  V30 616 C 58.5759 1.88374 -1.37976 0
M  V30 617 C 59.5569 1.68311 -0.246082 0
M  V30 618 O 60.7419 1.88944 -0.44874 0
M  V30 619 C 57.8719 3.25864 -1.20125 0
M  V30 620 C 56.8259 3.60523 -2.30666 0
M  V30 621 C 56.1519 4.9672 -1.97923 0
M  V30 622 C 57.4519 3.65692 -3.72916 0
M  V30 623 H 59.1459 1.88869 -2.32312 0
M  V30 624 H 56.6919 0.907272 -1.11824 0
M  V30 625 H 58.6449 4.0438 -1.18552 0
M  V30 626 H 57.3689 3.25841 -0.222498 0
M  V30 627 H 56.0279 2.84324 -2.3142 0
M  V30 628 H 55.6759 4.93253 -0.985393 0
M  V30 629 H 55.3759 5.20878 -2.71955 0
M  V30 630 H 56.8999 5.77618 -1.97964 0
M  V30 631 H 58.3139 4.34328 -3.74208 0
M  V30 632 H 56.7109 4.01358 -4.4613 0
M  V30 633 H 57.7809 2.65987 -4.05436 0
M  V30 634 N 59.124 1.23083 0.984299 0
M  V30 635 C 60.364 1.07226 1.74017 0
M  V30 636 C 60.728 -0.384766 1.88105 0
M  V30 637 O 61.929 -0.664411 2.60459 0
M  V30 638 C 60.2 1.77348 3.10294 0
M  V30 639 S 61.759 1.77014 4.01512 0
M  V30 640 H 58.577 0.383819 0.598502 0
M  V30 641 H 61.179 1.56158 1.17622 0
M  V30 642 H 59.883 2.82506 2.97689 0
M  V30 643 H 59.414 1.28682 3.71759 0
M  V30 644 H 61.429 0.825956 4.89277 0
M  V30 645 N 60.6021 -1.18246 1.0419 0
M  V30 646 C 61.5341 -2.2142 0.592088 0
M  V30 647 C 62.5471 -1.59233 -0.338909 0
M  V30 648 O 63.7361 -1.78002 -0.133231 0
M  V30 649 C 60.8361 -3.38546 -0.154854 0
M  V30 650 C 60.0091 -4.3031 0.784328 0
M  V30 651 C 59.0681 -5.26138 0.0804583 0
M  V30 652 O 58.0941 -5.64738 0.711292 0
M  V30 653 N 59.2961 -5.68261 -1.18574 0
M  V30 654 H 62.0611 -2.60636 1.47949 0
M  V30 655 H 59.6221 -1.33044 0.922544 0
M  V30 656 H 61.6141 -3.99678 -0.635606 0
M  V30 657 H 60.1841 -2.98012 -0.943811 0
M  V30 658 H 59.4041 -3.66764 1.44491 0
M  V30 659 H 60.6921 -4.8852 1.42218 0
M  V30 660 H 60.0901 -5.38957 -1.71876 0
M  V30 661 H 58.6471 -6.31584 -1.61074 0
M  V30 662 N 62.0802 -0.821533 -1.34494 0
M  V30 663 C 63.4912 -0.467956 -1.8074 0
M  V30 664 C 63.8422 1.01151 -1.68116 0
M  V30 665 O 62.9672 1.78707 -1.22036 0
M  V30 666 C 63.5622 -0.842627 -3.28154 0
M  V30 667 C 62.1212 -0.541439 -3.72485 0
M  V30 668 C 61.2682 -1.06028 -2.56229 0
M  V30 669 H 64.2192 -1.01183 -1.22261 0
M  V30 670 H 64.2402 -0.145876 -3.8022 0
M  V30 671 H 63.7522 -1.91945 -3.37311 0
M  V30 672 H 61.8532 0.526034 -3.68868 0
M  V30 673 H 61.9662 -1.08453 -4.66663 0
M  V30 674 H 60.3302 -0.481892 -2.501 0
M  V30 675 H 61.1132 -2.14352 -2.68157 0
M  V30 676 N 63.5583 1.46682 -0.576371 0
M  V30 677 C 64.8063 2.02013 -0.0594163 0
M  V30 678 C 65.1273 1.45101 1.30271 0
M  V30 679 O 64.3973 0.633317 1.8538 0
M  V30 680 H 62.9773 0.746759 -0.0189745 0
M  V30 681 H 65.6393 1.79862 -0.750717 0
M  V30 682 H 64.7353 3.12097 0.014345 0
M  V30 683 N 65.0364 0.313813 1.54444 0
M  V30 684 C 65.9684 -0.590425 2.21465 0
M  V30 685 C 66.9814 -1.08753 1.21147 0
M  V30 686 O 68.1704 -1.00278 1.4767 0
M  V30 687 C 65.2704 -1.82179 2.85769 0
M  V30 688 C 64.4434 -1.46502 4.12136 0
M  V30 689 C 63.5024 -2.55288 4.60124 0
M  V30 690 O 62.5284 -2.19842 5.25032 0
M  V30 691 N 63.7304 -3.86053 4.33525 0
M  V30 692 H 66.4954 -0.0166033 2.99695 0
M  V30 693 H 64.0564 0.136578 1.61323 0
M  V30 694 H 66.0484 -2.54328 3.14801 0
M  V30 695 H 64.6184 -2.30369 2.11303 0
M  V30 696 H 63.8384 -0.575595 3.89975 0
M  V30 697 H 65.1264 -1.20221 4.94393 0
M  V30 698 H 64.5244 -4.17654 3.81552 0
M  V30 699 H 63.0814 -4.54461 4.67235 0
M  V30 700 N 66.5145 -1.57545 0.0417849 0
M  V30 701 C 67.4615 -2.10977 -0.935805 0
M  V30 702 C 68.4315 -1.01486 -1.31491 0
M  V30 703 O 69.6165 -1.2898 -1.40602 0
M  V30 704 C 66.7565 -2.65169 -2.2086 0
M  V30 705 C 65.8695 -3.88714 -1.88482 0
M  V30 706 C 65.0045 -4.31254 -3.1015 0
M  V30 707 C 64.0435 -5.47524 -2.7365 0
M  V30 708 N 63.1805 -5.85162 -3.87982 0
M  V30 709 H 68.0205 -2.94218 -0.473249 0
M  V30 710 H 65.5575 -1.45415 -0.221981 0
M  V30 711 H 67.5155 -2.94685 -2.95325 0
M  V30 712 H 66.1455 -1.8474 -2.64709 0
M  V30 713 H 65.1975 -3.65849 -1.04205 0
M  V30 714 H 66.5095 -4.73245 -1.57608 0
M  V30 715 H 65.6635 -4.62273 -3.92923 0
M  V30 716 H 64.4025 -3.45516 -3.44195 0
M  V30 717 H 63.4075 -5.16187 -1.89291 0
M  V30 718 H 64.6325 -6.34971 -2.40807 0
M  V30 719 H 62.5785 -5.02377 -4.21846 0
M  V30 720 H 62.4955 -6.64362 -3.60775 0
M  V30 721 H 63.7635 -6.20791 -4.71422 0
M  V30 722 N 67.9926 0.231505 -1.5589 0
M  V30 723 C 68.9226 1.29022 -1.94617 0
M  V30 724 C 69.9036 1.4941 -0.813067 0
M  V30 725 O 71.0886 1.6176 -1.07459 0
M  V30 726 C 68.2186 2.64199 -2.25424 0
M  V30 727 C 67.1726 2.58484 -3.41131 0
M  V30 728 C 66.4986 3.97599 -3.57518 0
M  V30 729 C 67.7986 2.1413 -4.76388 0
M  V30 730 H 69.4926 0.968563 -2.83301 0
M  V30 731 H 67.0386 0.464479 -1.36303 0
M  V30 732 H 68.9916 3.38413 -2.51107 0
M  V30 733 H 67.7156 2.98032 -1.33583 0
M  V30 734 H 66.3746 1.86727 -3.15481 0
M  V30 735 H 66.0226 4.28723 -2.6307 0
M  V30 736 H 65.7226 3.94659 -4.35337 0
M  V30 737 H 67.2466 4.7349 -3.85538 0
M  V30 738 H 68.6606 2.78083 -5.01341 0
M  V30 739 H 67.0576 2.2227 -5.57419 0
M  V30 740 H 68.1276 1.09331 -4.72414 0
M  V30 741 N 69.4707 1.49531 0.497807 0
M  V30 742 C 70.7167 1.59415 1.25358 0
M  V30 743 C 71.0497 0.281422 1.9215 0
M  V30 744 O 70.3247 -0.715249 1.80871 0
M  V30 745 C 70.6077 2.75566 2.3181 0
M  V30 746 C 70.4607 4.16642 1.69498 0
M  V30 747 C 71.7797 2.87347 3.33346 0
M  V30 748 H 68.8987 0.580244 0.454408 0
M  V30 749 H 71.5407 1.81827 0.551262 0
M  V30 750 H 69.6907 2.56587 2.91711 0
M  V30 751 H 71.3627 4.47145 1.13399 0
M  V30 752 H 69.6057 4.22141 0.998978 0
M  V30 753 H 70.2767 4.93792 2.46725 0
M  V30 754 H 72.7527 3.04634 2.83438 0
M  V30 755 H 71.6287 3.70289 4.05188 0
M  V30 756 H 71.8897 1.96834 3.95865 0
M  V30 757 N 70.9488 -0.749086 1.3866 0
M  V30 758 C 72.1738 -1.54344 1.38538 0
M  V30 759 C 72.5988 -1.88088 -0.0216655 0
M  V30 760 O 71.9568 -1.50899 -1.00494 0
M  V30 761 C 72.0048 -2.8164 2.25192 0
M  V30 762 O 71.1088 -3.7698 1.67212 0
M  V30 763 H 70.4498 -0.466654 0.472367 0
M  V30 764 H 72.9798 -0.925355 1.82478 0
M  V30 765 H 72.9898 -3.30519 2.3921 0
M  V30 766 H 71.6648 -2.56411 3.27454 0
M  V30 767 H 70.2418 -3.35699 1.6236 0
M  V30 768 N 72.4269 -1.23603 -0.977757 0
M  V30 769 C 73.7039 -0.977897 -1.69401 0
M  V30 770 C 74.0839 0.502738 -2.05026 0
M  V30 771 O 73.4319 1.47459 -1.74551 0
M  V30 772 C 73.6419 -1.89077 -2.93345 0
M  V30 773 C 74.9899 -2.15579 -3.65802 0
M  V30 774 O 76.0139 -1.86648 -3.03383 0
M  V30 775 O 74.8729 -2.64658 -4.78141 0
M  V30 776 H 71.9669 -0.369025 -0.740101 0
M  V30 777 H 74.5129 -1.34657 -1.03274 0
M  V30 778 H 73.2849 -2.89158 -2.63634 0
M  V30 779 H 72.9079 -1.52463 -3.67207 0
M  V30 780 N 73.905 1.17692 -1.04816 0
M  V30 781 C 75.145 1.89545 -0.764979 0
M  V30 782 C 75.509 1.78979 0.695028 0
M  V30 783 O 76.71 2.45613 1.09215 0
M  V30 784 C 74.981 3.35659 -1.22751 0
M  V30 785 S 76.54 4.25526 -1.07112 0
M  V30 786 H 73.358 0.654432 -0.27792 0
M  V30 787 H 75.96 1.42163 -1.34201 0
M  V30 788 H 74.664 3.40882 -2.28533 0
M  V30 789 H 74.195 3.88083 -0.644594 0
M  V30 790 H 76.21 4.962 0.00697508 0
M  V30 791 N 75.3831 0.828654 1.34056 0
M  V30 792 C 76.6111 0.43262 2.02326 0
M  V30 793 C 77.0261 -0.963147 1.62385 0
M  V30 794 O 76.3831 -1.62425 0.832121 0
M  V30 795 C 76.4341 0.53182 3.57567 0
M  V30 796 O 76.1551 1.87258 3.96063 0
M  V30 797 C 77.6561 0.131422 4.43105 0
M  V30 798 H 74.8761 0.172923 0.648335 0
M  V30 799 H 77.4201 1.1184 1.71208 0
M  V30 800 H 75.5751 -0.105938 3.87255 0
M  V30 801 H 75.9891 1.85087 4.90758 0
M  V30 802 H 77.4631 0.251904 5.51425 0
M  V30 803 H 77.9401 -0.925645 4.29335 0
M  V30 804 H 78.5461 0.743207 4.18756 0
M  V30 805 N 76.8612 -1.46375 0.584142 0
M  V30 806 C 77.7712 -2.34115 -0.150728 0
M  V30 807 C 78.7872 -1.49838 -0.884567 0
M  V30 808 O 79.9632 -1.82704 -0.847429 0
M  V30 809 C 77.0282 -3.2705 -1.15062 0
M  V30 810 C 76.0892 -4.27228 -0.421293 0
M  V30 811 C 75.3222 -5.15722 -1.37355 0
M  V30 812 O 75.5452 -5.07176 -2.61014 0
M  V30 813 O 74.4792 -5.95383 -0.883355 0
M  V30 814 H 78.3052 -2.98309 0.569708 0
M  V30 815 H 75.8902 -1.45373 0.344535 0
M  V30 816 H 77.7722 -3.84381 -1.72712 0
M  V30 817 H 76.4472 -2.65451 -1.8525 0
M  V30 818 H 75.3542 -3.7358 0.197085 0
M  V30 819 H 76.6872 -4.91616 0.239641 0
M  V30 820 N 78.3393 -0.321999 -1.54275 0
M  V30 821 C 79.5863 0.281044 -2.0054 0
M  V30 822 C 79.9143 1.52265 -1.21019 0
M  V30 823 O 79.1693 1.93687 -0.279982 0
M  V30 824 C 79.4683 0.661769 -3.5122 0
M  V30 825 C 79.1343 -0.480482 -4.48333 0
M  V30 826 C 77.7963 -0.794005 -4.74604 0
M  V30 827 C 80.1483 -1.24783 -5.06042 0
M  V30 828 C 77.4763 -1.87763 -5.55844 0
M  V30 829 C 79.8283 -2.32153 -5.88462 0
M  V30 830 C 78.4923 -2.64089 -6.13036 0
M  V30 831 H 77.7623 0.102841 -0.733829 0
M  V30 832 H 80.4093 -0.445453 -1.86247 0
M  V30 833 H 78.7143 1.46867 -3.63232 0
M  V30 834 H 80.4113 1.13989 -3.84457 0
M  V30 835 H 77.0013 -0.226039 -4.28004 0
M  V30 836 H 81.1853 -1.01887 -4.85729 0
M  V30 837 H 76.4413 -2.12954 -5.73115 0
M  V30 838 H 80.6153 -2.92057 -6.32199 0
M  V30 839 H 78.2423 -3.48185 -6.75775 0
M  V30 840 N 79.8174 1.5752 -0.0501392 0
M  V30 841 C 81.0454 1.96963 0.633492 0
M  V30 842 C 81.4604 0.927631 1.6444 0
M  V30 843 O 80.8174 -0.0882665 1.82286 0
M  V30 844 C 80.8684 3.36487 1.32132 0
M  V30 845 O 80.5894 4.36693 0.350894 0
M  V30 846 C 82.0904 3.90682 2.09481 0
M  V30 847 H 79.3104 0.648244 0.173266 0
M  V30 848 H 81.8544 2.0417 -0.116134 0
M  V30 849 H 80.0094 3.30434 2.02218 0
M  V30 850 H 80.4234 5.17702 0.841735 0
M  V30 851 H 81.8974 4.90591 2.5303 0
M  V30 852 H 82.3744 3.26053 2.94255 0
M  V30 853 H 82.9804 4.00069 1.44307 0
M  V30 854 N 81.2955 -0.223234 1.56011 0
M  V30 855 C 82.2055 -1.29766 1.95443 0
M  V30 856 C 83.2215 -1.51373 0.858028 0
M  V30 857 O 84.3975 -1.64536 1.16146 0
M  V30 858 C 81.4625 -2.62772 2.26167 0
M  V30 859 C 80.5235 -2.49482 3.49367 0
M  V30 860 C 79.7565 -3.76145 3.78616 0
M  V30 861 O 79.9795 -4.79087 3.09568 0
M  V30 862 O 78.9135 -3.73358 4.72109 0
M  V30 863 H 82.7395 -0.99309 2.87004 0
M  V30 864 H 80.3245 -0.425958 1.43199 0
M  V30 865 H 82.2065 -3.41327 2.47131 0
M  V30 866 H 80.8815 -2.92913 1.37781 0
M  V30 867 H 79.7885 -1.69133 3.33684 0
M  V30 868 H 81.1215 -2.2428 4.38131 0
M  V30 869 N 82.7736 -1.49793 -0.48987 0
M  V30 870 C 84.0016 -1.63568 -1.26701 0
M  V30 871 C 84.4166 -0.311465 -1.86213 0
M  V30 872 O 83.7736 0.704416 -1.68357 0
M  V30 873 C 83.8246 -2.71284 -2.38929 0
M  V30 874 O 83.5456 -3.9857 -1.81861 0
M  V30 875 C 85.0466 -2.95864 -3.3012 0
M  V30 876 H 82.2666 -0.550342 -0.383881 0
M  V30 877 H 84.8106 -1.95898 -0.586864 0
M  V30 878 H 82.9656 -2.417 -3.02753 0
M  V30 879 H 83.3796 -4.57993 -2.55622 0
M  V30 880 H 84.8536 -3.74941 -4.05121 0
M  V30 881 H 85.3306 -2.06206 -3.87783 0
M  V30 882 H 85.9366 -3.26907 -2.72051 0
M  V30 883 N 84.2517 0.741722 -1.39055 0
M  V30 884 C 85.1617 1.88621 -1.39496 0
M  V30 885 C 86.1777 1.71557 -0.290578 0
M  V30 886 O 87.3537 1.94275 -0.530954 0
M  V30 887 C 84.4187 3.24134 -1.23037 0
M  V30 888 C 83.4797 3.5364 -2.43387 0
M  V30 889 C 82.7127 4.82687 -2.27703 0
M  V30 890 O 82.9357 5.55922 -1.27696 0
M  V30 891 O 81.8697 5.1194 -3.16545 0
M  V30 892 H 85.6957 1.91203 -2.35956 0
M  V30 893 H 83.2807 0.888625 -1.20099 0
M  V30 894 H 85.1627 4.0513 -1.15964 0
M  V30 895 H 83.8377 3.22337 -0.296691 0
M  V30 896 H 82.7447 2.72758 -2.56035 0
M  V30 897 H 84.0777 3.60209 -3.35425 0
M  V30 898 N 85.7298 1.2412 0.971189 0
M  V30 899 C 86.9698 1.09066 1.7287 0
M  V30 900 C 87.3338 -0.364794 1.88503 0
M  V30 901 O 88.5348 -0.636748 2.61149 0
M  V30 902 C 86.8058 1.80629 3.08396 0
M  V30 903 S 88.3648 1.81263 3.99611 0
M  V30 904 H 85.1828 0.390145 0.594397 0
M  V30 905 H 87.7848 1.57397 1.15959 0
M  V30 906 H 86.4888 2.85647 2.94676 0
M  V30 907 H 86.0198 1.32617 3.70373 0
M  V30 908 H 88.0348 0.877804 4.88374 0
M  V30 909 N 87.2079 -1.17134 1.05439 0
M  V30 910 C 88.1379 -2.2342 0.678649 0
M  V30 911 C 89.1189 -1.66971 -0.32476 0
M  V30 912 O 90.3039 -1.93149 -0.201802 0
M  V30 913 C 87.4339 -3.47256 0.0552099 0
M  V30 914 C 86.3879 -4.16543 0.98365 0
M  V30 915 C 85.7139 -5.34231 0.223961 0
M  V30 916 C 87.0139 -4.68495 2.3089 0
M  V30 917 H 88.7079 -2.55105 1.56722 0
M  V30 918 H 86.2539 -1.2262 0.754998 0
M  V30 919 H 88.2069 -4.20828 -0.21946 0
M  V30 920 H 86.9309 -3.14846 -0.868319 0
M  V30 921 H 85.5899 -3.44887 1.24293 0
M  V30 922 H 85.2379 -4.98071 -0.702412 0
M  V30 923 H 84.9379 -5.81527 0.842627 0
M  V30 924 H 86.4619 -6.10585 -0.0433671 0
M  V30 925 H 87.8759 -5.33691 2.09396 0
M  V30 926 H 86.2729 -5.26379 2.88176 0
M  V30 927 H 87.3429 -3.85169 2.94572 0
M  V30 928 N 88.686 -0.835752 -1.33615 0
M  V30 929 C 90.097 -0.487099 -1.80234 0
M  V30 930 C 90.448 0.993627 -1.69179 0
M  V30 931 O 89.573 1.77403 -1.23924 0
M  V30 932 C 90.168 -0.877385 -3.27242 0
M  V30 933 C 88.727 -0.580915 -3.7189 0
M  V30 934 C 87.874 -1.0874 -2.5509 0
M  V30 935 H 90.825 -1.02474 -1.2118 0
M  V30 936 H 90.846 -0.186195 -3.80044 0
M  V30 937 H 90.358 -1.95512 -3.35256 0
M  V30 938 H 88.459 0.486881 -3.69405 0
M  V30 939 H 88.572 -1.13396 -4.65487 0
M  V30 940 H 86.936 -0.508392 -2.49575 0
M  V30 941 H 87.719 -2.17184 -2.65868 0
M  V30 942 N 90.1641 1.46063 -0.591896 0
M  V30 943 C 91.4041 2.04228 -0.0838014 0
M  V30 944 C 91.7681 1.45231 1.25587 0
M  V30 945 O 92.9691 1.94653 1.85375 0
M  V30 946 C 91.2401 3.57389 -0.0286282 0
M  V30 947 S 92.7991 4.3678 0.420557 0
M  V30 948 H 89.6171 0.709762 -0.0419319 0
M  V30 949 H 92.2191 1.78983 -0.786465 0
M  V30 950 H 90.9231 3.97843 -1.00743 0
M  V30 951 H 90.4541 3.87185 0.69652 0
M  V30 952 H 92.4691 4.67131 1.67341 0
M  V30 953 N 91.6422 0.330177 1.54103 0
M  V30 954 C 92.8902 -0.269871 2.0029 0
M  V30 955 C 93.2112 -1.52133 1.21986 0
M  V30 956 O 92.4812 -1.93212 0.323438 0
M  V30 957 H 91.0612 -0.10271 0.739905 0
M  V30 958 H 93.7232 0.448249 1.89675 0
M  V30 959 H 92.8192 -0.52166 3.07709 0
M  V30 960 N 93.1203 -1.57491 0.0584922 0
M  V30 961 C 94.0303 -2.15448 -0.928414 0
M  V30 962 C 95.0463 -1.11416 -1.3365 0
M  V30 963 O 96.2223 -1.4362 -1.41193 0
M  V30 964 C 93.2873 -2.69393 -2.18239 0
M  V30 965 C 92.3483 -3.88249 -1.83196 0
M  V30 966 C 91.5813 -4.39613 -3.02616 0
M  V30 967 O 91.8043 -3.90023 -4.16219 0
M  V30 968 O 90.7383 -5.31111 -2.83204 0
M  V30 969 H 94.5643 -3.00112 -0.465483 0
M  V30 970 H 92.1493 -1.48499 -0.163826 0
M  V30 971 H 94.0313 -3.04026 -2.91798 0
M  V30 972 H 92.7063 -1.87796 -2.63656 0
M  V30 973 H 91.6133 -3.58492 -1.06931 0
M  V30 974 H 92.9463 -4.71098 -1.42573 0
M  V30 975 N 94.5984 0.214957 -1.56127 0
M  V30 976 C 95.8234 0.95924 -1.83884 0
M  V30 977 C 96.2484 1.7689 -0.639644 0
M  V30 978 O 95.6064 1.76566 0.411601 0
M  V30 979 C 95.6544 1.84723 -3.09693 0
M  V30 980 O 94.7584 2.94346 -2.8885 0
M  V30 981 H 94.0994 0.27125 -0.606069 0
M  V30 982 H 96.6294 0.226276 -2.03345 0
M  V30 983 H 96.6394 2.25576 -3.39969 0
M  V30 984 H 95.3144 1.25218 -3.96602 0
M  V30 985 H 93.8914 2.57391 -2.69823 0
M  V30 986 N 96.0765 1.50051 0.48192 0
M  V30 987 C 96.9865 1.7089 1.60728 0
M  V30 988 C 98.0025 0.591788 1.63627 0
M  V30 989 O 99.1785 0.868817 1.81696 0
M  V30 990 C 96.2435 1.78855 2.97005 0
M  V30 991 C 95.3045 3.02537 3.04581 0
M  V30 992 C 94.5375 3.10112 4.34357 0
M  V30 993 O 94.7605 2.24765 5.24249 0
M  V30 994 O 93.6945 4.02747 4.47301 0
M  V30 995 H 97.5205 2.66264 1.46072 0
M  V30 996 H 95.1055 1.34018 0.660264 0
M  V30 997 H 96.9875 1.86336 3.77964 0
M  V30 998 H 95.6625 0.866628 3.11883 0
M  V30 999 H 94.5695 3.00563 2.22739 0
M  V30 1000 H 95.9025 3.94272 2.94636 0
M  V30 1001 N 97.5546 -0.734337 1.39446 0
M  V30 1002 C 98.8016 -1.49391 1.36706 0
M  V30 1003 C 99.1296 -1.94465 -0.0367813 0
M  V30 1004 O 98.3846 -1.67154 -1.01774 0
M  V30 1005 C 98.6836 -2.74711 2.28623 0
M  V30 1006 C 98.3496 -2.48501 3.76242 0
M  V30 1007 C 97.0116 -2.41062 4.16464 0
M  V30 1008 C 99.3636 -2.26098 4.69606 0
M  V30 1009 C 96.6916 -2.09262 5.48112 0
M  V30 1010 C 99.0436 -1.95814 6.01531 0
M  V30 1011 C 97.7076 -1.86845 6.40816 0
M  V30 1012 H 96.9776 -0.546661 0.500243 0
M  V30 1013 H 99.6246 -0.842788 1.71957 0
M  V30 1014 H 97.9296 -3.44569 1.86492 0
M  V30 1015 H 99.6266 -3.32741 2.23796 0
M  V30 1016 H 96.2166 -2.55169 3.44364 0
M  V30 1017 H 100.401 -2.30812 4.39363 0
M  V30 1018 H 95.6566 -2.00841 5.77471 0
M  V30 1019 H 99.8306 -1.77488 6.73403 0
M  V30 1020 H 97.4576 -1.6197 7.42745 0
M  V30 1021 N 99.0327 -1.24633 -0.964593 0
M  V30 1022 C 99.9627 -1.06611 -2.07741 0
M  V30 1023 C 100.944 0.0218666 -1.70086 0
M  V30 1024 O 102.129 -0.145793 -1.93652 0
M  V30 1025 C 99.2587 -0.673444 -3.40708 0
M  V30 1026 C 98.2127 -1.71054 -3.92332 0
M  V30 1027 C 97.5387 -1.17285 -5.21678 0
M  V30 1028 C 98.8387 -3.10718 -4.19824 0
M  V30 1029 H 100.533 -1.99693 -2.23076 0
M  V30 1030 H 98.0787 -0.96152 -1.07195 0
M  V30 1031 H 100.032 -0.534345 -4.17998 0
M  V30 1032 H 98.7557 0.293073 -3.25282 0
M  V30 1033 H 97.4147 -1.83791 -3.17201 0
M  V30 1034 H 97.0627 -0.196847 -5.02615 0
M  V30 1035 H 96.7627 -1.86592 -5.57187 0
M  V30 1036 H 98.2867 -1.04593 -6.01575 0
M  V30 1037 H 99.7007 -3.01192 -4.87808 0
M  V30 1038 H 98.0977 -3.77406 -4.66567 0
M  V30 1039 H 99.1677 -3.58524 -3.26479 0
M  V30 1040 N 100.511 1.16574 -1.06058 0
M  V30 1041 C 101.788 1.83048 -0.689416 0
M  V30 1042 C 102.168 1.94122 0.829443 0
M  V30 1043 O 101.516 1.48249 1.7388 0
M  V30 1044 C 101.726 3.20186 -1.38859 0
M  V30 1045 C 103.074 3.95989 -1.53226 0
M  V30 1046 O 104.098 3.29696 -1.3483 0
M  V30 1047 O 102.957 5.14813 -1.83384 0
M  V30 1048 H 100.051 0.790258 -0.243764 0
M  V30 1049 H 102.597 1.23797 -1.16071 0
M  V30 1050 H 101.369 3.07146 -2.4244 0
M  V30 1051 H 100.992 3.87112 -0.907216 0
M  V30 1052 N 101.989 0.842826 1.3317 0
M  V30 1053 C 103.217 0.454055 2.01856 0
M  V30 1054 C 103.632 -0.94587 1.63397 0
M  V30 1055 O 102.989 -1.61534 0.849302 0
M  V30 1056 C 103.04 0.569715 3.56982 0
M  V30 1057 O 102.761 1.91448 3.94055 0
M  V30 1058 C 104.262 0.178412 4.42941 0
M  V30 1059 H 101.482 0.17979 0.646465 0
M  V30 1060 H 104.026 1.1365 1.70012 0
M  V30 1061 H 102.181 -0.0648587 3.87346 0
M  V30 1062 H 102.595 1.90282 4.88767 0
M  V30 1063 H 104.069 0.310376 5.51127 0
M  V30 1064 H 104.546 -0.880056 4.30293 0
M  V30 1065 H 105.152 0.787579 4.17944 0
M  V30 1066 N 103.467 -1.45747 0.599634 0
M  V30 1067 C 104.713 -2.03153 0.100263 0
M  V30 1068 C 105.068 -1.46073 -1.25221 0
M  V30 1069 O 104.361 -0.622878 -1.81193 0
M  V30 1070 C 104.555 -3.57399 -0.00602758 0
M  V30 1071 C 104.384 -4.2944 1.3346 0
M  V30 1072 C 103.154 -4.6768 1.91321 0
M  V30 1073 C 105.352 -4.61905 2.2616 0
M  V30 1074 N 103.334 -5.24544 3.18946 0
M  V30 1075 C 104.705 -5.19518 3.3838 0
M  V30 1076 C 106.76 -4.43841 2.25631 0
M  V30 1077 C 105.463 -5.60972 4.50226 0
M  V30 1078 C 107.489 -4.86322 3.36518 0
M  V30 1079 C 106.851 -5.44021 4.4746 0
M  V30 1080 H 102.95 -0.777911 0.0798696 0
M  V30 1081 H 105.534 -1.77674 0.796244 0
M  V30 1082 H 103.705 -3.82556 -0.671212 0
M  V30 1083 H 105.437 -4.01457 -0.51133 0
M  V30 1084 H 102.192 -4.5098 1.44617 0
M  V30 1085 H 102.616 -5.57483 3.84112 0
M  V30 1086 H 107.258 -3.98552 1.41123 0
M  V30 1087 H 104.976 -6.0523 5.35464 0
M  V30 1088 H 108.562 -4.74084 3.37247 0
M  V30 1089 H 107.442 -5.76289 5.31846 0
M  V30 1090 N 104.945 -0.338344 -1.53925 0
M  V30 1091 C 105.893 0.536231 -2.26335 0
M  V30 1092 C 106.887 1.1063 -1.28286 0
M  V30 1093 O 108.093 1.05264 -1.46012 0
M  V30 1094 H 104.468 0.191602 -0.727181 0
M  V30 1095 H 106.439 -0.0965747 -2.98244 0
M  V30 1096 C 105.188 1.67803 -3.04528 0
M  V30 1097 H 104.511 1.24864 -3.79801 0
M  V30 1098 H 105.951 2.26526 -3.58416 0
M  V30 1099 C 104.41 2.60439 -2.13712 0
M  V30 1100 O 104.94 3.6255 -1.72975 0
M  V30 1101 N 103.146 2.29006 -1.78898 0
M  V30 1102 H 102.693 1.46011 -2.12223 0
M  V30 1103 H 102.651 2.91248 -1.18416 0
M  V30 1104 N 106.423 1.57458 -0.0668435 0
M  V30 1105 C 107.839 1.56947 0.289772 0
M  V30 1106 C 108.039 1.07584 1.70376 0
M  V30 1107 O 107.095 0.739486 2.41429 0
M  V30 1108 C 108.408 3.0052 0.103943 0
M  V30 1109 C 109.956 3.12517 0.173857 0
M  V30 1110 C 110.431 4.57997 0.0163682 0
M  V30 1111 N 111.922 4.63144 0.0721352 0
M  V30 1112 C 112.657 5.73394 -0.0253794 0
M  V30 1113 N 112.153 6.92576 -0.176133 0
M  V30 1114 N 113.946 5.62091 0.0313305 0
M  V30 1115 H 106.097 1.87863 -0.991027 0
M  V30 1116 H 108.36 0.86583 -0.38606 0
M  V30 1117 H 108.066 3.40729 -0.871572 0
M  V30 1118 H 107.94 3.67304 0.858366 0
M  V30 1119 H 110.327 2.72197 1.13985 0
M  V30 1120 H 110.408 2.48381 -0.611586 0
M  V30 1121 H 110.052 4.99005 -0.946374 0
M  V30 1122 H 109.982 5.20158 0.821153 0
M  V30 1123 H 112.473 3.77436 0.187263 0
M  V30 1124 H 112.786 7.72418 -0.242821 0
M  V30 1125 H 111.131 6.94678 -0.211429 0
M  V30 1126 H 114.322 4.67867 0.147773 0
M  V30 1127 H 114.495 6.47982 -0.048121 0
M  V30 1128 N 107.901 -0.206675 1.56239 0
M  V30 1129 C 108.811 -1.27686 1.96808 0
M  V30 1130 C 109.827 -1.50455 0.874035 0
M  V30 1131 O 111.003 -1.63295 1.17884 0
M  V30 1132 C 108.068 -2.60358 2.28942 0
M  V30 1133 C 107.129 -2.45762 3.51994 0
M  V30 1134 C 106.362 -3.72108 3.82585 0
M  V30 1135 O 106.585 -4.75776 3.14631 0
M  V30 1136 O 105.519 -3.6833 4.76043 0
M  V30 1137 H 109.345 -0.962593 2.88041 0
M  V30 1138 H 106.93 -0.410746 1.43643 0
M  V30 1139 H 108.812 -3.38687 2.50737 0
M  V30 1140 H 107.487 -2.91435 1.4088 0
M  V30 1141 H 106.394 -1.65584 3.35459 0
M  V30 1142 H 107.727 -2.19621 4.40486 0
M  V30 1143 N 109.379 -1.50304 -0.473955 0
M  V30 1144 C 110.607 -1.64902 -1.24959 0
M  V30 1145 C 111.022 -0.331198 -1.85872 0
M  V30 1146 O 110.379 0.68652 -1.69095 0
M  V30 1147 C 110.43 -2.73803 -2.36038 0
M  V30 1148 O 110.151 -4.00477 -1.77624 0
M  V30 1149 C 111.652 -2.99349 -3.26964 0
M  V30 1150 H 108.872 -0.554383 -0.378022 0
M  V30 1151 H 111.416 -1.9651 -0.566054 0
M  V30 1152 H 109.571 -2.44898 -3.00173 0
M  V30 1153 H 109.985 -4.60678 -2.5075 0
M  V30 1154 H 111.459 -3.79217 -4.01121 0
M  V30 1155 H 111.936 -2.10307 -3.85574 0
M  V30 1156 H 112.542 -3.29774 -2.68569 0
M  V30 1157 N 110.857 0.726932 -1.39834 0
M  V30 1158 C 111.807 1.83232 -1.35683 0
M  V30 1159 C 112.791 1.59155 -0.236295 0
M  V30 1160 O 113.983 1.70522 -0.474488 0
M  V30 1161 C 111.112 3.21246 -1.21062 0
M  V30 1162 C 110.198 3.51125 -2.37849 0
M  V30 1163 N 110.589 3.51889 -3.63329 0
M  V30 1164 C 108.887 3.81527 -2.30982 0
M  V30 1165 C 109.588 3.79791 -4.40606 0
M  V30 1166 N 108.564 3.97971 -3.70297 0
M  V30 1167 H 112.366 1.8214 -2.30656 0
M  V30 1168 H 109.88 0.925545 -1.33444 0
M  V30 1169 H 111.877 4.00387 -1.16171 0
M  V30 1170 H 110.537 3.23572 -0.270458 0
M  V30 1171 H 111.548 3.33008 -3.96643 0
M  V30 1172 H 108.225 3.91411 -1.45272 0
M  V30 1173 H 109.615 3.86783 -5.49408 0
M  V30 1174 N 112.336 1.25143 0.95797 0
M  V30 1175 C 113.576 1.10893 1.71703 0
M  V30 1176 C 113.94 -0.34478 1.88879 0
M  V30 1177 O 115.141 -0.609014 2.6181 0
M  V30 1178 C 113.412 1.83889 3.06463 0
M  V30 1179 S 114.971 1.85491 3.97666 0
M  V30 1180 H 111.789 0.396428 0.590226 0
M  V30 1181 H 114.391 1.58618 1.14283 0
M  V30 1182 H 113.095 2.88756 2.9163 0
M  V30 1183 H 112.626 1.36538 3.68946 0
M  V30 1184 H 114.641 0.929553 4.87415 0
M  V30 1185 N 113.814 -1.1601 1.06675 0
M  V30 1186 C 114.764 -2.18512 0.650888 0
M  V30 1187 C 115.748 -1.57677 -0.320441 0
M  V30 1188 O 116.94 -1.76482 -0.135266 0
M  V30 1189 C 114.069 -3.43273 0.0429255 0
M  V30 1190 C 113.155 -4.11176 1.03898 0
M  V30 1191 N 113.546 -4.54672 2.216 0
M  V30 1192 C 111.844 -4.37417 0.870779 0
M  V30 1193 C 112.545 -5.07248 2.84736 0
M  V30 1194 N 111.521 -5.0037 2.12441 0
M  V30 1195 H 115.323 -2.49863 1.54745 0
M  V30 1196 H 112.837 -1.32503 0.938975 0
M  V30 1197 H 114.834 -4.16006 -0.272857 0
M  V30 1198 H 113.494 -3.13408 -0.84884 0
M  V30 1199 H 114.505 -4.4828 2.59356 0
M  V30 1200 H 111.182 -4.17488 0.0313293 0
M  V30 1201 H 112.572 -5.50912 3.84636 0
M  V30 1202 N 115.292 -0.849877 -1.32721 0
M  V30 1203 C 116.224 -0.248332 -2.27851 0
M  V30 1204 C 117.237 0.577218 -1.52224 0
M  V30 1205 O 118.426 0.402489 -1.73903 0
M  V30 1206 C 115.526 0.668107 -3.32249 0
M  V30 1207 C 114.699 -0.120534 -4.37234 0
M  V30 1208 C 113.758 0.720932 -5.21238 0
M  V30 1209 O 112.784 0.156166 -5.68986 0
M  V30 1210 N 113.986 2.03647 -5.43607 0
M  V30 1211 H 116.751 -1.06575 -2.80111 0
M  V30 1212 H 114.312 -0.709395 -1.45531 0
M  V30 1213 H 116.304 1.23627 -3.85355 0
M  V30 1214 H 114.874 1.38621 -2.80184 0
M  V30 1215 H 114.094 -0.870108 -3.84477 0
M  V30 1216 H 115.382 -0.662406 -5.0447 0
M  V30 1217 H 114.78 2.51871 -5.06535 0
M  V30 1218 H 113.337 2.55287 -5.99727 0
M  V30 1219 N 116.77 1.45427 -0.607355 0
M  V30 1220 C 117.72 2.27612 0.133038 0
M  V30 1221 C 118.704 1.37307 0.838785 0
M  V30 1222 O 119.896 1.61299 0.728813 0
M  V30 1223 C 117.025 3.24173 1.12991 0
M  V30 1224 C 116.111 4.21965 0.425011 0
M  V30 1225 N 116.502 5.02982 -0.533217 0
M  V30 1226 C 114.8 4.40899 0.672593 0
M  V30 1227 C 115.501 5.73931 -0.947518 0
M  V30 1228 N 114.477 5.42819 -0.291321 0
M  V30 1229 H 118.279 2.87649 -0.602935 0
M  V30 1230 H 115.793 1.56576 -0.431006 0
M  V30 1231 H 117.79 3.81783 1.67473 0
M  V30 1232 H 116.45 2.65696 1.86644 0
M  V30 1233 H 117.461 5.09843 -0.90995 0
M  V30 1234 H 114.138 3.93547 1.39382 0
M  V30 1235 H 115.528 6.49037 -1.73782 0
M  V30 1236 N 118.248 0.346503 1.53744 0
M  V30 1237 C 119.195 -0.508914 2.25119 0
M  V30 1238 C 120.165 -1.09315 1.25058 0
M  V30 1239 O 121.35 -1.12921 1.53797 0
M  V30 1240 C 118.49 -1.65246 3.02965 0
M  V30 1241 C 117.603 -1.09525 4.17886 0
M  V30 1242 C 116.738 -2.20634 4.83212 0
M  V30 1243 C 115.777 -1.62279 5.90196 0
M  V30 1244 N 114.914 -2.67143 6.49291 0
M  V30 1245 H 119.754 0.106283 2.9781 0
M  V30 1246 H 117.291 0.0642227 1.4696 0
M  V30 1247 H 119.249 -2.32574 3.4636 0
M  V30 1248 H 117.879 -2.2386 2.32565 0
M  V30 1249 H 116.931 -0.312818 3.79112 0
M  V30 1250 H 118.243 -0.628444 4.94825 0
M  V30 1251 H 117.397 -2.95821 5.29693 0
M  V30 1252 H 116.136 -2.70659 4.05703 0
M  V30 1253 H 115.141 -0.855989 5.43096 0
M  V30 1254 H 116.366 -1.13102 6.69615 0
M  V30 1255 H 114.312 -3.16417 5.74645 0
M  V30 1256 H 114.229 -2.25093 7.21713 0
M  V30 1257 H 115.497 -3.4209 7.00425 0
M  V30 1258 N 119.726 -1.57421 0.075193 0
M  V30 1259 C 120.956 -1.97659 -0.601203 0
M  V30 1260 C 121.364 -0.952427 -1.63479 0
M  V30 1261 O 120.707 0.0688241 -1.83571 0
M  V30 1262 C 120.769 -3.34218 -1.32434 0
M  V30 1263 C 120.433 -4.5484 -0.443826 0
M  V30 1264 C 121.43 -5.19034 0.299969 0
M  V30 1265 C 119.115 -5.00952 -0.367709 0
M  V30 1266 C 121.109 -6.27695 1.10807 0
M  V30 1267 C 118.796 -6.09484 0.444058 0
M  V30 1268 C 119.794 -6.72719 1.18061 0
M  V30 1269 O 119.482 -7.79161 1.97898 0
M  V30 1270 H 119.214 -0.65494 -0.167422 0
M  V30 1271 H 121.768 -2.04886 0.145157 0
M  V30 1272 H 119.998 -3.23615 -2.11685 0
M  V30 1273 H 121.687 -3.59038 -1.89331 0
M  V30 1274 H 122.453 -4.84351 0.250776 0
M  V30 1275 H 118.332 -4.51509 -0.930638 0
M  V30 1276 H 121.876 -6.76982 1.68347 0
M  V30 1277 H 117.773 -6.43601 0.494803 0
M  V30 1278 H 118.541 -7.96055 1.90367 0
M  V30 1279 N 121.204 0.198386 -1.56346 0
M  V30 1280 C 122.444 0.92609 -1.82217 0
M  V30 1281 C 122.808 1.80584 -0.652195 0
M  V30 1282 O 124.009 2.56907 -0.790716 0
M  V30 1283 C 122.28 1.72354 -3.13096 0
M  V30 1284 S 123.839 2.50371 -3.6036 0
M  V30 1285 H 120.657 0.310677 -0.639532 0
M  V30 1286 H 123.259 0.189755 -1.94577 0
M  V30 1287 H 121.963 1.0678 -3.96265 0
M  V30 1288 H 121.494 2.50175 -3.03605 0
M  V30 1289 H 123.509 3.74488 -3.25535 0
M  V30 1290 N 122.682 1.50554 0.465978 0
M  V30 1291 C 123.959 1.5232 1.22712 0
M  V30 1292 C 124.339 0.270807 2.09356 0
M  V30 1293 O 123.687 -0.745541 2.15995 0
M  V30 1294 C 123.897 2.82175 2.05374 0
M  V30 1295 C 125.245 3.33033 2.6339 0
M  V30 1296 O 126.269 2.83531 2.15612 0
M  V30 1297 O 125.128 4.19336 3.50456 0
M  V30 1298 H 122.222 0.611183 0.557122 0
M  V30 1299 H 124.768 1.62847 0.477381 0
M  V30 1300 H 123.54 3.64797 1.41558 0
M  V30 1301 H 123.163 2.74675 2.87471 0
M  V30 1302 N 124.16 -0.719506 1.40217 0
M  V30 1303 C 125.571 -1.29848 1.34151 0
M  V30 1304 C 125.922 -1.96196 0.0131349 0
M  V30 1305 O 125.047 -1.973 -0.88892 0
M  V30 1306 C 125.642 -2.36118 2.42968 0
M  V30 1307 C 124.201 -2.8965 2.40374 0
M  V30 1308 C 123.348 -1.63393 2.24049 0
M  V30 1309 H 126.299 -0.51591 1.5008 0
M  V30 1310 H 126.32 -3.16871 2.10649 0
M  V30 1311 H 125.832 -1.878 3.39636 0
M  V30 1312 H 123.933 -3.42208 1.47392 0
M  V30 1313 H 124.046 -3.4171 3.35814 0
M  V30 1314 H 122.41 -1.88312 1.71495 0
M  V30 1315 H 123.193 -1.17104 3.2271 0
M  V30 1316 N 125.638 -1.25649 -0.95132 0
M  V30 1317 C 126.586 -1.06118 -2.06982 0
M  V30 1318 C 127.58 0.00889169 -1.69398 0
M  V30 1319 O 128.786 -0.146988 -1.79399 0
M  V30 1320 H 125.161 -0.326248 -0.677544 0
M  V30 1321 H 127.132 -2.00932 -2.2061 0
M  V30 1322 C 125.881 -0.700145 -3.40578 0
M  V30 1323 H 125.204 -1.51537 -3.69968 0
M  V30 1324 H 126.644 -0.603211 -4.19687 0
M  V30 1325 C 125.103 0.59403 -3.31622 0
M  V30 1326 O 125.633 1.63522 -3.66911 0
M  V30 1327 N 123.839 0.58089 -2.84735 0
M  V30 1328 H 123.386 -0.266783 -2.56215 0
M  V30 1329 H 123.344 1.44695 -2.79125 0
M  V30 1330 N 127.117 1.15442 -1.07289 0
M  V30 1331 C 128.047 2.22312 -0.714107 0
M  V30 1332 C 129.028 1.67467 0.298155 0
M  V30 1333 O 130.213 1.93445 0.171048 0
M  V30 1334 C 127.343 3.47124 -0.110448 0
M  V30 1335 C 126.297 4.14926 -1.04979 0
M  V30 1336 C 125.623 5.33807 -0.308924 0
M  V30 1337 C 126.923 4.64762 -2.38314 0
M  V30 1338 H 128.617 2.5258 -1.6076 0
M  V30 1339 H 126.163 1.21404 -0.77441 0
M  V30 1340 H 128.116 4.21124 0.152482 0
M  V30 1341 H 126.84 3.16187 0.81812 0
M  V30 1342 H 125.499 3.42866 -1.29764 0
M  V30 1343 H 125.147 4.99126 0.623084 0
M  V30 1344 H 124.847 5.80113 -0.935036 0
M  V30 1345 H 126.371 6.10576 -0.0537771 0
M  V30 1346 H 127.785 5.30292 -2.1786 0
M  V30 1347 H 126.182 5.21728 -2.96514 0
M  V30 1348 H 127.252 3.80434 -3.00663 0
M  V30 1349 N 128.595 0.856903 1.32268 0
M  V30 1350 C 129.843 0.460474 1.96784 0
M  V30 1351 C 130.164 -0.987701 1.68135 0
M  V30 1352 O 129.434 -1.69058 0.989765 0
M  V30 1353 H 128.014 0.167289 0.728027 0
M  V30 1354 H 130.676 1.09383 1.61312 0
M  V30 1355 H 129.772 0.60739 3.06133 0
M  V30 1356 N 130.073 -1.45103 0.615059 0
M  V30 1357 C 131.003 -2.33339 -0.0865619 0
M  V30 1358 C 131.984 -1.4727 -0.851209 0
M  V30 1359 O 133.169 -1.76026 -0.820281 0
M  V30 1360 C 130.299 -3.30095 -1.07956 0
M  V30 1361 C 129.253 -4.25858 -0.427628 0
M  V30 1362 C 128.579 -5.12361 -1.5294 0
M  V30 1363 C 129.879 -5.18165 0.655944 0
M  V30 1364 H 131.573 -2.92254 0.650224 0
M  V30 1365 H 129.119 -1.40532 0.314138 0
M  V30 1366 H 131.072 -3.90698 -1.57901 0
M  V30 1367 H 129.796 -2.69355 -1.84703 0
M  V30 1368 H 128.455 -3.66564 0.0510292 0
M  V30 1369 H 128.103 -4.47984 -2.28734 0
M  V30 1370 H 127.803 -5.77238 -1.09865 0
M  V30 1371 H 129.327 -5.75833 -2.03098 0
M  V30 1372 H 130.741 -5.72796 0.240257 0
M  V30 1373 H 129.138 -5.91559 1.00888 0
M  V30 1374 H 130.208 -4.60144 1.52957 0
M  V30 1375 N 131.551 -0.354651 -1.53558 0
M  V30 1376 C 132.967 -0.00315426 -1.596 0
M  V30 1377 C 133.167 1.47741 -1.37021 0
M  V30 1378 O 132.223 2.23759 -1.16996 0
M  V30 1379 C 133.536 -0.44929 -2.97325 0
M  V30 1380 C 135.084 -0.402578 -3.104 0
M  V30 1381 C 135.559 -0.824355 -4.5052 0
M  V30 1382 N 137.05 -0.778979 -4.56603 0
M  V30 1383 C 137.785 -1.07715 -5.63192 0
M  V30 1384 N 137.281 -1.44405 -6.77583 0
M  V30 1385 N 139.074 -1.00066 -5.53121 0
M  V30 1386 H 131.225 -1.31893 -1.66487 0
M  V30 1387 H 133.488 -0.538388 -0.780284 0
M  V30 1388 H 133.194 -1.48202 -3.1895 0
M  V30 1389 H 133.068 0.169772 -3.76818 0
M  V30 1390 H 135.455 0.621004 -2.88492 0
M  V30 1391 H 135.536 -1.05699 -2.32941 0
M  V30 1392 H 135.18 -1.846 -4.73165 0
M  V30 1393 H 135.11 -0.147304 -5.26394 0
M  V30 1394 H 137.601 -0.508528 -3.74463 0
M  V30 1395 H 137.914 -1.65612 -7.54846 0
M  V30 1396 H 136.259 -1.4826 -6.79002 0
M  V30 1397 H 139.45 -0.713293 -4.62633 0
M  V30 1398 H 139.623 -1.23638 -6.36096 0
M  V30 1399 N 133.029 1.57378 -0.0835403 0
M  V30 1400 C 134.275 1.94217 0.583733 0
M  V30 1401 C 134.608 0.964653 1.68547 0
M  V30 1402 O 133.883 -0.00422258 1.945 0
M  V30 1403 C 134.166 3.41253 1.14972 0
M  V30 1404 C 134.019 4.49768 0.0538277 0
M  V30 1405 C 135.338 3.89352 2.05166 0
M  V30 1406 H 132.457 0.706233 0.210724 0
M  V30 1407 H 135.099 1.89392 -0.1519 0
M  V30 1408 H 133.249 3.45496 1.77665 0
M  V30 1409 H 134.921 4.57641 -0.579851 0
M  V30 1410 H 133.164 4.29432 -0.614068 0
M  V30 1411 H 133.835 5.49817 0.490452 0
M  V30 1412 H 136.311 3.87189 1.52393 0
M  V30 1413 H 135.187 4.92822 2.41698 0
M  V30 1414 H 135.448 3.27973 2.96456 0
M  V30 1415 N 134.507 -0.190092 1.56449 0
M  V30 1416 C 135.439 -1.25973 1.91477 0
M  V30 1417 C 136.452 -1.41452 0.805931 0
M  V30 1418 O 137.641 -1.41789 1.08435 0
M  V30 1419 C 134.741 -2.63117 2.13594 0
M  V30 1420 C 133.914 -2.69182 3.4476 0
M  V30 1421 C 132.973 -3.87557 3.5593 0
M  V30 1422 O 131.999 -3.74427 4.28711 0
M  V30 1423 N 133.201 -5.03224 2.89388 0
M  V30 1424 H 135.966 -0.962394 2.83828 0
M  V30 1425 H 133.527 -0.379981 1.57378 0
M  V30 1426 H 135.519 -3.40742 2.1835 0
M  V30 1427 H 134.089 -2.85319 1.27719 0
M  V30 1428 H 133.309 -1.77793 3.51828 0
M  V30 1429 H 134.597 -2.70229 4.31107 0
M  V30 1430 H 133.995 -5.16791 2.30094 0
M  V30 1431 H 132.552 -5.78778 2.99764 0
M  V30 1432 N 135.985 -1.50799 -0.457987 0
M  V30 1433 C 136.917 -1.66786 -1.57211 0
M  V30 1434 C 137.93 -0.548962 -1.53265 0
M  V30 1435 O 139.119 -0.8226 -1.58416 0
M  V30 1436 C 136.219 -1.64834 -2.96113 0
M  V30 1437 C 135.392 -2.92971 -3.24787 0
M  V30 1438 C 134.451 -2.83485 -4.43309 0
M  V30 1439 O 133.477 -3.5744 -4.42973 0
M  V30 1440 N 134.679 -1.97929 -5.45714 0
M  V30 1441 H 137.444 -2.62889 -1.43909 0
M  V30 1442 H 135.005 -1.48427 -0.646617 0
M  V30 1443 H 136.997 -1.56084 -3.7339 0
M  V30 1444 H 135.567 -0.764118 -3.03117 0
M  V30 1445 H 134.787 -3.15749 -2.36 0
M  V30 1446 H 136.075 -3.77834 -3.40762 0
M  V30 1447 H 135.473 -1.37182 -5.48815 0
M  V30 1448 H 134.03 -1.95073 -6.21924 0
M  V30 1449 N 137.463 0.71206 -1.40597 0
M  V30 1450 C 138.41 1.82613 -1.41142 0
M  V30 1451 C 139.38 1.63925 -0.267903 0
M  V30 1452 O 140.565 1.85009 -0.466495 0
M  V30 1453 C 137.705 3.20354 -1.28324 0
M  V30 1454 C 136.818 3.50589 -2.52411 0
M  V30 1455 C 135.953 4.77855 -2.32009 0
M  V30 1456 C 134.992 5.01005 -3.51654 0
M  V30 1457 N 134.129 6.19487 -3.30425 0
M  V30 1458 H 138.969 1.81482 -2.36365 0
M  V30 1459 H 136.506 0.886475 -1.17388 0
M  V30 1460 H 138.464 3.99899 -1.18899 0
M  V30 1461 H 137.094 3.20705 -0.367189 0
M  V30 1462 H 136.146 2.65573 -2.72351 0
M  V30 1463 H 137.458 3.63604 -3.41458 0
M  V30 1464 H 136.612 5.65424 -2.19956 0
M  V30 1465 H 135.351 4.67056 -1.40392 0
M  V30 1466 H 134.356 4.1189 -3.64179 0
M  V30 1467 H 135.581 5.13674 -4.44202 0
M  V30 1468 H 133.527 6.09932 -2.41494 0
M  V30 1469 H 133.444 6.33194 -4.13039 0
M  V30 1470 H 134.712 7.09834 -3.22113 0
M  V30 1471 N 138.941 1.26152 0.944643 0
M  V30 1472 C 140.189 1.11271 1.6871 0
M  V30 1473 C 140.51 -0.345166 1.91921 0
M  V30 1474 O 139.78 -1.24387 1.51343 0
M  V30 1475 H 138.36 0.408783 0.625224 0
M  V30 1476 H 141.022 1.58427 1.1352 0
M  V30 1477 H 140.118 1.62879 2.66227 0
M  V30 1478 N 140.419 -1.14872 1.07899 0
M  V30 1479 C 141.647 -1.89661 0.82683 0
M  V30 1480 C 142.062 -1.78312 -0.620519 0
M  V30 1481 O 141.419 -1.13888 -1.42604 0
M  V30 1482 C 141.47 -3.39817 1.23316 0
M  V30 1483 O 141.191 -3.50845 2.62372 0
M  V30 1484 C 142.692 -4.31615 1.0111 0
M  V30 1485 H 139.912 -0.60092 0.298557 0
M  V30 1486 H 142.456 -1.4551 1.43691 0
M  V30 1487 H 140.611 -3.8161 0.667286 0
M  V30 1488 H 141.025 -4.44076 2.79101 0
M  V30 1489 H 142.499 -5.35367 1.34486 0
M  V30 1490 H 142.976 -4.39169 -0.0522168 0
M  V30 1491 H 143.582 -3.95572 1.56215 0
M  V30 1492 N 141.898 -0.863906 -1.31812 0
M  V30 1493 C 143.123 -0.48527 -2.01643 0
M  V30 1494 C 143.548 0.913058 -1.64453 0
M  V30 1495 O 142.906 1.6014 -0.849985 0
M  V30 1496 C 142.954 -0.642625 -3.54828 0
M  V30 1497 O 142.058 0.320659 -4.11151 0
M  V30 1498 H 141.399 -0.193793 -0.635091 0
M  V30 1499 H 143.929 -1.16565 -1.68148 0
M  V30 1500 H 143.939 -0.533628 -4.04495 0
M  V30 1501 H 142.614 -1.66227 -3.81237 0
M  V30 1502 H 141.191 0.167126 -3.72525 0
M  V30 1503 N 143.376 1.44774 -0.622745 0
M  V30 1504 C 144.286 2.34433 0.0886031 0
M  V30 1505 C 145.302 1.52131 0.844529 0
M  V30 1506 O 146.478 1.84886 0.798691 0
M  V30 1507 C 143.543 3.29986 1.0635 0
M  V30 1508 C 142.604 4.28195 0.307873 0
M  V30 1509 C 141.837 5.19183 1.23633 0
M  V30 1510 O 142.06 5.13918 2.47476 0
M  V30 1511 O 140.994 5.97515 0.725189 0
M  V30 1512 H 144.82 2.96693 -0.648599 0
M  V30 1513 H 142.405 1.44408 -0.382957 0
M  V30 1514 H 144.287 3.88825 1.6246 0
M  V30 1515 H 142.962 2.70269 1.78146 0
M  V30 1516 H 141.869 3.72927 -0.296064 0
M  V30 1517 H 143.202 4.90808 -0.3699 0
M  V30 1518 N 144.854 0.36279 1.53368 0
M  V30 1519 C 146.082 -0.228613 2.05633 0
M  V30 1520 C 146.497 -1.42676 1.23649 0
M  V30 1521 O 145.854 -1.80394 0.27647 0
M  V30 1522 C 145.905 -0.624845 3.56059 0
M  V30 1523 O 145.626 0.525675 4.34935 0
M  V30 1524 C 147.127 -1.27493 4.24571 0
M  V30 1525 H 144.347 -0.0407183 0.669763 0
M  V30 1526 H 146.891 0.520352 1.97769 0
M  V30 1527 H 145.046 -1.32373 3.64083 0
M  V30 1528 H 145.46 0.205969 5.24095 0
M  V30 1529 H 146.934 -1.50277 5.31151 0
M  V30 1530 H 147.411 -2.23439 3.78116 0
M  V30 1531 H 148.017 -0.617558 4.20792 0
M  V30 1532 N 146.332 -1.57332 0.0918853 0
M  V30 1533 C 147.609 -1.85691 -0.614668 0
M  V30 1534 C 147.989 -0.988146 -1.86545 0
M  V30 1535 O 147.337 -0.0597055 -2.28422 0
M  V30 1536 C 147.547 -3.36294 -0.933126 0
M  V30 1537 C 148.895 -4.04275 -1.29796 0
M  V30 1538 O 149.919 -3.41157 -1.02424 0
M  V30 1539 O 148.778 -5.1564 -1.81047 0
M  V30 1540 H 145.872 -0.767802 -0.307261 0
M  V30 1541 H 148.418 -1.69244 0.12434 0
M  V30 1542 H 147.19 -3.91273 -0.0456404 0
M  V30 1543 H 146.813 -3.58076 -1.72822 0
M  V30 1544 N 147.81 0.181792 -1.56548 0
M  V30 1545 C 149.038 0.915947 -1.85521 0
M  V30 1546 C 149.453 1.76282 -0.676016 0
M  V30 1547 O 148.81 1.79012 0.355077 0
M  V30 1548 C 148.861 1.80126 -3.13427 0
M  V30 1549 O 148.582 0.988562 -4.26801 0
M  V30 1550 C 150.083 2.64597 -3.55673 0
M  V30 1551 H 147.303 0.26661 -0.61576 0
M  V30 1552 H 149.847 0.185039 -2.03661 0
M  V30 1553 H 148.002 2.48563 -2.97145 0
M  V30 1554 H 148.416 1.59308 -4.99721 0
M  V30 1555 H 149.89 3.2235 -4.48101 0
M  V30 1556 H 150.367 3.38958 -2.79292 0
M  V30 1557 H 150.973 2.0151 -3.74532 0
M  V30 1558 N 149.288 1.51039 0.449983 0
M  V30 1559 C 150.537 1.62317 1.19733 0
M  V30 1560 C 150.85 0.339101 1.92638 0
M  V30 1561 O 152.056 0.331069 2.69474 0
M  V30 1562 C 150.512 2.86608 2.17678 0
M  V30 1563 C 150.12 4.21972 1.50479 0
M  V30 1564 C 151.864 3.07239 2.92924 0
M  V30 1565 C 149.771 5.37426 2.46834 0
M  V30 1566 H 148.701 0.604532 0.450619 0
M  V30 1567 H 151.352 1.77494 0.465625 0
M  V30 1568 H 149.734 2.65037 2.94231 0
M  V30 1569 H 150.908 4.53878 0.795716 0
M  V30 1570 H 149.223 4.07117 0.874344 0
M  V30 1571 H 151.82 3.90668 3.65079 0
M  V30 1572 H 152.163 2.19807 3.5354 0
M  V30 1573 H 152.696 3.29091 2.23481 0
M  V30 1574 H 149.435 6.27079 1.90926 0
M  V30 1575 H 148.955 5.09912 3.15832 0
M  V30 1576 H 150.634 5.68862 3.08228 0
M  V30 1577 N 150.766 -0.704594 1.40972 0
M  V30 1578 C 152.006 -1.47691 1.41304 0
M  V30 1579 C 152.37 -1.91992 0.0178582 0
M  V30 1580 O 153.571 -2.68599 -0.103996 0
M  V30 1581 C 151.842 -2.66254 2.38419 0
M  V30 1582 S 153.401 -3.55516 2.57204 0
M  V30 1583 H 150.219 -0.504808 0.500689 0
M  V30 1584 H 152.821 -0.822962 1.77335 0
M  V30 1585 H 151.525 -2.31897 3.38603 0
M  V30 1586 H 151.056 -3.3655 2.03711 0
M  V30 1587 H 153.071 -4.61115 1.83268 0
M  V30 1588 N 152.244 -1.26651 -0.937939 0
M  V30 1589 C 153.472 -1.15173 -1.7188 0
M  V30 1590 C 153.887 0.292668 -1.86518 0
M  V30 1591 O 153.244 1.20014 -1.37488 0
M  V30 1592 C 153.295 -1.81925 -3.12387 0
M  V30 1593 O 153.016 -3.2072 -2.98446 0
M  V30 1594 C 154.517 -1.76442 -4.06673 0
M  V30 1595 H 151.737 -0.400911 -0.538063 0
M  V30 1596 H 154.281 -1.67332 -1.1756 0
M  V30 1597 H 152.436 -1.33696 -3.63599 0
M  V30 1598 H 152.85 -3.53802 -3.872 0
M  V30 1599 H 154.324 -2.27781 -5.02812 0
M  V30 1600 H 154.801 -0.731608 -4.33064 0
M  V30 1601 H 155.407 -2.24238 -3.61382 0
M  V30 1602 N 153.722 1.14298 -1.08507 0
M  V30 1603 C 154.962 1.87016 -0.824894 0
M  V30 1604 C 155.326 1.81099 0.637735 0
M  V30 1605 O 156.527 2.48963 1.01345 0
M  V30 1606 C 154.798 3.31584 -1.33368 0
M  V30 1607 S 156.357 4.21903 -1.20596 0
M  V30 1608 H 153.175 0.645259 -0.2986 0
M  V30 1609 H 155.777 1.37822 -1.38656 0
M  V30 1610 H 154.481 3.33439 -2.39262 0
M  V30 1611 H 154.012 3.85836 -0.767734 0
M  V30 1612 H 156.027 4.95971 -0.150891 0
M  V30 1613 N 155.201 0.870884 1.31352 0
M  V30 1614 C 156.111 0.330783 2.32256 0
M  V30 1615 C 157.127 -0.559767 1.6475 0
M  V30 1616 O 158.303 -0.456263 1.96164 0
M  V30 1617 C 155.368 -0.458137 3.4366 0
M  V30 1618 C 154.429 0.460482 4.26823 0
M  V30 1619 C 153.662 -0.290881 5.32907 0
M  V30 1620 O 153.885 -1.51885 5.49806 0
M  V30 1621 O 152.819 0.351732 6.00871 0
M  V30 1622 H 156.645 1.16718 2.80376 0
M  V30 1623 H 154.23 0.634285 1.35267 0
M  V30 1624 H 156.112 -0.905343 4.1156 0
M  V30 1625 H 154.787 -1.27106 2.97701 0
M  V30 1626 H 153.694 0.956207 3.61673 0
M  V30 1627 H 155.027 1.23903 4.7635 0
M  V30 1628 N 156.679 -1.44442 0.630414 0
M  V30 1629 C 157.589 -2.34476 -0.0761693 0
M  V30 1630 C 158.605 -1.52576 -0.836449 0
M  V30 1631 O 159.781 -1.85307 -0.788874 0
M  V30 1632 C 156.846 -3.30545 -1.04599 0
M  V30 1633 C 155.907 -4.28352 -0.28516 0
M  V30 1634 C 155.14 -5.19831 -1.20878 0
M  V30 1635 O 155.363 -5.15223 -2.44747 0
M  V30 1636 O 154.297 -5.97892 -0.693491 0
M  V30 1637 H 158.123 -2.96345 0.664324 0
M  V30 1638 H 155.708 -1.44203 0.39061 0
M  V30 1639 H 157.59 -3.89681 -1.60396 0
M  V30 1640 H 156.265 -2.7121 -1.76711 0
M  V30 1641 H 155.172 -3.72764 0.315837 0
M  V30 1642 H 156.505 -4.90605 0.395924 0
M  V30 1643 N 158.157 -0.370918 -1.53173 0
M  V30 1644 C 159.405 0.216673 -2.00935 0
M  V30 1645 C 159.726 1.48845 -1.25977 0
M  V30 1646 O 158.996 1.92286 -0.374551 0
M  V30 1647 H 157.576 0.0830565 -0.742368 0
M  V30 1648 H 160.238 -0.49838 -1.8842 0
M  V30 1649 H 159.334 0.439893 -3.08984 0
M  V30 1650 N 159.635 1.57281 -0.100228 0
M  V30 1651 C 160.881 1.95626 0.556946 0
M  V30 1652 C 161.236 0.981655 1.65473 0
M  V30 1653 O 160.529 0.00849847 1.91598 0
M  V30 1654 C 160.723 3.38305 1.15259 0
M  V30 1655 C 160.552 4.49555 0.114035 0
M  V30 1656 C 159.322 5.0434 -0.311266 0
M  V30 1657 C 161.52 5.10051 -0.659768 0
M  V30 1658 N 159.502 5.99152 -1.33755 0
M  V30 1659 C 160.873 6.00628 -1.53774 0
M  V30 1660 C 162.928 4.92772 -0.712723 0
M  V30 1661 C 161.631 6.7578 -2.46403 0
M  V30 1662 C 163.657 5.6859 -1.62663 0
M  V30 1663 C 163.019 6.58838 -2.49222 0
M  V30 1664 H 159.118 0.7624 0.173982 0
M  V30 1665 H 161.702 1.93829 -0.183988 0
M  V30 1666 H 159.873 3.40786 1.86332 0
M  V30 1667 H 161.605 3.63817 1.77254 0
M  V30 1668 H 158.36 4.73537 0.0774812 0
M  V30 1669 H 158.784 6.5126 -1.84905 0
M  V30 1670 H 163.426 4.22761 -0.0576648 0
M  V30 1671 H 161.144 7.4505 -3.12931 0
M  V30 1672 H 164.73 5.57233 -1.67281 0
M  V30 1673 H 163.61 7.16479 -3.18791 0
M  V30 1674 N 161.113 -0.173488 1.56642 0
M  V30 1675 C 162.063 -1.21941 1.92651 0
M  V30 1676 C 163.047 -1.39912 0.794577 0
M  V30 1677 O 164.239 -1.41919 1.05773 0
M  V30 1678 C 161.368 -2.55935 2.28806 0
M  V30 1679 C 160.454 -2.41667 3.48508 0
M  V30 1680 N 160.845 -1.9711 4.65813 0
M  V30 1681 C 159.143 -2.72499 3.53072 0
M  V30 1682 C 159.844 -1.95253 5.47952 0
M  V30 1683 N 158.82 -2.37575 4.88937 0
M  V30 1684 H 162.622 -0.866581 2.80834 0
M  V30 1685 H 160.136 -0.381776 1.57849 0
M  V30 1686 H 162.133 -3.31511 2.52797 0
M  V30 1687 H 160.793 -2.92022 1.41961 0
M  V30 1688 H 161.804 -1.67481 4.90072 0
M  V30 1689 H 158.481 -3.12639 2.767 0
M  V30 1690 H 159.871 -1.6252 6.51948 0
M  V30 1691 N 162.591 -1.51276 -0.441967 0
M  V30 1692 C 163.831 -1.65372 -1.20132 0
M  V30 1693 C 164.195 -0.359871 -1.88597 0
M  V30 1694 O 165.396 -0.376551 -2.66149 0
M  V30 1695 C 163.667 -2.8207 -2.1948 0
M  V30 1696 S 165.226 -3.16467 -3.03964 0
M  V30 1697 H 162.044 -0.582669 -0.407453 0
M  V30 1698 H 164.646 -1.89166 -0.493609 0
M  V30 1699 H 163.35 -3.74523 -1.67812 0
M  V30 1700 H 162.881 -2.6045 -2.94838 0
M  V30 1701 H 164.896 -2.62543 -4.21053 0
M  V30 1702 N 164.069 0.697108 -1.41344 0
M  V30 1703 C 165.297 1.48593 -1.43972 0
M  V30 1704 C 165.712 1.88747 -0.0445612 0
M  V30 1705 O 165.069 1.56682 0.935785 0
M  V30 1706 C 165.12 2.74946 -2.34706 0
M  V30 1707 O 164.841 2.36484 -3.68791 0
M  V30 1708 C 166.342 3.687 -2.46121 0
M  V30 1709 H 163.562 0.457964 -0.490418 0
M  V30 1710 H 166.106 0.858429 -1.8561 0
M  V30 1711 H 164.261 3.33937 -1.9638 0
M  V30 1712 H 164.675 3.17918 -4.17167 0
M  V30 1713 H 166.149 4.54145 -3.13777 0
M  V30 1714 H 166.626 4.13081 -1.49199 0
M  V30 1715 H 167.232 3.15613 -2.85076 0
M  V30 1716 N 165.547 1.27147 0.931209 0
M  V30 1717 C 166.772 1.16191 1.71797 0
M  V30 1718 C 167.197 -0.278004 1.86034 0
M  V30 1719 O 166.555 -1.20137 1.35782 0
M  V30 1720 C 166.603 1.84673 3.09723 0
M  V30 1721 O 165.707 1.14231 3.96264 0
M  V30 1722 H 165.048 0.404303 0.526721 0
M  V30 1723 H 167.578 1.68152 1.1656 0
M  V30 1724 H 167.588 1.91893 3.60057 0
M  V30 1725 H 166.263 2.89421 2.98677 0
M  V30 1726 H 164.84 1.15056 3.54706 0
M  V30 1727 N 167.025 -1.13721 1.09112 0
M  V30 1728 C 167.935 -2.22638 0.73957 0
M  V30 1729 C 168.951 -1.72091 -0.257068 0
M  V30 1730 O 170.127 -2.01155 -0.0992154 0
M  V30 1731 C 167.192 -3.46322 0.16191 0
M  V30 1732 C 166.253 -4.11775 1.21408 0
M  V30 1733 C 165.486 -5.29555 0.663891 0
M  V30 1734 O 165.709 -5.68077 -0.514274 0
M  V30 1735 O 164.643 -5.84973 1.41738 0
M  V30 1736 H 168.469 -2.55074 1.64836 0
M  V30 1737 H 166.054 -1.21791 0.865289 0
M  V30 1738 H 167.936 -4.21107 -0.157073 0
M  V30 1739 H 166.611 -3.15593 -0.719932 0
M  V30 1740 H 165.518 -3.3883 1.58571 0
M  V30 1741 H 166.851 -4.46627 2.06845 0
M  V30 1742 N 168.503 -0.877838 -1.30888 0
M  V30 1743 C 169.466 -0.344265 -2.266 0
M  V30 1744 C 170.466 0.50922 -1.52524 0
M  V30 1745 O 171.656 0.317398 -1.71284 0
M  V30 1746 C 168.788 0.510198 -3.37061 0
M  V30 1747 H 169.981 -1.1893 -2.7531 0
M  V30 1748 H 167.534 -0.654088 -1.41956 0
M  V30 1749 H 168.269 1.37612 -2.93655 0
M  V30 1750 H 168.054 -0.101047 -3.9197 0
M  V30 1751 H 169.544 0.875537 -4.08319 0
M  V30 1752 N 169.982 1.44106 -0.638065 0
M  V30 1753 C 171.222 2.03858 -0.148733 0
M  V30 1754 C 171.586 1.49153 1.20903 0
M  V30 1755 O 172.787 2.00452 1.79088 0
M  V30 1756 C 171.058 3.57117 -0.142314 0
M  V30 1757 S 172.617 4.37897 0.281385 0
M  V30 1758 H 169.435 0.708069 -0.0644912 0
M  V30 1759 H 172.037 1.7639 -0.843009 0
M  V30 1760 H 170.741 3.94436 -1.13349 0
M  V30 1761 H 170.272 3.89205 0.572988 0
M  V30 1762 H 172.287 4.72218 1.52395 0
M  V30 1763 N 171.46 0.379036 1.52974 0
M  V30 1764 C 172.37 -0.468639 2.29872 0
M  V30 1765 C 173.386 -1.08067 1.36373 0
M  V30 1766 O 174.562 -1.08871 1.69438 0
M  V30 1767 C 171.627 -1.58594 3.083 0
M  V30 1768 C 170.688 -1.00007 4.17489 0
M  V30 1769 C 169.921 -2.06413 4.92168 0
M  V30 1770 O 170.144 -3.27751 4.66835 0
M  V30 1771 O 169.078 -1.68717 5.7777 0
M  V30 1772 H 172.904 0.157508 3.03291 0
M  V30 1773 H 170.489 0.143035 1.48714 0
M  V30 1774 H 172.371 -2.23525 3.57232 0
M  V30 1775 H 171.046 -2.19724 2.37703 0
M  V30 1776 H 169.953 -0.314299 3.72777 0
M  V30 1777 H 171.286 -0.433135 4.90291 0
M  V30 1778 N 172.938 -1.57226 0.108567 0
M  V30 1779 C 174.163 -1.99604 -0.563303 0
M  V30 1780 C 174.588 -0.987563 -1.6009 0
M  V30 1781 O 173.946 0.0421687 -1.81251 0
M  V30 1782 C 173.994 -3.40902 -1.17552 0
M  V30 1783 O 173.098 -3.42896 -2.2912 0
M  V30 1784 H 172.439 -0.648704 -0.1417 0
M  V30 1785 H 174.969 -2.03679 0.193961 0
M  V30 1786 H 174.979 -3.78886 -1.51357 0
M  V30 1787 H 173.654 -4.1382 -0.415445 0
M  V30 1788 H 172.231 -3.1672 -1.96832 0
M  V30 1789 N 174.416 0.165178 -1.56732 0
M  V30 1790 C 175.656 0.887231 -1.8414 0
M  V30 1791 C 176.02 1.79159 -0.690353 0
M  V30 1792 O 177.221 2.55172 -0.845032 0
M  V30 1793 C 175.492 1.65674 -3.16681 0
M  V30 1794 S 177.051 2.42671 -3.6559 0
M  V30 1795 H 173.869 0.297042 -0.645978 0
M  V30 1796 H 176.471 0.148439 -1.94936 0
M  V30 1797 H 175.175 0.983507 -3.98441 0
M  V30 1798 H 174.706 2.43679 -3.08843 0
M  V30 1799 H 176.721 3.67499 -3.33406 0
M  V30 1800 N 175.894 1.51508 0.433938 0
M  V30 1801 C 177.14 1.64588 1.18484 0
M  V30 1802 C 177.473 0.362666 1.90784 0
M  V30 1803 O 176.748 -0.637892 1.83742 0
M  V30 1804 C 177.031 2.85149 2.19913 0
M  V30 1805 C 176.884 4.23456 1.51674 0
M  V30 1806 C 178.203 3.01227 3.20858 0
M  V30 1807 H 175.322 0.598994 0.429389 0
M  V30 1808 H 177.964 1.84002 0.473647 0
M  V30 1809 H 176.114 2.68729 2.80566 0
M  V30 1810 H 177.786 4.51552 0.943322 0
M  V30 1811 H 176.029 4.25998 0.819035 0
M  V30 1812 H 176.7 5.03812 2.2556 0
M  V30 1813 H 179.176 3.16382 2.70263 0
M  V30 1814 H 178.052 3.87141 3.89118 0
M  V30 1815 H 178.313 2.13447 3.8716 0
M  V30 1816 N 177.372 -0.689602 1.41712 0
M  V30 1817 C 178.302 -1.81577 1.46806 0
M  V30 1818 C 179.283 -1.66945 0.326105 0
M  V30 1819 O 180.468 -1.86588 0.538377 0
M  V30 1820 C 177.598 -3.19762 1.35535 0
M  V30 1821 C 176.552 -3.49107 2.47605 0
M  V30 1822 C 175.878 -4.86711 2.21397 0
M  V30 1823 C 177.178 -3.47483 3.89939 0
M  V30 1824 H 178.872 -1.7757 2.41058 0
M  V30 1825 H 176.418 -0.852887 1.16025 0
M  V30 1826 H 178.371 -3.98263 1.3771 0
M  V30 1827 H 177.095 -3.24409 0.377708 0
M  V30 1828 H 175.754 -2.72959 2.44722 0
M  V30 1829 H 175.402 -4.8799 1.21961 0
M  V30 1830 H 175.102 -5.0731 2.96497 0
M  V30 1831 H 176.626 -5.67515 2.25297 0
M  V30 1832 H 178.04 -4.1598 3.94505 0
M  V30 1833 H 176.437 -3.79615 4.64771 0
M  V30 1834 H 177.507 -2.46341 4.17665 0
M  V30 1835 N 178.85 -1.27639 -0.924453 0
M  V30 1836 C 179.8 -1.07295 -2.01176 0
M  V30 1837 C 180.784 5.77352e-05 -1.609 0
M  V30 1838 O 181.976 -0.218855 -1.75642 0
M  V30 1839 C 179.105 -0.725592 -3.35544 0
M  V30 1840 C 178.191 -1.83691 -3.82254 0
M  V30 1841 N 178.582 -3.07697 -4.01443 0
M  V30 1842 C 176.88 -1.72433 -4.11319 0
M  V30 1843 C 177.581 -3.80037 -4.40394 0
M  V30 1844 N 176.557 -3.0782 -4.48049 0
M  V30 1845 H 180.359 -2.01399 -2.14046 0
M  V30 1846 H 177.873 -1.18401 -1.11153 0
M  V30 1847 H 179.87 -0.560959 -4.13109 0
M  V30 1848 H 178.53 0.207782 -3.24034 0
M  V30 1849 H 179.541 -3.43424 -3.8766 0
M  V30 1850 H 176.218 -0.862005 -4.08504 0
M  V30 1851 H 177.608 -4.86632 -4.63291 0
M  V30 1852 N 180.328 1.1314 -1.09713 0
M  V30 1853 C 181.744 1.36477 -0.827423 0
M  V30 1854 C 181.944 1.93654 0.556817 0
M  V30 1855 O 181 2.15791 1.31112 0
M  V30 1856 C 182.313 2.31334 -1.92106 0
M  V30 1857 C 183.861 2.44943 -1.94864 0
M  V30 1858 C 184.336 3.4311 -3.0338 0
M  V30 1859 N 185.827 3.50662 -3.02639 0
M  V30 1860 C 186.562 4.2651 -3.83246 0
M  V30 1861 N 186.058 5.05485 -4.73768 0
M  V30 1862 N 187.851 4.2184 -3.71493 0
M  V30 1863 H 180.002 0.743807 -1.9895 0
M  V30 1864 H 182.265 0.389823 -0.864143 0
M  V30 1865 H 181.971 1.96483 -2.91698 0
M  V30 1866 H 181.845 3.31381 -1.80184 0
M  V30 1867 H 184.232 2.79079 -0.959099 0
M  V30 1868 H 184.313 1.4481 -2.10864 0
M  V30 1869 H 183.957 3.09704 -4.02549 0
M  V30 1870 H 183.887 4.43055 -2.84622 0
M  V30 1871 H 186.378 2.94315 -2.37039 0
M  V30 1872 H 186.691 5.60675 -5.3185 0
M  V30 1873 H 185.036 5.04708 -4.77802 0
M  V30 1874 H 188.227 3.5922 -3.00131 0
M  V30 1875 H 188.4 4.80697 -4.3455 0
M  V30 1876 N 181.806 0.884767 1.30421 0
M  V30 1877 C 183.031 0.517288 2.00845 0
M  V30 1878 C 183.456 -0.886779 1.65885 0
M  V30 1879 O 182.814 -1.58768 0.875354 0
M  V30 1880 C 182.862 0.698994 3.5376 0
M  V30 1881 O 181.966 -0.255208 4.1161 0
M  V30 1882 H 181.307 0.203872 0.631927 0
M  V30 1883 H 183.837 1.19225 1.66272 0
M  V30 1884 H 183.847 0.597912 4.03595 0
M  V30 1885 H 182.522 1.72271 3.78544 0
M  V30 1886 H 181.099 -0.10784 3.72744 0
M  V30 1887 N 183.284 -1.43765 0.645699 0
M  V30 1888 C 184.524 -2.03776 0.159542 0
M  V30 1889 C 184.888 -1.49792 -1.2011 0
M  V30 1890 O 186.089 -2.01398 -1.78023 0
M  V30 1891 C 184.36 -3.57036 0.161251 0
M  V30 1892 S 185.919 -4.3804 -0.258159 0
M  V30 1893 H 182.737 -0.707717 0.0682454 0
M  V30 1894 H 185.339 -1.75941 0.852352 0
M  V30 1895 H 184.043 -3.9383 1.15439 0
M  V30 1896 H 183.574 -3.89503 -0.552339 0
M  V30 1897 H 185.589 -4.7302 -1.49889 0
M  V30 1898 N 184.763 -0.387143 -1.52771 0
M  V30 1899 C 185.988 0.198407 -2.06449 0
M  V30 1900 C 186.413 1.39918 -1.25716 0
M  V30 1901 O 185.771 1.79099 -0.281657 0
M  V30 1902 C 185.819 0.548893 -3.56398 0
M  V30 1903 O 184.923 1.64315 -3.78252 0
M  V30 1904 H 184.264 0.0237731 -0.663574 0
M  V30 1905 H 186.794 -0.553989 -1.96957 0
M  V30 1906 H 186.804 0.813812 -3.99801 0
M  V30 1907 H 185.479 -0.329005 -4.14597 0
M  V30 1908 H 184.056 1.37211 -3.46738 0
M  V30 1909 N 186.241 1.57166 -0.116904 0
M  V30 1910 C 187.652 1.82169 0.408809 0
M  V30 1911 C 188.003 1.03393 1.66746 0
M  V30 1912 O 187.128 0.269886 2.1471 0
M  V30 1913 C 187.723 3.30429 0.748466 0
M  V30 1914 C 186.282 3.5612 1.21882 0
M  V30 1915 C 185.429 2.76374 0.226452 0
M  V30 1916 H 188.38 1.5497 -0.342063 0
M  V30 1917 H 188.401 3.44943 1.60607 0
M  V30 1918 H 187.913 3.87737 -0.167784 0
M  V30 1919 H 186.014 3.04168 2.15204 0
M  V30 1920 H 186.127 4.64705 1.16559 0
M  V30 1921 H 184.491 2.44515 0.713063 0
M  V30 1922 H 185.274 3.3644 -0.682859 0
M  V30 1923 N 187.719 -0.156864 1.56817 0
M  V30 1924 C 188.967 -0.869404 1.82444 0
M  V30 1925 C 189.288 -1.82147 0.69623 0
M  V30 1926 O 188.558 -1.93847 -0.28287 0
M  V30 1927 H 187.138 -0.324043 0.673056 0
M  V30 1928 H 189.8 -0.153224 1.94297 0
M  V30 1929 H 188.896 -1.43761 2.77019 0
M  V30 1930 N 189.197 -1.51736 -0.425897 0
M  V30 1931 C 190.444 -1.6497 -1.17436 0
M  V30 1932 C 190.772 -0.371445 -1.9092 0
M  V30 1933 O 190.027 0.644963 -1.84767 0
M  V30 1934 C 190.326 -2.81103 -2.20717 0
M  V30 1935 C 189.992 -4.19954 -1.64162 0
M  V30 1936 C 188.654 -4.57725 -1.48462 0
M  V30 1937 C 191.006 -5.06552 -1.22696 0
M  V30 1938 C 188.334 -5.79789 -0.897873 0
M  V30 1939 C 190.686 -6.29205 -0.654464 0
M  V30 1940 C 189.35 -6.6574 -0.484456 0
M  V30 1941 H 188.62 -0.603668 -0.429727 0
M  V30 1942 H 191.267 -1.85798 -0.463829 0
M  V30 1943 H 189.572 -2.54542 -2.97852 0
M  V30 1944 H 191.269 -2.8854 -2.78471 0
M  V30 1945 H 187.859 -3.90181 -1.77361 0
M  V30 1946 H 192.043 -4.77968 -1.33642 0
M  V30 1947 H 187.299 -6.06733 -0.75402 0
M  V30 1948 H 191.473 -6.95643 -0.324694 0
M  V30 1949 H 189.1 -7.60195 -0.0276833 0
M  V30 1950 N 190.675 0.682077 -1.42076 0
M  V30 1951 C 191.923 1.4393 -1.41876 0
M  V30 1952 C 192.244 1.94971 -0.0335599 0
M  V30 1953 O 191.514 1.72591 0.926773 0
M  V30 1954 H 190.094 0.534085 -0.522267 0
M  V30 1955 H 192.756 0.806427 -1.77434 0
M  V30 1956 H 191.852 2.29588 -2.11414 0
M  V30 1957 N 192.153 1.28127 0.917671 0
M  V30 1958 C 193.399 1.15223 1.66888 0
M  V30 1959 C 193.732 -0.299293 1.9188 0
M  V30 1960 O 193.007 -1.21805 1.51637 0
M  V30 1961 C 193.29 1.94706 3.02922 0
M  V30 1962 C 193.143 3.47898 2.85109 0
M  V30 1963 C 194.462 1.75939 4.03402 0
M  V30 1964 H 191.581 0.419946 0.605652 0
M  V30 1965 H 194.223 1.57398 1.06423 0
M  V30 1966 H 192.373 1.58864 3.54534 0
M  V30 1967 H 194.045 3.93624 2.40537 0
M  V30 1968 H 192.288 3.7373 2.20246 0
M  V30 1969 H 192.959 3.98765 3.81694 0
M  V30 1970 H 195.435 2.07209 3.60837 0
M  V30 1971 H 194.311 2.33931 4.96556 0
M  V30 1972 H 194.572 0.709877 4.36364 0
M  V30 1973 N 193.631 -1.12557 1.10312 0
M  V30 1974 C 194.578 -2.18247 0.750781 0
M  V30 1975 C 195.548 -1.63853 -0.272293 0
M  V30 1976 O 196.733 -1.90195 -0.151862 0
M  V30 1977 C 193.873 -3.44591 0.187379 0
M  V30 1978 C 192.986 -4.13046 1.2656 0
M  V30 1979 C 192.121 -5.27034 0.663978 0
M  V30 1980 C 191.16 -5.87353 1.72287 0
M  V30 1981 N 190.297 -6.92757 1.1416 0
M  V30 1982 H 195.137 -2.47732 1.65628 0
M  V30 1983 H 192.674 -1.21629 0.827337 0
M  V30 1984 H 194.632 -4.16904 -0.157148 0
M  V30 1985 H 193.262 -3.15527 -0.681355 0
M  V30 1986 H 192.314 -3.38924 1.72727 0
M  V30 1987 H 193.626 -4.53947 2.06721 0
M  V30 1988 H 192.78 -6.06104 0.268824 0
M  V30 1989 H 191.519 -4.87407 -0.169082 0
M  V30 1990 H 190.524 -5.06971 2.12746 0
M  V30 1991 H 191.749 -6.29051 2.55875 0
M  V30 1992 H 189.695 -6.5517 0.329984 0
M  V30 1993 H 189.612 -7.3225 1.88007 0
M  V30 1994 H 190.88 -7.75658 0.772956 0
M  V30 1995 N 195.109 -0.891671 -1.2995 0
M  V30 1996 C 196.041 -0.320695 -2.26945 0
M  V30 1997 C 197.054 0.528497 -1.53983 0
M  V30 1998 O 198.243 0.346959 -1.75096 0
M  V30 1999 C 195.343 0.562066 -3.34207 0
M  V30 2000 C 194.516 -0.259576 -4.36629 0
M  V30 2001 C 193.575 0.554739 -5.23268 0
M  V30 2002 O 192.601 -0.0249311 -5.69195 0
M  V30 2003 N 193.803 1.8625 -5.4981 0
M  V30 2004 H 196.568 -1.15432 -2.76578 0
M  V30 2005 H 194.129 -0.755336 -1.432 0
M  V30 2006 H 196.121 1.11304 -3.89093 0
M  V30 2007 H 194.691 1.29637 -2.84452 0
M  V30 2008 H 193.911 -0.991986 -3.81514 0
M  V30 2009 H 195.199 -0.822564 -5.02107 0
M  V30 2010 H 194.597 2.35628 -5.14292 0
M  V30 2011 H 193.154 2.36078 -6.07545 0
M  V30 2012 N 196.587 1.43421 -0.653314 0
M  V30 2013 C 197.836 2.01032 -0.164076 0
M  V30 2014 C 198.149 1.52147 1.22926 0
M  V30 2015 O 199.355 2.02031 1.81371 0
M  V30 2016 C 197.811 3.59082 -0.24252 0
M  V30 2017 C 197.419 4.1696 -1.63855 0
M  V30 2018 C 199.163 4.24079 0.18911 0
M  V30 2019 C 197.07 5.67304 -1.67092 0
M  V30 2020 H 196 0.751798 -0.0575769 0
M  V30 2021 H 198.651 1.6439 -0.815362 0
M  V30 2022 H 197.033 3.93125 0.476276 0
M  V30 2023 H 198.207 3.94416 -2.38271 0
M  V30 2024 H 196.522 3.64335 -2.01616 0
M  V30 2025 H 199.119 5.34381 0.184775 0
M  V30 2026 H 199.462 3.98005 1.22056 0
M  V30 2027 H 199.995 3.94918 -0.477938 0
M  V30 2028 H 196.734 5.98145 -2.68146 0
M  V30 2029 H 196.254 5.91904 -0.970014 0
M  V30 2030 H 197.933 6.31344 -1.4147 0
M  V30 2031 N 198.065 0.39524 1.52563 0
M  V30 2032 C 199.028 -0.425001 2.25225 0
M  V30 2033 C 200.028 -0.985266 1.27079 0
M  V30 2034 O 201.218 -0.866332 1.5113 0
M  V30 2035 C 198.35 -1.59686 3.01186 0
M  V30 2036 H 199.543 0.211233 2.99155 0
M  V30 2037 H 197.096 0.147472 1.55603 0
M  V30 2038 H 197.831 -2.27035 2.31572 0
M  V30 2039 H 197.616 -1.20176 3.73229 0
M  V30 2040 H 199.106 -2.17743 3.5634 0
M  V30 2041 N 199.544 -1.57102 0.125237 0
M  V30 2042 C 200.772 -1.99761 -0.538797 0
M  V30 2043 C 201.187 -1.00503 -1.59827 0
M  V30 2044 O 200.544 0.00119474 -1.825 0
M  V30 2045 C 200.595 -3.42408 -1.15927 0
M  V30 2046 O 200.316 -4.37869 -0.142143 0
M  V30 2047 C 201.817 -4.00232 -1.90602 0
M  V30 2048 H 199.037 -0.655772 -0.14214 0
M  V30 2049 H 201.581 -2.03383 0.213413 0
M  V30 2050 H 199.736 -3.39706 -1.86223 0
M  V30 2051 H 200.15 -5.21128 -0.593775 0
M  V30 2052 H 201.624 -5.02105 -2.29335 0
M  V30 2053 H 202.101 -3.39721 -2.78363 0
M  V30 2054 H 202.707 -4.06499 -1.25055 0
M  V30 2055 N 201.022 0.148545 -1.56898 0
M  V30 2056 C 202.27 0.859717 -1.82902 0
M  V30 2057 C 202.591 1.81775 -0.70588 0
M  V30 2058 O 201.861 1.93994 0.272586 0
M  V30 2059 H 200.441 0.320469 -0.674766 0
M  V30 2060 H 203.103 0.142918 -1.94375 0
M  V30 2061 H 202.199 1.4229 -2.77777 0
M  V30 2062 N 202.5 1.5196 0.417844 0
M  V30 2063 C 203.746 1.65836 1.16732 0
M  V30 2064 C 204.079 0.382881 1.90388 0
M  V30 2065 O 203.354 -0.618368 1.84408 0
M  V30 2066 C 203.637 2.87466 2.16876 0
M  V30 2067 C 203.49 4.25041 1.47174 0
M  V30 2068 C 204.809 3.04613 3.17646 0
M  V30 2069 H 201.928 0.603515 0.423011 0
M  V30 2070 H 204.57 1.84494 0.454105 0
M  V30 2071 H 202.72 2.71689 2.777 0
M  V30 2072 H 204.392 4.52527 0.895376 0
M  V30 2073 H 202.635 4.26843 0.773806 0
M  V30 2074 H 203.306 5.06176 2.20204 0
M  V30 2075 H 205.782 3.1923 2.66892 0
M  V30 2076 H 204.658 3.91247 3.8499 0
M  V30 2077 H 204.919 2.17541 3.84874 0
M  V30 2078 N 203.978 -0.674533 1.42435 0
M  V30 2079 C 205.203 -1.46784 1.46524 0
M  V30 2080 C 205.628 -1.87938 0.078066 0
M  V30 2081 O 204.986 -1.56014 -0.92354 0
M  V30 2082 C 205.034 -2.69307 2.39805 0
M  V30 2083 O 204.138 -3.67587 1.86959 0
M  V30 2084 H 203.479 -0.440959 0.496439 0
M  V30 2085 H 206.009 -0.827326 1.87127 0
M  V30 2086 H 206.019 -3.17374 2.56393 0
M  V30 2087 H 204.694 -2.38692 3.40586 0
M  V30 2088 H 203.271 -3.2662 1.79927 0
M  V30 2089 N 205.456 -1.28612 -0.910864 0
M  V30 2090 C 206.733 -1.06632 -1.63979 0
M  V30 2091 C 207.113 0.393351 -2.07403 0
M  V30 2092 O 206.461 1.37999 -1.82122 0
M  V30 2093 C 206.671 -2.0436 -2.8291 0
M  V30 2094 C 208.019 -2.34666 -3.5386 0
M  V30 2095 O 209.043 -2.02467 -2.93062 0
M  V30 2096 O 207.902 -2.89631 -4.63439 0
M  V30 2097 H 204.996 -0.407737 -0.7195 0
M  V30 2098 H 207.542 -1.39942 -0.959914 0
M  V30 2099 H 206.314 -3.02727 -2.47936 0
M  V30 2100 H 205.937 -1.71714 -3.58609 0
M  V30 2101 N 206.934 1.1197 -1.10907 0
M  V30 2102 C 208.162 1.87402 -0.876824 0
M  V30 2103 C 208.577 1.79894 0.573025 0
M  V30 2104 O 207.934 1.17629 1.39534 0
M  V30 2105 C 207.985 3.36428 -1.32282 0
M  V30 2106 O 207.706 3.43765 -2.71582 0
M  V30 2107 C 209.207 4.28783 -1.12518 0
M  V30 2108 H 206.427 0.592793 -0.314384 0
M  V30 2109 H 208.971 1.41649 -1.47499 0
M  V30 2110 H 207.126 3.79706 -0.768229 0
M  V30 2111 H 207.54 4.3652 -2.90776 0
M  V30 2112 H 209.014 5.31613 -1.48633 0
M  V30 2113 H 209.491 4.39153 -0.0642394 0
M  V30 2114 H 210.097 3.91291 -1.66648 0
M  V30 2115 N 208.412 0.89855 1.29475 0
M  V30 2116 C 209.661 0.519863 1.94885 0
M  V30 2117 C 209.974 -0.9383 1.71625 0
M  V30 2118 O 211.18 -1.42445 2.31131 0
M  V30 2119 C 209.636 0.878836 3.49005 0
M  V30 2120 C 209.244 2.35569 3.81066 0
M  V30 2121 C 210.988 0.570004 4.20656 0
M  V30 2122 C 208.895 2.65558 5.28425 0
M  V30 2123 H 207.825 0.190692 0.729488 0
M  V30 2124 H 210.476 1.09539 1.47219 0
M  V30 2125 H 208.858 0.232253 3.95318 0
M  V30 2126 H 210.032 3.04773 3.45616 0
M  V30 2127 H 208.347 2.63343 3.22552 0
M  V30 2128 H 210.944 0.770925 5.29113 0
M  V30 2129 H 211.287 -0.491404 4.1339 0
M  V30 2130 H 211.82 1.17438 3.8007 0
M  V30 2131 H 208.559 3.70493 5.40754 0
M  V30 2132 H 208.079 2.00977 5.65127 0
M  V30 2133 H 209.758 2.51765 5.96006 0
M  V30 2134 N 209.89 -1.43072 0.660911 0
M  V30 2135 C 211.13 -2.03596 0.181146 0
M  V30 2136 C 211.494 -1.51057 -1.18515 0
M  V30 2137 O 212.695 -2.03275 -1.75877 0
M  V30 2138 C 210.966 -3.56845 0.19911 0
M  V30 2139 S 212.525 -4.38289 -0.211684 0
M  V30 2140 H 209.343 -0.706954 0.0757479 0
M  V30 2141 H 211.945 -1.75027 0.870965 0
M  V30 2142 H 210.649 -3.92583 1.1961 0
M  V30 2143 H 210.18 -3.90067 -0.510996 0
M  V30 2144 H 212.195 -4.74583 -1.44863 0
M  V30 2145 N 211.368 -0.403325 -1.52352 0
M  V30 2146 C 212.278 0.432009 -2.30588 0
M  V30 2147 C 213.294 1.05884 -1.38075 0
M  V30 2148 O 214.47 1.06161 -1.71148 0
M  V30 2149 C 211.535 1.53669 -3.10784 0
M  V30 2150 C 210.596 0.933525 -4.19027 0
M  V30 2151 C 209.829 1.98557 -4.9539 0
M  V30 2152 O 210.052 3.20283 -4.71991 0
M  V30 2153 O 208.986 1.59504 -5.80381 0
M  V30 2154 H 212.812 -0.205739 -3.03002 0
M  V30 2155 H 210.397 -0.166675 -1.48467 0
M  V30 2156 H 212.279 2.17814 -3.60742 0
M  V30 2157 H 210.954 2.15915 -2.41169 0
M  V30 2158 H 209.861 0.254954 -3.7323 0
M  V30 2159 H 211.194 0.35508 -4.90918 0
M  V30 2160 N 212.846 1.57033 -0.133567 0
M  V30 2161 C 214.257 1.82593 0.389464 0
M  V30 2162 C 214.608 1.05156 1.6564 0
M  V30 2163 O 213.733 0.292644 2.14412 0
M  V30 2164 C 214.328 3.31204 0.713377 0
M  V30 2165 C 212.887 3.57393 1.18098 0
M  V30 2166 C 212.034 2.76598 0.197126 0
M  V30 2167 H 214.985 1.54598 -0.358481 0
M  V30 2168 H 215.006 3.46627 1.56939 0
M  V30 2169 H 214.518 3.87537 -0.2089 0
M  V30 2170 H 212.619 3.06433 2.11966 0
M  V30 2171 H 212.732 4.65915 1.11624 0
M  V30 2172 H 211.096 2.45257 0.687088 0
M  V30 2173 H 211.879 3.35697 -0.718504 0
M  V30 2174 N 214.325 -0.140222 1.56975 0
M  V30 2175 C 215.565 -0.857823 1.85528 0
M  V30 2176 C 215.929 -1.78039 0.718768 0
M  V30 2177 O 217.13 -2.53795 0.885521 0
M  V30 2178 C 215.401 -1.60615 3.19277 0
M  V30 2179 S 216.96 -2.36824 3.69405 0
M  V30 2180 H 213.778 -0.286727 0.650622 0
M  V30 2181 H 216.38 -0.117408 1.95147 0
M  V30 2182 H 215.084 -0.919994 3.99955 0
M  V30 2183 H 214.615 -2.38735 3.12681 0
M  V30 2184 H 216.63 -3.62148 3.3921 0
M  V30 2185 N 215.803 -1.52179 -0.40978 0
M  V30 2186 C 217.214 -1.58377 -0.988615 0
M  V30 2187 C 217.565 -0.423879 -1.91566 0
M  V30 2188 O 216.69 0.455844 -2.11544 0
M  V30 2189 C 217.285 -2.87044 -1.79976 0
M  V30 2190 C 215.844 -2.95722 -2.32863 0
M  V30 2191 C 214.991 -2.53309 -1.12828 0
M  V30 2192 H 217.942 -1.57558 -0.190039 0
M  V30 2193 H 217.963 -2.7236 -2.65707 0
M  V30 2194 H 217.475 -3.71444 -1.12478 0
M  V30 2195 H 215.576 -2.15814 -3.03735 0
M  V30 2196 H 215.689 -3.99951 -2.63773 0
M  V30 2197 H 214.053 -2.07142 -1.48204 0
M  V30 2198 H 214.836 -3.40082 -0.46897 0
M  V30 2199 N 217.281 0.66697 -1.42791 0
M  V30 2200 C 218.527 1.4291 -1.43891 0
M  V30 2201 C 218.86 1.94114 -0.0578972 0
M  V30 2202 O 218.135 1.71414 0.91911 0
M  V30 2203 C 218.418 2.62049 -2.46987 0
M  V30 2204 C 218.271 2.16426 -3.94309 0
M  V30 2205 C 219.59 3.64266 -2.46978 0
M  V30 2206 H 216.709 0.518306 -0.523954 0
M  V30 2207 H 219.351 0.757321 -1.74255 0
M  V30 2208 H 217.501 3.19361 -2.21225 0
M  V30 2209 H 219.173 1.64221 -4.31079 0
M  V30 2210 H 217.416 1.47925 -4.078 0
M  V30 2211 H 218.087 3.02038 -4.62036 0
M  V30 2212 H 220.563 3.16686 -2.69906 0
M  V30 2213 H 219.439 4.45196 -3.21079 0
M  V30 2214 H 219.7 4.15927 -1.49857 0
M  V30 2215 N 218.759 1.29093 0.90403 0
M  V30 2216 C 220.007 1.16583 1.65085 0
M  V30 2217 C 220.328 -0.283933 1.92922 0
M  V30 2218 O 219.598 -1.19509 1.55224 0
M  V30 2219 H 218.178 0.428467 0.611903 0
M  V30 2220 H 220.84 1.61959 1.08422 0
M  V30 2221 H 219.936 1.71266 2.6091 0
M  V30 2222 N 220.237 -1.11381 1.11499 0
M  V30 2223 C 221.484 -1.83132 0.864231 0
M  V30 2224 C 221.812 -1.84683 -0.610114 0
M  V30 2225 O 221.067 -1.29589 -1.46646 0
M  V30 2226 C 221.366 -3.30026 1.37177 0
M  V30 2227 C 221.032 -3.48634 2.85946 0
M  V30 2228 C 219.694 -3.53421 3.26569 0
M  V30 2229 C 222.046 -3.54837 3.81759 0
M  V30 2230 C 219.374 -3.61967 4.61733 0
M  V30 2231 C 221.726 -3.64915 5.1674 0
M  V30 2232 C 220.39 -3.67962 5.5692 0
M  V30 2233 H 219.66 -0.670127 0.316245 0
M  V30 2234 H 222.307 -1.31354 1.3935 0
M  V30 2235 H 220.612 -3.84304 0.762753 0
M  V30 2236 H 222.309 -3.84034 1.15408 0
M  V30 2237 H 218.899 -3.45579 2.53521 0
M  V30 2238 H 223.083 -3.50399 3.51474 0
M  V30 2239 H 218.339 -3.62603 4.92269 0
M  V30 2240 H 222.513 -3.68658 5.90816 0
M  V30 2241 H 220.14 -3.74336 6.61647 0
M  V30 2242 N 221.715 -0.905404 -1.28997 0
M  V30 2243 C 222.962 -0.534248 -1.95325 0
M  V30 2244 C 223.29 0.920535 -1.71337 0
M  V30 2245 O 222.545 1.66861 -1.02254 0
M  V30 2246 C 222.844 -0.779906 -3.48787 0
M  V30 2247 C 222.51 -2.21293 -3.92861 0
M  V30 2248 C 221.172 -2.60475 -4.04606 0
M  V30 2249 C 223.524 -3.14587 -4.15553 0
M  V30 2250 C 220.852 -3.9212 -4.36416 0
M  V30 2251 C 223.204 -4.45787 -4.48839 0
M  V30 2252 C 221.868 -4.84834 -4.58794 0
M  V30 2253 H 221.138 -0.195495 -0.714747 0
M  V30 2254 H 223.785 -1.14514 -1.53488 0
M  V30 2255 H 222.09 -0.0861365 -3.91705 0
M  V30 2256 H 223.787 -0.472029 -3.98212 0
M  V30 2257 H 220.377 -1.89887 -3.84241 0
M  V30 2258 H 224.561 -2.85528 -4.0594 0
M  V30 2259 H 219.817 -4.22086 -4.42327 0
M  V30 2260 H 223.991 -5.18098 -4.65346 0
M  V30 2261 H 221.618 -5.86877 -4.83197 0
M  V30 2262 N 223.193 1.4272 -0.668489 0
M  V30 2263 C 224.418 2.06484 -0.194758 0
M  V30 2264 C 224.843 1.49862 1.13679 0
M  V30 2265 O 224.201 0.614582 1.70565 0
M  V30 2266 C 224.249 3.60353 -0.133546 0
M  V30 2267 O 223.353 4.02464 0.899806 0
M  V30 2268 H 222.694 0.656137 -0.10188 0
M  V30 2269 H 225.224 1.82964 -0.915722 0
M  V30 2270 H 225.234 4.07976 0.0447041 0
M  V30 2271 H 223.909 4.00938 -1.1055 0
M  V30 2272 H 222.486 3.66402 0.693109 0
M  V30 2273 N 224.671 0.411399 1.52136 0
M  V30 2274 C 225.619 -0.427633 2.28635 0
M  V30 2275 C 226.613 -1.04383 1.33419 0
M  V30 2276 O 227.819 -0.981772 1.50868 0
M  V30 2277 H 224.194 -0.156689 0.735495 0
M  V30 2278 H 226.165 0.238761 2.97443 0
M  V30 2279 C 224.914 -1.53082 3.12188 0
M  V30 2280 H 224.237 -1.06601 3.85326 0
M  V30 2281 H 225.677 -2.09167 3.68816 0
M  V30 2282 C 224.136 -2.49946 2.25895 0
M  V30 2283 O 224.666 -3.53884 1.90076 0
M  V30 2284 N 222.872 -2.2021 1.8962 0
M  V30 2285 H 222.419 -1.35719 2.18948 0
M  V30 2286 H 222.377 -2.85266 1.32176 0
M  V30 2287 N 226.149 -1.5696 0.141893 0
M  V30 2288 C 227.395 -1.9625 -0.511248 0
M  V30 2289 C 227.728 -1.02654 -1.64851 0
M  V30 2290 O 227.003 -0.0679676 -1.94381 0
M  V30 2291 C 227.286 -3.45285 -1.02227 0
M  V30 2292 C 227.139 -4.49658 0.113138 0
M  V30 2293 C 228.458 -3.96698 -1.90574 0
M  V30 2294 H 225.577 -0.713567 -0.184367 0
M  V30 2295 H 228.219 -1.88698 0.222087 0
M  V30 2296 H 226.369 -3.51852 -1.64719 0
M  V30 2297 H 228.041 -4.55174 0.749302 0
M  V30 2298 H 226.284 -4.26857 0.773026 0
M  V30 2299 H 226.955 -5.51258 -0.286053 0
M  V30 2300 H 229.431 -3.92578 -1.37918 0
M  V30 2301 H 228.307 -5.01453 -2.2324 0
M  V30 2302 H 228.568 -3.3875 -2.84079 0
M  V30 2303 N 227.627 0.131896 -1.57047 0
M  V30 2304 C 228.852 0.860418 -1.8871 0
M  V30 2305 C 229.277 1.73251 -0.73251 0
M  V30 2306 O 228.635 1.785 0.317429 0
M  V30 2307 C 228.683 1.68047 -3.19049 0
M  V30 2308 O 227.787 2.7862 -3.04047 0
M  V30 2309 H 227.128 0.238743 -0.619595 0
M  V30 2310 H 229.658 0.118169 -2.04258 0
M  V30 2311 H 229.668 2.07238 -3.51449 0
M  V30 2312 H 228.343 1.04018 -4.02682 0
M  V30 2313 H 226.92 2.42726 -2.83088 0
M  V30 2314 N 229.106 1.52395 0.401703 0
M  V30 2315 C 230.331 1.70972 1.17403 0
M  V30 2316 C 230.756 0.421615 1.83314 0
M  V30 2317 O 230.114 -0.621564 1.70312 0
M  V30 2318 C 230.162 2.85151 2.20728 0
M  V30 2319 O 229.266 2.51238 3.27037 0
M  V30 2320 H 228.607 0.568927 0.342372 0
M  V30 2321 H 231.137 1.99131 0.469891 0
M  V30 2322 H 231.147 3.10279 2.64936 0
M  V30 2323 H 229.822 3.78603 1.7214 0
M  V30 2324 H 228.399 2.36808 2.88057 0
M  V30 2325 N 230.584 -0.659388 1.43143 0
M  V30 2326 C 231.547 -1.75432 1.47501 0
M  V30 2327 C 232.547 -1.56707 0.360512 0
M  V30 2328 O 233.737 -1.62717 0.622002 0
M  V30 2329 C 230.869 -3.14239 1.32162 0
M  V30 2330 H 232.062 -1.7295 2.45006 0
M  V30 2331 H 229.615 -0.870469 1.29817 0
M  V30 2332 H 230.35 -3.22336 0.356401 0
M  V30 2333 H 230.135 -3.29235 2.12948 0
M  V30 2334 H 231.625 -3.94094 1.3813 0
M  V30 2335 N 232.062 -1.29571 -0.897171 0
M  V30 2336 C 233.309 -1.17689 -1.6479 0
M  V30 2337 C 233.637 0.27107 -1.92602 0
M  V30 2338 O 232.892 1.21193 -1.53658 0
M  V30 2339 C 233.191 -1.9382 -3.00281 0
M  V30 2340 C 232.857 -3.43522 -2.92068 0
M  V30 2341 C 231.519 -3.84348 -2.89535 0
M  V30 2342 C 233.871 -4.38906 -2.81089 0
M  V30 2343 C 231.199 -5.18869 -2.73846 0
M  V30 2344 C 233.551 -5.73521 -2.66939 0
M  V30 2345 C 232.215 -6.13601 -2.62774 0
M  V30 2346 H 231.485 -0.430654 -0.603008 0
M  V30 2347 H 234.132 -1.60536 -1.04404 0
M  V30 2348 H 232.437 -1.4357 -3.64547 0
M  V30 2349 H 234.134 -1.82028 -3.57305 0
M  V30 2350 H 230.724 -3.11072 -2.94842 0
M  V30 2351 H 234.908 -4.08315 -2.82121 0
M  V30 2352 H 230.164 -5.4903 -2.69027 0
M  V30 2353 H 234.338 -6.47078 -2.57416 0
M  V30 2354 H 231.965 -7.17786 -2.50375 0
M  V30 2355 N 233.54 1.10788 -1.12088 0
M  V30 2356 C 234.45 2.20599 -0.798338 0
M  V30 2357 C 235.466 1.72712 0.21135 0
M  V30 2358 O 236.642 2.01348 0.0458477 0
M  V30 2359 C 233.707 3.45771 -0.253674 0
M  V30 2360 C 232.768 4.08411 -1.32283 0
M  V30 2361 C 232.001 5.27608 -0.80406 0
M  V30 2362 O 232.224 5.69241 0.363478 0
M  V30 2363 O 231.158 5.8101 -1.57198 0
M  V30 2364 H 234.984 2.50614 -1.7154 0
M  V30 2365 H 232.569 1.19454 -0.897275 0
M  V30 2366 H 234.451 4.21376 0.0453691 0
M  V30 2367 H 233.126 3.1739 0.636005 0
M  V30 2368 H 232.033 3.34507 -1.67499 0
M  V30 2369 H 233.366 4.40986 -2.18614 0
M  V30 2370 N 235.018 0.912232 1.28515 0
M  V30 2371 C 235.965 0.397954 2.27343 0
M  V30 2372 C 236.935 -0.526766 1.57526 0
M  V30 2373 O 238.12 -0.449292 1.85435 0
M  V30 2374 C 235.26 -0.357263 3.43246 0
M  V30 2375 C 234.373 0.599788 4.27816 0
M  V30 2376 C 233.508 -0.173725 5.30916 0
M  V30 2377 C 232.547 0.777039 6.07148 0
M  V30 2378 N 231.684 0.0371398 7.0209 0
M  V30 2379 H 236.524 1.24577 2.70711 0
M  V30 2380 H 234.061 0.625612 1.33133 0
M  V30 2381 H 236.019 -0.8113 4.09236 0
M  V30 2382 H 234.649 -1.16943 3.00872 0
M  V30 2383 H 233.701 1.17235 3.61884 0
M  V30 2384 H 235.013 1.32704 4.80823 0
M  V30 2385 H 234.167 -0.688394 6.02782 0
M  V30 2386 H 232.906 -0.934041 4.78672 0
M  V30 2387 H 231.911 1.3031 5.34134 0
M  V30 2388 H 233.136 1.53689 6.61481 0
M  V30 2389 H 231.082 -0.705213 6.52198 0
M  V30 2390 H 230.999 0.704249 7.52713 0
M  V30 2391 H 232.267 -0.457383 7.78157 0
M  V30 2392 N 236.496 -1.42363 0.676048 0
M  V30 2393 C 237.736 -2.03392 0.20273 0
M  V30 2394 C 238.1 -1.52306 -1.16906 0
M  V30 2395 O 239.301 -2.05129 -1.73711 0
M  V30 2396 C 237.572 -3.56614 0.236947 0
M  V30 2397 S 239.131 -4.38489 -0.165186 0
M  V30 2398 H 235.949 -0.70611 0.0832418 0
M  V30 2399 H 238.551 -1.74093 0.88948 0
M  V30 2400 H 237.255 -3.91293 1.23767 0
M  V30 2401 H 236.786 -3.90587 -0.469596 0
M  V30 2402 H 238.801 -4.76093 -1.39822 0
M  V30 2403 N 237.974 -0.419461 -1.51915 0
M  V30 2404 C 238.924 0.418496 -2.24126 0
M  V30 2405 C 239.908 1.00495 -1.25656 0
M  V30 2406 O 241.1 0.926058 -1.50842 0
M  V30 2407 C 238.229 1.52899 -3.07371 0
M  V30 2408 C 237.315 0.952797 -4.13258 0
M  V30 2409 N 237.706 0.104175 -5.05693 0
M  V30 2410 C 236.004 1.22224 -4.28926 0
M  V30 2411 C 236.705 -0.21752 -5.81293 0
M  V30 2412 N 235.681 0.394293 -5.42168 0
M  V30 2413 H 239.483 -0.236048 -2.92951 0
M  V30 2414 H 236.997 -0.230481 -1.60756 0
M  V30 2415 H 238.994 2.14199 -3.57665 0
M  V30 2416 H 237.654 2.18605 -2.40088 0
M  V30 2417 H 238.665 -0.260924 -5.17242 0
M  V30 2418 H 235.342 1.87812 -3.72871 0
M  V30 2419 H 236.732 -0.906992 -6.6575 0
M  V30 2420 N 239.452 1.56882 -0.150215 0
M  V30 2421 C 240.863 1.82995 0.370076 0
M  V30 2422 C 241.214 1.06907 1.64515 0
M  V30 2423 O 240.339 0.315369 2.1409 0
M  V30 2424 C 240.934 3.31942 0.678208 0
M  V30 2425 C 239.493 3.58625 1.14301 0
M  V30 2426 C 238.64 2.76792 0.167778 0
M  V30 2427 H 241.591 1.54209 -0.374858 0
M  V30 2428 H 241.612 3.48272 1.53254 0
M  V30 2429 H 241.124 3.87294 -0.249991 0
M  V30 2430 H 239.225 3.08664 2.08704 0
M  V30 2431 H 239.338 4.67073 1.06676 0
M  V30 2432 H 237.702 2.45972 0.661037 0
M  V30 2433 H 238.485 3.34916 -0.754069 0
M  V30 2434 N 240.93 -0.123565 1.57115 0
M  V30 2435 C 242.176 -0.828428 1.85765 0
M  V30 2436 C 242.531 -1.77709 0.737371 0
M  V30 2437 O 241.824 -1.89787 -0.262978 0
M  V30 2438 C 242.018 -1.62016 3.18568 0
M  V30 2439 C 241.847 -0.749663 4.43407 0
M  V30 2440 C 240.617 -0.406251 5.03664 0
M  V30 2441 C 242.815 -0.0693505 5.14253 0
M  V30 2442 N 240.797 0.475389 6.12057 0
M  V30 2443 C 242.168 0.671474 6.16353 0
M  V30 2444 C 244.223 0.00754393 4.97899 0
M  V30 2445 C 242.926 1.48197 7.03868 0
M  V30 2446 C 244.952 0.804845 5.85898 0
M  V30 2447 C 244.314 1.53388 6.87497 0
M  V30 2448 H 240.413 -0.280219 0.73007 0
M  V30 2449 H 242.997 -0.0924183 1.94481 0
M  V30 2450 H 241.168 -2.32724 3.10957 0
M  V30 2451 H 242.9 -2.27 3.35042 0
M  V30 2452 H 239.655 -0.747446 4.67665 0
M  V30 2453 H 240.079 0.907924 6.70884 0
M  V30 2454 H 244.721 -0.541741 4.19315 0
M  V30 2455 H 242.439 2.04242 7.81864 0
M  V30 2456 H 246.025 0.866642 5.75309 0
M  V30 2457 H 244.905 2.1409 7.5441 0
M  V30 2458 N 242.408 -1.52605 -0.393616 0
M  V30 2459 C 243.636 -1.71294 -1.16043 0
M  V30 2460 C 244.051 -0.429259 -1.83855 0
M  V30 2461 O 243.408 0.595921 -1.72496 0
M  V30 2462 C 243.459 -2.8593 -2.21193 0
M  V30 2463 O 243.18 -4.09329 -1.56146 0
M  V30 2464 C 244.681 -3.16259 -3.10636 0
M  V30 2465 H 241.901 -0.573641 -0.348104 0
M  V30 2466 H 244.445 -1.99234 -0.461092 0
M  V30 2467 H 242.6 -2.60465 -2.86769 0
M  V30 2468 H 243.014 -4.73323 -2.25978 0
M  V30 2469 H 244.488 -3.99946 -3.80456 0
M  V30 2470 H 244.965 -2.3045 -3.73884 0
M  V30 2471 H 245.571 -3.43547 -2.50711 0
M  V30 2472 N 243.887 0.651787 -1.4349 0
M  V30 2473 C 245.112 1.44434 -1.48841 0
M  V30 2474 C 245.537 1.8779 -0.107955 0
M  V30 2475 O 244.895 1.57464 0.898602 0
M  V30 2476 C 244.943 2.65458 -2.44059 0
M  V30 2477 O 244.047 3.64566 -1.92784 0
M  V30 2478 H 243.388 0.433005 -0.503391 0
M  V30 2479 H 245.918 0.797451 -1.88419 0
M  V30 2480 H 245.928 3.13255 -2.6141 0
M  V30 2481 H 244.603 2.33244 -3.4434 0
M  V30 2482 H 243.18 3.23716 -1.851 0
M  V30 2483 N 245.365 1.30045 0.890287 0
M  V30 2484 C 246.605 1.19839 1.65584 0
M  V30 2485 C 246.969 -0.244175 1.90441 0
M  V30 2486 O 248.17 -0.469378 2.6467 0
M  V30 2487 C 246.441 1.99876 2.96284 0
M  V30 2488 S 248 2.06309 3.87275 0
M  V30 2489 H 244.818 0.427157 0.568382 0
M  V30 2490 H 247.42 1.64453 1.05715 0
M  V30 2491 H 246.124 3.03809 2.75913 0
M  V30 2492 H 245.655 1.55903 3.61189 0
M  V30 2493 H 247.67 1.18661 4.81803 0
M  V30 2494 N 246.843 -1.10192 1.12674 0
M  V30 2495 C 247.753 -2.20172 0.810026 0
M  V30 2496 C 248.769 -1.72821 -0.202188 0
M  V30 2497 O 249.945 -2.01369 -0.0351691 0
M  V30 2498 C 247.01 -3.45631 0.272007 0
M  V30 2499 C 246.071 -4.07704 1.34447 0
M  V30 2500 C 245.304 -5.27175 0.832029 0
M  V30 2501 O 245.527 -5.69425 -0.333284 0
M  V30 2502 O 244.461 -5.80168 1.60277 0
M  V30 2503 H 248.287 -2.49701 1.72867 0
M  V30 2504 H 245.872 -1.18977 0.903597 0
M  V30 2505 H 247.754 -4.21394 -0.0230219 0
M  V30 2506 H 246.429 -3.17723 -0.619164 0
M  V30 2507 H 245.336 -3.33614 1.6927 0
M  V30 2508 H 246.669 -4.3982 2.2095 0
M  V30 2509 N 248.321 -0.919034 -1.28029 0
M  V30 2510 C 249.549 -0.570971 -1.98866 0
M  V30 2511 C 249.964 0.848996 -1.68634 0
M  V30 2512 O 249.321 1.56307 -0.942036 0
M  V30 2513 C 249.372 -0.776876 -3.53054 0
M  V30 2514 O 249.093 -2.14097 -3.82222 0
M  V30 2515 C 250.594 -0.436356 -4.41147 0
M  V30 2516 H 247.814 -0.217175 -0.634883 0
M  V30 2517 H 250.358 -1.23368 -1.63097 0
M  V30 2518 H 248.513 -0.161085 -3.87065 0
M  V30 2519 H 248.927 -2.18455 -4.76841 0
M  V30 2520 H 250.401 -0.63117 -5.4838 0
M  V30 2521 H 250.878 0.627686 -4.34692 0
M  V30 2522 H 251.484 -1.02991 -4.12641 0
M  V30 2523 N 249.799 1.42003 -0.683588 0
M  V30 2524 C 250.746 2.30798 -0.0107309 0
M  V30 2525 C 251.716 1.4645 0.783688 0
M  V30 2526 O 252.901 1.75263 0.754156 0
M  V30 2527 C 250.041 3.3238 0.928306 0
M  V30 2528 C 249.154 4.31814 0.126776 0
M  V30 2529 C 248.289 5.20468 1.06236 0
M  V30 2530 C 247.328 6.11577 0.253035 0
M  V30 2531 N 246.465 6.92754 1.14179 0
M  V30 2532 H 251.305 2.8778 -0.773727 0
M  V30 2533 H 248.842 1.41745 -0.393283 0
M  V30 2534 H 250.8 3.89813 1.48666 0
M  V30 2535 H 249.43 2.76976 1.65783 0
M  V30 2536 H 248.482 3.76427 -0.54833 0
M  V30 2537 H 249.794 4.96276 -0.501192 0
M  V30 2538 H 248.948 5.82677 1.69035 0
M  V30 2539 H 247.687 4.56204 1.7242 0
M  V30 2540 H 246.692 5.48428 -0.388108 0
M  V30 2541 H 247.917 6.77892 -0.404839 0
M  V30 2542 H 245.863 6.3111 1.78987 0
M  V30 2543 H 245.78 7.53855 0.569111 0
M  V30 2544 H 247.048 7.59441 1.75697 0
M  V30 2545 N 251.277 0.427512 1.51691 0
M  V30 2546 C 252.554 -0.201684 1.94557 0
M  V30 2547 C 252.934 -1.60981 1.36559 0
M  V30 2548 O 252.282 -2.21814 0.548702 0
M  V30 2549 C 252.492 -0.189394 3.48486 0
M  V30 2550 C 253.84 -0.39978 4.22714 0
M  V30 2551 O 254.864 -0.267945 3.55191 0
M  V30 2552 O 253.723 -0.661249 5.42485 0
M  V30 2553 H 250.817 -0.135261 0.815864 0
M  V30 2554 H 253.363 0.484782 1.62628 0
M  V30 2555 H 252.135 0.795431 3.8313 0
M  V30 2556 H 251.758 -0.919187 3.86829 0
M  V30 2557 N 252.755 -1.56801 0.158532 0
M  V30 2558 C 253.685 -2.20347 -0.772609 0
M  V30 2559 C 254.666 -1.15518 -1.24859 0
M  V30 2560 O 255.851 -1.43902 -1.30406 0
M  V30 2561 C 252.981 -2.83417 -2.00729 0
M  V30 2562 C 251.935 -3.94174 -1.66765 0
M  V30 2563 C 251.261 -4.44233 -2.97592 0
M  V30 2564 C 252.561 -5.14392 -0.905447 0
M  V30 2565 H 254.255 -2.98413 -0.242959 0
M  V30 2566 H 251.801 -1.43537 -0.115419 0
M  V30 2567 H 253.754 -3.26543 -2.6636 0
M  V30 2568 H 252.478 -2.02701 -2.56086 0
M  V30 2569 H 251.137 -3.51684 -1.03508 0
M  V30 2570 H 250.785 -3.60325 -3.50963 0
M  V30 2571 H 250.485 -5.18945 -2.75626 0
M  V30 2572 H 252.009 -4.90037 -3.64274 0
M  V30 2573 H 253.423 -5.5429 -1.46408 0
M  V30 2574 H 251.82 -5.9494 -0.7853 0
M  V30 2575 H 252.89 -4.84795 0.100668 0
M  V30 2576 N 254.233 0.115231 -1.57178 0
M  V30 2577 C 255.479 0.82357 -1.85325 0
M  V30 2578 C 255.812 1.79349 -0.744814 0
M  V30 2579 O 255.087 1.92899 0.249024 0
M  V30 2580 C 255.37 1.57014 -3.24066 0
M  V30 2581 C 255.223 0.619565 -4.45513 0
M  V30 2582 C 256.542 2.52545 -3.60429 0
M  V30 2583 H 253.661 0.297948 -0.674089 0
M  V30 2584 H 256.303 0.0877138 -1.89797 0
M  V30 2585 H 254.453 2.19742 -3.20383 0
M  V30 2586 H 256.125 0.000837639 -4.613 0
M  V30 2587 H 254.368 -0.0686174 -4.33746 0
M  V30 2588 H 255.039 1.17866 -5.3927 0
M  V30 2589 H 257.515 1.9992 -3.64926 0
M  V30 2590 H 256.391 3.01811 -4.58477 0
M  V30 2591 H 256.652 3.35383 -2.88047 0
M  V30 2592 N 255.711 1.52812 0.385517 0
M  V30 2593 C 256.957 1.68275 1.13188 0
M  V30 2594 C 257.29 0.423179 1.89533 0
M  V30 2595 O 256.565 -0.579113 1.85679 0
M  V30 2596 C 256.848 2.92001 2.1073 0
M  V30 2597 C 256.701 4.28067 1.38125 0
M  V30 2598 C 258.02 3.11283 3.11113 0
M  V30 2599 H 255.139 0.612352 0.410115 0
M  V30 2600 H 257.781 1.85415 0.414869 0
M  V30 2601 H 255.931 2.77519 2.71874 0
M  V30 2602 H 257.603 4.54324 0.799187 0
M  V30 2603 H 255.846 4.28388 0.683092 0
M  V30 2604 H 256.517 5.10733 2.09417 0
M  V30 2605 H 258.993 3.2482 2.6006 0
M  V30 2606 H 257.869 3.99325 3.76605 0
M  V30 2607 H 258.13 2.25656 3.80173 0
M  V30 2608 N 257.189 -0.644168 1.43834 0
M  V30 2609 C 258.121 -1.76955 1.45669 0
M  V30 2610 C 259.134 -1.58956 0.351666 0
M  V30 2611 O 260.323 -1.6751 0.616644 0
M  V30 2612 C 257.423 -3.14507 1.26248 0
M  V30 2613 C 256.596 -3.59083 2.49757 0
M  V30 2614 C 255.655 -4.75467 2.25427 0
M  V30 2615 O 254.681 -4.84444 2.98836 0
M  V30 2616 N 255.883 -5.66289 1.27661 0
M  V30 2617 H 258.648 -1.75856 2.42682 0
M  V30 2618 H 256.209 -0.828312 1.39106 0
M  V30 2619 H 258.201 -3.90067 1.0784 0
M  V30 2620 H 256.771 -3.10325 0.376478 0
M  V30 2621 H 255.991 -2.7387 2.8353 0
M  V30 2622 H 257.279 -3.85613 3.31934 0
M  V30 2623 H 256.677 -5.61718 0.670064 0
M  V30 2624 H 255.234 -6.41533 1.15234 0
M  V30 2625 N 258.668 -1.30515 -0.883378 0
M  V30 2626 C 259.6 -1.12846 -1.99496 0
M  V30 2627 C 260.613 -0.0712571 -1.62644 0
M  V30 2628 O 261.802 -0.317432 -1.75655 0
M  V30 2629 C 258.902 -0.699123 -3.3161 0
M  V30 2630 C 258.075 -1.83842 -3.96889 0
M  V30 2631 C 257.134 -1.39737 -5.07307 0
M  V30 2632 O 256.16 -2.10485 -5.28852 0
M  V30 2633 N 257.362 -0.277279 -5.79837 0
M  V30 2634 H 260.127 -2.08585 -2.15203 0
M  V30 2635 H 257.688 -1.22672 -1.05656 0
M  V30 2636 H 259.68 -0.387044 -4.02845 0
M  V30 2637 H 258.25 0.166276 -3.12157 0
M  V30 2638 H 257.47 -2.31853 -3.18807 0
M  V30 2639 H 258.758 -2.60187 -4.37241 0
M  V30 2640 H 258.156 0.3122 -5.64838 0
M  V30 2641 H 256.713 -0.0246623 -6.51795 0
M  V30 2642 N 260.146 1.09593 -1.13257 0
M  V30 2643 C 261.109 2.14359 -0.811358 0
M  V30 2644 C 262.109 1.59808 0.178377 0
M  V30 2645 O 263.299 1.74132 -0.0484911 0
M  V30 2646 C 260.431 3.40269 -0.207276 0
M  V30 2647 H 261.624 2.44284 -1.73969 0
M  V30 2648 H 259.177 1.25102 -0.936973 0
M  V30 2649 H 259.912 3.15969 0.73036 0
M  V30 2650 H 259.697 3.81154 -0.919992 0
M  V30 2651 H 261.187 4.176 0.000667944 0
M  V30 2652 N 261.624 0.925811 1.2754 0
M  V30 2653 C 262.872 0.564138 1.94067 0
M  V30 2654 C 263.193 -0.897188 1.73134 0
M  V30 2655 O 262.463 -1.63573 1.07799 0
M  V30 2656 H 261.043 0.205645 0.718136 0
M  V30 2657 H 263.705 1.1778 1.55287 0
M  V30 2658 H 262.801 0.76881 3.02483 0
M  V30 2659 N 263.102 -1.41638 0.69111 0
M  V30 2660 C 264.33 -2.05628 0.22909 0
M  V30 2661 C 264.745 -1.51992 -1.11999 0
M  V30 2662 O 264.102 -0.666322 -1.69901 0
M  V30 2663 C 264.153 -3.61084 0.173283 0
M  V30 2664 O 263.874 -4.12735 1.46907 0
M  V30 2665 C 265.375 -4.42213 -0.310266 0
M  V30 2666 H 262.595 -0.662327 0.107534 0
M  V30 2667 H 265.139 -1.81489 0.942438 0
M  V30 2668 H 263.294 -3.84278 -0.490858 0
M  V30 2669 H 263.708 -5.06743 1.35322 0
M  V30 2670 H 265.182 -5.51194 -0.298196 0
M  V30 2671 H 265.659 -4.1799 -1.34838 0
M  V30 2672 H 266.265 -4.24074 0.322716 0
M  V30 2673 N 264.58 -0.43555 -1.51462 0
M  V30 2674 C 265.528 0.391205 -2.29287 0
M  V30 2675 C 266.522 1.02247 -1.35062 0
M  V30 2676 O 267.728 0.957646 -1.52411 0
M  V30 2677 H 264.103 0.144968 -0.737895 0
M  V30 2678 H 266.074 -0.286051 -2.97026 0
M  V30 2679 C 264.823 1.48096 -3.14583 0
M  V30 2680 H 264.146 1.00457 -3.86973 0
M  V30 2681 H 265.586 2.03273 -3.72097 0
M  V30 2682 C 264.045 2.46321 -2.29843 0
M  V30 2683 O 264.575 3.50815 -1.95682 0
M  V30 2684 N 262.781 2.17166 -1.931 0
M  V30 2685 H 262.328 1.32218 -2.21079 0
M  V30 2686 H 262.286 2.83127 -1.36698 0
M  V30 2687 N 266.058 1.56714 -0.166846 0
M  V30 2688 C 267.005 2.17746 0.765193 0
M  V30 2689 C 267.975 1.11614 1.23011 0
M  V30 2690 O 269.16 1.39745 1.29908 0
M  V30 2691 C 266.3 2.81882 1.9909 0
M  V30 2692 C 265.413 4.02462 1.56997 0
M  V30 2693 C 264.548 4.54537 2.749 0
M  V30 2694 C 263.587 5.67538 2.29275 0
M  V30 2695 N 262.724 6.14142 3.40255 0
M  V30 2696 H 267.564 2.97048 0.237952 0
M  V30 2697 H 265.101 1.4672 0.105725 0
M  V30 2698 H 267.059 3.17221 2.70974 0
M  V30 2699 H 265.689 2.05191 2.49192 0
M  V30 2700 H 264.741 3.72973 0.748037 0
M  V30 2701 H 266.053 4.84273 1.19503 0
M  V30 2702 H 265.207 4.92035 3.54946 0
M  V30 2703 H 263.946 3.71774 3.1565 0
M  V30 2704 H 262.951 5.29597 1.47674 0
M  V30 2705 H 264.176 6.52099 1.89588 0
M  V30 2706 H 262.122 5.3431 3.8059 0
M  V30 2707 H 262.039 6.9093 3.06841 0
M  V30 2708 H 263.307 6.56289 4.206 0
M  V30 2709 N 267.536 -0.106894 1.57237 0
M  V30 2710 C 268.764 -0.826389 1.8968 0
M  V30 2711 C 269.179 -1.72856 0.759353 0
M  V30 2712 O 268.536 -1.80503 -0.269263 0
M  V30 2713 C 268.587 -1.64967 3.21665 0
M  V30 2714 O 268.308 -0.783804 4.31031 0
M  V30 2715 C 269.809 -2.47326 3.67892 0
M  V30 2716 H 267.029 -0.236927 0.627779 0
M  V30 2717 H 269.573 -0.0876593 2.04312 0
M  V30 2718 H 267.728 -2.34103 3.08666 0
M  V30 2719 H 268.142 -1.35284 5.06753 0
M  V30 2720 H 269.616 -3.00604 4.6297 0
M  V30 2721 H 270.093 -3.25247 2.95146 0
M  V30 2722 H 270.699 -1.83411 3.83719 0
M  V30 2723 N 269.014 -1.53014 -0.377408 0
M  V30 2724 C 270.291 -1.59215 -1.13622 0
M  V30 2725 C 270.671 -0.392407 -2.07421 0
M  V30 2726 O 270.019 0.618342 -2.19975 0
M  V30 2727 C 270.229 -2.93669 -1.88573 0
M  V30 2728 C 271.577 -3.47822 -2.43526 0
M  V30 2729 O 272.601 -2.9562 -1.98715 0
M  V30 2730 O 271.46 -4.39055 -3.25412 0
M  V30 2731 H 268.554 -0.642625 -0.52054 0
M  V30 2732 H 271.1 -1.65353 -0.381625 0
M  V30 2733 H 269.872 -3.7243 -1.20048 0
M  V30 2734 H 269.495 -2.90968 -2.70968 0
M  V30 2735 N 270.492 0.636531 -1.44174 0
M  V30 2736 C 271.738 1.39826 -1.4689 0
M  V30 2737 C 272.071 1.93947 -0.0990585 0
M  V30 2738 O 271.346 1.73325 0.882544 0
M  V30 2739 C 271.629 2.56751 -2.5249 0
M  V30 2740 C 271.482 2.08014 -3.98811 0
M  V30 2741 C 272.801 3.58946 -2.54649 0
M  V30 2742 H 269.92 0.507075 -0.53483 0
M  V30 2743 H 272.562 0.720188 -1.75822 0
M  V30 2744 H 270.712 3.14597 -2.2795 0
M  V30 2745 H 272.384 1.5504 -4.34466 0
M  V30 2746 H 270.627 1.39242 -4.10846 0
M  V30 2747 H 271.298 2.92169 -4.68339 0
M  V30 2748 H 273.774 3.1089 -2.76563 0
M  V30 2749 H 272.65 4.38286 -3.3045 0
M  V30 2750 H 272.911 4.12655 -1.58646 0
M  V30 2751 N 271.97 1.30982 0.876444 0
M  V30 2752 C 273.216 1.20474 1.63138 0
M  V30 2753 C 273.549 -0.238096 1.92735 0
M  V30 2754 O 272.824 -1.1692 1.55435 0
M  V30 2755 C 273.107 2.04244 2.96574 0
M  V30 2756 C 272.96 3.56793 2.73896 0
M  V30 2757 C 274.279 1.88684 3.97601 0
M  V30 2758 H 271.398 0.439001 0.591985 0
M  V30 2759 H 274.04 1.60704 1.01361 0
M  V30 2760 H 272.19 1.70063 3.493 0
M  V30 2761 H 273.862 4.01077 2.27892 0
M  V30 2762 H 272.105 3.80548 2.08245 0
M  V30 2763 H 272.776 4.10706 3.68815 0
M  V30 2764 H 275.252 2.18584 3.54062 0
M  V30 2765 H 274.128 2.4961 4.88862 0
M  V30 2766 H 274.389 0.848343 4.33884 0
M  V30 2767 N 273.449 -1.08991 1.13837 0
M  V30 2768 C 274.689 -1.82867 0.913183 0
M  V30 2769 C 275.053 -1.83936 -0.550604 0
M  V30 2770 O 276.254 -2.53515 -0.893515 0
M  V30 2771 C 274.525 -3.24843 1.49036 0
M  V30 2772 S 276.084 -4.15669 1.40588 0
M  V30 2773 H 272.902 -0.630278 0.329046 0
M  V30 2774 H 275.504 -1.31049 1.45073 0
M  V30 2775 H 274.208 -3.21644 2.54899 0
M  V30 2776 H 273.739 -3.81734 0.950947 0
M  V30 2777 H 275.754 -4.94686 0.387353 0
M  V30 2778 N 274.927 -0.932562 -1.27047 0
M  V30 2779 C 276.175 -0.574422 -1.93765 0
M  V30 2780 C 276.496 0.887993 -1.73608 0
M  V30 2781 O 275.766 1.62999 -1.08665 0
M  V30 2782 H 274.346 -0.209451 -0.717035 0
M  V30 2783 H 277.008 -1.18601 -1.5466 0
M  V30 2784 H 276.104 -0.784841 -3.02071 0
M  V30 2785 N 276.405 1.4127 -0.698611 0
M  V30 2786 C 277.816 1.84187 -0.305289 0
M  V30 2787 C 278.167 1.58449 1.15708 0
M  V30 2788 O 277.292 1.05651 1.88856 0
M  V30 2789 C 277.887 3.3435 -0.547314 0
M  V30 2790 C 276.446 3.75826 -0.207878 0
M  V30 2791 C 275.593 2.64647 -0.828099 0
M  V30 2792 H 278.544 1.30778 -0.89904 0
M  V30 2793 H 278.565 3.8001 0.192998 0
M  V30 2794 H 278.077 3.53051 -1.61172 0
M  V30 2795 H 276.178 3.62725 0.852143 0
M  V30 2796 H 276.291 4.74462 -0.665021 0
M  V30 2797 H 274.655 2.53395 -0.257458 0
M  V30 2798 H 275.438 2.86165 -1.89643 0
M  V30 2799 N 277.883 0.443576 1.51229 0
M  V30 2800 C 278.815 -0.400608 2.25672 0
M  V30 2801 C 279.828 -0.980945 1.29928 0
M  V30 2802 O 281.017 -0.874024 1.55638 0
M  V30 2803 C 278.117 -1.57304 3.00181 0
M  V30 2804 C 277.29 -1.11046 4.23069 0
M  V30 2805 C 276.349 -2.15374 4.80105 0
M  V30 2806 O 275.375 -1.74554 5.41774 0
M  V30 2807 N 276.577 -3.47922 4.64683 0
M  V30 2808 H 279.342 0.23745 2.98758 0
M  V30 2809 H 276.903 0.272809 1.59585 0
M  V30 2810 H 278.895 -2.26733 3.35223 0
M  V30 2811 H 277.465 -2.11632 2.30066 0
M  V30 2812 H 276.685 -0.243019 3.9345 0
M  V30 2813 H 277.973 -0.778888 5.02803 0
M  V30 2814 H 277.371 -3.83815 4.15575 0
M  V30 2815 H 275.928 -4.13228 5.0407 0
M  V30 2816 N 279.361 -1.56624 0.175154 0
M  V30 2817 C 280.638 -1.88688 -0.515373 0
M  V30 2818 C 281.018 -1.08564 -1.81044 0
M  V30 2819 O 280.366 -0.180703 -2.27784 0
M  V30 2820 C 280.576 -3.40768 -0.753552 0
M  V30 2821 C 281.924 -4.10587 -1.08184 0
M  V30 2822 O 282.948 -3.46106 -0.841961 0
M  V30 2823 O 281.807 -5.24512 -1.53459 0
M  V30 2824 H 278.901 -0.78301 -0.26613 0
M  V30 2825 H 281.447 -1.68347 0.213877 0
M  V30 2826 H 280.219 -3.90965 0.161829 0
M  V30 2827 H 279.842 -3.66733 -1.53598 0
M  V30 2828 N 280.839 0.0985539 -1.57292 0
M  V30 2829 C 282.255 0.45267 -1.53046 0
M  V30 2830 C 282.455 1.80713 -0.891342 0
M  V30 2831 O 281.511 2.4785 -0.482375 0
M  V30 2832 C 282.824 0.418341 -2.97776 0
M  V30 2833 C 284.372 0.500443 -3.08973 0
M  V30 2834 C 284.847 0.496297 -4.55303 0
M  V30 2835 N 286.338 0.557151 -4.59837 0
M  V30 2836 C 287.073 0.575726 -5.70502 0
M  V30 2837 N 286.569 0.550714 -6.90608 0
M  V30 2838 N 288.362 0.620277 -5.58667 0
M  V30 2839 H 280.513 -0.788673 -1.97215 0
M  V30 2840 H 282.776 -0.293188 -0.901524 0
M  V30 2841 H 282.482 -0.509659 -3.47988 0
M  V30 2842 H 282.356 1.2386 -3.56284 0
M  V30 2843 H 284.743 1.41886 -2.58751 0
M  V30 2844 H 284.824 -0.347894 -2.53423 0
M  V30 2845 H 284.468 -0.418162 -5.06176 0
M  V30 2846 H 284.398 1.3618 -5.08687 0
M  V30 2847 H 286.889 0.581816 -3.73394 0
M  V30 2848 H 287.202 0.568075 -7.70709 0
M  V30 2849 H 285.547 0.517816 -6.93068 0
M  V30 2850 H 288.738 0.637322 -4.63741 0
M  V30 2851 H 288.911 0.631283 -6.44918 0
M  V30 2852 N 282.317 1.53212 0.369288 0
M  V30 2853 C 283.247 1.82365 1.45826 0
M  V30 2854 C 284.228 0.676907 1.56051 0
M  V30 2855 O 285.413 0.926401 1.70679 0
M  V30 2856 C 282.543 2.01023 2.83208 0
M  V30 2857 C 281.497 3.1678 2.8781 0
M  V30 2858 C 280.823 3.20724 4.27832 0
M  V30 2859 C 282.123 4.55447 2.55667 0
M  V30 2860 H 283.817 2.73559 1.21678 0
M  V30 2861 H 281.363 1.3163 0.583911 0
M  V30 2862 H 283.316 2.20001 3.59413 0
M  V30 2863 H 282.04 1.06536 3.08736 0
M  V30 2864 H 280.699 2.97616 2.14056 0
M  V30 2865 H 280.347 2.23882 4.50429 0
M  V30 2866 H 280.047 3.98496 4.31827 0
M  V30 2867 H 281.571 3.41881 5.05915 0
M  V30 2868 H 282.985 4.74611 3.21586 0
M  V30 2869 H 281.382 5.35432 2.70984 0
M  V30 2870 H 282.452 4.60812 1.5093 0
M  V30 2871 N 283.795 -0.628877 1.44509 0
M  V30 2872 C 285.211 -0.947305 1.28446 0
M  V30 2873 C 285.411 -2.00275 0.221872 0
M  V30 2874 O 284.467 -2.49447 -0.391471 0
M  V30 2875 C 285.78 -1.40843 2.65676 0
M  V30 2876 C 287.328 -1.52379 2.73404 0
M  V30 2877 C 287.803 -2.01875 4.11109 0
M  V30 2878 N 289.294 -2.09142 4.13296 0
M  V30 2879 C 290.029 -2.48615 5.16699 0
M  V30 2880 N 289.525 -2.87209 6.30462 0
M  V30 2881 N 291.318 -2.48768 5.04054 0
M  V30 2882 H 283.469 0.0690977 2.12288 0
M  V30 2883 H 285.732 -0.0317164 0.947469 0
M  V30 2884 H 285.438 -0.707206 3.44516 0
M  V30 2885 H 285.312 -2.37902 2.92716 0
M  V30 2886 H 287.699 -2.21598 1.9488 0
M  V30 2887 H 287.78 -0.536898 2.50102 0
M  V30 2888 H 287.424 -1.3325 4.90109 0
M  V30 2889 H 287.354 -3.0144 4.31789 0
M  V30 2890 H 289.845 -1.81991 3.31191 0
M  V30 2891 H 290.158 -3.16149 7.05174 0
M  V30 2892 H 288.503 -2.84955 6.33897 0
M  V30 2893 H 291.694 -2.18009 4.14234 0
M  V30 2894 H 291.867 -2.79207 5.84763 0
M  V30 2895 N 285.273 -1.31445 -0.869486 0
M  V30 2896 C 286.236 -1.19094 -1.9583 0
M  V30 2897 C 287.236 -0.117906 -1.60367 0
M  V30 2898 O 288.426 -0.367208 -1.70286 0
M  V30 2899 C 285.558 -0.828165 -3.30688 0
M  V30 2900 H 286.751 -2.15842 -2.08212 0
M  V30 2901 H 284.304 -1.15063 -1.05784 0
M  V30 2902 H 285.039 0.138142 -3.24006 0
M  V30 2903 H 284.824 -1.6038 -3.578 0
M  V30 2904 H 286.314 -0.765658 -4.10521 0
M  V30 2905 N 286.751 1.08385 -1.14413 0
M  V30 2906 C 287.681 2.17321 -0.854044 0
M  V30 2907 C 288.662 1.69024 0.191049 0
M  V30 2908 O 289.847 1.94141 0.0476779 0
M  V30 2909 C 286.977 3.45719 -0.330983 0
M  V30 2910 C 285.931 4.07409 -1.31155 0
M  V30 2911 C 285.257 5.30762 -0.64778 0
M  V30 2912 C 286.557 4.48665 -2.67388 0
M  V30 2913 H 288.251 2.41845 -1.76498 0
M  V30 2914 H 285.797 1.16233 -0.850051 0
M  V30 2915 H 287.75 4.21241 -0.115645 0
M  V30 2916 H 286.474 3.2075 0.615381 0
M  V30 2917 H 285.133 3.33919 -1.51306 0
M  V30 2918 H 284.781 5.02078 0.304398 0
M  V30 2919 H 284.481 5.72992 -1.30207 0
M  V30 2920 H 286.005 6.08998 -0.441972 0
M  V30 2921 H 287.419 5.15364 -2.51143 0
M  V30 2922 H 285.816 5.01814 -3.29093 0
M  V30 2923 H 286.886 3.60543 -3.24248 0
M  V30 2924 N 288.23 0.939286 1.26551 0
M  V30 2925 C 289.476 0.586715 1.94128 0
M  V30 2926 C 289.809 -0.8717 1.73537 0
M  V30 2927 O 289.084 -1.62339 1.07127 0
M  V30 2928 C 289.367 0.927497 3.4795 0
M  V30 2929 C 289.22 2.44052 3.77834 0
M  V30 2930 C 290.539 0.441569 4.37879 0
M  V30 2931 H 287.658 0.21463 0.705055 0
M  V30 2932 H 290.3 1.17316 1.49455 0
M  V30 2933 H 288.45 0.428431 3.8613 0
M  V30 2934 H 290.122 3.01216 3.4938 0
M  V30 2935 H 288.365 2.8848 3.23978 0
M  V30 2936 H 289.036 2.62947 4.85348 0
M  V30 2937 H 291.512 0.869448 4.06915 0
M  V30 2938 H 290.388 0.708856 5.44304 0
M  V30 2939 H 290.649 -0.658467 4.37169 0
M  V30 2940 N 289.708 -1.40897 0.706093 0
M  V30 2941 C 290.954 -2.01352 0.241889 0
M  V30 2942 C 291.287 -1.55832 -1.15888 0
M  V30 2943 O 290.562 -0.774145 -1.7843 0
M  V30 2944 C 290.845 -3.58752 0.311311 0
M  V30 2945 C 290.698 -4.1437 1.74978 0
M  V30 2946 C 292.017 -4.38914 -0.322922 0
M  V30 2947 H 289.136 -0.731562 0.0893687 0
M  V30 2948 H 291.778 -1.67504 0.896802 0
M  V30 2949 H 289.928 -3.87718 -0.246302 0
M  V30 2950 H 291.6 -3.96239 2.36205 0
M  V30 2951 H 289.843 -3.69016 2.28057 0
M  V30 2952 H 290.514 -5.23532 1.74981 0
M  V30 2953 H 292.99 -4.15822 0.152089 0
M  V30 2954 H 291.866 -5.48358 -0.243855 0
M  V30 2955 H 292.127 -4.19176 -1.40513 0
M  V30 2956 N 291.186 -0.45159 -1.50991 0
M  V30 2957 C 292.435 0.111653 -2.01391 0
M  V30 2958 C 292.748 1.42529 -1.33959 0
M  V30 2959 O 293.954 2.07232 -1.75405 0
M  V30 2960 C 292.41 0.249514 -3.59034 0
M  V30 2961 C 292.018 -1.05453 -4.35412 0
M  V30 2962 C 293.762 0.765762 -4.17536 0
M  V30 2963 C 291.669 -0.881529 -5.84793 0
M  V30 2964 H 290.599 0.0455022 -0.752626 0
M  V30 2965 H 293.25 -0.583524 -1.73975 0
M  V30 2966 H 291.632 1.00803 -3.82955 0
M  V30 2967 H 292.806 -1.82248 -4.23229 0
M  V30 2968 H 291.121 -1.50039 -3.88429 0
M  V30 2969 H 293.718 0.911913 -5.26866 0
M  V30 2970 H 294.061 1.75201 -3.77638 0
M  V30 2971 H 294.594 0.0651744 -3.97747 0
M  V30 2972 H 291.333 -1.84057 -6.29129 0
M  V30 2973 H 290.853 -0.153625 -5.99603 0
M  V30 2974 H 292.532 -0.540363 -6.4474 0
M  V30 2975 N 292.664 1.56529 -0.183458 0
M  V30 2976 C 294.075 1.83739 0.331177 0
M  V30 2977 C 294.426 1.10373 1.62211 0
M  V30 2978 O 293.551 0.36071 2.13373 0
M  V30 2979 C 294.146 3.33306 0.607646 0
M  V30 2980 C 292.705 3.60969 1.06668 0
M  V30 2981 C 291.852 2.77086 0.109029 0
M  V30 2982 H 294.803 1.53379 -0.407484 0
M  V30 2983 H 294.824 3.51444 1.45832 0
M  V30 2984 H 294.336 3.86677 -0.332086 0
M  V30 2985 H 292.437 3.13021 2.0211 0
M  V30 2986 H 292.55 4.69231 0.967447 0
M  V30 2987 H 290.914 2.47319 0.608714 0
M  V30 2988 H 291.697 3.33241 -0.82494 0
M  V30 2989 N 294.142 -0.090211 1.57342 0
M  V30 2990 C 295.391 -0.791531 1.8552 0
M  V30 2991 C 295.704 -1.79659 0.773441 0
M  V30 2992 O 296.91 -2.54616 0.942497 0
M  V30 2993 C 295.366 -1.45856 3.2902 0
M  V30 2994 C 294.974 -0.493017 4.45279 0
M  V30 2995 C 296.718 -2.14332 3.66418 0
M  V30 2996 C 294.625 -1.16491 5.79814 0
M  V30 2997 H 293.555 -0.299356 0.692027 0
M  V30 2998 H 296.206 -0.0445343 1.83446 0
M  V30 2999 H 294.588 -2.25318 3.2565 0
M  V30 3000 H 295.762 0.270464 4.60006 0
M  V30 3001 H 294.077 0.0863061 4.16311 0
M  V30 3002 H 296.674 -2.65344 4.64216 0
M  V30 3003 H 297.017 -2.93447 2.95287 0
M  V30 3004 H 297.55 -1.41724 3.71698 0
M  V30 3005 H 294.289 -0.41447 6.54188 0
M  V30 3006 H 293.809 -1.8997 5.68921 0
M  V30 3007 H 295.488 -1.69001 6.24538 0
M  V30 3008 N 295.62 -1.53406 -0.361157 0
M  V30 3009 C 296.869 -1.69022 -1.10066 0
M  V30 3010 C 297.182 -0.450838 -1.90333 0
M  V30 3011 O 298.388 -0.487617 -2.67085 0
M  V30 3012 C 296.844 -2.98812 -2.00598 0
M  V30 3013 C 296.452 -4.30027 -1.25621 0
M  V30 3014 C 298.196 -3.23795 -2.74513 0
M  V30 3015 C 296.103 -5.50903 -2.1508 0
M  V30 3016 H 295.033 -0.629776 -0.414606 0
M  V30 3017 H 297.684 -1.79907 -0.361348 0
M  V30 3018 H 296.066 -2.8174 -2.78278 0
M  V30 3019 H 297.24 -4.57745 -0.529739 0
M  V30 3020 H 295.555 -4.11522 -0.635496 0
M  V30 3021 H 298.152 -4.11289 -3.41681 0
M  V30 3022 H 298.495 -2.40045 -3.40123 0
M  V30 3023 H 299.028 -3.41561 -2.03914 0
M  V30 3024 H 295.767 -6.37143 -1.54041 0
M  V30 3025 H 295.287 -5.27459 -2.85565 0
M  V30 3026 H 296.966 -5.85865 -2.74538 0
M  V30 3027 N 297.098 0.621204 -1.44841 0
M  V30 3028 C 298.345 1.38055 -1.48145 0
M  V30 3029 C 298.673 1.94143 -0.117867 0
M  V30 3030 O 297.928 1.74713 0.881694 0
M  V30 3031 C 298.227 2.55675 -2.4973 0
M  V30 3032 C 297.893 2.17817 -3.94799 0
M  V30 3033 C 296.555 2.07205 -4.34303 0
M  V30 3034 C 298.907 1.88065 -4.86087 0
M  V30 3035 C 296.235 1.65045 -5.63007 0
M  V30 3036 C 298.587 1.47394 -6.15189 0
M  V30 3037 C 297.251 1.35331 -6.53637 0
M  V30 3038 H 296.521 0.505181 -0.542101 0
M  V30 3039 H 299.168 0.703477 -1.78111 0
M  V30 3040 H 297.473 3.2866 -2.13284 0
M  V30 3041 H 299.17 3.13904 -2.4953 0
M  V30 3042 H 295.76 2.26998 -3.63552 0
M  V30 3043 H 299.944 1.95168 -4.56315 0
M  V30 3044 H 295.2 1.54317 -5.91605 0
M  V30 3045 H 299.374 1.23415 -6.85377 0
M  V30 3046 H 297.001 1.02435 -7.53267 0
M  V30 3047 N 298.576 1.31904 0.862503 0
M  V30 3048 C 299.824 1.21776 1.61292 0
M  V30 3049 C 300.145 -0.222413 1.93727 0
M  V30 3050 O 299.415 -1.1451 1.58947 0
M  V30 3051 H 297.995 0.447717 0.597962 0
M  V30 3052 H 300.657 1.65326 1.03215 0
M  V30 3053 H 299.753 1.7948 2.5533 0
M  V30 3054 N 300.054 -1.07777 1.14986 0
M  V30 3055 C 301.303 -1.79669 0.916617 0
M  V30 3056 C 301.616 -1.87474 -0.557917 0
M  V30 3057 O 302.822 -2.55845 -0.908617 0
M  V30 3058 C 301.278 -3.22848 1.59051 0
M  V30 3059 C 300.886 -3.23257 3.10176 0
M  V30 3060 C 302.63 -3.99379 1.43864 0
M  V30 3061 C 300.537 -4.61063 3.70372 0
M  V30 3062 H 299.467 -0.673349 0.33929 0
M  V30 3063 H 302.118 -1.21003 1.37951 0
M  V30 3064 H 300.5 -3.8168 1.0553 0
M  V30 3065 H 301.674 -2.74095 3.70417 0
M  V30 3066 H 299.989 -2.60222 3.25074 0
M  V30 3067 H 302.586 -5.0122 1.86232 0
M  V30 3068 H 302.929 -4.14511 0.385564 0
M  V30 3069 H 303.462 -3.47032 1.94457 0
M  V30 3070 H 300.201 -4.51135 4.7556 0
M  V30 3071 H 299.721 -5.1048 3.14913 0
M  V30 3072 H 301.4 -5.30034 3.71043 0
M  V30 3073 N 301.532 -0.945985 -1.26051 0
M  V30 3074 C 302.462 -0.477172 -2.28572 0
M  V30 3075 C 303.443 0.472032 -1.63419 0
M  V30 3076 O 304.628 0.372853 -1.90587 0
M  V30 3077 C 301.758 0.253975 -3.4637 0
M  V30 3078 C 300.712 -0.609135 -4.23643 0
M  V30 3079 C 300.038 0.252252 -5.34105 0
M  V30 3080 C 301.338 -1.8829 -4.8718 0
M  V30 3081 H 303.032 -1.33402 -2.68038 0
M  V30 3082 H 300.578 -0.642904 -1.28852 0
M  V30 3083 H 302.531 0.593016 -4.17207 0
M  V30 3084 H 301.255 1.145 -3.05871 0
M  V30 3085 H 299.914 -0.931138 -3.54578 0
M  V30 3086 H 299.562 1.14278 -4.89846 0
M  V30 3087 H 299.262 -0.32188 -5.86718 0
M  V30 3088 H 300.786 0.586454 -6.07777 0
M  V30 3089 H 302.2 -1.61081 -5.50205 0
M  V30 3090 H 300.597 -2.40199 -5.49931 0
M  V30 3091 H 301.667 -2.59134 -4.09851 0
M  V30 3092 N 303.011 1.40521 -0.713556 0
M  V30 3093 C 304.258 2.00923 -0.25219 0
M  V30 3094 C 304.586 1.56571 1.15395 0
M  V30 3095 O 303.841 0.775874 1.79663 0
M  V30 3096 C 304.14 3.56317 -0.278 0
M  V30 3097 C 303.806 4.20246 -1.63415 0
M  V30 3098 C 302.468 4.37422 -2.00538 0
M  V30 3099 C 304.82 4.55923 -2.52554 0
M  V30 3100 C 302.148 4.87558 -3.2635 0
M  V30 3101 C 304.5 5.07458 -3.77716 0
M  V30 3102 C 303.164 5.22843 -4.14959 0
M  V30 3103 H 302.434 0.735231 -0.0922829 0
M  V30 3104 H 305.081 1.68161 -0.916188 0
M  V30 3105 H 303.386 3.88976 0.469567 0
M  V30 3106 H 305.083 4.00883 0.0967819 0
M  V30 3107 H 301.673 4.07263 -1.33546 0
M  V30 3108 H 305.857 4.42291 -2.25149 0
M  V30 3109 H 301.113 4.97654 -3.55176 0
M  V30 3110 H 305.287 5.34041 -4.4696 0
M  V30 3111 H 302.914 5.61454 -5.12516 0
M  V30 3112 N 304.489 0.459591 1.5075 0
M  V30 3113 C 305.452 -0.329093 2.26825 0
M  V30 3114 C 306.452 -0.930481 1.31144 0
M  V30 3115 O 307.642 -0.801453 1.54669 0
M  V30 3116 C 304.774 -1.46768 3.07688 0
M  V30 3117 H 305.967 0.337924 2.9799 0
M  V30 3118 H 303.52 0.213336 1.54837 0
M  V30 3119 H 304.255 -2.17009 2.40993 0
M  V30 3120 H 304.04 -1.04238 3.77991 0
M  V30 3121 H 305.53 -2.02433 3.65254 0
M  V30 3122 N 305.967 -1.56429 0.191757 0
M  V30 3123 C 307.216 -1.9666 -0.448088 0
M  V30 3124 C 307.529 -1.08136 -1.62991 0
M  V30 3125 O 308.735 -1.38135 -2.33733 0
M  V30 3126 C 307.191 -3.49753 -0.848585 0
M  V30 3127 C 306.799 -4.46935 0.308764 0
M  V30 3128 C 308.543 -3.9876 -1.4557 0
M  V30 3129 C 306.45 -5.91293 -0.112506 0
M  V30 3130 H 305.38 -0.734312 -0.171179 0
M  V30 3131 H 308.031 -1.81301 0.283242 0
M  V30 3132 H 306.413 -3.60604 -1.63649 0
M  V30 3133 H 307.587 -4.47813 1.08627 0
M  V30 3134 H 305.902 -4.08102 0.827158 0
M  V30 3135 H 308.499 -5.04086 -1.78328 0
M  V30 3136 H 308.842 -3.42875 -2.36099 0
M  V30 3137 H 309.375 -3.9101 -0.731836 0
M  V30 3138 H 306.114 -6.51097 0.758514 0
M  V30 3139 H 305.634 -5.93676 -0.854941 0
M  V30 3140 H 307.313 -6.44663 -0.549448 0
M  V30 3141 N 307.445 0.0818655 -1.57387 0
M  V30 3142 C 308.375 1.09885 -2.06028 0
M  V30 3143 C 309.356 1.4098 -0.951774 0
M  V30 3144 O 310.541 1.50781 -1.22387 0
M  V30 3145 C 307.671 2.4151 -2.4958 0
M  V30 3146 C 306.625 2.24792 -3.64215 0
M  V30 3147 C 305.951 3.61712 -3.93787 0
M  V30 3148 C 307.251 1.67749 -4.94629 0
M  V30 3149 H 308.945 0.694128 -2.91243 0
M  V30 3150 H 306.491 0.332448 -1.4011 0
M  V30 3151 H 308.444 3.12939 -2.82219 0
M  V30 3152 H 307.168 2.83943 -1.61381 0
M  V30 3153 H 305.827 1.55807 -3.31843 0
M  V30 3154 H 305.475 4.01697 -3.02735 0
M  V30 3155 H 305.175 3.51368 -4.70971 0
M  V30 3156 H 306.699 4.34587 -4.28913 0
M  V30 3157 H 308.113 2.29032 -5.25564 0
M  V30 3158 H 306.51 1.68128 -5.76067 0
M  V30 3159 H 307.58 0.638059 -4.80684 0
M  V30 3160 N 308.923 1.53595 0.353017 0
M  V30 3161 C 309.853 1.83902 1.43883 0
M  V30 3162 C 310.834 0.693421 1.55324 0
M  V30 3163 O 312.019 0.944452 1.69687 0
M  V30 3164 C 309.149 2.04016 2.8106 0
M  V30 3165 C 308.103 3.19814 2.84434 0
M  V30 3166 C 307.429 3.25244 4.24406 0
M  V30 3167 C 308.729 4.58133 2.50822 0
M  V30 3168 H 310.423 2.74835 1.1877 0
M  V30 3169 H 307.969 1.32242 0.569917 0
M  V30 3170 H 309.922 2.238 3.57059 0
M  V30 3171 H 308.646 1.09804 3.07588 0
M  V30 3172 H 307.305 2.9987 2.10887 0
M  V30 3173 H 306.953 2.28646 4.48029 0
M  V30 3174 H 306.653 4.03054 4.27576 0
M  V30 3175 H 308.177 3.47228 5.0226 0
M  V30 3176 H 309.591 4.77995 3.16534 0
M  V30 3177 H 307.988 5.38276 2.6529 0
M  V30 3178 H 309.058 4.62387 1.46034 0
M  V30 3179 N 310.401 -0.613514 1.45168 0
M  V30 3180 C 311.647 -1.37471 1.49096 0
M  V30 3181 C 311.98 -1.93765 0.129901 0
M  V30 3182 O 311.255 -1.74707 -0.854858 0
M  V30 3183 C 311.538 -2.52701 2.56542 0
M  V30 3184 C 311.391 -2.01643 4.0207 0
M  V30 3185 C 312.71 -3.54849 2.60327 0
M  V30 3186 H 309.829 -0.498502 0.54283 0
M  V30 3187 H 312.471 -0.692125 1.76945 0
M  V30 3188 H 310.621 -3.10931 2.32926 0
M  V30 3189 H 312.293 -1.48108 4.36877 0
M  V30 3190 H 310.536 -1.32688 4.13009 0
M  V30 3191 H 311.207 -2.84681 4.72928 0
M  V30 3192 H 313.683 -3.0645 2.81474 0
M  V30 3193 H 312.559 -4.32973 3.37381 0
M  V30 3194 H 312.82 -4.10079 1.6519 0
M  V30 3195 N 311.879 -1.3236 -0.855495 0
M  V30 3196 C 312.809 -1.23833 -1.97958 0
M  V30 3197 C 313.79 -0.122361 -1.69659 0
M  V30 3198 O 314.975 -0.30939 -1.9172 0
M  V30 3199 C 312.105 -0.959772 -3.33775 0
M  V30 3200 C 311.059 -2.03689 -3.76424 0
M  V30 3201 C 310.385 -1.61075 -5.09862 0
M  V30 3202 C 311.685 -3.4518 -3.9198 0
M  V30 3203 H 313.379 -2.1788 -2.0535 0
M  V30 3204 H 310.925 -1.04891 -0.986605 0
M  V30 3205 H 312.878 -0.886678 -4.11966 0
M  V30 3206 H 311.602 0.0163404 -3.26596 0
M  V30 3207 H 310.261 -2.10012 -3.00484 0
M  V30 3208 H 309.909 -0.622107 -4.99138 0
M  V30 3209 H 309.609 -2.33143 -5.39368 0
M  V30 3210 H 311.133 -1.55201 -5.90546 0
M  V30 3211 H 312.547 -3.4145 -4.60526 0
M  V30 3212 H 310.944 -4.1559 -4.32903 0
M  V30 3213 H 312.014 -3.84903 -2.94919 0
M  V30 3214 N 313.357 1.07166 -1.15556 0
M  V30 3215 C 314.603 1.80065 -0.932984 0
M  V30 3216 C 314.936 1.86586 0.53845 0
M  V30 3217 O 314.211 1.35098 1.39924 0
M  V30 3218 C 314.494 3.25022 -1.55025 0
M  V30 3219 C 314.347 3.26634 -3.09242 0
M  V30 3220 C 315.666 4.22341 -1.2376 0
M  V30 3221 H 312.785 0.653697 -0.340366 0
M  V30 3222 H 315.427 1.25389 -1.4275 0
M  V30 3223 H 313.577 3.71712 -1.12972 0
M  V30 3224 H 315.249 2.88173 -3.60214 0
M  V30 3225 H 313.492 2.65539 -3.43033 0
M  V30 3226 H 314.163 4.28854 -3.47546 0
M  V30 3227 H 316.639 3.8405 -1.60139 0
M  V30 3228 H 315.515 5.22053 -1.69564 0
M  V30 3229 H 315.776 4.41828 -0.154938 0
M  V30 3230 N 314.835 0.952656 1.25548 0
M  V30 3231 C 316.082 0.606373 1.93208 0
M  V30 3232 C 316.41 -0.85631 1.74636 0
M  V30 3233 O 315.665 -1.62951 1.08376 0
M  V30 3234 C 315.964 0.908818 3.45652 0
M  V30 3235 C 315.63 2.35722 3.84378 0
M  V30 3236 C 314.292 2.75312 3.9466 0
M  V30 3237 C 316.644 3.29793 4.03591 0
M  V30 3238 C 313.972 4.08047 4.21562 0
M  V30 3239 C 316.324 4.62138 4.31985 0
M  V30 3240 C 314.988 5.01528 4.40484 0
M  V30 3241 H 314.258 0.221888 0.706998 0
M  V30 3242 H 316.905 1.20132 1.49133 0
M  V30 3243 H 315.21 0.231456 3.91116 0
M  V30 3244 H 316.907 0.619498 3.96186 0
M  V30 3245 H 313.497 2.04017 3.76928 0
M  V30 3246 H 317.681 3.00397 3.95064 0
M  V30 3247 H 312.937 4.38212 4.26357 0
M  V30 3248 H 317.111 5.35012 4.45797 0
M  V30 3249 H 314.738 6.04406 4.61083 0
M  V30 3250 N 316.313 -1.40141 0.720998 0
M  V30 3251 C 317.562 -2.0002 0.259804 0
M  V30 3252 C 317.875 -1.57839 -1.15526 0
M  V30 3253 O 319.081 -2.10455 -1.71525 0
M  V30 3254 C 317.537 -3.57516 0.413566 0
M  V30 3255 C 317.145 -4.08667 1.83562 0
M  V30 3256 C 318.889 -4.24498 0.0134387 0
M  V30 3257 C 316.796 -5.58686 1.93968 0
M  V30 3258 H 315.726 -0.748195 0.0933806 0
M  V30 3259 H 318.377 -1.60313 0.892866 0
M  V30 3260 H 316.759 -3.9495 -0.288169 0
M  V30 3261 H 317.933 -3.82598 2.56817 0
M  V30 3262 H 316.248 -3.543 2.1877 0
M  V30 3263 H 318.845 -5.34654 0.0703954 0
M  V30 3264 H 319.188 -4.03375 -1.02927 0
M  V30 3265 H 319.721 -3.92188 0.665815 0
M  V30 3266 H 316.46 -5.8467 2.96379 0
M  V30 3267 H 315.98 -5.86602 1.25131 0
M  V30 3268 H 317.659 -6.23875 1.71431 0
M  V30 3269 N 317.792 -0.46758 -1.50504 0
M  V30 3270 C 318.739 0.328413 -2.28452 0
M  V30 3271 C 319.709 0.990313 -1.33349 0
M  V30 3272 O 320.894 1.00343 -1.62284 0
M  V30 3273 C 318.034 1.40648 -3.15138 0
M  V30 3274 C 317.147 0.759709 -4.25267 0
M  V30 3275 C 316.282 1.81537 -4.99217 0
M  V30 3276 C 315.321 1.14866 -6.01226 0
M  V30 3277 N 314.458 2.14702 -6.68467 0
M  V30 3278 H 319.298 -0.342603 -2.96024 0
M  V30 3279 H 316.835 -0.180801 -1.45985 0
M  V30 3280 H 318.793 2.04315 -3.63746 0
M  V30 3281 H 317.423 2.04671 -2.49619 0
M  V30 3282 H 316.475 0.0105671 -3.80399 0
M  V30 3283 H 317.787 0.233243 -4.98254 0
M  V30 3284 H 316.941 2.52793 -5.51526 0
M  V30 3285 H 315.68 2.37564 -4.25928 0
M  V30 3286 H 314.685 0.42171 -5.4818 0
M  V30 3287 H 315.91 0.595334 -6.76485 0
M  V30 3288 H 313.856 2.69752 -5.97972 0
M  V30 3289 H 313.773 1.6703 -7.37317 0
M  V30 3290 H 315.041 2.85348 -7.25394 0
M  V30 3291 N 319.27 1.56325 -0.20005 0
M  V30 3292 C 320.217 2.1932 0.718833 0
M  V30 3293 C 321.187 1.14198 1.20615 0
M  V30 3294 O 322.372 1.42469 1.26914 0
M  V30 3295 C 319.512 2.86041 1.93066 0
M  V30 3296 C 318.625 4.05702 1.48425 0
M  V30 3297 C 317.76 4.60266 2.65196 0
M  V30 3298 C 316.799 5.72273 2.17185 0
M  V30 3299 N 315.936 6.21221 3.27152 0
M  V30 3300 H 320.776 2.97486 0.17489 0
M  V30 3301 H 318.313 1.46911 0.0745794 0
M  V30 3302 H 320.271 3.22897 2.64184 0
M  V30 3303 H 318.901 2.1043 2.44783 0
M  V30 3304 H 317.953 3.74475 0.668755 0
M  V30 3305 H 319.265 4.86699 1.09204 0
M  V30 3306 H 318.419 4.99453 3.4443 0
M  V30 3307 H 317.158 3.78386 3.07693 0
M  V30 3308 H 316.163 5.3261 1.36407 0
M  V30 3309 H 317.388 6.55974 1.75713 0
M  V30 3310 H 315.334 5.42263 3.69171 0
M  V30 3311 H 315.251 6.97284 2.92116 0
M  V30 3312 H 316.519 6.65063 4.06585 0
M  V30 3313 N 320.748 -0.0735177 1.57428 0
M  V30 3314 C 321.994 -0.774145 1.87443 0
M  V30 3315 C 322.327 -1.77311 0.792103 0
M  V30 3316 O 321.602 -1.93492 -0.197793 0
M  V30 3317 C 321.885 -1.48367 3.28115 0
M  V30 3318 C 321.738 -0.501227 4.46999 0
M  V30 3319 C 323.057 -2.429 3.66998 0
M  V30 3320 H 320.176 -0.279971 0.681752 0
M  V30 3321 H 322.818 -0.0373616 1.89963 0
M  V30 3322 H 320.968 -2.11171 3.26097 0
M  V30 3323 H 322.64 0.121468 4.6114 0
M  V30 3324 H 320.883 0.183593 4.33411 0
M  V30 3325 H 321.554 -1.03526 5.42205 0
M  V30 3326 H 324.03 -1.90175 3.70098 0
M  V30 3327 H 322.906 -2.89549 4.66318 0
M  V30 3328 H 323.167 -3.27628 2.96837 0
M  V30 3329 N 322.226 -1.5378 -0.344866 0
M  V30 3330 C 323.189 -1.80981 -1.40637 0
M  V30 3331 C 324.189 -0.680816 -1.45676 0
M  V30 3332 O 325.379 -0.949095 -1.46075 0
M  V30 3333 C 322.511 -1.95063 -2.79577 0
M  V30 3334 H 323.704 -2.75803 -1.17783 0
M  V30 3335 H 321.257 -1.45173 -0.579181 0
M  V30 3336 H 321.992 -1.02379 -3.07716 0
M  V30 3337 H 321.777 -2.77198 -2.77315 0
M  V30 3338 H 323.267 -2.17629 -3.56409 0
M  V30 3339 N 323.704 0.605807 -1.45491 0
M  V30 3340 C 324.651 1.7164 -1.54299 0
M  V30 3341 C 325.621 1.61486 -0.388761 0
M  V30 3342 O 326.806 1.81039 -0.602445 0
M  V30 3343 C 323.946 3.09953 -1.51734 0
M  V30 3344 C 323.059 3.309 -2.77721 0
M  V30 3345 C 322.194 4.59329 -2.66816 0
M  V30 3346 C 321.233 4.7354 -3.87848 0
M  V30 3347 N 320.37 5.9327 -3.75467 0
M  V30 3348 H 325.21 1.63449 -2.49176 0
M  V30 3349 H 322.747 0.796957 -1.23641 0
M  V30 3350 H 324.705 3.89977 -1.48235 0
M  V30 3351 H 323.335 3.17098 -0.604068 0
M  V30 3352 H 322.387 2.44639 -2.913 0
M  V30 3353 H 323.699 3.37274 -3.67488 0
M  V30 3354 H 322.853 5.4755 -2.61292 0
M  V30 3355 H 321.592 4.55355 -1.74651 0
M  V30 3356 H 320.597 3.83741 -3.93729 0
M  V30 3357 H 321.822 4.79309 -4.81082 0
M  V30 3358 H 319.768 5.90338 -2.86072 0
M  V30 3359 H 319.685 6.00811 -4.5887 0
M  V30 3360 H 320.953 6.83984 -3.73879 0
M  V30 3361 N 325.182 1.32811 0.848464 0
M  V30 3362 C 326.129 1.22265 1.95755 0
M  V30 3363 C 327.099 0.103413 1.65778 0
M  V30 3364 O 328.284 0.280033 1.88734 0
M  V30 3365 C 325.424 0.958014 3.31536 0
M  V30 3366 C 324.537 2.16262 3.73971 0
M  V30 3367 C 323.672 1.83295 4.98575 0
M  V30 3368 C 322.711 3.00041 5.33518 0
M  V30 3369 N 321.848 2.67125 6.49299 0
M  V30 3370 H 326.688 2.17128 2.04107 0
M  V30 3371 H 324.225 1.07982 0.998913 0
M  V30 3372 H 326.183 0.785052 4.09747 0
M  V30 3373 H 324.813 0.046159 3.22767 0
M  V30 3374 H 323.865 2.44565 2.91362 0
M  V30 3375 H 325.177 3.03572 3.95785 0
M  V30 3376 H 324.331 1.62586 5.84509 0
M  V30 3377 H 323.07 0.932078 4.7871 0
M  V30 3378 H 322.075 3.21374 4.46093 0
M  V30 3379 H 323.3 3.90869 5.55336 0
M  V30 3380 H 321.246 1.79586 6.3094 0
M  V30 3381 H 321.163 3.47965 6.71161 0
M  V30 3382 H 322.431 2.49861 7.3837 0
M  V30 3383 N 326.66 -1.06551 1.16123 0
M  V30 3384 C 328.071 -1.60768 0.949232 0
M  V30 3385 C 328.422 -1.89523 -0.507508 0
M  V30 3386 O 327.547 -1.66671 -1.38021 0
M  V30 3387 C 328.142 -2.92086 1.71671 0
M  V30 3388 C 326.701 -3.43015 1.54977 0
M  V30 3389 C 325.848 -2.16947 1.72711 0
M  V30 3390 H 328.799 -0.895354 1.31031 0
M  V30 3391 H 328.82 -3.6138 1.19099 0
M  V30 3392 H 328.332 -2.71127 2.7769 0
M  V30 3393 H 326.433 -3.69039 0.513873 0
M  V30 3394 H 326.546 -4.18516 2.33198 0
M  V30 3395 H 324.91 -2.27041 1.15431 0
M  V30 3396 H 325.693 -1.98473 2.80113 0
M  V30 3397 N 328.138 -0.959301 -1.25041 0
M  V30 3398 C 329.366 -0.633949 -1.96948 0
M  V30 3399 C 329.781 0.794916 -1.7125 0
M  V30 3400 O 329.138 1.53231 -0.991287 0
M  V30 3401 C 329.189 -0.888805 -3.50403 0
M  V30 3402 O 328.91 -2.26149 -3.75218 0
M  V30 3403 C 330.411 -0.576482 -4.39536 0
M  V30 3404 H 327.631 -0.237263 -0.627652 0
M  V30 3405 H 330.175 -1.28495 -1.59089 0
M  V30 3406 H 328.33 -0.284145 -3.86357 0
M  V30 3407 H 328.744 -2.33514 -4.6965 0
M  V30 3408 H 330.218 -0.805314 -5.46094 0
M  V30 3409 H 330.695 0.489075 -4.36468 0
M  V30 3410 H 331.301 -1.16067 -4.09156 0
M  V30 3411 N 329.616 1.39756 -0.72842 0
M  V30 3412 C 330.564 2.32485 -0.0731849 0
M  V30 3413 C 331.558 1.52717 0.733063 0
M  V30 3414 O 332.764 1.68428 0.634988 0
M  V30 3415 H 329.139 0.751984 -0.00486469 0
M  V30 3416 H 331.11 2.85382 -0.871761 0
M  V30 3417 C 329.859 3.37773 0.824908 0
M  V30 3418 H 329.182 3.99227 0.213915 0
M  V30 3419 H 330.622 4.05121 1.25111 0
M  V30 3420 C 329.081 2.74287 1.95622 0
M  V30 3421 O 329.611 2.61618 3.04826 0
M  V30 3422 N 327.817 2.32475 1.74367 0
M  V30 3423 H 327.364 2.4298 0.855494 0
M  V30 3424 H 327.322 1.90337 2.50238 0
M  V30 3425 N 331.094 0.475555 1.50254 0
M  V30 3426 C 332.041 -0.316293 2.28622 0
M  V30 3427 C 333.011 -0.983227 1.33873 0
M  V30 3428 O 334.196 -0.994805 1.62814 0
M  V30 3429 C 331.336 -1.38975 3.1588 0
M  V30 3430 C 330.449 -0.737146 4.25664 0
M  V30 3431 C 329.584 -1.78887 5.00173 0
M  V30 3432 C 328.623 -1.11676 6.01826 0
M  V30 3433 N 327.76 -2.11154 6.69596 0
M  V30 3434 H 332.6 0.358297 2.95838 0
M  V30 3435 H 330.137 0.188541 1.45887 0
M  V30 3436 H 332.095 -2.02383 3.64825 0
M  V30 3437 H 330.725 -2.03344 2.50701 0
M  V30 3438 H 329.777 0.0096065 3.80399 0
M  V30 3439 H 331.089 -0.206816 4.98371 0
M  V30 3440 H 330.243 -2.49865 5.52859 0
M  V30 3441 H 328.982 -2.35302 4.27182 0
M  V30 3442 H 327.987 -0.392633 5.48396 0
M  V30 3443 H 329.212 -0.55945 6.76792 0
M  V30 3444 H 327.158 -2.66577 5.99394 0
M  V30 3445 H 327.075 -1.63118 7.38193 0
M  V30 3446 H 328.343 -2.81497 7.26897 0
M  V30 3447 N 332.573 -1.56217 0.208337 0
M  V30 3448 C 333.536 -2.18455 -0.693557 0
M  V30 3449 C 334.536 -1.14268 -1.13135 0
M  V30 3450 O 335.726 -1.39577 -1.0423 0
M  V30 3451 C 332.858 -2.79727 -1.94848 0
M  V30 3452 H 334.051 -2.99519 -0.15114 0
M  V30 3453 H 331.604 -1.56245 -0.041287 0
M  V30 3454 H 332.339 -2.02497 -2.53309 0
M  V30 3455 H 332.124 -3.56009 -1.64316 0
M  V30 3456 H 333.614 -3.27475 -2.59133 0
M  V30 3457 N 334.051 0.0651679 -1.57465 0
M  V30 3458 C 335.462 0.616213 -1.76238 0
M  V30 3459 C 335.813 1.7756 -0.834689 0
M  V30 3460 O 334.938 2.1639 -0.0204156 0
M  V30 3461 C 335.533 1.12462 -3.1959 0
M  V30 3462 C 334.092 1.62147 -3.39684 0
M  V30 3463 C 333.239 0.543739 -2.71917 0
M  V30 3464 H 336.19 -0.161022 -1.57881 0
M  V30 3465 H 336.211 1.99324 -3.24114 0
M  V30 3466 H 335.723 0.280592 -3.87084 0
M  V30 3467 H 333.824 2.48854 -2.77313 0
M  V30 3468 H 333.937 1.69385 -4.48158 0
M  V30 3469 H 332.301 0.990352 -2.34657 0
M  V30 3470 H 333.084 -0.290216 -3.42071 0
M  V30 3471 N 335.529 1.53961 0.336706 0
M  V30 3472 C 336.479 1.7881 1.41461 0
M  V30 3473 C 337.463 0.643561 1.47469 0
M  V30 3474 O 338.655 0.903166 1.52223 0
M  V30 3475 C 335.784 2.00722 2.78506 0
M  V30 3476 C 334.87 3.2126 2.76862 0
M  V30 3477 N 335.261 4.42588 2.44845 0
M  V30 3478 C 333.559 3.22568 3.08004 0
M  V30 3479 C 334.26 5.2447 2.51607 0
M  V30 3480 N 333.236 4.61344 2.87511 0
M  V30 3481 H 337.038 2.70205 1.15615 0
M  V30 3482 H 334.552 1.52978 0.545112 0
M  V30 3483 H 336.549 2.1666 3.5618 0
M  V30 3484 H 335.209 1.10573 3.05293 0
M  V30 3485 H 336.22 4.69819 2.17922 0
M  V30 3486 H 332.897 2.42409 3.39918 0
M  V30 3487 H 334.287 6.31324 2.29955 0
M  V30 3488 N 337.007 -0.598083 1.45811 0
M  V30 3489 C 338.418 -1.18011 1.44673 0
M  V30 3490 C 338.769 -1.95378 0.179364 0
M  V30 3491 O 337.894 -2.04124 -0.718509 0
M  V30 3492 C 338.489 -2.14677 2.62105 0
M  V30 3493 C 337.048 -2.68236 2.64057 0
M  V30 3494 C 336.195 -1.43816 2.37091 0
M  V30 3495 H 339.146 -0.38686 1.53913 0
M  V30 3496 H 339.167 -2.97878 2.36746 0
M  V30 3497 H 338.679 -1.5834 3.5433 0
M  V30 3498 H 336.78 -3.28486 1.75864 0
M  V30 3499 H 336.893 -3.12021 3.63566 0
M  V30 3500 H 335.257 -1.731 1.86838 0
M  V30 3501 H 336.04 -0.893333 3.31473 0
M  V30 3502 N 338.485 -1.33259 -0.841409 0
M  V30 3503 C 339.432 -1.23302 -1.95103 0
M  V30 3504 C 340.402 -0.112204 -1.65721 0
M  V30 3505 O 341.587 -0.290038 -1.88583 0
M  V30 3506 C 338.727 -0.975583 -3.31023 0
M  V30 3507 C 337.84 -2.18243 -3.72819 0
M  V30 3508 C 336.975 -1.85936 -4.97595 0
M  V30 3509 C 336.014 -3.02866 -5.3192 0
M  V30 3510 N 335.151 -2.70565 -6.47873 0
M  V30 3511 H 339.991 -2.18207 -2.02952 0
M  V30 3512 H 337.528 -1.0851 -0.993173 0
M  V30 3513 H 339.486 -0.80677 -4.09325 0
M  V30 3514 H 338.116 -0.0632755 -3.22738 0
M  V30 3515 H 337.168 -2.46107 -2.90061 0
M  V30 3516 H 338.48 -3.05666 -3.94169 0
M  V30 3517 H 337.634 -1.65684 -5.83638 0
M  V30 3518 H 336.373 -0.957452 -4.78209 0
M  V30 3519 H 335.378 -3.23736 -4.44382 0
M  V30 3520 H 336.603 -3.93809 -5.53255 0
M  V30 3521 H 334.549 -1.8293 -6.29978 0
M  V30 3522 H 334.466 -3.51519 -6.69306 0
M  V30 3523 H 335.734 -2.53774 -7.37034 0
M  V30 3524 N 339.963 1.05934 -1.16686 0
M  V30 3525 C 340.895 2.13468 -0.834503 0
M  V30 3526 C 341.908 1.62013 0.15984 0
M  V30 3527 O 343.097 1.7838 -0.0654228 0
M  V30 3528 C 340.197 3.3817 -0.222361 0
M  V30 3529 C 339.37 4.18928 -1.25771 0
M  V30 3530 C 338.429 5.21985 -0.664703 0
M  V30 3531 O 337.455 5.53334 -1.33453 0
M  V30 3532 N 338.657 5.77919 0.546834 0
M  V30 3533 H 341.422 2.42578 -1.75999 0
M  V30 3534 H 338.983 1.21967 -1.06469 0
M  V30 3535 H 340.975 4.04266 0.187472 0
M  V30 3536 H 339.545 3.06655 0.606758 0
M  V30 3537 H 338.765 3.48433 -1.84358 0
M  V30 3538 H 340.053 4.69687 -1.95631 0
M  V30 3539 H 339.451 5.54721 1.10912 0
M  V30 3540 H 338.008 6.45573 0.898829 0
M  V30 3541 N 341.441 0.965919 1.2453 0
M  V30 3542 C 342.351 0.502154 2.29163 0
M  V30 3543 C 343.367 -0.436017 1.68448 0
M  V30 3544 O 344.543 -0.309497 1.99008 0
M  V30 3545 C 341.608 -0.201956 3.46111 0
M  V30 3546 C 340.669 0.775821 4.22232 0
M  V30 3547 C 339.902 0.105217 5.33596 0
M  V30 3548 O 340.125 -1.10683 5.59558 0
M  V30 3549 O 339.059 0.796475 5.96607 0
M  V30 3550 H 342.885 1.37194 2.70946 0
M  V30 3551 H 340.47 0.732875 1.30189 0
M  V30 3552 H 342.352 -0.597564 4.17142 0
M  V30 3553 H 341.027 -1.04673 3.06309 0
M  V30 3554 H 339.934 1.22185 3.53584 0
M  V30 3555 H 341.267 1.58896 4.65846 0
M  V30 3556 N 342.919 -1.39368 0.735821 0
M  V30 3557 C 344.33 -1.83313 0.354015 0
M  V30 3558 C 344.681 -1.61461 -1.11466 0
M  V30 3559 O 343.806 -1.10621 -1.85989 0
M  V30 3560 C 344.401 -3.32781 0.635769 0
M  V30 3561 C 342.96 -3.75142 0.307448 0
M  V30 3562 C 342.107 -2.62358 0.897974 0
M  V30 3563 H 345.058 -1.28349 0.933398 0
M  V30 3564 H 345.079 -3.80388 -0.0921773 0
M  V30 3565 H 344.591 -3.48654 1.70476 0
M  V30 3566 H 342.692 -3.64857 -0.755674 0
M  V30 3567 H 342.805 -4.72532 0.790583 0
M  V30 3568 H 341.169 -2.52624 0.324551 0
M  V30 3569 H 341.952 -2.81036 1.97164 0
M  V30 3570 N 344.397 -0.483516 -1.5 0
M  V30 3571 C 345.329 0.340634 -2.26655 0
M  V30 3572 C 346.342 0.946152 -1.32483 0
M  V30 3573 O 347.531 0.832453 -1.579 0
M  V30 3574 C 344.631 1.4929 -3.04246 0
M  V30 3575 C 343.804 0.997903 -4.25865 0
M  V30 3576 C 342.863 2.02569 -4.85646 0
M  V30 3577 O 341.889 1.60128 -5.46212 0
M  V30 3578 N 343.091 3.3548 -4.73744 0
M  V30 3579 H 345.856 -0.316577 -2.98023 0
M  V30 3580 H 343.417 -0.315024 -1.58806 0
M  V30 3581 H 345.409 2.17766 -3.41116 0
M  V30 3582 H 343.979 2.05458 -2.35597 0
M  V30 3583 H 343.199 0.138617 -3.93956 0
M  V30 3584 H 344.487 0.645305 -5.04691 0
M  V30 3585 H 343.885 3.72661 -4.25605 0
M  V30 3586 H 342.442 3.99718 -5.14848 0
M  V30 3587 N 345.875 1.56104 -0.216619 0
M  V30 3588 C 346.785 2.23694 0.706982 0
M  V30 3589 C 347.801 1.24295 1.21765 0
M  V30 3590 O 348.977 1.57094 1.2603 0
M  V30 3591 C 346.042 2.8998 1.90033 0
M  V30 3592 C 345.103 4.04708 1.43213 0
M  V30 3593 C 344.336 4.67824 2.56859 0
M  V30 3594 O 344.559 4.29913 3.74874 0
M  V30 3595 O 343.493 5.56905 2.28343 0
M  V30 3596 H 347.319 3.03272 0.161235 0
M  V30 3597 H 344.904 1.49394 0.0136177 0
M  V30 3598 H 346.786 3.31837 2.59735 0
M  V30 3599 H 345.461 2.13365 2.43428 0
M  V30 3600 H 344.368 3.6743 0.70327 0
M  V30 3601 H 345.701 4.83051 0.944615 0
M  V30 3602 N 347.353 -0.0568162 1.57498 0
M  V30 3603 C 348.602 -0.752001 1.87157 0
M  V30 3604 C 348.915 -1.77978 0.811375 0
M  V30 3605 O 350.121 -2.52559 0.996293 0
M  V30 3606 C 348.577 -1.38844 3.3204 0
M  V30 3607 C 348.185 -0.398456 4.46225 0
M  V30 3608 C 349.929 -2.06512 3.70882 0
M  V30 3609 C 347.836 -1.04166 5.82154 0
M  V30 3610 H 346.766 -0.28461 0.698222 0
M  V30 3611 H 349.417 -0.00561272 1.83499 0
M  V30 3612 H 347.799 -2.1836 3.30356 0
M  V30 3613 H 348.973 0.367977 4.59328 0
M  V30 3614 H 347.288 0.174592 4.16034 0
M  V30 3615 H 349.885 -2.55437 4.6974 0
M  V30 3616 H 350.228 -2.87117 3.01445 0
M  V30 3617 H 350.761 -1.33808 3.7462 0
M  V30 3618 H 347.5 -0.275614 6.5492 0
M  V30 3619 H 347.02 -1.7786 5.72823 0
M  V30 3620 H 348.699 -1.55715 6.27982 0
M  V30 3621 N 348.832 -1.54138 -0.328536 0
M  V30 3622 C 349.78 -1.83894 -1.42428 0
M  V30 3623 C 350.774 -0.710478 -1.53781 0
M  V30 3624 O 351.98 -0.894062 -1.56226 0
M  V30 3625 H 348.355 -0.582837 -0.475189 0
M  V30 3626 H 350.326 -2.75537 -1.14552 0
M  V30 3627 C 349.075 -2.07866 -2.78724 0
M  V30 3628 H 348.398 -2.94158 -2.7076 0
M  V30 3629 H 349.838 -2.32644 -3.54476 0
M  V30 3630 C 348.297 -0.868689 -3.25508 0
M  V30 3631 O 348.827 -0.0754908 -4.01629 0
M  V30 3632 N 347.033 -0.681711 -2.82491 0
M  V30 3633 H 346.58 -1.32838 -2.20708 0
M  V30 3634 H 346.538 0.126374 -3.14146 0
M  V30 3635 N 350.31 0.590341 -1.46126 0
M  V30 3636 C 351.557 1.34882 -1.5104 0
M  V30 3637 C 351.885 1.93849 -0.159021 0
M  V30 3638 O 351.14 1.76544 0.844436 0
M  V30 3639 C 351.439 2.5032 -2.55097 0
M  V30 3640 C 351.105 2.09394 -3.99331 0
M  V30 3641 C 349.767 1.97947 -4.38601 0
M  V30 3642 C 352.119 1.77712 -4.89967 0
M  V30 3643 C 349.447 1.53065 -5.66381 0
M  V30 3644 C 351.799 1.34312 -6.18177 0
M  V30 3645 C 350.463 1.21436 -6.56361 0
M  V30 3646 H 349.733 0.493568 -0.552695 0
M  V30 3647 H 352.38 0.665539 -1.79563 0
M  V30 3648 H 350.685 3.24062 -2.20207 0
M  V30 3649 H 352.382 3.08541 -2.56132 0
M  V30 3650 H 348.972 2.19235 -3.68285 0
M  V30 3651 H 353.156 1.85445 -4.60352 0
M  V30 3652 H 348.412 1.41733 -5.94745 0
M  V30 3653 H 352.586 1.08849 -6.87841 0
M  V30 3654 H 350.213 0.864345 -7.5527 0
M  V30 3655 N 351.788 1.33704 0.83433 0
M  V30 3656 C 353.199 1.22813 1.4062 0
M  V30 3657 C 353.55 -0.151107 1.95617 0
M  V30 3658 O 352.675 -1.05092 1.89168 0
M  V30 3659 C 353.27 2.22355 2.55624 0
M  V30 3660 C 351.829 2.1529 3.08751 0
M  V30 3661 C 350.976 2.09589 1.8157 0
M  V30 3662 H 353.927 1.45236 0.639702 0
M  V30 3663 H 353.948 1.83391 3.33389 0
M  V30 3664 H 353.46 3.22728 2.15566 0
M  V30 3665 H 351.561 1.18235 3.53343 0
M  V30 3666 H 351.674 3.06038 3.68616 0
M  V30 3667 H 350.038 1.55134 2.02004 0
M  V30 3668 H 350.821 3.11777 1.43701 0
M  V30 3669 N 353.266 -1.05314 1.17247 0
M  V30 3670 C 354.543 -1.75184 0.87005 0
M  V30 3671 C 354.923 -2.01481 -0.629965 0
M  V30 3672 O 354.271 -1.64988 -1.58086 0
M  V30 3673 C 354.481 -3.04594 1.70363 0
M  V30 3674 C 355.829 -3.78567 1.92281 0
M  V30 3675 O 356.853 -3.14461 1.67311 0
M  V30 3676 O 355.712 -4.93755 2.3424 0
M  V30 3677 H 352.806 -0.761729 0.322021 0
M  V30 3678 H 355.352 -1.11493 1.27935 0
M  V30 3679 H 354.124 -2.81201 2.72106 0
M  V30 3680 H 353.747 -3.76022 1.29202 0
M  V30 3681 N 354.744 -0.972509 -1.24016 0
M  V30 3682 C 356.021 -0.553733 -1.87598 0
M  V30 3683 C 356.401 0.969158 -1.87538 0
M  V30 3684 O 355.749 1.84255 -1.35139 0
M  V30 3685 C 355.959 -1.15076 -3.29482 0
M  V30 3686 C 357.307 -1.23862 -4.06132 0
M  V30 3687 O 358.331 -1.10363 -3.38672 0
M  V30 3688 O 357.19 -1.45252 -5.26844 0
M  V30 3689 H 354.284 -0.185331 -0.805966 0
M  V30 3690 H 356.83 -1.06709 -1.31952 0
M  V30 3691 H 355.602 -2.19333 -3.2405 0
M  V30 3692 H 355.225 -0.621746 -3.92709 0
M  V30 3693 N 356.222 1.38976 -0.743202 0
M  V30 3694 C 357.152 2.33171 -0.123873 0
M  V30 3695 C 358.133 1.54336 0.71516 0
M  V30 3696 O 359.318 1.82696 0.658467 0
M  V30 3697 C 356.448 3.38474 0.777978 0
M  V30 3698 C 355.402 4.27979 0.0424758 0
M  V30 3699 C 354.728 5.2405 1.06189 0
M  V30 3700 C 356.028 5.10155 -1.1198 0
M  V30 3701 H 357.722 2.85213 -0.910709 0
M  V30 3702 H 355.268 1.37133 -0.439388 0
M  V30 3703 H 357.221 4.03328 1.22084 0
M  V30 3704 H 355.945 2.84891 1.59702 0
M  V30 3705 H 354.604 3.64616 -0.380853 0
M  V30 3706 H 354.252 4.66758 1.87472 0
M  V30 3707 H 353.952 5.84785 0.574485 0
M  V30 3708 H 355.476 5.9178 1.50428 0
M  V30 3709 H 356.89 5.68307 -0.75499 0
M  V30 3710 H 355.287 5.80073 -1.53738 0
M  V30 3711 H 356.357 4.44504 -1.93764 0
M  V30 3712 N 357.7 0.491464 1.49741 0
M  V30 3713 C 359.111 0.0413169 1.86654 0
M  V30 3714 C 359.462 -1.36985 1.40462 0
M  V30 3715 O 358.587 -2.01917 0.778354 0
M  V30 3716 C 359.182 0.0682023 3.38731 0
M  V30 3717 C 357.741 -0.32656 3.74981 0
M  V30 3718 C 356.888 0.444888 2.73708 0
M  V30 3719 H 359.839 0.704733 1.42194 0
M  V30 3720 H 359.86 -0.729322 3.73445 0
M  V30 3721 H 359.372 1.09539 3.72321 0
M  V30 3722 H 357.473 -1.35734 3.46997 0
M  V30 3723 H 357.586 -0.013741 4.79098 0
M  V30 3724 H 355.95 -0.104062 2.54487 0
M  V30 3725 H 356.733 1.47197 3.10142 0
M  V30 3726 N 359.178 -1.55987 0.224894 0
M  V30 3727 C 360.426 -1.97998 -0.405099 0
M  V30 3728 C 360.747 -1.11387 -1.60056 0
M  V30 3729 O 360.017 -0.191645 -1.9496 0
M  V30 3730 H 358.597 -0.731235 -0.152658 0
M  V30 3731 H 361.259 -1.92279 0.318567 0
M  V30 3732 H 360.355 -3.03463 -0.729167 0
M  V30 3733 N 360.656 0.0484629 -1.57525 0
M  V30 3734 C 361.881 0.759177 -1.93006 0
M  V30 3735 C 362.306 1.69125 -0.823317 0
M  V30 3736 O 361.664 1.79931 0.222364 0
M  V30 3737 C 361.712 1.50899 -3.27509 0
M  V30 3738 O 360.816 2.62112 -3.18388 0
M  V30 3739 H 360.157 0.205564 -0.631379 0
M  V30 3740 H 362.687 0.00972959 -2.04598 0
M  V30 3741 H 362.697 1.88317 -3.6194 0
M  V30 3742 H 361.372 0.825269 -4.0763 0
M  V30 3743 H 359.949 2.27379 -2.95556 0
M  V30 3744 N 362.134 1.5431 0.320358 0
M  V30 3745 C 363.082 1.84647 1.4145 0
M  V30 3746 C 364.076 0.718624 1.53402 0
M  V30 3747 O 365.282 0.902335 1.5575 0
M  V30 3748 H 361.657 0.585349 0.472091 0
M  V30 3749 H 363.628 2.7614 1.13089 0
M  V30 3750 C 362.377 2.09341 2.77617 0
M  V30 3751 H 361.7 2.9559 2.69196 0
M  V30 3752 H 363.14 2.3452 3.53237 0
M  V30 3753 C 361.599 0.885939 3.25043 0
M  V30 3754 O 362.129 0.0967891 4.01583 0
M  V30 3755 N 360.335 0.696682 2.82125 0
M  V30 3756 H 359.882 1.34006 2.2 0
M  V30 3757 H 359.84 -0.109712 3.14209 0
M  V30 3758 N 363.613 -0.582584 1.46437 0
M  V30 3759 C 364.841 -1.36682 1.55324 0
M  V30 3760 C 365.256 -1.87796 0.194409 0
M  V30 3761 O 364.613 -1.63623 -0.808318 0
M  V30 3762 C 364.664 -2.55426 2.55812 0
M  V30 3763 O 364.385 -2.0643 3.86417 0
M  V30 3764 C 365.886 -3.47976 2.74641 0
M  V30 3765 H 363.106 -0.417545 0.525259 0
M  V30 3766 H 365.65 -0.708219 1.91845 0
M  V30 3767 H 363.805 -3.17275 2.22295 0
M  V30 3768 H 364.219 -2.83762 4.41111 0
M  V30 3769 H 365.693 -4.27775 3.48874 0
M  V30 3770 H 366.17 -3.99919 1.81553 0
M  V30 3771 H 366.776 -2.91962 3.09255 0
M  V30 3772 N 365.091 -1.34144 -0.827227 0
M  V30 3773 C 366.054 -1.25264 -1.91942 0
M  V30 3774 C 367.054 -0.168866 -1.59911 0
M  V30 3775 O 368.244 -0.421198 -1.69031 0
M  V30 3776 C 365.376 -0.932952 -3.27885 0
M  V30 3777 H 366.569 -2.22357 -2.0124 0
M  V30 3778 H 364.122 -1.1837 -1.0207 0
M  V30 3779 H 364.857 0.0349917 -3.24281 0
M  V30 3780 H 364.642 -1.71682 -3.52516 0
M  V30 3781 H 366.132 -0.895874 -4.07877 0
M  V30 3782 N 366.569 1.04691 -1.17803 0
M  V30 3783 C 367.532 2.10724 -0.901545 0
M  V30 3784 C 368.532 1.6042 0.110437 0
M  V30 3785 O 369.722 1.7377 -0.122303 0
M  V30 3786 C 366.854 3.39084 -0.351409 0
M  V30 3787 H 368.047 2.36686 -1.84174 0
M  V30 3788 H 365.6 1.21015 -0.98919 0
M  V30 3789 H 366.335 3.18782 0.59569 0
M  V30 3790 H 366.12 3.76909 -1.08083 0
M  V30 3791 H 367.61 4.17227 -0.176451 0
M  V30 3792 N 368.047 0.979072 1.23499 0
M  V30 3793 C 369.458 0.684391 1.73704 0
M  V30 3794 C 369.809 -0.799448 1.79174 0
M  V30 3795 O 368.934 -1.62531 1.42873 0
M  V30 3796 C 369.529 1.23564 3.15464 0
M  V30 3797 C 368.088 0.99063 3.6313 0
M  V30 3798 C 367.235 1.36416 2.41425 0
M  V30 3799 H 370.186 1.15307 1.09041 0
M  V30 3800 H 370.207 0.607417 3.7562 0
M  V30 3801 H 369.719 2.31561 3.1145 0
M  V30 3802 H 367.82 -0.0733136 3.72528 0
M  V30 3803 H 367.933 1.64427 4.5 0
M  V30 3804 H 366.297 0.782616 2.42378 0
M  V30 3805 H 367.08 2.45387 2.40083 0
M  V30 3806 N 369.525 -1.3858 0.750561 0
M  V30 3807 C 370.771 -2.00481 0.305825 0
M  V30 3808 C 371.104 -1.5944 -1.10872 0
M  V30 3809 O 370.379 -0.83052 -1.75877 0
M  V30 3810 C 370.662 -3.5758 0.425287 0
M  V30 3811 C 370.515 -4.08594 1.88072 0
M  V30 3812 C 371.834 -4.39719 -0.183122 0
M  V30 3813 H 368.953 -0.728348 0.112598 0
M  V30 3814 H 371.595 -1.64566 0.949638 0
M  V30 3815 H 369.745 -3.88306 -0.122828 0
M  V30 3816 H 371.417 -3.88523 2.48691 0
M  V30 3817 H 369.66 -3.61574 2.39681 0
M  V30 3818 H 370.331 -5.177 1.91548 0
M  V30 3819 H 372.807 -4.15128 0.284303 0
M  V30 3820 H 371.683 -5.48856 -0.0692757 0
M  V30 3821 H 371.944 -4.23434 -1.27106 0
M  V30 3822 N 371.003 -0.499398 -1.49478 0
M  V30 3823 C 371.935 0.316575 -2.27003 0
M  V30 3824 C 372.948 0.932047 -1.33479 0
M  V30 3825 O 374.137 0.815658 -1.58774 0
M  V30 3826 C 371.237 1.46055 -3.05812 0
M  V30 3827 C 370.41 0.952679 -4.26899 0
M  V30 3828 C 369.469 1.97407 -4.87767 0
M  V30 3829 O 368.495 1.54326 -5.4788 0
M  V30 3830 N 369.697 3.30436 -4.77276 0
M  V30 3831 H 372.462 -0.348168 -2.97671 0
M  V30 3832 H 370.023 -0.33185 -1.58463 0
M  V30 3833 H 372.015 2.14135 -3.43407 0
M  V30 3834 H 370.585 2.02948 -2.37762 0
M  V30 3835 H 369.805 0.0968248 -3.94081 0
M  V30 3836 H 371.093 0.59174 -5.05347 0
M  V30 3837 H 370.491 3.68126 -4.29534 0
M  V30 3838 H 369.048 3.94235 -5.19059 0
M  V30 3839 N 372.481 1.55866 -0.233164 0
M  V30 3840 C 373.391 2.24431 0.683217 0
M  V30 3841 C 374.407 1.2558 1.2044 0
M  V30 3842 O 375.583 1.58422 1.24356 0
M  V30 3843 C 372.648 2.91979 1.86947 0
M  V30 3844 C 371.709 4.06204 1.38912 0
M  V30 3845 C 370.942 4.70522 2.51883 0
M  V30 3846 O 371.165 4.33865 3.70293 0
M  V30 3847 O 370.099 5.59296 2.22423 0
M  V30 3848 H 373.925 3.03426 0.129059 0
M  V30 3849 H 371.51 1.494 -0.0022283 0
M  V30 3850 H 373.392 3.34573 2.56201 0
M  V30 3851 H 372.067 2.15935 2.41151 0
M  V30 3852 H 370.974 3.68155 0.664259 0
M  V30 3853 H 372.307 4.84025 0.893328 0
M  V30 3854 N 373.959 -0.0401083 1.57549 0
M  V30 3855 C 375.187 -0.745196 1.93014 0
M  V30 3856 C 375.602 -1.6948 0.831984 0
M  V30 3857 O 374.959 -1.81482 -0.192463 0
M  V30 3858 C 375.01 -1.51176 3.28372 0
M  V30 3859 O 374.731 -0.600284 4.33968 0
M  V30 3860 C 376.232 -2.315 3.78051 0
M  V30 3861 H 373.452 -0.210088 0.637263 0
M  V30 3862 H 375.996 -0.000924689 2.045 0
M  V30 3863 H 374.151 -2.20801 3.18317 0
M  V30 3864 H 374.565 -1.13669 5.12035 0
M  V30 3865 H 376.039 -2.80697 4.75303 0
M  V30 3866 H 376.516 -3.12436 3.08675 0
M  V30 3867 H 377.122 -1.66971 3.91153 0
M  V30 3868 N 375.437 -1.54477 -0.31217 0
M  V30 3869 C 376.367 -1.87652 -1.38957 0
M  V30 3870 C 377.348 -0.734358 -1.53431 0
M  V30 3871 O 378.533 -0.98911 -1.67123 0
M  V30 3872 C 375.663 -2.11396 -2.75552 0
M  V30 3873 C 374.617 -3.27243 -2.75855 0
M  V30 3874 C 373.943 -3.36382 -4.15633 0
M  V30 3875 C 375.243 -4.64622 -2.38587 0
M  V30 3876 H 376.937 -2.77887 -1.11442 0
M  V30 3877 H 374.483 -1.33707 -0.534655 0
M  V30 3878 H 376.436 -2.33189 -3.51 0
M  V30 3879 H 375.16 -1.17921 -3.04569 0
M  V30 3880 H 373.819 -3.05356 -2.02863 0
M  V30 3881 H 373.467 -2.40445 -4.41809 0
M  V30 3882 H 373.167 -4.14249 -4.1674 0
M  V30 3883 H 374.691 -3.60422 -4.92877 0
M  V30 3884 H 376.105 -4.86219 -3.03749 0
M  V30 3885 H 374.502 -5.45121 -2.50925 0
M  V30 3886 H 375.572 -4.66097 -1.33723 0
M  V30 3887 N 376.915 0.57481 -1.46744 0
M  V30 3888 C 377.865 1.67838 -1.54319 0
M  V30 3889 C 378.849 1.55759 -0.40346 0
M  V30 3890 O 380.041 1.6454 -0.652347 0
M  V30 3891 C 377.17 3.06624 -1.5439 0
M  V30 3892 C 376.256 3.23971 -2.73685 0
M  V30 3893 N 376.647 3.11447 -3.9854 0
M  V30 3894 C 374.945 3.5493 -2.70075 0
M  V30 3895 C 375.646 3.31011 -4.78337 0
M  V30 3896 N 374.622 3.56533 -4.10348 0
M  V30 3897 H 378.424 1.56698 -2.48642 0
M  V30 3898 H 375.938 0.779071 -1.42493 0
M  V30 3899 H 377.935 3.85839 -1.57905 0
M  V30 3900 H 376.595 3.1889 -0.611493 0
M  V30 3901 H 377.606 2.89145 -4.29669 0
M  V30 3902 H 374.283 3.73832 -1.85893 0
M  V30 3903 H 375.673 3.26445 -5.87268 0
M  V30 3904 N 378.394 1.34581 0.820102 0
M  V30 3905 C 379.642 1.26845 1.57336 0
M  V30 3906 C 379.963 -0.160667 1.94337 0
M  V30 3907 O 379.233 -1.09396 1.6251 0
M  V30 3908 H 377.813 0.466514 0.583415 0
M  V30 3909 H 380.475 1.68526 0.979027 0
M  V30 3910 H 379.571 1.87513 2.4949 0
M  V30 3911 N 379.872 -1.04064 1.18357 0
M  V30 3912 C 381.112 -1.78829 0.989921 0
M  V30 3913 C 381.476 -1.86106 -0.472095 0
M  V30 3914 O 382.677 -2.57076 -0.785187 0
M  V30 3915 C 380.948 -3.1823 1.6268 0
M  V30 3916 S 382.507 -4.09332 1.58091 0
M  V30 3917 H 379.325 -0.615754 0.355482 0
M  V30 3918 H 381.927 -1.24778 1.50501 0
M  V30 3919 H 380.631 -3.10543 2.68311 0
M  V30 3920 H 380.162 -3.77357 1.112 0
M  V30 3921 H 382.177 -4.92598 0.596817 0
M  V30 3922 N 381.35 -0.985608 -1.22978 0
M  V30 3923 C 382.282 -0.488154 -2.23941 0
M  V30 3924 C 383.295 0.41282 -1.57479 0
M  V30 3925 O 384.484 0.216121 -1.77187 0
M  V30 3926 C 381.584 0.312611 -3.37455 0
M  V30 3927 C 380.757 -0.582741 -4.33501 0
M  V30 3928 C 379.816 0.165064 -5.25941 0
M  V30 3929 O 378.842 -0.447077 -5.67442 0
M  V30 3930 N 380.044 1.44953 -5.62111 0
M  V30 3931 H 382.809 -1.3563 -2.67254 0
M  V30 3932 H 380.37 -0.859477 -1.37203 0
M  V30 3933 H 382.362 0.821357 -3.96277 0
M  V30 3934 H 380.932 1.0818 -2.93285 0
M  V30 3935 H 380.152 -1.27225 -3.73105 0
M  V30 3936 H 381.44 -1.19275 -4.94622 0
M  V30 3937 H 380.838 1.9683 -5.30353 0
M  V30 3938 H 379.395 1.90361 -6.23383 0
M  V30 3939 N 382.828 1.3818 -0.7579 0
M  V30 3940 C 384.239 1.82726 -0.383134 0
M  V30 3941 C 384.59 1.63214 1.08884 0
M  V30 3942 O 383.715 1.13566 1.84205 0
M  V30 3943 C 384.31 3.31728 -0.688631 0
M  V30 3944 C 382.869 3.74606 -0.367091 0
M  V30 3945 C 382.016 2.60896 -0.939599 0
M  V30 3946 H 384.967 1.26847 -0.953699 0
M  V30 3947 H 384.988 3.80487 0.0316492 0
M  V30 3948 H 384.5 3.45898 -1.76001 0
M  V30 3949 H 382.601 3.66013 0.697532 0
M  V30 3950 H 382.714 4.71215 -0.865658 0
M  V30 3951 H 381.078 2.52075 -0.3647 0
M  V30 3952 H 381.861 2.77864 -2.0161 0
M  V30 3953 N 384.306 0.507319 1.49211 0
M  V30 3954 C 385.552 -0.0350047 2.0277 0
M  V30 3955 C 385.885 -1.3606 1.38569 0
M  V30 3956 O 385.16 -1.87321 0.523542 0
M  V30 3957 C 385.443 -0.180916 3.59645 0
M  V30 3958 C 385.296 1.16825 4.34364 0
M  V30 3959 C 386.615 -0.918558 4.30407 0
M  V30 3960 H 383.734 -0.0112473 0.736914 0
M  V30 3961 H 386.376 0.659956 1.7817 0
M  V30 3962 H 384.526 -0.772826 3.80736 0
M  V30 3963 H 386.198 1.79952 4.24753 0
M  V30 3964 H 384.441 1.75594 3.96673 0
M  V30 3965 H 385.112 1.01939 5.42506 0
M  V30 3966 H 387.588 -0.41649 4.1401 0
M  V30 3967 H 386.464 -0.989505 5.39907 0
M  V30 3968 H 386.725 -1.96373 3.96093 0
M  V30 3969 N 385.784 -1.5574 0.241426 0
M  V30 3970 C 387.012 -2.03208 -0.389134 0
M  V30 3971 C 387.427 -1.12082 -1.51931 0
M  V30 3972 O 386.784 -0.134183 -1.82006 0
M  V30 3973 C 386.835 -3.50064 -0.902087 0
M  V30 3974 O 386.556 -4.37717 0.18305 0
M  V30 3975 C 388.057 -4.13268 -1.60389 0
M  V30 3976 H 385.277 -0.664509 -0.0931053 0
M  V30 3977 H 387.821 -2.0124 0.36369 0
M  V30 3978 H 385.976 -3.52583 -1.60511 0
M  V30 3979 H 386.39 -5.24097 -0.205579 0
M  V30 3980 H 387.864 -5.17733 -1.91458 0
M  V30 3981 H 388.341 -3.59434 -2.52397 0
M  V30 3982 H 388.947 -4.14655 -0.945576 0
M  V30 3983 N 387.262 0.0317525 -1.57568 0
M  V30 3984 C 388.194 1.06073 -2.03178 0
M  V30 3985 C 389.207 1.32627 -0.944132 0
M  V30 3986 O 390.396 1.30162 -1.22148 0
M  V30 3987 C 387.496 2.40297 -2.38978 0
M  V30 3988 C 386.669 2.33137 -3.70089 0
M  V30 3989 C 385.728 3.49787 -3.9311 0
M  V30 3990 O 384.754 3.29403 -4.64201 0
M  V30 3991 N 385.956 4.71562 -3.38541 0
M  V30 3992 H 388.721 0.672006 -2.92069 0
M  V30 3993 H 386.282 0.219745 -1.60402 0
M  V30 3994 H 388.274 3.1705 -2.51518 0
M  V30 3995 H 386.844 2.71024 -1.55771 0
M  V30 3996 H 386.064 1.415 -3.67928 0
M  V30 3997 H 387.352 2.25493 -4.56104 0
M  V30 3998 H 386.75 4.91024 -2.80912 0
M  V30 3999 H 385.307 5.45689 -3.56464 0
M  V30 4000 N 388.74 1.54641 0.303973 0
M  V30 4001 C 389.65 1.88439 1.39743 0
M  V30 4002 C 390.666 0.778239 1.55626 0
M  V30 4003 O 391.842 1.07442 1.70347 0
M  V30 4004 C 388.907 2.12212 2.74166 0
M  V30 4005 C 387.968 3.35936 2.67293 0
M  V30 4006 C 387.201 3.58566 3.95305 0
M  V30 4007 O 387.424 2.84263 4.9452 0
M  V30 4008 O 386.358 4.52078 3.97378 0
M  V30 4009 H 390.184 2.81458 1.14083 0
M  V30 4010 H 387.769 1.40793 0.499768 0
M  V30 4011 H 389.651 2.29067 3.53704 0
M  V30 4012 H 388.326 1.22379 2.99675 0
M  V30 4013 H 387.233 3.24448 1.86237 0
M  V30 4014 H 388.566 4.2589 2.46736 0
M  V30 4015 N 390.218 -0.567019 1.47046 0
M  V30 4016 C 391.495 -1.3276 1.43646 0
M  V30 4017 C 391.875 -2.1071 0.128186 0
M  V30 4018 O 391.223 -2.10441 -0.890326 0
M  V30 4019 C 391.433 -2.2404 2.67595 0
M  V30 4020 C 392.781 -2.85372 3.14401 0
M  V30 4021 O 393.805 -2.34346 2.68254 0
M  V30 4022 O 392.664 -3.78091 3.946 0
M  V30 4023 H 389.758 -0.597293 0.571988 0
M  V30 4024 H 392.304 -0.586735 1.59234 0
M  V30 4025 H 391.076 -1.65975 3.54356 0
M  V30 4026 H 390.699 -3.05439 2.54544 0
M  V30 4027 N 391.696 -1.35014 -0.812953 0
M  V30 4028 C 392.944 -1.27678 -1.56661 0
M  V30 4029 C 393.265 0.150359 -1.94419 0
M  V30 4030 O 392.535 1.08532 -1.63088 0
M  V30 4031 H 391.115 -0.469602 -0.580933 0
M  V30 4032 H 393.777 -1.69043 -0.970076 0
M  V30 4033 H 392.873 -1.88833 -2.48492 0
M  V30 4034 N 393.175 1.03435 -1.18907 0
M  V30 4035 C 394.122 2.11591 -0.921837 0
M  V30 4036 C 395.092 1.65499 0.141226 0
M  V30 4037 O 396.277 1.908 0.000242829 0
M  V30 4038 C 393.417 3.42012 -0.460616 0
M  V30 4039 C 392.53 4.01682 -1.58982 0
M  V30 4040 C 391.665 5.20091 -1.08069 0
M  V30 4041 C 390.704 5.71805 -2.18416 0
M  V30 4042 N 389.841 6.81494 -1.68849 0
M  V30 4043 H 394.681 2.33787 -1.8479 0
M  V30 4044 H 392.218 1.1467 -0.921373 0
M  V30 4045 H 394.176 4.16834 -0.174642 0
M  V30 4046 H 392.806 3.19944 0.428467 0
M  V30 4047 H 391.858 3.24127 -1.99113 0
M  V30 4048 H 393.17 4.36084 -2.4214 0
M  V30 4049 H 392.324 6.02051 -0.749615 0
M  V30 4050 H 391.063 4.87209 -0.218771 0
M  V30 4051 H 390.068 4.88461 -2.5236 0
M  V30 4052 H 391.293 6.06728 -3.05054 0
M  V30 4053 H 389.239 6.50475 -0.849572 0
M  V30 4054 H 389.156 7.14994 -2.45601 0
M  V30 4055 H 390.424 7.67063 -1.38689 0
M  V30 4056 N 394.653 0.992116 1.22453 0
M  V30 4057 C 395.563 0.55065 2.28046 0
M  V30 4058 C 396.579 -0.400189 1.69335 0
M  V30 4059 O 397.755 -0.267215 1.99619 0
M  V30 4060 C 394.82 -0.128496 3.46462 0
M  V30 4061 C 393.881 0.865208 4.20491 0
M  V30 4062 C 393.114 0.218377 5.33253 0
M  V30 4063 O 393.337 -0.987894 5.6178 0
M  V30 4064 O 392.271 0.922845 5.94783 0
M  V30 4065 H 396.097 1.4291 2.67975 0
M  V30 4066 H 393.682 0.760326 1.28606 0
M  V30 4067 H 395.564 -0.508947 4.18315 0
M  V30 4068 H 394.239 -0.981526 3.0846 0
M  V30 4069 H 393.146 1.29658 3.50913 0
M  V30 4070 H 394.479 1.68741 4.62371 0
M  V30 4071 N 396.131 -1.37776 0.765217 0
M  V30 4072 C 397.356 -2.04651 0.336537 0
M  V30 4073 C 397.781 -1.57337 -1.03086 0
M  V30 4074 O 397.139 -0.730621 -1.65927 0
M  V30 4075 C 397.187 -3.58577 0.381468 0
M  V30 4076 O 396.291 -4.07706 -0.62042 0
M  V30 4077 H 395.632 -0.64756 0.146838 0
M  V30 4078 H 398.162 -1.76221 1.03959 0
M  V30 4079 H 398.172 -4.07314 0.236448 0
M  V30 4080 H 396.847 -3.9237 1.37907 0
M  V30 4081 H 395.424 -3.70306 -0.439056 0
M  V30 4082 N 397.609 -0.515225 -1.4894 0
M  V30 4083 C 399.025 -0.172099 -1.58669 0
M  V30 4084 C 399.225 1.32405 -1.51892 0
M  V30 4085 O 398.281 2.10116 -1.40027 0
M  V30 4086 C 399.594 -0.761533 -2.90897 0
M  V30 4087 C 401.142 -0.728926 -3.04394 0
M  V30 4088 C 401.617 -1.29667 -4.39261 0
M  V30 4089 N 403.108 -1.25799 -4.4579 0
M  V30 4090 C 403.843 -1.66733 -5.48623 0
M  V30 4091 N 403.339 -2.15327 -6.58488 0
M  V30 4092 N 405.132 -1.58061 -5.39419 0
M  V30 4093 H 397.283 -1.48778 -1.51588 0
M  V30 4094 H 399.546 -0.617968 -0.718901 0
M  V30 4095 H 399.252 -1.81136 -3.01468 0
M  V30 4096 H 399.126 -0.230106 -3.76497 0
M  V30 4097 H 401.513 0.312098 -2.93445 0
M  V30 4098 H 401.594 -1.29766 -2.20442 0
M  V30 4099 H 401.238 -2.33655 -4.50963 0
M  V30 4100 H 401.168 -0.703752 -5.21876 0
M  V30 4101 H 403.659 -0.902102 -3.66975 0
M  V30 4102 H 403.972 -2.44594 -7.33071 0
M  V30 4103 H 402.317 -2.19311 -6.59491 0
M  V30 4104 H 405.508 -1.19906 -4.52482 0
M  V30 4105 H 405.681 -1.90284 -6.19432 0
M  V30 4106 N 399.087 1.5561 -0.249682 0
M  V30 4107 C 400.336 1.98187 0.37479 0
M  V30 4108 C 400.649 1.14111 1.58865 0
M  V30 4109 O 401.855 1.46714 2.28445 0
M  V30 4110 C 400.311 3.52661 0.718192 0
M  V30 4111 C 399.919 4.45481 -0.474428 0
M  V30 4112 C 401.663 4.03888 1.3067 0
M  V30 4113 C 399.57 5.91303 -0.107026 0
M  V30 4114 H 398.5 0.740159 0.143808 0
M  V30 4115 H 401.151 1.80125 -0.350336 0
M  V30 4116 H 399.533 3.66429 1.50152 0
M  V30 4117 H 400.707 4.43473 -1.25172 0
M  V30 4118 H 399.022 4.04751 -0.978052 0
M  V30 4119 H 401.619 5.10358 1.59496 0
M  V30 4120 H 401.962 3.51401 2.23211 0
M  V30 4121 H 402.495 3.93457 0.586211 0
M  V30 4122 H 399.234 6.47833 -0.999642 0
M  V30 4123 H 398.754 5.9644 0.634013 0
M  V30 4124 H 400.433 6.46258 0.309807 0
M  V30 4125 N 400.565 -0.0233959 1.57583 0
M  V30 4126 C 401.79 -0.728376 1.94189 0
M  V30 4127 C 402.215 -1.67793 0.850119 0
M  V30 4128 O 401.573 -1.80262 -0.19371 0
M  V30 4129 C 401.621 -1.45669 3.29868 0
M  V30 4130 O 400.725 -2.57013 3.22518 0
M  V30 4131 H 400.066 -0.195493 0.63457 0
M  V30 4132 H 402.596 0.0228214 2.04587 0
M  V30 4133 H 402.606 -1.82535 3.6489 0
M  V30 4134 H 401.281 -0.760314 4.08891 0
M  V30 4135 H 399.858 -2.22648 2.99136 0
M  V30 4136 N 402.043 -1.548 -0.295768 0
M  V30 4137 C 403.289 -1.74588 -1.03184 0
M  V30 4138 C 403.622 -0.532962 -1.86744 0
M  V30 4139 O 402.897 0.469872 -1.88739 0
M  V30 4140 C 403.18 -3.03791 -1.93347 0
M  V30 4141 C 403.033 -4.35392 -1.12933 0
M  V30 4142 C 404.352 -3.28892 -2.92435 0
M  V30 4143 H 401.471 -0.635221 -0.373715 0
M  V30 4144 H 404.113 -1.87519 -0.30606 0
M  V30 4145 H 402.263 -2.92898 -2.55232 0
M  V30 4146 H 403.935 -4.58211 -0.532943 0
M  V30 4147 H 402.178 -4.31642 -0.432168 0
M  V30 4148 H 402.849 -5.22074 -1.79284 0
M  V30 4149 H 405.325 -3.39429 -2.4068 0
M  V30 4150 H 404.201 -4.20603 -3.52682 0
M  V30 4151 H 404.462 -2.47437 -3.6637 0
M  V30 4152 N 403.521 0.559213 -1.47345 0
M  V30 4153 C 404.453 1.68161 -1.55738 0
M  V30 4154 C 405.466 1.56636 -0.443744 0
M  V30 4155 O 406.655 1.6363 -0.713258 0
M  V30 4156 C 403.755 3.06611 -1.4437 0
M  V30 4157 C 402.928 3.4391 -2.70268 0
M  V30 4158 C 401.987 4.61515 -2.52765 0
M  V30 4159 O 401.013 4.66197 -3.26572 0
M  V30 4160 N 402.215 5.57883 -1.6046 0
M  V30 4161 H 404.98 1.61408 -2.52522 0
M  V30 4162 H 402.541 0.7458 -1.43699 0
M  V30 4163 H 404.533 3.83117 -1.30398 0
M  V30 4164 H 403.103 3.07602 -0.556766 0
M  V30 4165 H 402.323 2.56873 -2.99015 0
M  V30 4166 H 403.611 3.65605 -3.53851 0
M  V30 4167 H 403.009 5.56855 -0.996422 0
M  V30 4168 H 401.566 6.33723 -1.52441 0
M  V30 4169 N 404.999 1.35443 0.805782 0
M  V30 4170 C 405.909 1.30546 1.94923 0
M  V30 4171 C 406.925 0.210233 1.72725 0
M  V30 4172 O 408.101 0.43975 1.9654 0
M  V30 4173 C 405.166 1.07782 3.29521 0
M  V30 4174 C 404.227 2.26625 3.64609 0
M  V30 4175 C 403.46 2.04938 4.92784 0
M  V30 4176 O 403.683 1.01624 5.61274 0
M  V30 4177 O 402.617 2.9232 5.26149 0
M  V30 4178 H 406.443 2.26779 2.02002 0
M  V30 4179 H 404.028 1.15823 0.943682 0
M  V30 4180 H 405.91 0.969392 4.10098 0
M  V30 4181 H 404.585 0.146003 3.23371 0
M  V30 4182 H 403.492 2.43033 2.84404 0
M  V30 4183 H 404.825 3.18257 3.75464 0
M  V30 4184 N 406.477 -1.02803 1.19454 0
M  V30 4185 C 407.893 -1.28473 0.946937 0
M  V30 4186 C 408.093 -1.97881 -0.380202 0
M  V30 4187 O 407.149 -2.26719 -1.11151 0
M  V30 4188 C 408.462 -2.13099 2.12154 0
M  V30 4189 C 410.01 -2.26404 2.16126 0
M  V30 4190 C 410.485 -3.14402 3.33039 0
M  V30 4191 N 411.976 -3.21991 3.32981 0
M  V30 4192 C 412.711 -3.90272 4.20089 0
M  V30 4193 N 412.207 -4.60777 5.17355 0
M  V30 4194 N 414 -3.8668 4.07964 0
M  V30 4195 H 406.151 -0.561665 2.04839 0
M  V30 4196 H 408.414 -0.310438 0.89573 0
M  V30 4197 H 408.12 -1.69422 3.08203 0
M  V30 4198 H 407.994 -3.13813 2.09287 0
M  V30 4199 H 410.381 -2.69311 1.20647 0
M  V30 4200 H 410.462 -1.25237 2.23045 0
M  V30 4201 H 410.106 -2.72204 4.28798 0
M  V30 4202 H 410.036 -4.1563 3.23356 0
M  V30 4203 H 412.527 -2.71778 2.62574 0
M  V30 4204 H 412.84 -5.10513 5.80169 0
M  V30 4205 H 411.185 -4.5964 5.21302 0
M  V30 4206 H 414.376 -3.30739 3.31254 0
M  V30 4207 H 414.549 -4.39621 4.76064 0
M  V30 4208 N 407.956 -0.998596 -1.21925 0
M  V30 4209 C 408.888 -0.511879 -2.23411 0
M  V30 4210 C 409.901 0.396094 -1.57908 0
M  V30 4211 O 411.09 0.197316 -1.77406 0
M  V30 4212 C 408.19 0.276802 -3.37768 0
M  V30 4213 C 407.363 -0.628687 -4.32858 0
M  V30 4214 C 406.422 0.109272 -5.26087 0
M  V30 4215 O 405.448 -0.507237 -5.66935 0
M  V30 4216 N 406.65 1.38983 -5.63617 0
M  V30 4217 H 409.415 -1.38457 -2.658 0
M  V30 4218 H 406.976 -0.873981 -1.36283 0
M  V30 4219 H 408.968 0.77928 -3.97126 0
M  V30 4220 H 407.538 1.05063 -2.94415 0
M  V30 4221 H 406.758 -1.31175 -3.71735 0
M  V30 4222 H 408.046 -1.24514 -4.93329 0
M  V30 4223 H 407.444 1.91194 -5.32411 0
M  V30 4224 H 406.001 1.83739 -6.25367 0
M  V30 4225 O 409.473 1.33471 -0.909268 0
M  V30 4226 H 410.164 1.86473 -0.524175 0
M  V30 END ATOM
M  V30 BEGIN BOND
M  V30 END BOND
M  V30 END CTAB
M  END
$$$$
