drugbank_target|P25929 Neuropeptide Y receptor type 1 (DB05004)
 OpenBabel12092120213D

  0  0  0     0  0            999 V3000
M  V30 BEGIN CTAB
M  V30 COUNTS 6264 6340 0 0 0
M  V30 BEGIN ATOM
M  V30 1 H -0.908 1.98254 -0.117106 0
M  V30 2 N 0 1.576 0 0
M  V30 3 C 0.933 2.03868 1.02534 0
M  V30 4 C 1.911 0.928543 1.3348 0
M  V30 5 O 3.095 1.19667 1.45644 0
M  V30 6 C 0.222 2.43627 2.35294 0
M  V30 7 C -0.732 3.65373 2.2001 0
M  V30 8 S 0.101 5.13292 1.52614 0
M  V30 9 C 1.257 5.56322 2.86805 0
M  V30 10 H 1.49 2.90518 0.631377 0
M  V30 11 H -0.977 1.52953 0.210867 0
M  V30 12 H 0.981 2.67203 3.11629 0
M  V30 13 H -0.358 1.57376 2.7183 0
M  V30 14 H -1.165 3.90944 3.18086 0
M  V30 15 H -1.563 3.418 1.51819 0
M  V30 16 H 0.729 5.58782 3.83104 0
M  V30 17 H 1.672 6.56266 2.65933 0
M  V30 18 H 2.08 4.83886 2.90714 0
M  V30 19 N 1.4781 -0.272755 1.55222 0
M  V30 20 C 2.4261 -1.35705 1.88909 0
M  V30 21 C 3.4201 -1.5112 0.765456 0
M  V30 22 O 4.6261 -1.52901 0.949802 0
M  V30 23 H 1.0011 -0.453868 0.59959 0
M  V30 24 H 2.9721 -1.04544 2.79487 0
M  V30 25 C 1.7211 -2.71049 2.17779 0
M  V30 26 H 1.0441 -2.59979 3.03728 0
M  V30 27 H 2.4841 -3.45858 2.45272 0
M  V30 28 C 0.9431 -3.22165 0.985473 0
M  V30 29 O 1.4731 -4.01096 0.220233 0
M  V30 30 N -0.3209 -2.7985 0.783108 0
M  V30 31 H -0.7739 -2.15775 1.40708 0
M  V30 32 H -0.8159 -3.14397 -0.0130392 0
M  V30 33 N 2.9562 -1.48159 -0.537278 0
M  V30 34 C 4.1812 -1.59707 -1.32319 0
M  V30 35 C 4.6062 -0.254859 -1.86365 0
M  V30 36 O 3.9642 0.772378 -1.64024 0
M  V30 37 C 4.0122 -2.6412 -2.45505 0
M  V30 38 O 3.1162 -2.20774 -3.48328 0
M  V30 39 H 2.4572 -0.535791 -0.392204 0
M  V30 40 H 4.9872 -1.94092 -0.647268 0
M  V30 41 H 4.9972 -2.85166 -2.91795 0
M  V30 42 H 3.6722 -3.61567 -2.05528 0
M  V30 43 H 2.2492 -2.09911 -3.08207 0
M  V30 44 N 4.4343 0.785586 -1.36625 0
M  V30 45 C 5.6623 1.57448 -1.3423 0
M  V30 46 C 6.0773 1.88649 0.0755653 0
M  V30 47 O 5.4343 1.50414 1.03354 0
M  V30 48 C 5.4853 2.89316 -2.16745 0
M  V30 49 O 5.2063 2.59459 -3.53005 0
M  V30 50 C 6.7073 3.83606 -2.22174 0
M  V30 51 H 3.9273 0.488226 -0.4603 0
M  V30 52 H 6.4713 0.974733 -1.79775 0
M  V30 53 H 4.6263 3.4575 -1.74745 0
M  V30 54 H 5.0403 3.43804 -3.96105 0
M  V30 55 H 6.5143 4.73181 -2.8426 0
M  V30 56 H 6.9913 4.21734 -1.22627 0
M  V30 57 H 7.5973 3.33104 -2.64427 0
M  V30 58 N 5.9124 1.20967 1.01018 0
M  V30 59 C 6.8424 0.988272 2.11555 0
M  V30 60 C 7.8234 -0.0849778 1.69888 0
M  V30 61 O 9.0084 0.0738202 1.9406 0
M  V30 62 C 6.1384 0.546528 3.42973 0
M  V30 63 C 5.0924 1.56375 3.9841 0
M  V30 64 C 4.4184 0.97842 5.25672 0
M  V30 65 C 5.7184 2.94922 4.31066 0
M  V30 66 H 7.4124 1.91276 2.30334 0
M  V30 67 H 4.9584 0.921073 1.1069 0
M  V30 68 H 6.9114 0.378839 4.19694 0
M  V30 69 H 5.6354 -0.413598 3.23971 0
M  V30 70 H 4.2944 1.71891 3.23804 0
M  V30 71 H 3.9424 0.0101688 5.02999 0
M  V30 72 H 3.6424 1.65784 5.63728 0
M  V30 73 H 5.1664 0.821939 6.05043 0
M  V30 74 H 6.5804 2.8288 4.9865 0
M  V30 75 H 4.9774 3.5983 4.80253 0
M  V30 76 H 6.0474 3.4616 3.39561 0
M  V30 77 N 7.3905 -1.2043 1.01659 0
M  V30 78 C 8.6375 -1.89797 0.705917 0
M  V30 79 C 8.9655 -1.78848 -0.764439 0
M  V30 80 O 8.2205 -1.16694 -1.57102 0
M  V30 81 C 8.5195 -3.40464 1.08714 0
M  V30 82 C 8.1855 -3.71614 2.5537 0
M  V30 83 C 6.8475 -3.79826 2.95441 0
M  V30 84 C 9.1995 -3.85915 3.50313 0
M  V30 85 C 6.5275 -3.99797 4.29394 0
M  V30 86 C 8.8795 -4.07396 4.83954 0
M  V30 87 C 7.5435 -4.13837 5.23732 0
M  V30 88 H 6.8135 -0.694518 0.258313 0
M  V30 89 H 9.4605 -1.42691 1.27717 0
M  V30 90 H 7.7655 -3.89385 0.434309 0
M  V30 91 H 9.4625 -3.92433 0.824461 0
M  V30 92 H 6.0525 -3.65822 2.23321 0
M  V30 93 H 10.2365 -3.78926 3.20513 0
M  V30 94 H 5.4925 -4.03018 4.59768 0
M  V30 95 H 9.6665 -4.17404 5.57447 0
M  V30 96 H 7.2935 -4.29064 6.27541 0
M  V30 97 N 8.8686 -0.792821 -1.36206 0
M  V30 98 C 10.0936 -0.377701 -2.03932 0
M  V30 99 C 10.5186 0.998947 -1.59382 0
M  V30 100 O 9.8766 1.64421 -0.763903 0
M  V30 101 C 9.9246 -0.453635 -3.57735 0
M  V30 102 O 9.0286 0.538151 -4.08874 0
M  V30 103 H 8.3696 -0.159855 -0.644471 0
M  V30 104 H 10.8996 -1.07488 -1.7409 0
M  V30 105 H 10.9096 -0.318464 -4.06755 0
M  V30 106 H 9.5846 -1.45784 -3.89512 0
M  V30 107 H 8.1616 0.364359 -3.71116 0
M  V30 108 N 10.3467 1.47872 -0.545128 0
M  V30 109 C 11.2787 2.27869 0.246621 0
M  V30 110 C 12.2917 1.36282 0.890561 0
M  V30 111 O 13.4807 1.61207 0.766449 0
M  V30 112 C 10.5807 3.10159 1.36582 0
M  V30 113 C 9.7537 4.29627 0.820954 0
M  V30 114 C 8.8127 4.93607 1.82314 0
M  V30 115 O 7.8387 5.52366 1.37406 0
M  V30 116 N 9.0407 4.87211 3.15603 0
M  V30 117 H 11.8057 2.96459 -0.439539 0
M  V30 118 H 9.3667 1.57367 -0.380421 0
M  V30 119 H 11.3587 3.49829 2.03474 0
M  V30 120 H 9.9287 2.43891 1.9554 0
M  V30 121 H 9.1487 3.94192 -0.0244032 0
M  V30 122 H 10.4367 5.06928 0.436063 0
M  V30 123 H 9.8347 4.40651 3.54744 0
M  V30 124 H 8.3917 5.30937 3.78087 0
M  V30 125 N 11.8248 0.280983 1.55075 0
M  V30 126 C 13.0708 -0.33461 2.00021 0
M  V30 127 C 13.4038 -1.55063 1.16915 0
M  V30 128 O 12.6788 -1.93006 0.240646 0
M  V30 129 C 12.9618 -0.711007 3.53011 0
M  V30 130 C 12.8148 0.512766 4.46868 0
M  V30 131 C 14.1338 -1.54522 4.12081 0
M  V30 132 H 11.2528 -0.120147 0.727141 0
M  V30 133 H 13.8948 0.389097 1.85973 0
M  V30 134 H 12.0448 -1.32761 3.65112 0
M  V30 135 H 13.7168 1.15131 4.46702 0
M  V30 136 H 11.9598 1.14975 4.18286 0
M  V30 137 H 12.6308 0.205556 5.51617 0
M  V30 138 H 15.1068 -1.02442 4.03293 0
M  V30 139 H 13.9828 -1.77739 5.19327 0
M  V30 140 H 14.2438 -2.52813 3.62682 0
M  V30 141 N 13.3029 -1.57598 0.00835791 0
M  V30 142 C 14.2129 -2.12385 -0.996487 0
M  V30 143 C 15.2289 -1.07108 -1.37127 0
M  V30 144 O 16.4049 -1.39055 -1.4569 0
M  V30 145 C 13.4699 -2.62314 -2.26699 0
M  V30 146 C 12.5309 -3.82225 -1.95456 0
M  V30 147 C 11.7639 -4.29763 -3.16449 0
M  V30 148 O 11.9869 -3.76584 -4.28416 0
M  V30 149 O 10.9209 -5.21832 -2.99958 0
M  V30 150 H 14.7469 -2.98479 -0.560725 0
M  V30 151 H 12.3319 -1.47903 -0.210987 0
M  V30 152 H 14.2139 -2.94589 -3.01322 0
M  V30 153 H 12.8889 -1.79313 -2.69497 0
M  V30 154 H 11.7959 -3.54909 -1.18282 0
M  V30 155 H 13.1289 -4.66324 -1.57489 0
M  V30 156 N 14.781 0.264519 -1.55364 0
M  V30 157 C 15.729 1.34702 -1.89626 0
M  V30 158 C 16.723 1.50712 -0.773459 0
M  V30 159 O 17.929 1.52395 -0.957897 0
M  V30 160 H 14.304 0.450682 -0.601988 0
M  V30 161 H 16.275 1.0306 -2.80038 0
M  V30 162 C 15.024 2.6989 -2.19214 0
M  V30 163 H 14.347 2.58365 -3.05103 0
M  V30 164 H 15.787 3.44553 -2.47102 0
M  V30 165 C 14.246 3.21637 -1.00254 0
M  V30 166 O 14.776 4.00973 -0.241501 0
M  V30 167 N 12.982 2.7943 -0.797938 0
M  V30 168 H 12.529 2.15026 -1.4185 0
M  V30 169 H 12.487 3.144 -0.00363422 0
M  V30 170 N 16.2591 1.48442 0.529413 0
M  V30 171 C 17.2091 1.59407 1.63014 0
M  V30 172 C 18.1931 0.451166 1.54445 0
M  V30 173 O 19.3851 0.702635 1.62456 0
M  V30 174 C 16.5141 1.63746 3.01732 0
M  V30 175 C 15.6001 2.83518 3.15402 0
M  V30 176 N 15.9911 4.07929 2.99045 0
M  V30 177 C 14.2891 2.80862 3.46457 0
M  V30 178 C 14.9901 4.8829 3.16146 0
M  V30 179 N 13.9661 4.21117 3.43746 0
M  V30 180 H 17.7681 2.53343 1.48978 0
M  V30 181 H 15.2821 1.44821 0.734885 0
M  V30 182 H 17.2791 1.69695 3.80801 0
M  V30 183 H 15.9391 0.709264 3.16859 0
M  V30 184 H 16.9501 4.38357 2.75796 0
M  V30 185 H 13.6271 1.97301 3.67938 0
M  V30 186 H 15.0171 5.97028 3.08232 0
M  V30 187 N 17.7372 -0.778329 1.37039 0
M  V30 188 C 18.9622 -1.57248 1.35233 0
M  V30 189 C 19.3872 -1.87999 -0.0615568 0
M  V30 190 O 18.7452 -1.48734 -1.03672 0
M  V30 191 C 18.7932 -2.86353 2.19167 0
M  V30 192 O 17.8972 -3.80442 1.59178 0
M  V30 193 H 17.2382 -0.476569 0.462362 0
M  V30 194 H 19.7682 -0.963853 1.80474 0
M  V30 195 H 19.7782 -3.35519 2.32145 0
M  V30 196 H 18.4532 -2.63299 3.21942 0
M  V30 197 H 17.0302 -3.39067 1.55203 0
M  V30 198 N 19.2153 -1.21501 -1.00376 0
M  V30 199 C 20.4613 -1.03452 -1.74429 0
M  V30 200 C 20.7943 0.430764 -1.89362 0
M  V30 201 O 20.0693 1.31962 -1.42886 0
M  V30 202 C 20.3523 -1.73375 -3.15615 0
M  V30 203 C 20.2053 -3.27431 -3.08397 0
M  V30 204 C 21.5243 -1.47732 -4.14564 0
M  V30 205 H 18.6433 -0.377226 -0.633143 0
M  V30 206 H 21.2853 -1.49693 -1.17013 0
M  V30 207 H 19.4353 -1.34064 -3.64636 0
M  V30 208 H 21.1073 -3.76119 -2.67081 0
M  V30 209 H 19.3503 -3.5767 -2.45468 0
M  V30 210 H 20.0213 -3.71524 -4.08258 0
M  V30 211 H 22.4973 -1.8186 -3.74254 0
M  V30 212 H 21.3733 -1.99169 -5.11491 0
M  V30 213 H 21.6343 -0.407589 -4.40217 0
M  V30 214 N 20.6934 1.19889 -1.02296 0
M  V30 215 C 21.6434 2.20777 -0.56934 0
M  V30 216 C 22.6274 1.56379 0.378741 0
M  V30 217 O 23.8194 1.75859 0.200673 0
M  V30 218 C 20.9484 3.43196 0.0845077 0
M  V30 219 C 20.0344 4.14749 -0.88566 0
M  V30 220 N 20.4254 4.62584 -2.04573 0
M  V30 221 C 18.7234 4.40347 -0.707835 0
M  V30 222 C 19.4244 5.17466 -2.65714 0
M  V30 223 N 18.4004 5.0791 -1.93723 0
M  V30 224 H 22.2024 2.55434 -1.45365 0
M  V30 225 H 19.7164 1.35897 -0.88915 0
M  V30 226 H 21.7134 4.14707 0.427067 0
M  V30 227 H 20.3734 3.10042 0.964574 0
M  V30 228 H 21.3844 4.57597 -2.4254 0
M  V30 229 H 18.0614 4.17317 0.12364 0
M  V30 230 H 19.4514 5.64808 -3.63925 0
M  V30 231 N 22.1715 0.800033 1.35784 0
M  V30 232 C 23.3965 0.388511 2.03729 0
M  V30 233 C 23.8215 -0.990481 1.5991 0
M  V30 234 O 23.1795 -1.64013 0.772612 0
M  V30 235 C 23.2275 0.4726 3.5749 0
M  V30 236 O 22.3315 -0.51646 4.09153 0
M  V30 237 H 21.6725 0.163271 0.643614 0
M  V30 238 H 24.2025 1.0841 1.73518 0
M  V30 239 H 24.2125 0.34003 4.06581 0
M  V30 240 H 22.8875 1.47848 3.88734 0
M  V30 241 H 21.4645 -0.344673 3.71304 0
M  V30 242 N 23.6496 -1.47581 0.552962 0
M  V30 243 C 24.5976 -2.31648 -0.21023 0
M  V30 244 C 25.5916 -1.42663 -0.913432 0
M  V30 245 O 26.7976 -1.5945 -0.835201 0
M  V30 246 H 23.1726 -0.746989 -0.0866676 0
M  V30 247 H 25.1436 -2.93869 0.518051 0
M  V30 248 C 23.8926 -3.25226 -1.22976 0
M  V30 249 H 23.2156 -3.93658 -0.698077 0
M  V30 250 H 24.6556 -3.86889 -1.73473 0
M  V30 251 C 23.1146 -2.48448 -2.27542 0
M  V30 252 O 23.6446 -2.22585 -3.34393 0
M  V30 253 N 21.8506 -2.09532 -2.01357 0
M  V30 254 H 21.3976 -2.30765 -1.14478 0
M  V30 255 H 21.3556 -1.58476 -2.71538 0
M  V30 256 N 25.1277 -0.289203 -1.54924 0
M  V30 257 C 26.3747 0.323519 -1.99899 0
M  V30 258 C 26.7027 1.54797 -1.17762 0
M  V30 259 O 25.9577 1.94237 -0.238835 0
M  V30 260 C 26.2567 0.736119 -3.49737 0
M  V30 261 C 25.9227 -0.385276 -4.49251 0
M  V30 262 C 24.5847 -0.693156 -4.76181 0
M  V30 263 C 26.9367 -1.14021 -5.08575 0
M  V30 264 C 24.2647 -1.7593 -5.59701 0
M  V30 265 C 26.6167 -2.19619 -5.93254 0
M  V30 266 C 25.2807 -2.51026 -6.185 0
M  V30 267 H 24.5507 0.118384 -0.731482 0
M  V30 268 H 27.1977 -0.405847 -1.8715 0
M  V30 269 H 25.5027 1.54539 -3.60035 0
M  V30 270 H 27.1997 1.22118 -3.81953 0
M  V30 271 H 23.7897 -0.135202 -4.28387 0
M  V30 272 H 27.9737 -0.915611 -4.87781 0
M  V30 273 H 23.2297 -2.0075 -5.77503 0
M  V30 274 H 27.4037 -2.78581 -6.38252 0
M  V30 275 H 25.0307 -3.33772 -6.83008 0
M  V30 276 N 26.6058 1.57591 -0.0167156 0
M  V30 277 C 27.8308 1.9598 0.67872 0
M  V30 278 C 28.2558 0.892546 1.65575 0
M  V30 279 O 27.6138 -0.147772 1.80697 0
M  V30 280 C 27.6618 3.33468 1.37227 0
M  V30 281 O 26.7658 3.28954 2.48722 0
M  V30 282 H 26.1068 0.639339 0.17928 0
M  V30 283 H 28.6368 2.04463 -0.0748802 0
M  V30 284 H 28.6468 3.69417 1.7319 0
M  V30 285 H 27.3218 4.10694 0.656007 0
M  V30 286 H 25.8988 3.04705 2.14963 0
M  V30 287 N 28.0839 -0.256276 1.55502 0
M  V30 288 C 28.9939 -1.33882 1.92647 0
M  V30 289 C 30.0099 -1.53159 0.825727 0
M  V30 290 O 31.1859 -1.66963 1.12629 0
M  V30 291 C 28.2509 -2.6751 2.20543 0
M  V30 292 C 27.3119 -2.56836 3.43997 0
M  V30 293 C 26.5449 -3.84092 3.70553 0
M  V30 294 O 26.7679 -4.85545 2.99336 0
M  V30 295 O 25.7019 -3.83288 4.64084 0
M  V30 296 H 29.5279 -1.05374 2.84833 0
M  V30 297 H 27.1129 -0.456237 1.42263 0
M  V30 298 H 28.9949 -3.46492 2.39835 0
M  V30 299 H 27.6699 -2.9577 1.31536 0
M  V30 300 H 26.5769 -1.76172 3.30021 0
M  V30 301 H 27.9099 -2.33523 4.33275 0
M  V30 302 N 29.562 -1.4872 -0.521534 0
M  V30 303 C 30.509 -1.63871 -1.62527 0
M  V30 304 C 31.479 -0.480559 -1.58996 0
M  V30 305 O 32.664 -0.705085 -1.77294 0
M  V30 306 C 29.804 -1.69227 -3.00759 0
M  V30 307 C 28.917 -2.96207 -3.14461 0
M  V30 308 C 28.052 -2.92671 -4.43303 0
M  V30 309 C 27.091 -4.14318 -4.50563 0
M  V30 310 N 26.228 -4.0881 -5.70805 0
M  V30 311 H 31.068 -2.58123 -1.48918 0
M  V30 312 H 28.605 -1.28 -0.724878 0
M  V30 313 H 30.563 -1.70314 -3.80853 0
M  V30 314 H 29.193 -0.784586 -3.1312 0
M  V30 315 H 28.245 -3.04826 -2.27564 0
M  V30 316 H 29.557 -3.86192 -3.15686 0
M  V30 317 H 28.711 -2.92206 -5.31696 0
M  V30 318 H 27.45 -2.00429 -4.44612 0
M  V30 319 H 26.455 -4.15049 -3.60575 0
M  V30 320 H 27.68 -5.07729 -4.50986 0
M  V30 321 H 25.626 -3.19394 -5.72995 0
M  V30 322 H 25.543 -4.92509 -5.7356 0
M  V30 323 H 26.811 -4.12418 -6.61462 0
M  V30 324 N 31.0401 0.771051 -1.3745 0
M  V30 325 C 31.9881 1.90574 -1.33358 0
M  V30 326 C 32.9821 1.67936 -0.22224 0
M  V30 327 O 34.1881 1.75717 -0.390304 0
M  V30 328 H 30.5631 0.626714 -0.415612 0
M  V30 329 H 32.5341 1.91142 -2.29144 0
M  V30 330 C 31.2831 3.27845 -1.15813 0
M  V30 331 H 30.6061 3.45842 -2.00583 0
M  V30 332 H 32.0461 4.07538 -1.17 0
M  V30 333 C 30.5051 3.36625 0.136165 0
M  V30 334 O 31.0351 3.85785 1.11949 0
M  V30 335 N 29.2411 2.89997 0.187099 0
M  V30 336 H 28.7881 2.50182 -0.613753 0
M  V30 337 H 28.7461 2.96252 1.05272 0
M  V30 338 N 32.5182 1.22032 0.997298 0
M  V30 339 C 33.4812 0.987909 2.06816 0
M  V30 340 C 34.4812 -0.0440084 1.6074 0
M  V30 341 O 35.6712 0.194053 1.73116 0
M  V30 342 C 32.8032 0.49132 3.37341 0
M  V30 343 H 33.9962 1.93803 2.28868 0
M  V30 344 H 31.5492 1.03838 1.16822 0
M  V30 345 H 32.2842 -0.463364 3.20973 0
M  V30 346 H 32.0692 1.23575 3.72118 0
M  V30 347 H 33.5592 0.348824 4.16141 0
M  V30 348 N 33.9963 -1.19345 1.0293 0
M  V30 349 C 34.9283 -2.22036 0.56857 0
M  V30 350 C 35.9413 -1.58865 -0.355779 0
M  V30 351 O 37.1303 -1.77851 -0.152103 0
M  V30 352 C 34.2303 -3.38363 -0.190752 0
M  V30 353 C 33.4033 -4.31118 0.738643 0
M  V30 354 C 32.4623 -5.26194 0.0246497 0
M  V30 355 O 31.4883 -5.65461 0.651354 0
M  V30 356 N 32.6903 -5.66971 -1.24594 0
M  V30 357 H 35.4553 -2.6219 1.45177 0
M  V30 358 H 33.0163 -1.34015 0.908381 0
M  V30 359 H 35.0083 -3.98981 -0.677961 0
M  V30 360 H 33.5783 -2.96994 -0.975366 0
M  V30 361 H 32.7983 -3.68276 1.40593 0
M  V30 362 H 34.0863 -4.90001 1.37029 0
M  V30 363 H 33.4843 -5.37104 -1.77583 0
M  V30 364 H 32.0413 -6.2984 -1.67764 0
M  V30 365 N 35.4744 -0.807222 -1.35358 0
M  V30 366 C 36.4044 -0.232509 -2.3234 0
M  V30 367 C 37.3854 0.642386 -1.57504 0
M  V30 368 O 38.5704 0.572526 -1.85569 0
M  V30 369 C 35.7004 0.619238 -3.41735 0
M  V30 370 C 34.6544 -0.157215 -4.27711 0
M  V30 371 C 33.9804 0.816273 -5.28433 0
M  V30 372 C 35.2804 -1.35656 -5.04376 0
M  V30 373 H 36.9744 -1.04276 -2.80654 0
M  V30 374 H 34.5204 -0.50288 -1.34934 0
M  V30 375 H 36.4734 1.03137 -4.08584 0
M  V30 376 H 35.1974 1.46239 -2.92031 0
M  V30 377 H 33.8564 -0.550525 -3.62443 0
M  V30 378 H 33.5044 1.65494 -4.74996 0
M  V30 379 H 33.2044 0.301067 -5.86828 0
M  V30 380 H 34.7284 1.22659 -5.98153 0
M  V30 381 H 36.1424 -1.01927 -5.64166 0
M  V30 382 H 34.5394 -1.8063 -5.7227 0
M  V30 383 H 35.6094 -2.14288 -4.34981 0
M  V30 384 N 36.9525 1.47285 -0.560781 0
M  V30 385 C 37.8825 2.32857 0.173105 0
M  V30 386 C 38.8635 1.44009 0.905281 0
M  V30 387 O 40.0485 1.7286 0.885046 0
M  V30 388 C 37.1785 3.25861 1.20133 0
M  V30 389 C 36.1325 4.23978 0.585388 0
M  V30 390 C 35.4585 5.06332 1.7185 0
M  V30 391 C 36.7585 5.20242 -0.463178 0
M  V30 392 H 38.4525 2.94466 -0.541307 0
M  V30 393 H 35.9985 1.41601 -0.261764 0
M  V30 394 H 37.9515 3.84569 1.72293 0
M  V30 395 H 36.6755 2.62315 1.94573 0
M  V30 396 H 35.3345 3.66501 0.085054 0
M  V30 397 H 34.9825 4.39186 2.45203 0
M  V30 398 H 34.6825 5.72762 1.31213 0
M  V30 399 H 36.2065 5.67899 2.24329 0
M  V30 400 H 37.6205 5.73293 -0.027502 0
M  V30 401 H 36.0175 5.94896 -0.788627 0
M  V30 402 H 37.0875 4.65504 -1.35773 0
M  V30 403 N 38.4306 0.297415 1.54768 0
M  V30 404 C 39.3936 -0.567375 2.22066 0
M  V30 405 C 40.3936 -1.06409 1.20556 0
M  V30 406 O 41.5836 -0.960691 1.45315 0
M  V30 407 C 38.7156 -1.78517 2.90421 0
M  V30 408 H 39.9086 0.0205534 2.99893 0
M  V30 409 H 37.4616 0.0482163 1.56226 0
M  V30 410 H 38.1966 -2.41303 2.16664 0
M  V30 411 H 37.9816 -1.43669 3.64831 0
M  V30 412 H 39.4716 -2.39964 3.41771 0
M  V30 413 N 39.9087 -1.5758 0.0250728 0
M  V30 414 C 41.1557 -1.91633 -0.654444 0
M  V30 415 C 41.4837 -0.901103 -1.72367 0
M  V30 416 O 40.7387 0.0905647 -1.9549 0
M  V30 417 C 41.0377 -3.32421 -1.31268 0
M  V30 418 C 40.7037 -4.49344 -0.374223 0
M  V30 419 C 39.3657 -4.8106 -0.115911 0
M  V30 420 C 41.7177 -5.20498 0.270432 0
M  V30 421 C 39.0457 -5.8129 0.79493 0
M  V30 422 C 41.3977 -6.21699 1.1693 0
M  V30 423 C 40.0617 -6.51859 1.43655 0
M  V30 424 H 39.3317 -0.701236 -0.239478 0
M  V30 425 H 41.9787 -1.91307 0.0859734 0
M  V30 426 H 40.2837 -3.28989 -2.12775 0
M  V30 427 H 41.9807 -3.56038 -1.84494 0
M  V30 428 H 38.5707 -4.24579 -0.58573 0
M  V30 429 H 42.7547 -4.96229 0.0839194 0
M  V30 430 H 38.0107 -6.03005 1.00973 0
M  V30 431 H 42.1847 -6.75955 1.67504 0
M  V30 432 H 39.8117 -7.2934 2.144 0
M  V30 433 N 41.3868 0.248026 -1.55636 0
M  V30 434 C 42.2968 1.32859 -1.93354 0
M  V30 435 C 43.3128 1.52719 -0.833838 0
M  V30 436 O 44.4888 1.66363 -1.13513 0
M  V30 437 C 41.5538 2.66337 -2.21958 0
M  V30 438 C 40.6148 2.55008 -3.45354 0
M  V30 439 C 39.8478 3.82121 -3.72584 0
M  V30 440 O 40.0708 4.83951 -3.01907 0
M  V30 441 O 39.0048 3.80822 -4.6611 0
M  V30 442 H 42.8308 1.03862 -2.85388 0
M  V30 443 H 40.4158 0.448686 -1.42503 0
M  V30 444 H 42.2978 3.45216 -2.4167 0
M  V30 445 H 40.9728 2.95068 -1.33103 0
M  V30 446 H 39.8798 1.7442 -3.30951 0
M  V30 447 H 41.2128 2.31222 -4.34508 0
M  V30 448 N 42.8649 1.48995 0.513639 0
M  V30 449 C 43.8129 1.65199 1.63744 0
M  V30 450 C 44.8069 0.51809 1.61283 0
M  V30 451 O 46.0129 0.697335 1.65943 0
M  V30 452 H 42.3879 0.52069 0.542574 0
M  V30 453 H 44.3589 2.59552 1.47226 0
M  V30 454 C 43.1079 1.72409 3.01945 0
M  V30 455 H 42.4309 2.59029 3.04539 0
M  V30 456 H 43.8709 1.87785 3.80148 0
M  V30 457 C 42.3299 0.46618 3.33659 0
M  V30 458 O 42.8599 -0.413744 3.99564 0
M  V30 459 N 41.0659 0.332931 2.88687 0
M  V30 460 H 40.6129 1.04996 2.35231 0
M  V30 461 H 40.5709 -0.507665 3.10274 0
M  V30 462 N 44.343 -0.763751 1.37857 0
M  V30 463 C 45.62 -1.51244 1.24035 0
M  V30 464 C 46 -2.10472 -0.162649 0
M  V30 465 O 45.348 -1.96206 -1.17112 0
M  V30 466 C 45.558 -2.58694 2.34261 0
M  V30 467 C 46.906 -3.25878 2.72193 0
M  V30 468 O 47.93 -2.68993 2.33497 0
M  V30 469 O 46.789 -4.2874 3.38887 0
M  V30 470 H 43.883 -0.670243 0.484462 0
M  V30 471 H 46.429 -0.800031 1.49658 0
M  V30 472 H 45.201 -2.13105 3.2818 0
M  V30 473 H 44.824 -3.37527 2.10146 0
M  V30 474 N 45.8211 -1.22559 -0.990812 0
M  V30 475 C 47.0981 -0.959875 -1.70428 0
M  V30 476 C 47.4781 0.524455 -2.04481 0
M  V30 477 O 46.8261 1.49302 -1.72977 0
M  V30 478 C 47.0361 -1.85955 -2.95333 0
M  V30 479 C 48.3841 -2.11687 -3.68068 0
M  V30 480 O 49.4081 -1.8342 -3.05345 0
M  V30 481 O 48.2671 -2.59572 -4.80921 0
M  V30 482 H 45.3611 -0.361154 -0.743974 0
M  V30 483 H 47.9071 -1.33554 -1.04697 0
M  V30 484 H 46.6791 -2.86346 -2.66687 0
M  V30 485 H 46.3021 -1.4856 -3.68803 0
M  V30 486 N 47.2992 1.18797 -1.03562 0
M  V30 487 C 48.5392 1.90346 -0.744832 0
M  V30 488 C 48.9032 1.78231 0.713972 0
M  V30 489 O 50.1042 2.44441 1.11813 0
M  V30 490 C 48.3752 3.36942 -1.19184 0
M  V30 491 S 49.9342 4.26638 -1.02593 0
M  V30 492 H 46.7522 0.657343 -0.270963 0
M  V30 493 H 49.3542 1.43579 -1.32685 0
M  V30 494 H 48.0582 3.43287 -2.24905 0
M  V30 495 H 47.5892 3.88745 -0.603397 0
M  V30 496 H 49.6042 4.96164 0.0596033 0
M  V30 497 N 48.7773 0.814389 1.34928 0
M  V30 498 C 49.7273 0.202752 2.27097 0
M  V30 499 C 50.7113 -0.62799 1.48139 0
M  V30 500 O 51.9033 -0.483969 1.70255 0
M  V30 501 C 49.0323 -0.64146 3.37254 0
M  V30 502 C 48.1183 0.19944 4.23631 0
M  V30 503 N 48.5093 1.26628 4.89693 0
M  V30 504 C 46.8073 -0.0176433 4.45997 0
M  V30 505 C 47.5083 1.78031 5.53787 0
M  V30 506 N 46.4843 1.08553 5.32651 0
M  V30 507 H 50.2863 1.01893 2.75672 0
M  V30 508 H 47.8003 0.656332 1.48546 0
M  V30 509 H 49.7973 -1.09575 4.02243 0
M  V30 510 H 48.4573 -1.4559 2.9023 0
M  V30 511 H 49.4683 1.64901 4.90946 0
M  V30 512 H 46.1453 -0.800601 4.09752 0
M  V30 513 H 47.5353 2.67236 6.16469 0
M  V30 514 N 50.2554 -1.46986 0.568584 0
M  V30 515 C 51.1854 -2.32946 -0.160753 0
M  V30 516 C 52.1664 -1.44487 -0.897631 0
M  V30 517 O 53.3514 -1.73327 -0.875867 0
M  V30 518 C 50.4814 -3.26494 -1.18403 0
M  V30 519 C 49.4354 -4.24282 -0.562895 0
M  V30 520 C 48.7614 -5.07236 -1.69163 0
M  V30 521 C 50.0614 -5.19989 0.490761 0
M  V30 522 H 51.7554 -2.94175 0.556916 0
M  V30 523 H 49.3014 -1.4146 0.26927 0
M  V30 524 H 51.2544 -3.85477 -1.70251 0
M  V30 525 H 49.9784 -2.63343 -1.93179 0
M  V30 526 H 48.6374 -3.66541 -0.0656164 0
M  V30 527 H 48.2854 -4.4048 -2.42871 0
M  V30 528 H 47.9854 -5.7345 -1.28174 0
M  V30 529 H 49.5094 -5.6908 -2.21314 0
M  V30 530 H 50.9234 -5.73271 0.0579047 0
M  V30 531 H 49.3204 -5.94469 0.820165 0
M  V30 532 H 50.3904 -4.64777 1.3824 0
M  V30 533 N 51.7335 -0.305618 -1.54608 0
M  V30 534 C 53.1445 0.186098 -1.8577 0
M  V30 535 C 53.4955 1.53058 -1.22751 0
M  V30 536 O 52.6205 2.09888 -0.526893 0
M  V30 537 C 53.2155 0.344449 -3.37044 0
M  V30 538 C 51.7745 0.780384 -3.68221 0
M  V30 539 C 50.9215 -0.108554 -2.77087 0
M  V30 540 H 53.8725 -0.526485 -1.49712 0
M  V30 541 H 53.8935 1.17828 -3.61796 0
M  V30 542 H 53.4055 -0.634235 -3.82883 0
M  V30 543 H 51.5065 1.76945 -3.27904 0
M  V30 544 H 51.6195 0.596572 -4.75371 0
M  V30 545 H 49.9835 0.412931 -2.5133 0
M  V30 546 H 50.7665 -1.08368 -3.25747 0
M  V30 547 N 53.2116 1.57565 -0.0334293 0
M  V30 548 C 54.1416 2.13511 0.945265 0
M  V30 549 C 55.1226 1.05231 1.33643 0
M  V30 550 O 56.3076 1.33084 1.41429 0
M  V30 551 C 53.4376 2.6657 2.22616 0
M  V30 552 C 52.3916 3.79676 1.97561 0
M  V30 553 C 51.7176 4.1918 3.31952 0
M  V30 554 C 53.0176 5.0557 1.31135 0
M  V30 555 H 54.7116 2.95538 0.479325 0
M  V30 556 H 52.2576 1.42166 0.229115 0
M  V30 557 H 54.2106 3.04344 2.91466 0
M  V30 558 H 52.9346 1.8171 2.71384 0
M  V30 559 H 51.5936 3.42347 1.31127 0
M  V30 560 H 51.2416 3.31296 3.78487 0
M  V30 561 H 50.9416 4.95402 3.15992 0
M  V30 562 H 52.4656 4.59541 4.02063 0
M  V30 563 H 53.8796 5.40903 1.89992 0
M  V30 564 H 52.2766 5.86818 1.25559 0
M  V30 565 H 53.3466 4.84062 0.284894 0
M  V30 566 N 54.6897 -0.239769 1.55765 0
M  V30 567 C 55.6527 -1.28038 1.90103 0
M  V30 568 C 56.6527 -1.40723 0.778055 0
M  V30 569 O 57.8427 -1.39301 1.04599 0
M  V30 570 C 54.9747 -2.65702 2.13577 0
M  V30 571 H 56.1677 -0.988048 2.83157 0
M  V30 572 H 53.7207 -0.479382 1.48767 0
M  V30 573 H 54.4557 -3.00063 1.23015 0
M  V30 574 H 54.2407 -2.57875 2.95369 0
M  V30 575 H 55.7307 -3.40828 2.41301 0
M  V30 576 N 56.1678 -1.49265 -0.50573 0
M  V30 577 C 57.1008 -1.60183 -1.62532 0
M  V30 578 C 58.0788 -0.451107 -1.56217 0
M  V30 579 O 59.2628 -0.666016 -1.76342 0
M  V30 580 C 56.3898 -1.55238 -3.01029 0
M  V30 581 C 55.4358 -2.7545 -3.25621 0
M  V30 582 S 56.2688 -4.37174 -3.09256 0
M  V30 583 C 57.4248 -4.34866 -4.50158 0
M  V30 584 H 57.6578 -2.54894 -1.53025 0
M  V30 585 H 55.1908 -1.38098 -0.690535 0
M  V30 586 H 57.1488 -1.53071 -3.80893 0
M  V30 587 H 55.8098 -0.618238 -3.07956 0
M  V30 588 H 55.0028 -2.68197 -4.26716 0
M  V30 589 H 54.6048 -2.75005 -2.53472 0
M  V30 590 H 56.8968 -4.06295 -5.42154 0
M  V30 591 H 57.8398 -5.36223 -4.62462 0
M  V30 592 H 58.2478 -3.65007 -4.30616 0
M  V30 593 N 57.6459 0.756429 -1.3826 0
M  V30 594 C 58.8949 1.51082 -1.3363 0
M  V30 595 C 59.2079 1.95467 0.0720068 0
M  V30 596 O 60.4139 2.7043 0.240834 0
M  V30 597 C 58.8699 2.72893 -2.34644 0
M  V30 598 C 58.4779 2.35544 -3.81081 0
M  V30 599 C 60.2219 3.50791 -2.39052 0
M  V30 600 C 58.1289 3.53948 -4.73787 0
M  V30 601 H 57.0589 0.56727 -0.49671 0
M  V30 602 H 59.7099 0.827147 -1.638 0
M  V30 603 H 58.0919 3.43227 -1.97513 0
M  V30 604 H 59.2659 1.72894 -4.27135 0
M  V30 605 H 57.5809 1.70786 -3.79764 0
M  V30 606 H 60.1779 4.38823 -3.05513 0
M  V30 607 H 60.5209 3.91745 -1.40861 0
M  V30 608 H 61.0539 2.87467 -2.74968 0
M  V30 609 H 57.7929 3.18064 -5.73163 0
M  V30 610 H 57.3129 4.15651 -4.32428 0
M  V30 611 H 58.9919 4.20566 -4.91663 0
M  V30 612 N 59.124 1.23083 0.984299 0
M  V30 613 C 60.371 1.06057 1.72505 0
M  V30 614 C 60.699 -0.403105 1.90277 0
M  V30 615 O 59.954 -1.3149 1.44944 0
M  V30 616 C 60.253 1.72673 3.1292 0
M  V30 617 C 59.919 3.22586 3.15038 0
M  V30 618 C 58.581 3.63489 3.15324 0
M  V30 619 C 60.933 4.185 3.10657 0
M  V30 620 C 58.261 4.98772 3.08939 0
M  V30 621 C 60.613 5.53769 3.05814 0
M  V30 622 C 59.277 5.94041 3.04419 0
M  V30 623 H 58.547 0.388091 0.631242 0
M  V30 624 H 61.194 1.52963 1.15215 0
M  V30 625 H 59.499 1.18116 3.73572 0
M  V30 626 H 61.196 1.56982 3.68996 0
M  V30 627 H 57.786 2.90022 3.15571 0
M  V30 628 H 61.97 3.87911 3.09579 0
M  V30 629 H 57.226 5.29193 3.0621 0
M  V30 630 H 61.4 6.27808 3.0138 0
M  V30 631 H 59.027 6.98833 2.99227 0
M  V30 632 N 60.6021 -1.18246 1.0419 0
M  V30 633 C 61.8301 -1.92195 0.766072 0
M  V30 634 C 62.2451 -1.76247 -0.676933 0
M  V30 635 O 61.6021 -1.09293 -1.46155 0
M  V30 636 C 61.6531 -3.43568 1.12442 0
M  V30 637 O 61.3741 -3.59015 2.51078 0
M  V30 638 C 62.8751 -4.34613 0.873275 0
M  V30 639 H 60.0951 -0.610114 0.279288 0
M  V30 640 H 62.6391 -1.50007 1.38989 0
M  V30 641 H 60.7941 -3.8354 0.545542 0
M  V30 642 H 61.2081 -4.5273 2.64831 0
M  V30 643 H 62.6821 -5.39374 1.17385 0
M  V30 644 H 63.1591 -4.38781 -0.191909 0
M  V30 645 H 63.7651 -4.00341 1.43551 0
M  V30 646 N 62.0802 -0.821533 -1.34494 0
M  V30 647 C 63.0102 -0.257138 -2.3208 0
M  V30 648 C 63.9912 0.625645 -1.58176 0
M  V30 649 O 65.1762 0.552811 -1.86166 0
M  V30 650 C 62.3062 0.582958 -3.42372 0
M  V30 651 C 61.2602 -0.202571 -4.2752 0
M  V30 652 C 60.5862 0.760179 -5.29269 0
M  V30 653 C 61.8862 -1.40998 -5.02908 0
M  V30 654 H 63.5802 -1.07247 -2.79532 0
M  V30 655 H 61.1262 -0.517163 -1.34393 0
M  V30 656 H 63.0792 0.987972 -4.09655 0
M  V30 657 H 61.8032 1.43133 -2.93565 0
M  V30 658 H 60.4622 -0.588936 -3.61838 0
M  V30 659 H 60.1102 1.60447 -4.76724 0
M  V30 660 H 59.8102 0.238809 -5.87115 0
M  V30 661 H 61.3342 1.16308 -5.9942 0
M  V30 662 H 62.7482 -1.07905 -5.63054 0
M  V30 663 H 61.1452 -1.86689 -5.70322 0
M  V30 664 H 62.2152 -2.1889 -4.32684 0
M  V30 665 N 63.5583 1.46682 -0.576371 0
M  V30 666 C 64.5213 2.28707 0.150239 0
M  V30 667 C 65.5213 1.38035 0.824794 0
M  V30 668 O 66.7113 1.60476 0.677719 0
M  V30 669 C 63.8433 3.18248 1.22192 0
M  V30 670 H 65.0363 2.94423 -0.570521 0
M  V30 671 H 62.5893 1.52688 -0.334078 0
M  V30 672 H 63.3243 2.57265 1.97447 0
M  V30 673 H 63.1093 3.85 0.742812 0
M  V30 674 H 64.5993 3.80001 1.73172 0
M  V30 675 N 65.0364 0.313813 1.54444 0
M  V30 676 C 65.9664 -0.549454 2.26943 0
M  V30 677 C 66.9474 -1.12741 1.27372 0
M  V30 678 O 68.1324 -1.15436 1.56167 0
M  V30 679 C 65.2624 -1.71523 3.01989 0
M  V30 680 C 64.2164 -1.26703 4.08816 0
M  V30 681 C 63.5424 -2.51898 4.71647 0
M  V30 682 C 64.8424 -0.388962 5.2085 0
M  V30 683 H 66.5364 0.0552661 2.99349 0
M  V30 684 H 64.0824 0.0280207 1.43973 0
M  V30 685 H 66.0354 -2.32535 3.51433 0
M  V30 686 H 64.7594 -2.34639 2.27183 0
M  V30 687 H 63.4184 -0.679896 3.6024 0
M  V30 688 H 63.0664 -3.13356 3.93468 0
M  V30 689 H 62.7664 -2.22605 5.43802 0
M  V30 690 H 64.2904 -3.1369 5.23861 0
M  V30 691 H 65.7044 -0.905107 5.6611 0
M  V30 692 H 64.1014 -0.18924 5.99802 0
M  V30 693 H 65.1714 0.582699 4.81386 0
M  V30 694 N 66.5145 -1.57545 0.0417849 0
M  V30 695 C 67.4775 -2.09885 -0.92093 0
M  V30 696 C 68.4775 -1.01648 -1.24596 0
M  V30 697 O 69.6675 -1.27759 -1.1842 0
M  V30 698 C 66.7995 -2.57527 -2.23367 0
M  V30 699 H 67.9925 -2.96236 -0.467382 0
M  V30 700 H 65.5455 -1.5493 -0.206467 0
M  V30 701 H 66.2805 -1.74542 -2.73323 0
M  V30 702 H 66.0655 -3.36613 -2.01083 0
M  V30 703 H 67.5555 -2.98201 -2.92346 0
M  V30 704 N 67.9926 0.231505 -1.5589 0
M  V30 705 C 69.2226 0.973092 -1.82248 0
M  V30 706 C 69.6306 1.78845 -0.617328 0
M  V30 707 O 68.9736 1.78752 0.423499 0
M  V30 708 C 69.0356 1.94732 -3.02192 0
M  V30 709 C 68.6996 1.31743 -4.37599 0
M  V30 710 C 69.6966 0.712238 -5.14998 0
M  V30 711 C 67.3816 1.33218 -4.84312 0
M  V30 712 C 69.3756 0.130195 -6.37267 0
M  V30 713 C 67.0626 0.746286 -6.06526 0
M  V30 714 C 68.0606 0.146337 -6.82843 0
M  V30 715 O 67.7486 -0.430465 -8.02747 0
M  V30 716 H 67.4806 0.29125 -0.61004 0
M  V30 717 H 70.0346 0.254915 -2.03812 0
M  V30 718 H 68.2646 2.70422 -2.76422 0
M  V30 719 H 69.9536 2.55362 -3.15508 0
M  V30 720 H 70.7196 0.69324 -4.8002 0
M  V30 721 H 66.5986 1.78854 -4.24891 0
M  V30 722 H 70.1426 -0.33871 -6.96777 0
M  V30 723 H 66.0396 0.762663 -6.40979 0
M  V30 724 H 66.8076 -0.323818 -8.17859 0
M  V30 725 N 69.4707 1.49531 0.497807 0
M  V30 726 C 70.7187 1.58865 1.24926 0
M  V30 727 C 71.0397 0.278721 1.92998 0
M  V30 728 O 70.3097 -0.702144 1.82885 0
M  V30 729 H 68.8897 0.585343 0.464094 0
M  V30 730 H 71.5517 1.86174 0.57666 0
M  V30 731 H 70.6477 2.38633 2.01149 0
M  V30 732 N 70.9488 -0.749086 1.3866 0
M  V30 733 C 71.9118 -1.84457 1.36045 0
M  V30 734 C 72.9118 -1.58682 0.260122 0
M  V30 735 O 74.1018 -1.66343 0.517261 0
M  V30 736 C 71.2338 -3.22008 1.11911 0
M  V30 737 H 72.4268 -1.88182 2.33512 0
M  V30 738 H 69.9798 -0.951266 1.24019 0
M  V30 739 H 70.7148 -3.2395 0.150686 0
M  V30 740 H 70.4998 -3.42111 1.91579 0
M  V30 741 H 71.9898 -4.0208 1.12788 0
M  V30 742 N 72.4269 -1.23603 -0.977757 0
M  V30 743 C 73.6729 -1.07129 -1.72195 0
M  V30 744 C 74.0059 0.390501 -1.90233 0
M  V30 745 O 73.2809 1.28902 -1.45653 0
M  V30 746 C 73.5639 -1.80031 -3.11867 0
M  V30 747 C 73.4169 -3.33899 -3.01383 0
M  V30 748 C 74.7359 -1.56492 -4.11337 0
M  V30 749 H 71.8549 -0.390571 -0.624999 0
M  V30 750 H 74.4969 -1.52142 -1.13811 0
M  V30 751 H 72.6469 -1.41768 -3.6171 0
M  V30 752 H 74.3189 -3.81699 -2.59043 0
M  V30 753 H 72.5619 -3.62796 -2.37827 0
M  V30 754 H 73.2329 -3.801 -4.00285 0
M  V30 755 H 75.7089 -1.89757 -3.70313 0
M  V30 756 H 74.5849 -2.09973 -5.07151 0
M  V30 757 H 74.8459 -0.500874 -4.39254 0
M  V30 758 N 73.905 1.17692 -1.04816 0
M  V30 759 C 75.154 1.87192 -0.751132 0
M  V30 760 C 75.467 1.8169 0.724441 0
M  V30 761 O 76.673 2.46625 1.13527 0
M  V30 762 C 75.129 3.35857 -1.29338 0
M  V30 763 C 74.737 3.4987 -2.79812 0
M  V30 764 C 76.481 4.10709 -1.07322 0
M  V30 765 C 74.388 4.92536 -3.27356 0
M  V30 766 H 73.318 0.701162 -0.277288 0
M  V30 767 H 75.969 1.32932 -1.26496 0
M  V30 768 H 74.351 3.89631 -0.707376 0
M  V30 769 H 75.525 3.06332 -3.44235 0
M  V30 770 H 73.84 2.88433 -3.00325 0
M  V30 771 H 76.437 5.15952 -1.4035 0
M  V30 772 H 76.78 4.16299 -0.0108001 0
M  V30 773 H 77.313 3.6313 -1.62423 0
M  V30 774 H 74.052 4.92119 -4.33012 0
M  V30 775 H 73.572 5.3676 -2.67673 0
M  V30 776 H 75.251 5.61288 -3.21815 0
M  V30 777 N 75.3831 0.828654 1.34056 0
M  V30 778 C 76.6321 0.415828 1.97367 0
M  V30 779 C 76.9451 -1.02796 1.6641 0
M  V30 780 O 78.1511 -1.54497 2.23255 0
M  V30 781 C 76.6071 0.692601 3.53173 0
M  V30 782 C 76.2151 2.15038 3.93017 0
M  V30 783 C 77.9591 0.346222 4.23086 0
M  V30 784 C 75.8661 2.37174 5.41758 0
M  V30 785 H 74.7961 0.151755 0.738571 0
M  V30 786 H 77.4471 1.01581 1.52819 0
M  V30 787 H 75.8291 0.0223764 3.95994 0
M  V30 788 H 77.0031 2.86024 3.61285 0
M  V30 789 H 75.3181 2.45875 3.36057 0
M  V30 790 H 77.9151 0.48937 5.32456 0
M  V30 791 H 78.2581 -0.709842 4.10204 0
M  V30 792 H 78.7911 0.971258 3.85761 0
M  V30 793 H 75.5301 3.41308 5.59633 0
M  V30 794 H 75.0501 1.70738 5.74986 0
M  V30 795 H 76.7291 2.19818 6.08514 0
M  V30 796 N 76.8612 -1.46375 0.584142 0
M  V30 797 C 77.7912 -2.33103 -0.136037 0
M  V30 798 C 78.7722 -1.45431 -0.882255 0
M  V30 799 O 79.9572 -1.74246 -0.857434 0
M  V30 800 C 77.0872 -3.27731 -1.14933 0
M  V30 801 C 76.0412 -4.24855 -0.517862 0
M  V30 802 C 75.3672 -5.09001 -1.63773 0
M  V30 803 C 76.6672 -5.19439 0.545886 0
M  V30 804 H 78.3612 -2.93568 0.588086 0
M  V30 805 H 75.9072 -1.41166 0.284259 0
M  V30 806 H 77.8602 -3.87261 -1.66153 0
M  V30 807 H 76.5842 -2.65377 -1.90375 0
M  V30 808 H 75.2432 -3.6659 -0.0267361 0
M  V30 809 H 74.8912 -4.43031 -2.38185 0
M  V30 810 H 74.5912 -5.74777 -1.22085 0
M  V30 811 H 76.1152 -5.71396 -2.15266 0
M  V30 812 H 77.5292 -5.73177 0.118704 0
M  V30 813 H 75.9262 -5.93566 0.88317 0
M  V30 814 H 76.9962 -4.63285 1.43162 0
M  V30 815 N 78.3393 -0.321999 -1.54275 0
M  V30 816 C 79.5873 0.280489 -2.00144 0
M  V30 817 C 79.9083 1.52777 -1.21178 0
M  V30 818 O 79.1783 1.9338 -0.313187 0
M  V30 819 H 77.7583 0.106632 -0.73935 0
M  V30 820 H 80.4203 -0.438184 -1.8991 0
M  V30 821 H 79.5163 0.537972 -3.07428 0
M  V30 822 N 79.8174 1.5752 -0.0501392 0
M  V30 823 C 81.0634 1.92936 0.624798 0
M  V30 824 C 81.3964 0.928685 1.70555 0
M  V30 825 O 80.6714 -0.0454779 1.94447 0
M  V30 826 C 80.9544 3.38737 1.22185 0
M  V30 827 C 80.8074 4.49552 0.149218 0
M  V30 828 C 82.1264 3.84913 2.13378 0
M  V30 829 H 79.2454 0.701604 0.225657 0
M  V30 830 H 81.8874 1.89671 -0.111693 0
M  V30 831 H 80.0374 3.4165 1.84953 0
M  V30 832 H 81.7094 4.58768 -0.482648 0
M  V30 833 H 79.9524 4.30638 -0.522841 0
M  V30 834 H 80.6234 5.48653 0.606966 0
M  V30 835 H 83.0994 3.8387 1.60572 0
M  V30 836 H 81.9754 4.87584 2.52097 0
M  V30 837 H 82.2364 3.21611 3.03346 0
M  V30 838 N 81.2955 -0.223234 1.56011 0
M  V30 839 C 82.5205 -0.968978 1.83373 0
M  V30 840 C 82.9455 -1.77227 0.630254 0
M  V30 841 O 82.3035 -1.76345 -0.420959 0
M  V30 842 C 82.3515 -1.86363 3.08709 0
M  V30 843 O 81.4555 -2.95873 2.87285 0
M  V30 844 H 80.7965 -0.274461 0.604622 0
M  V30 845 H 83.3265 -0.237056 2.03222 0
M  V30 846 H 83.3365 -2.27376 3.38768 0
M  V30 847 H 82.0115 -1.27319 3.95933 0
M  V30 848 H 80.5885 -2.58818 2.68454 0
M  V30 849 N 82.7736 -1.49793 -0.48987 0
M  V30 850 C 84.0216 -1.59525 -1.24081 0
M  V30 851 C 84.3426 -0.288953 -1.92847 0
M  V30 852 O 83.6126 0.692436 -1.83254 0
M  V30 853 H 82.1926 -0.587796 -0.460983 0
M  V30 854 H 84.8546 -1.86477 -0.566778 0
M  V30 855 H 83.9506 -2.39696 -1.99881 0
M  V30 856 N 84.2517 0.741722 -1.39055 0
M  V30 857 C 85.1997 1.87702 -1.3737 0
M  V30 858 C 86.1937 1.67427 -0.257812 0
M  V30 859 O 87.3997 1.7485 -0.427489 0
M  V30 860 H 83.7747 0.617757 -0.428812 0
M  V30 861 H 85.7457 1.86239 -2.33147 0
M  V30 862 C 84.4947 3.25315 -1.22741 0
M  V30 863 H 83.8177 3.41509 -2.07873 0
M  V30 864 H 85.2577 4.04964 -1.25618 0
M  V30 865 C 83.7167 3.36838 0.0647316 0
M  V30 866 O 84.2467 3.88073 1.03741 0
M  V30 867 N 82.4527 2.90329 0.125544 0
M  V30 868 H 81.9997 2.48823 -0.666682 0
M  V30 869 H 81.9577 2.98418 0.989639 0
M  V30 870 N 85.7298 1.2412 0.971189 0
M  V30 871 C 86.6598 1.05508 2.08304 0
M  V30 872 C 87.6408 -0.0308864 1.70072 0
M  V30 873 O 88.8258 0.135521 1.93727 0
M  V30 874 C 85.9558 0.655365 3.4106 0
M  V30 875 C 84.9098 1.68971 3.93234 0
M  V30 876 C 84.2358 1.14516 5.22293 0
M  V30 877 C 85.5358 3.08487 4.21465 0
M  V30 878 H 87.2298 1.98507 2.24132 0
M  V30 879 H 84.7758 0.955821 1.07704 0
M  V30 880 H 86.7288 0.51217 4.18276 0
M  V30 881 H 85.4528 -0.31032 3.25122 0
M  V30 882 H 84.1118 1.82106 3.18171 0
M  V30 883 H 83.7598 0.170189 5.02712 0
M  V30 884 H 83.4598 1.83635 5.58168 0
M  V30 885 H 84.9838 1.01401 6.02121 0
M  V30 886 H 86.3978 2.98601 4.89398 0
M  V30 887 H 84.7948 3.74926 4.68562 0
M  V30 888 H 85.8648 3.56787 3.28376 0
M  V30 889 N 87.2079 -1.17134 1.05439 0
M  V30 890 C 88.1709 -2.19439 0.661764 0
M  V30 891 C 89.1709 -1.58199 -0.288042 0
M  V30 892 O 90.3609 -1.74053 -0.0715803 0
M  V30 893 C 87.4929 -3.40889 -0.0276209 0
M  V30 894 H 88.6859 -2.55688 1.56728 0
M  V30 895 H 86.2389 -1.31259 0.848567 0
M  V30 896 H 86.9739 -3.10187 -0.94629 0
M  V30 897 H 86.7589 -3.86586 0.655238 0
M  V30 898 H 88.2489 -4.16603 -0.288342 0
M  V30 899 N 88.686 -0.835752 -1.33615 0
M  V30 900 C 89.616 -0.281739 -2.31794 0
M  V30 901 C 90.597 0.608833 -1.58831 0
M  V30 902 O 91.782 0.533035 -1.86741 0
M  V30 903 C 88.912 0.546612 -3.42971 0
M  V30 904 C 87.866 -0.247904 -4.27281 0
M  V30 905 C 87.192 0.704001 -5.30045 0
M  V30 906 C 88.492 -1.46324 -5.01385 0
M  V30 907 H 90.186 -1.10206 -2.78379 0
M  V30 908 H 87.732 -0.531388 -1.33837 0
M  V30 909 H 89.685 0.944467 -4.1068 0
M  V30 910 H 88.409 1.40011 -2.95067 0
M  V30 911 H 87.068 -0.627281 -3.61194 0
M  V30 912 H 86.716 1.55381 -4.78399 0
M  V30 913 H 86.416 0.176524 -5.87335 0
M  V30 914 H 87.94 1.09944 -6.0062 0
M  V30 915 H 89.354 -1.13871 -5.61877 0
M  V30 916 H 87.751 -1.92728 -5.6831 0
M  V30 917 H 88.821 -2.23467 -4.30338 0
M  V30 918 N 90.1641 1.46063 -0.591896 0
M  V30 919 C 91.4131 2.01547 -0.0786637 0
M  V30 920 C 91.7261 1.46796 1.29268 0
M  V30 921 O 92.9321 1.94157 1.89777 0
M  V30 922 C 91.3881 3.59787 -0.0900024 0
M  V30 923 C 90.9961 4.23534 -1.46023 0
M  V30 924 C 92.7401 4.22895 0.368806 0
M  V30 925 C 90.6471 5.73881 -1.4288 0
M  V30 926 H 89.5771 0.753564 -0.0256388 0
M  V30 927 H 92.2281 1.677 -0.744905 0
M  V30 928 H 90.6101 3.90752 0.642586 0
M  V30 929 H 91.7841 4.04167 -2.21328 0
M  V30 930 H 90.0991 3.72558 -1.85982 0
M  V30 931 H 92.6961 5.33116 0.411258 0
M  V30 932 H 93.0391 3.9247 1.38827 0
M  V30 933 H 93.5721 3.9659 -0.31001 0
M  V30 934 H 90.3111 6.0898 -2.42536 0
M  V30 935 H 89.8311 5.95486 -0.718095 0
M  V30 936 H 91.5101 6.36776 -1.14565 0
M  V30 937 N 91.6422 0.330177 1.54103 0
M  V30 938 C 92.8912 -0.271336 1.99867 0
M  V30 939 C 93.2042 -1.52723 1.22209 0
M  V30 940 O 94.4102 -2.20515 1.58383 0
M  V30 941 C 92.8662 -0.534032 3.55916 0
M  V30 942 C 92.4742 0.705193 4.42415 0
M  V30 943 C 94.2182 -1.09514 4.1013 0
M  V30 944 C 92.1252 0.414035 5.89949 0
M  V30 945 H 91.0552 -0.105166 0.74663 0
M  V30 946 H 93.7062 0.443429 1.78062 0
M  V30 947 H 92.0882 -1.30915 3.73734 0
M  V30 948 H 93.2622 1.4804 4.36372 0
M  V30 949 H 91.5772 1.18698 3.99124 0
M  V30 950 H 94.1742 -1.3277 5.17954 0
M  V30 951 H 94.5172 -2.04656 3.62521 0
M  V30 952 H 95.0502 -0.381038 3.95971 0
M  V30 953 H 91.7892 1.33481 6.41766 0
M  V30 954 H 91.3092 -0.323336 5.98928 0
M  V30 955 H 92.9882 0.0263105 6.46995 0
M  V30 956 N 93.1203 -1.57491 0.0584922 0
M  V30 957 C 94.3693 -1.92155 -0.613146 0
M  V30 958 C 94.6823 -0.939334 -1.71569 0
M  V30 959 O 95.8883 -1.17829 -2.44599 0
M  V30 960 C 94.3443 -3.41303 -1.14195 0
M  V30 961 C 93.9523 -4.47944 -0.0711265 0
M  V30 962 C 95.6963 -3.84988 -1.78841 0
M  V30 963 C 93.6033 -5.88212 -0.613225 0
M  V30 964 H 92.5333 -0.717162 -0.232796 0
M  V30 965 H 95.1843 -1.83049 0.12857 0
M  V30 966 H 93.5663 -3.45437 -1.93621 0
M  V30 967 H 94.7403 -4.55408 0.702836 0
M  V30 968 H 93.0553 -4.13644 0.478313 0
M  V30 969 H 95.6523 -4.87159 -2.20408 0
M  V30 970 H 95.9953 -3.21632 -2.64308 0
M  V30 971 H 96.5283 -3.83401 -1.06059 0
M  V30 972 H 93.2673 -6.55183 0.203978 0
M  V30 973 H 92.7873 -5.84294 -1.35501 0
M  V30 974 H 94.4663 -6.37687 -1.09383 0
M  V30 975 N 94.5984 0.214957 -1.56127 0
M  V30 976 C 95.8474 0.936451 -1.78643 0
M  V30 977 C 96.1604 1.85237 -0.628229 0
M  V30 978 O 97.3664 2.613 -0.737186 0
M  V30 979 C 95.8224 1.7154 -3.16389 0
M  V30 980 C 95.4304 0.845299 -4.39953 0
M  V30 981 C 97.1744 2.42772 -3.48227 0
M  V30 982 C 95.0814 1.62198 -5.68723 0
M  V30 983 H 94.0114 0.353401 -0.666051 0
M  V30 984 H 96.6624 0.190169 -1.82512 0
M  V30 985 H 95.0444 2.50484 -3.06715 0
M  V30 986 H 96.2184 0.0959353 -4.607 0
M  V30 987 H 94.5334 0.244789 -4.1568 0
M  V30 988 H 97.1304 3.01394 -4.41663 0
M  V30 989 H 97.4734 3.15984 -2.71035 0
M  V30 990 H 98.0064 1.70813 -3.5926 0
M  V30 991 H 94.7454 0.933011 -6.48826 0
M  V30 992 H 94.2654 2.34579 -5.52026 0
M  V30 993 H 95.9444 2.18095 -6.09133 0
M  V30 994 N 96.0765 1.50051 0.48192 0
M  V30 995 C 97.0065 1.71046 1.58951 0
M  V30 996 C 97.9875 0.559288 1.60642 0
M  V30 997 O 99.1725 0.797243 1.77081 0
M  V30 998 C 96.3025 1.79462 2.97339 0
M  V30 999 C 95.2565 2.94558 3.10515 0
M  V30 1000 C 94.5825 2.88105 4.50444 0
M  V30 1001 C 95.8825 4.35227 2.88747 0
M  V30 1002 H 97.5765 2.6378 1.41635 0
M  V30 1003 H 95.1225 1.26936 0.679942 0
M  V30 1004 H 97.0755 1.92734 3.74742 0
M  V30 1005 H 95.7995 0.833412 3.15788 0
M  V30 1006 H 94.4585 2.80918 2.35543 0
M  V30 1007 H 94.1065 1.89853 4.65795 0
M  V30 1008 H 93.8065 3.65366 4.60197 0
M  V30 1009 H 95.3305 3.03412 5.29881 0
M  V30 1010 H 96.7445 4.49449 3.55905 0
M  V30 1011 H 95.1415 5.13856 3.09955 0
M  V30 1012 H 96.2115 4.48347 1.84696 0
M  V30 1013 N 97.5546 -0.734337 1.39446 0
M  V30 1014 C 98.5016 -1.84835 1.38219 0
M  V30 1015 C 99.4716 -1.64331 0.24179 0
M  V30 1016 O 100.657 -1.85728 0.437002 0
M  V30 1017 C 97.7966 -3.22355 1.23212 0
M  V30 1018 C 96.9096 -3.5456 2.46801 0
M  V30 1019 C 96.0446 -4.81485 2.24377 0
M  V30 1020 C 95.0836 -5.06536 3.43639 0
M  V30 1021 N 94.2206 -6.24665 3.20528 0
M  V30 1022 H 99.0606 -1.85219 2.33448 0
M  V30 1023 H 96.5976 -0.905039 1.15963 0
M  V30 1024 H 98.5556 -4.0174 1.12522 0
M  V30 1025 H 97.1856 -3.21248 0.316121 0
M  V30 1026 H 96.2376 -2.69872 2.68092 0
M  V30 1027 H 97.5496 -3.6899 3.3563 0
M  V30 1028 H 96.7036 -5.68852 2.10933 0
M  V30 1029 H 95.4426 -4.6923 1.32944 0
M  V30 1030 H 94.4476 -4.17632 3.5758 0
M  V30 1031 H 95.6726 -5.20676 4.35974 0
M  V30 1032 H 93.6186 -6.13696 2.3176 0
M  V30 1033 H 93.5356 -6.39685 4.02913 0
M  V30 1034 H 94.8036 -7.14868 3.10779 0
M  V30 1035 N 99.0327 -1.24633 -0.964593 0
M  V30 1036 C 99.9647 -0.999302 -2.06268 0
M  V30 1037 C 100.978 0.0323226 -1.62768 0
M  V30 1038 O 102.167 -0.205079 -1.77318 0
M  V30 1039 C 99.2667 -0.486816 -3.35385 0
M  V30 1040 C 98.4397 -1.5823 -4.07777 0
M  V30 1041 C 97.4987 -1.07191 -5.15166 0
M  V30 1042 O 96.5247 -1.76426 -5.41168 0
M  V30 1043 N 97.7267 0.0920373 -5.80427 0
M  V30 1044 H 100.492 -1.94477 -2.28033 0
M  V30 1045 H 98.0527 -1.15704 -1.13244 0
M  V30 1046 H 100.045 -0.130066 -4.04491 0
M  V30 1047 H 98.6147 0.364459 -3.10468 0
M  V30 1048 H 97.8347 -2.11109 -3.32906 0
M  V30 1049 H 99.1227 -2.31854 -4.52903 0
M  V30 1050 H 98.5207 0.670784 -5.61709 0
M  V30 1051 H 97.0777 0.389905 -6.50633 0
M  V30 1052 N 100.511 1.16574 -1.06058 0
M  V30 1053 C 101.458 2.20883 -0.669263 0
M  V30 1054 C 102.428 1.62729 0.332918 0
M  V30 1055 O 103.613 1.895 0.222346 0
M  V30 1056 C 100.753 3.45049 -0.0593572 0
M  V30 1057 C 99.8658 4.17458 -1.11143 0
M  V30 1058 C 99.0008 5.29135 -0.467916 0
M  V30 1059 C 98.0398 5.93343 -1.50369 0
M  V30 1060 N 97.1768 6.96516 -0.883706 0
M  V30 1061 H 102.017 2.53709 -1.5632 0
M  V30 1062 H 99.5538 1.24616 -0.781625 0
M  V30 1063 H 101.512 4.16033 0.311771 0
M  V30 1064 H 100.142 3.12781 0.797992 0
M  V30 1065 H 99.1938 3.45101 -1.60029 0
M  V30 1066 H 100.506 4.61307 -1.89731 0
M  V30 1067 H 99.6598 6.06684 -0.0436871 0
M  V30 1068 H 98.3988 4.86443 0.349864 0
M  V30 1069 H 97.4038 5.14517 -1.93784 0
M  V30 1070 H 98.6288 6.38114 -2.32352 0
M  V30 1071 H 96.5748 6.55943 -0.086595 0
M  V30 1072 H 96.4918 7.38723 -1.607 0
M  V30 1073 H 97.7598 7.77993 -0.484543 0
M  V30 1074 N 101.989 0.842826 1.3317 0
M  V30 1075 C 102.899 0.281444 2.32906 0
M  V30 1076 C 103.915 -0.594587 1.63526 0
M  V30 1077 O 105.091 -0.49777 1.95152 0
M  V30 1078 C 102.156 -0.530929 3.42611 0
M  V30 1079 C 101.217 0.369843 4.27704 0
M  V30 1080 C 100.45 -0.403853 5.3217 0
M  V30 1081 O 100.673 -1.63513 5.46461 0
M  V30 1082 O 99.6069 0.224199 6.01482 0
M  V30 1083 H 103.433 1.10744 2.82789 0
M  V30 1084 H 101.018 0.60545 1.36582 0
M  V30 1085 H 102.9 -0.992437 4.09547 0
M  V30 1086 H 101.575 -1.33392 2.94938 0
M  V30 1087 H 100.482 0.879275 3.6362 0
M  V30 1088 H 101.815 1.13771 4.78871 0
M  V30 1089 N 103.467 -1.45747 0.599634 0
M  V30 1090 C 104.4 -2.27547 -0.172552 0
M  V30 1091 C 105.378 -1.36657 -0.881116 0
M  V30 1092 O 106.562 -1.66081 -0.891595 0
M  V30 1093 C 103.689 -3.14829 -1.24903 0
M  V30 1094 C 102.735 -4.21603 -0.644465 0
M  V30 1095 S 103.568 -5.32754 0.541606 0
M  V30 1096 C 104.724 -6.23604 -0.535656 0
M  V30 1097 H 104.957 -2.92691 0.521468 0
M  V30 1098 H 102.49 -1.49473 0.386947 0
M  V30 1099 H 104.448 -3.65675 -1.86527 0
M  V30 1100 H 103.109 -2.48965 -1.91508 0
M  V30 1101 H 102.302 -4.82566 -1.45417 0
M  V30 1102 H 101.904 -3.73857 -0.103534 0
M  V30 1103 H 104.196 -6.62519 -1.41686 0
M  V30 1104 H 105.139 -7.0809 0.0376246 0
M  V30 1105 H 105.547 -5.58103 -0.84741 0
M  V30 1106 N 104.945 -0.338344 -1.53925 0
M  V30 1107 C 106.361 0.0137736 -1.59594 0
M  V30 1108 C 106.561 1.49186 -1.35447 0
M  V30 1109 O 105.617 2.24987 -1.14616 0
M  V30 1110 C 106.93 -0.41773 -2.97784 0
M  V30 1111 C 108.478 -0.369633 -3.1081 0
M  V30 1112 C 108.953 -0.776524 -4.51369 0
M  V30 1113 N 110.444 -0.730506 -4.57403 0
M  V30 1114 C 111.179 -1.01736 -5.64303 0
M  V30 1115 N 110.675 -1.3721 -6.79077 0
M  V30 1116 N 112.468 -0.941942 -5.54151 0
M  V30 1117 H 104.619 -1.3012 -1.67876 0
M  V30 1118 H 106.882 -0.530082 -0.78595 0
M  V30 1119 H 106.588 -1.44811 -3.20504 0
M  V30 1120 H 106.462 0.209729 -3.76616 0
M  V30 1121 H 108.849 0.651568 -2.87817 0
M  V30 1122 H 108.93 -1.03223 -2.34049 0
M  V30 1123 H 108.574 -1.79571 -4.75096 0
M  V30 1124 H 108.504 -0.0914649 -5.26521 0
M  V30 1125 H 110.995 -0.468783 -3.74981 0
M  V30 1126 H 111.308 -1.57597 -7.5656 0
M  V30 1127 H 109.653 -1.4105 -6.80536 0
M  V30 1128 H 112.844 -0.664184 -4.63364 0
M  V30 1129 H 113.017 -1.16884 -6.37371 0
M  V30 1130 N 106.423 1.57458 -0.0668435 0
M  V30 1131 C 107.371 2.13639 0.919851 0
M  V30 1132 C 108.365 1.07204 1.31163 0
M  V30 1133 O 109.571 1.25591 1.28945 0
M  V30 1134 H 105.946 0.683048 0.314562 0
M  V30 1135 H 107.917 2.95415 0.421047 0
M  V30 1136 C 106.666 2.70892 2.17975 0
M  V30 1137 H 105.989 3.5246 1.88711 0
M  V30 1138 H 107.429 3.13803 2.85138 0
M  V30 1139 C 105.888 1.65414 2.93496 0
M  V30 1140 O 106.418 1.07619 3.87015 0
M  V30 1141 N 104.624 1.36564 2.56512 0
M  V30 1142 H 104.171 1.83751 1.80536 0
M  V30 1143 H 104.129 0.66223 3.07347 0
M  V30 1144 N 107.901 -0.206675 1.56239 0
M  V30 1145 C 109.147 -0.930218 1.80208 0
M  V30 1146 C 109.48 -1.83387 0.638981 0
M  V30 1147 O 108.755 -1.91119 -0.361066 0
M  V30 1148 C 109.038 -1.75641 3.1436 0
M  V30 1149 C 108.891 -0.878257 4.41142 0
M  V30 1150 C 110.21 -2.73129 3.45092 0
M  V30 1151 H 107.329 -0.336742 0.655571 0
M  V30 1152 H 109.971 -0.198222 1.88963 0
M  V30 1153 H 108.121 -2.38048 3.07027 0
M  V30 1154 H 109.793 -0.269787 4.6051 0
M  V30 1155 H 108.036 -0.184385 4.33408 0
M  V30 1156 H 108.707 -1.49106 5.3148 0
M  V30 1157 H 111.183 -2.20856 3.52649 0
M  V30 1158 H 110.059 -3.28028 4.40101 0
M  V30 1159 H 110.32 -3.51606 2.68003 0
M  V30 1160 N 109.379 -1.50304 -0.473955 0
M  V30 1161 C 110.607 -1.64902 -1.24959 0
M  V30 1162 C 111.022 -0.331198 -1.85872 0
M  V30 1163 O 110.379 0.68652 -1.69095 0
M  V30 1164 C 110.43 -2.73803 -2.36038 0
M  V30 1165 O 110.151 -4.00477 -1.77624 0
M  V30 1166 C 111.652 -2.99349 -3.26964 0
M  V30 1167 H 108.872 -0.554383 -0.378022 0
M  V30 1168 H 111.416 -1.9651 -0.566054 0
M  V30 1169 H 109.571 -2.44898 -3.00173 0
M  V30 1170 H 109.985 -4.60678 -2.5075 0
M  V30 1171 H 111.459 -3.79217 -4.01121 0
M  V30 1172 H 111.936 -2.10307 -3.85574 0
M  V30 1173 H 112.542 -3.29774 -2.68569 0
M  V30 1174 N 110.857 0.726932 -1.39834 0
M  V30 1175 C 111.805 1.86235 -1.39353 0
M  V30 1176 C 112.799 1.67144 -0.275555 0
M  V30 1177 O 114.005 1.74387 -0.44601 0
M  V30 1178 H 110.38 0.613174 -0.43534 0
M  V30 1179 H 112.351 1.83756 -2.35109 0
M  V30 1180 C 111.1 3.23995 -1.26185 0
M  V30 1181 H 110.423 3.39285 -2.11484 0
M  V30 1182 H 111.863 4.03609 -1.29907 0
M  V30 1183 C 110.322 3.36888 0.0290018 0
M  V30 1184 O 110.852 3.89152 0.99619 0
M  V30 1185 N 109.058 2.90446 0.0947437 0
M  V30 1186 H 108.605 2.48102 -0.693035 0
M  V30 1187 H 108.563 2.99451 0.957932 0
M  V30 1188 N 112.336 1.25143 0.95797 0
M  V30 1189 C 113.585 1.0909 1.69654 0
M  V30 1190 C 113.898 -0.368548 1.92097 0
M  V30 1191 O 115.104 -0.649455 2.63618 0
M  V30 1192 C 113.56 1.90395 3.05414 0
M  V30 1193 C 113.168 3.4081 2.90779 0
M  V30 1194 C 114.912 1.82901 3.83076 0
M  V30 1195 C 112.819 4.14423 4.21909 0
M  V30 1196 H 111.749 0.404625 0.636235 0
M  V30 1197 H 114.4 1.4931 1.06672 0
M  V30 1198 H 112.782 1.42996 3.69281 0
M  V30 1199 H 113.956 3.95859 2.35865 0
M  V30 1200 H 112.271 3.49361 2.26575 0
M  V30 1201 H 114.868 2.35196 4.80195 0
M  V30 1202 H 115.211 0.796224 4.08615 0
M  V30 1203 H 115.744 2.28033 3.25954 0
M  V30 1204 H 112.483 5.18102 4.01561 0
M  V30 1205 H 112.003 3.64159 4.76601 0
M  V30 1206 H 113.682 4.21956 4.90471 0
M  V30 1207 N 113.814 -1.1601 1.06675 0
M  V30 1208 C 114.744 -2.22688 0.702307 0
M  V30 1209 C 115.725 -1.67306 -0.307032 0
M  V30 1210 O 116.91 -1.93352 -0.181305 0
M  V30 1211 C 114.04 -3.47178 0.092038 0
M  V30 1212 C 112.994 -4.15477 1.02777 0
M  V30 1213 C 112.32 -5.33963 0.28061 0
M  V30 1214 C 113.62 -4.66019 2.35846 0
M  V30 1215 H 115.314 -2.53429 1.59419 0
M  V30 1216 H 112.86 -1.21813 0.767961 0
M  V30 1217 H 114.813 -4.21037 -0.174814 0
M  V30 1218 H 113.537 -3.15749 -0.834877 0
M  V30 1219 H 112.196 -3.43549 1.27944 0
M  V30 1220 H 111.844 -4.98788 -0.649545 0
M  V30 1221 H 111.544 -5.806 0.904258 0
M  V30 1222 H 113.068 -6.10596 0.021396 0
M  V30 1223 H 114.482 -5.3144 2.15045 0
M  V30 1224 H 112.879 -5.23293 2.93743 0
M  V30 1225 H 113.949 -3.82023 2.98641 0
M  V30 1226 N 115.292 -0.849877 -1.32721 0
M  V30 1227 C 116.541 -0.447175 -1.96681 0
M  V30 1228 C 116.854 1.00135 -1.68025 0
M  V30 1229 O 118.06 1.50926 -2.25685 0
M  V30 1230 C 116.516 -0.7487 -3.52026 0
M  V30 1231 C 116.124 -2.21264 -3.89546 0
M  V30 1232 C 117.868 -0.413487 -4.22481 0
M  V30 1233 C 115.775 -2.45763 -5.37917 0
M  V30 1234 H 114.705 -0.163486 -0.736063 0
M  V30 1235 H 117.356 -1.03999 -1.51183 0
M  V30 1236 H 115.738 -0.0853727 -3.95908 0
M  V30 1237 H 116.912 -2.91736 -3.56689 0
M  V30 1238 H 115.227 -2.5119 -3.32103 0
M  V30 1239 H 117.824 -0.574017 -5.3161 0
M  V30 1240 H 118.167 0.644492 -4.11281 0
M  V30 1241 H 118.7 -1.03251 -3.84167 0
M  V30 1242 H 115.439 -3.50168 -5.54132 0
M  V30 1243 H 114.959 -1.79864 -5.72197 0
M  V30 1244 H 116.638 -2.29471 -6.0494 0
M  V30 1245 N 116.77 1.45427 -0.607355 0
M  V30 1246 C 118.016 2.0254 -0.102607 0
M  V30 1247 C 118.349 1.47478 1.26348 0
M  V30 1248 O 117.624 0.64939 1.83339 0
M  V30 1249 C 117.907 3.60044 -0.0634347 0
M  V30 1250 C 117.76 4.2544 -1.46017 0
M  V30 1251 C 119.079 4.35646 0.624514 0
M  V30 1252 H 116.198 0.73598 -0.0387607 0
M  V30 1253 H 118.84 1.73284 -0.779282 0
M  V30 1254 H 116.99 3.85101 0.512808 0
M  V30 1255 H 118.662 4.11569 -2.08347 0
M  V30 1256 H 116.905 3.83849 -2.02094 0
M  V30 1257 H 117.576 5.34342 -1.385 0
M  V30 1258 H 120.052 4.15882 0.134723 0
M  V30 1259 H 118.928 5.45376 0.621028 0
M  V30 1260 H 119.189 4.08501 1.69055 0
M  V30 1261 N 118.248 0.346503 1.53744 0
M  V30 1262 C 119.196 -0.52422 2.26616 0
M  V30 1263 C 120.19 -1.09948 1.28871 0
M  V30 1264 O 121.396 -1.04488 1.46568 0
M  V30 1265 H 117.771 -0.187743 0.728187 0
M  V30 1266 H 119.742 0.11239 2.98188 0
M  V30 1267 C 118.491 -1.66186 3.05414 0
M  V30 1268 H 117.814 -1.22848 3.80458 0
M  V30 1269 H 119.254 -2.24622 3.59612 0
M  V30 1270 C 117.713 -2.59302 2.1509 0
M  V30 1271 O 118.243 -3.61628 1.74895 0
M  V30 1272 N 116.449 -2.28055 1.8011 0
M  V30 1273 H 115.996 -1.44883 2.12994 0
M  V30 1274 H 115.954 -2.90615 1.19958 0
M  V30 1275 N 119.726 -1.57421 0.075193 0
M  V30 1276 C 120.656 -2.15942 -0.888324 0
M  V30 1277 C 121.637 -1.08737 -1.30806 0
M  V30 1278 O 122.822 -1.36787 -1.37851 0
M  V30 1279 C 119.952 -2.72379 -2.1547 0
M  V30 1280 C 118.906 -3.8478 -1.87425 0
M  V30 1281 C 118.232 -4.27834 -3.20721 0
M  V30 1282 C 119.532 -5.08869 -1.17684 0
M  V30 1283 H 121.226 -2.96705 -0.400799 0
M  V30 1284 H 118.772 -1.42723 -0.191342 0
M  V30 1285 H 120.725 -3.11965 -2.83295 0
M  V30 1286 H 119.449 -1.88841 -2.6647 0
M  V30 1287 H 118.108 -3.45703 -1.22004 0
M  V30 1288 H 117.756 -3.41214 -3.6957 0
M  V30 1289 H 117.456 -5.03605 -3.02746 0
M  V30 1290 H 118.98 -4.70039 -3.89738 0
M  V30 1291 H 120.394 -5.4575 -1.75584 0
M  V30 1292 H 118.791 -5.8994 -1.09956 0
M  V30 1293 H 119.861 -4.84648 -0.156453 0
M  V30 1294 N 121.204 0.198386 -1.56346 0
M  V30 1295 C 122.429 0.939682 -1.84891 0
M  V30 1296 C 122.854 1.76202 -0.658369 0
M  V30 1297 O 122.212 1.76993 0.392851 0
M  V30 1298 C 122.26 1.81428 -3.11635 0
M  V30 1299 O 121.364 2.91265 -2.91956 0
M  V30 1300 H 120.705 0.264807 -0.608912 0
M  V30 1301 H 123.235 0.204695 -2.03573 0
M  V30 1302 H 123.245 2.21958 -3.42343 0
M  V30 1303 H 121.92 1.21004 -3.97908 0
M  V30 1304 H 120.497 2.54514 -2.72538 0
M  V30 1305 N 122.682 1.50554 0.465978 0
M  V30 1306 C 123.929 1.61798 1.21768 0
M  V30 1307 C 124.257 0.320696 1.91838 0
M  V30 1308 O 123.512 -0.693724 1.82992 0
M  V30 1309 C 123.811 2.75152 2.28093 0
M  V30 1310 C 123.477 4.15454 1.75239 0
M  V30 1311 C 122.139 4.53628 1.60546 0
M  V30 1312 C 124.491 5.03121 1.36083 0
M  V30 1313 C 121.819 5.77204 1.05128 0
M  V30 1314 C 124.171 6.27249 0.821056 0
M  V30 1315 C 122.835 6.64221 0.660795 0
M  V30 1316 H 122.105 0.592063 0.445582 0
M  V30 1317 H 124.752 1.84503 0.512927 0
M  V30 1318 H 123.057 2.46556 3.04496 0
M  V30 1319 H 124.754 2.81055 2.86023 0
M  V30 1320 H 121.344 3.85341 1.87644 0
M  V30 1321 H 125.528 4.74257 1.46267 0
M  V30 1322 H 120.784 6.0452 0.91462 0
M  V30 1323 H 124.958 6.94537 0.509018 0
M  V30 1324 H 122.585 7.59854 0.229226 0
M  V30 1325 N 124.16 -0.719506 1.40217 0
M  V30 1326 C 125.385 -1.51371 1.4178 0
M  V30 1327 C 125.81 -1.88091 0.0182355 0
M  V30 1328 O 125.168 -1.52997 -0.972707 0
M  V30 1329 C 125.216 -2.768 2.31115 0
M  V30 1330 O 124.32 -3.73349 1.7517 0
M  V30 1331 H 123.661 -0.456529 0.482159 0
M  V30 1332 H 126.191 -0.88644 1.844 0
M  V30 1333 H 126.201 -3.25371 2.46167 0
M  V30 1334 H 124.876 -2.49407 3.3282 0
M  V30 1335 H 123.453 -3.32179 1.69444 0
M  V30 1336 N 125.638 -1.25649 -0.95132 0
M  V30 1337 C 126.915 -1.01361 -1.67288 0
M  V30 1338 C 127.295 0.459135 -2.06046 0
M  V30 1339 O 126.643 1.43723 -1.7764 0
M  V30 1340 C 126.853 -1.95256 -2.89268 0
M  V30 1341 C 128.201 -2.23289 -3.61147 0
M  V30 1342 O 129.225 -1.93041 -2.99355 0
M  V30 1343 O 128.084 -2.74741 -4.72419 0
M  V30 1344 H 125.178 -0.38464 -0.732107 0
M  V30 1345 H 127.724 -1.36817 -1.00395 0
M  V30 1346 H 126.496 -2.94685 -2.57442 0
M  V30 1347 H 126.119 -1.60218 -3.6389 0
M  V30 1348 N 127.117 1.15442 -1.07289 0
M  V30 1349 C 128.047 2.22312 -0.714107 0
M  V30 1350 C 129.028 1.67467 0.298155 0
M  V30 1351 O 130.213 1.93445 0.171048 0
M  V30 1352 C 127.343 3.47124 -0.110448 0
M  V30 1353 C 126.297 4.14926 -1.04979 0
M  V30 1354 C 125.623 5.33807 -0.308924 0
M  V30 1355 C 126.923 4.64762 -2.38314 0
M  V30 1356 H 128.617 2.5258 -1.6076 0
M  V30 1357 H 126.163 1.21404 -0.77441 0
M  V30 1358 H 128.116 4.21124 0.152482 0
M  V30 1359 H 126.84 3.16187 0.81812 0
M  V30 1360 H 125.499 3.42866 -1.29764 0
M  V30 1361 H 125.147 4.99126 0.623084 0
M  V30 1362 H 124.847 5.80113 -0.935036 0
M  V30 1363 H 126.371 6.10576 -0.0537771 0
M  V30 1364 H 127.785 5.30292 -2.1786 0
M  V30 1365 H 126.182 5.21728 -2.96514 0
M  V30 1366 H 127.252 3.80434 -3.00663 0
M  V30 1367 N 128.595 0.856903 1.32268 0
M  V30 1368 C 129.525 0.31858 2.31316 0
M  V30 1369 C 130.506 -0.583487 1.59779 0
M  V30 1370 O 131.691 -0.503259 1.87566 0
M  V30 1371 C 128.821 -0.491979 3.43798 0
M  V30 1372 C 127.775 0.315849 4.26833 0
M  V30 1373 C 127.101 -0.619586 5.31098 0
M  V30 1374 C 128.401 1.54282 4.98993 0
M  V30 1375 H 130.095 1.14621 2.76591 0
M  V30 1376 H 127.641 0.552613 1.32974 0
M  V30 1377 H 129.594 -0.879012 4.1213 0
M  V30 1378 H 128.318 -1.35299 2.97257 0
M  V30 1379 H 126.977 0.684664 3.6015 0
M  V30 1380 H 126.625 -1.47751 4.8081 0
M  V30 1381 H 126.325 -0.0830621 5.87541 0
M  V30 1382 H 127.849 -1.00375 6.02293 0
M  V30 1383 H 129.263 1.22796 5.59995 0
M  V30 1384 H 127.66 2.01745 5.65172 0
M  V30 1385 H 128.73 2.30285 4.26728 0
M  V30 1386 N 130.073 -1.45103 0.615059 0
M  V30 1387 C 131.319 -2.02483 0.113347 0
M  V30 1388 C 131.652 -1.48146 -1.25564 0
M  V30 1389 O 130.927 -0.659104 -1.82992 0
M  V30 1390 C 131.21 -3.60005 0.0825278 0
M  V30 1391 C 131.063 -4.2466 1.48271 0
M  V30 1392 C 132.382 -4.35972 -0.601401 0
M  V30 1393 H 129.501 -0.735764 0.0426632 0
M  V30 1394 H 132.143 -1.72868 0.788461 0
M  V30 1395 H 130.293 -3.85367 -0.492378 0
M  V30 1396 H 131.965 -4.10458 2.10527 0
M  V30 1397 H 130.208 -3.82772 2.04127 0
M  V30 1398 H 130.879 -5.336 1.41332 0
M  V30 1399 H 133.355 -4.15947 -0.112666 0
M  V30 1400 H 132.231 -5.45697 -0.592097 0
M  V30 1401 H 132.492 -4.09391 -1.66887 0
M  V30 1402 N 131.551 -0.354651 -1.53558 0
M  V30 1403 C 132.514 0.484566 -2.24019 0
M  V30 1404 C 133.514 1.01861 -1.24422 0
M  V30 1405 O 134.704 0.906097 -1.4878 0
M  V30 1406 C 131.836 1.67615 -2.96847 0
M  V30 1407 H 133.029 -0.131843 -2.9961 0
M  V30 1408 H 130.582 -0.106165 -1.55939 0
M  V30 1409 H 131.317 2.33095 -2.25471 0
M  V30 1410 H 131.102 1.30029 -3.69912 0
M  V30 1411 H 132.592 2.27114 -3.50441 0
M  V30 1412 N 133.029 1.57378 -0.0835403 0
M  V30 1413 C 134.278 1.93106 0.582498 0
M  V30 1414 C 134.591 0.96651 1.70053 0
M  V30 1415 O 135.797 1.21705 2.42693 0
M  V30 1416 C 134.253 3.43076 1.08751 0
M  V30 1417 C 133.861 4.48 -0.000146404 0
M  V30 1418 C 135.605 3.87785 1.72694 0
M  V30 1419 C 133.512 5.89113 0.519568 0
M  V30 1420 H 132.442 0.720775 0.221358 0
M  V30 1421 H 135.093 1.82821 -0.157675 0
M  V30 1422 H 133.475 3.48474 1.88101 0
M  V30 1423 H 134.649 4.54233 -0.775199 0
M  V30 1424 H 132.964 4.1283 -0.54406 0
M  V30 1425 H 135.561 4.90604 2.1263 0
M  V30 1426 H 135.904 3.25796 2.59158 0
M  V30 1427 H 136.437 3.8504 0.999457 0
M  V30 1428 H 133.176 6.54775 -0.308186 0
M  V30 1429 H 132.696 5.86376 1.26188 0
M  V30 1430 H 134.375 6.39346 0.992237 0
M  V30 1431 N 134.507 -0.190092 1.56449 0
M  V30 1432 C 135.44 -1.26375 1.90012 0
M  V30 1433 C 136.418 -1.43705 0.760765 0
M  V30 1434 O 137.602 -1.59014 1.01226 0
M  V30 1435 C 134.729 -2.62962 2.13468 0
M  V30 1436 C 133.775 -2.62474 3.36169 0
M  V30 1437 S 134.608 -2.13412 4.91137 0
M  V30 1438 C 135.764 -3.51812 5.17667 0
M  V30 1439 H 135.997 -0.977181 2.80782 0
M  V30 1440 H 133.53 -0.393814 1.49293 0
M  V30 1441 H 135.488 -3.41583 2.27664 0
M  V30 1442 H 134.149 -2.88828 1.23439 0
M  V30 1443 H 133.342 -3.62918 3.49723 0
M  V30 1444 H 132.944 -1.91937 3.20992 0
M  V30 1445 H 135.236 -4.47706 5.08494 0
M  V30 1446 H 136.179 -3.43148 6.19399 0
M  V30 1447 H 136.587 -3.46956 4.45288 0
M  V30 1448 N 135.985 -1.50799 -0.457987 0
M  V30 1449 C 137.225 -1.64088 -1.21879 0
M  V30 1450 C 137.589 -0.339848 -1.88968 0
M  V30 1451 O 138.79 -0.348301 -2.66534 0
M  V30 1452 C 137.061 -2.79726 -2.2246 0
M  V30 1453 S 138.62 -3.13225 -3.07303 0
M  V30 1454 H 135.438 -0.578314 -0.41361 0
M  V30 1455 H 138.04 -1.88632 -0.513645 0
M  V30 1456 H 136.744 -3.72722 -1.71775 0
M  V30 1457 H 136.275 -2.57308 -2.97584 0
M  V30 1458 H 138.29 -2.58062 -4.23814 0
M  V30 1459 N 137.463 0.71206 -1.40597 0
M  V30 1460 C 138.393 1.83889 -1.43899 0
M  V30 1461 C 139.374 1.67442 -0.299504 0
M  V30 1462 O 140.559 1.87421 -0.508624 0
M  V30 1463 C 137.689 3.21877 -1.30431 0
M  V30 1464 C 136.643 3.53002 -2.42019 0
M  V30 1465 C 135.969 4.90172 -2.13626 0
M  V30 1466 C 137.269 3.53643 -3.84362 0
M  V30 1467 H 138.963 1.81383 -2.38203 0
M  V30 1468 H 136.509 0.871237 -1.14654 0
M  V30 1469 H 138.462 4.00404 -1.31357 0
M  V30 1470 H 137.186 3.24968 -0.326049 0
M  V30 1471 H 135.845 2.76818 -2.40349 0
M  V30 1472 H 135.493 4.89869 -1.14182 0
M  V30 1473 H 135.193 5.11962 -2.88389 0
M  V30 1474 H 136.717 5.71028 -2.1624 0
M  V30 1475 H 138.131 4.22203 -3.87837 0
M  V30 1476 H 136.528 3.86961 -4.58673 0
M  V30 1477 H 137.598 2.52954 -4.13693 0
M  V30 1478 N 138.941 1.26152 0.944643 0
M  V30 1479 C 140.352 1.10454 1.50522 0
M  V30 1480 C 140.703 -0.31635 1.93633 0
M  V30 1481 O 139.828 -1.20746 1.79581 0
M  V30 1482 C 140.423 1.99891 2.73549 0
M  V30 1483 C 138.982 1.88348 3.25886 0
M  V30 1484 C 138.129 1.93447 1.9868 0
M  V30 1485 H 141.08 1.39292 0.760489 0
M  V30 1486 H 141.101 1.54477 3.47732 0
M  V30 1487 H 140.613 3.03297 2.42141 0
M  V30 1488 H 138.714 0.878636 3.62092 0
M  V30 1489 H 138.827 2.73696 3.93227 0
M  V30 1490 H 137.191 1.37456 2.14425 0
M  V30 1491 H 137.974 2.98476 1.69607 0
M  V30 1492 N 140.419 -1.14872 1.07899 0
M  V30 1493 C 141.666 -1.85789 0.805532 0
M  V30 1494 C 141.994 -1.82649 -0.668561 0
M  V30 1495 O 141.249 -1.24858 -1.50695 0
M  V30 1496 C 141.548 -3.34223 1.26609 0
M  V30 1497 C 141.214 -3.57555 2.74709 0
M  V30 1498 C 139.876 -3.63631 3.1516 0
M  V30 1499 C 142.228 -3.66803 3.70277 0
M  V30 1500 C 139.556 -3.76473 4.49983 0
M  V30 1501 C 141.908 -3.8117 5.04869 0
M  V30 1502 C 140.572 -3.85494 5.44932 0
M  V30 1503 H 139.842 -0.679849 0.294765 0
M  V30 1504 H 142.489 -1.3572 1.35101 0
M  V30 1505 H 140.794 -3.86536 0.640103 0
M  V30 1506 H 142.491 -3.87511 1.03132 0
M  V30 1507 H 139.081 -3.5347 2.42398 0
M  V30 1508 H 143.265 -3.61404 3.40149 0
M  V30 1509 H 138.521 -3.7808 4.80484 0
M  V30 1510 H 142.695 -3.87268 5.78789 0
M  V30 1511 H 140.322 -3.95197 6.49403 0
M  V30 1512 N 141.898 -0.863906 -1.31812 0
M  V30 1513 C 143.126 -0.486111 -2.01108 0
M  V30 1514 C 143.541 0.919755 -1.64882 0
M  V30 1515 O 142.898 1.60162 -0.874893 0
M  V30 1516 C 142.949 -0.626435 -3.56031 0
M  V30 1517 O 142.67 -1.97693 -3.90959 0
M  V30 1518 C 144.171 -0.248857 -4.42601 0
M  V30 1519 H 141.391 -0.190052 -0.643523 0
M  V30 1520 H 143.935 -1.1634 -1.68182 0
M  V30 1521 H 142.09 0.00322717 -3.874 0
M  V30 1522 H 142.504 -1.98034 -4.85678 0
M  V30 1523 H 143.978 -0.398016 -5.50563 0
M  V30 1524 H 144.455 0.811489 -4.31638 0
M  V30 1525 H 145.061 -0.853971 -4.16638 0
M  V30 1526 N 143.376 1.44774 -0.622745 0
M  V30 1527 C 144.623 2.02121 -0.1239 0
M  V30 1528 C 144.951 1.48915 1.25118 0
M  V30 1529 O 144.206 0.660045 1.84233 0
M  V30 1530 C 144.505 3.57364 -0.0508323 0
M  V30 1531 C 144.171 4.29787 -1.36358 0
M  V30 1532 C 142.833 4.4929 -1.72314 0
M  V30 1533 C 145.185 4.71062 -2.23048 0
M  V30 1534 C 142.513 5.07325 -2.94682 0
M  V30 1535 C 144.865 5.30452 -3.44679 0
M  V30 1536 C 143.529 5.48175 -3.80868 0
M  V30 1537 H 142.799 0.739612 -0.0453381 0
M  V30 1538 H 145.446 1.73648 -0.807389 0
M  V30 1539 H 143.751 3.85202 0.715991 0
M  V30 1540 H 145.448 3.99456 0.351533 0
M  V30 1541 H 142.038 4.14932 -1.07375 0
M  V30 1542 H 146.222 4.55715 -1.96565 0
M  V30 1543 H 141.478 5.19235 -3.22809 0
M  V30 1544 H 145.652 5.61385 -4.12092 0
M  V30 1545 H 143.279 5.92912 -4.75773 0
M  V30 1546 N 144.854 0.36279 1.53368 0
M  V30 1547 C 146.1 -0.228113 2.01513 0
M  V30 1548 C 146.433 -1.48648 1.2497 0
M  V30 1549 O 145.708 -1.91459 0.342616 0
M  V30 1550 C 145.991 -0.522884 3.56284 0
M  V30 1551 C 145.844 0.74892 4.43521 0
M  V30 1552 C 147.163 -1.32461 4.19693 0
M  V30 1553 H 144.282 -0.0814343 0.732487 0
M  V30 1554 H 146.924 0.48713 1.83649 0
M  V30 1555 H 145.074 -1.1322 3.71636 0
M  V30 1556 H 146.746 1.38648 4.39971 0
M  V30 1557 H 144.989 1.36986 4.11603 0
M  V30 1558 H 145.66 0.497667 5.49752 0
M  V30 1559 H 148.136 -0.809203 4.08156 0
M  V30 1560 H 147.012 -1.49961 5.28018 0
M  V30 1561 H 147.273 -2.33232 3.75573 0
M  V30 1562 N 146.332 -1.57332 0.0918853 0
M  V30 1563 C 147.562 -1.98286 -0.580205 0
M  V30 1564 C 147.97 -0.969713 -1.6246 0
M  V30 1565 O 147.313 0.0493501 -1.83634 0
M  V30 1566 C 147.375 -3.35603 -1.28882 0
M  V30 1567 C 147.039 -4.55285 -0.395559 0
M  V30 1568 C 148.036 -5.18687 0.355002 0
M  V30 1569 C 145.721 -5.01314 -0.314556 0
M  V30 1570 C 147.715 -6.26484 1.17458 0
M  V30 1571 C 145.402 -6.08979 0.508677 0
M  V30 1572 C 146.4 -6.71429 1.2519 0
M  V30 1573 O 146.088 -7.77018 2.06151 0
M  V30 1574 H 145.82 -0.656678 -0.160466 0
M  V30 1575 H 148.374 -2.04721 0.16688 0
M  V30 1576 H 146.604 -3.25842 -2.08241 0
M  V30 1577 H 148.293 -3.61026 -1.85512 0
M  V30 1578 H 149.059 -4.84058 0.302134 0
M  V30 1579 H 144.938 -4.5247 -0.882697 0
M  V30 1580 H 148.482 -6.75159 1.75518 0
M  V30 1581 H 144.379 -6.4304 0.563037 0
M  V30 1582 H 145.147 -7.93991 1.98799 0
M  V30 1583 N 147.81 0.181792 -1.56548 0
M  V30 1584 C 149.038 0.915947 -1.85521 0
M  V30 1585 C 149.453 1.76282 -0.676016 0
M  V30 1586 O 148.81 1.79012 0.355077 0
M  V30 1587 C 148.861 1.80126 -3.13427 0
M  V30 1588 O 148.582 0.988562 -4.26801 0
M  V30 1589 C 150.083 2.64597 -3.55673 0
M  V30 1590 H 147.303 0.26661 -0.61576 0
M  V30 1591 H 149.847 0.185039 -2.03661 0
M  V30 1592 H 148.002 2.48563 -2.97145 0
M  V30 1593 H 148.416 1.59308 -4.99721 0
M  V30 1594 H 149.89 3.2235 -4.48101 0
M  V30 1595 H 150.367 3.38958 -2.79292 0
M  V30 1596 H 150.973 2.0151 -3.74532 0
M  V30 1597 N 149.288 1.51039 0.449983 0
M  V30 1598 C 150.218 1.74379 1.55288 0
M  V30 1599 C 151.199 0.593236 1.5942 0
M  V30 1600 O 152.384 0.834625 1.7535 0
M  V30 1601 C 149.514 1.85728 2.93466 0
M  V30 1602 C 148.468 3.01078 3.04197 0
M  V30 1603 C 147.794 2.97595 4.44231 0
M  V30 1604 C 149.094 4.41254 2.7945 0
M  V30 1605 H 150.788 2.66725 1.36008 0
M  V30 1606 H 148.334 1.2835 0.652864 0
M  V30 1607 H 150.287 2.0064 3.70569 0
M  V30 1608 H 149.011 0.900207 3.13949 0
M  V30 1609 H 147.67 2.85851 2.29531 0
M  V30 1610 H 147.318 1.99691 4.61663 0
M  V30 1611 H 147.018 3.75046 4.52343 0
M  V30 1612 H 148.542 3.14583 5.23326 0
M  V30 1613 H 149.956 4.56897 3.46292 0
M  V30 1614 H 148.353 5.20315 2.98985 0
M  V30 1615 H 149.423 4.52164 1.75144 0
M  V30 1616 N 150.766 -0.704594 1.40972 0
M  V30 1617 C 151.699 -1.82861 1.36518 0
M  V30 1618 C 152.677 -1.6091 0.23382 0
M  V30 1619 O 153.861 -1.83778 0.419271 0
M  V30 1620 C 150.988 -3.1939 1.12729 0
M  V30 1621 C 150.034 -3.60148 2.28463 0
M  V30 1622 S 150.867 -3.65994 3.90907 0
M  V30 1623 C 152.023 -5.05264 3.69403 0
M  V30 1624 H 152.256 -1.86361 2.3164 0
M  V30 1625 H 149.789 -0.872439 1.27389 0
M  V30 1626 H 151.747 -3.98211 0.996893 0
M  V30 1627 H 150.408 -3.1351 0.192427 0
M  V30 1628 H 149.601 -4.59309 2.07489 0
M  V30 1629 H 149.203 -2.88612 2.37863 0
M  V30 1630 H 151.495 -5.92504 3.28551 0
M  V30 1631 H 152.438 -5.31278 4.68134 0
M  V30 1632 H 152.846 -4.76377 3.02862 0
M  V30 1633 N 152.244 -1.26651 -0.937939 0
M  V30 1634 C 153.521 -1.0313 -1.66204 0
M  V30 1635 C 153.901 0.437256 -2.06522 0
M  V30 1636 O 153.249 1.41831 -1.79154 0
M  V30 1637 C 153.459 -1.98314 -2.87181 0
M  V30 1638 C 154.807 -2.27107 -3.58758 0
M  V30 1639 O 155.831 -1.96205 -2.97291 0
M  V30 1640 O 154.69 -2.79736 -4.69479 0
M  V30 1641 H 151.784 -0.392384 -0.727986 0
M  V30 1642 H 154.33 -1.37874 -0.989382 0
M  V30 1643 H 153.102 -2.97399 -2.54302 0
M  V30 1644 H 152.725 -1.64068 -3.6217 0
M  V30 1645 N 153.722 1.14298 -1.08507 0
M  V30 1646 C 154.672 2.17449 -0.685569 0
M  V30 1647 C 155.656 1.58167 0.295315 0
M  V30 1648 O 156.848 1.76675 0.107172 0
M  V30 1649 C 153.977 3.43161 -0.0975318 0
M  V30 1650 C 153.063 4.09471 -1.10426 0
M  V30 1651 N 153.454 4.51089 -2.28806 0
M  V30 1652 C 151.752 4.35976 -0.940258 0
M  V30 1653 C 152.453 5.02654 -2.9277 0
M  V30 1654 N 151.429 4.96927 -2.20374 0
M  V30 1655 H 155.231 2.47369 -1.587 0
M  V30 1656 H 152.745 1.30992 -0.959936 0
M  V30 1657 H 154.742 4.16388 0.20664 0
M  V30 1658 H 153.402 3.14719 0.798872 0
M  V30 1659 H 154.413 4.44097 -2.66455 0
M  V30 1660 H 151.09 4.17386 -0.0977441 0
M  V30 1661 H 152.48 5.44723 -3.93352 0
M  V30 1662 N 155.201 0.870884 1.31352 0
M  V30 1663 C 156.447 0.492314 1.97352 0
M  V30 1664 C 156.802 -0.945174 1.67583 0
M  V30 1665 O 156.095 -1.65674 0.962423 0
M  V30 1666 C 156.289 0.687157 3.50732 0
M  V30 1667 C 156.118 2.14203 3.95407 0
M  V30 1668 C 154.888 2.78382 4.21701 0
M  V30 1669 C 157.086 3.1144 4.09279 0
M  V30 1670 N 155.068 4.14611 4.52737 0
M  V30 1671 C 156.439 4.32702 4.44037 0
M  V30 1672 C 158.494 3.07418 3.91661 0
M  V30 1673 C 157.197 5.50463 4.63015 0
M  V30 1674 C 159.223 4.24438 4.11833 0
M  V30 1675 C 158.585 5.44463 4.46923 0
M  V30 1676 H 154.684 0.229206 0.747655 0
M  V30 1677 H 157.268 1.12568 1.5886 0
M  V30 1678 H 155.439 0.083384 3.8831 0
M  V30 1679 H 157.171 0.276883 4.03752 0
M  V30 1680 H 153.926 2.29326 4.14375 0
M  V30 1681 H 154.35 4.84928 4.72413 0
M  V30 1682 H 158.992 2.15732 3.6362 0
M  V30 1683 H 156.71 6.42666 4.89904 0
M  V30 1684 H 160.296 4.2278 3.99685 0
M  V30 1685 H 159.176 6.33504 4.62214 0
M  V30 1686 N 156.679 -1.44442 0.630414 0
M  V30 1687 C 157.925 -2.02351 0.134816 0
M  V30 1688 C 158.258 -1.4947 -1.23986 0
M  V30 1689 O 157.533 -0.678475 -1.82283 0
M  V30 1690 C 157.816 -3.59898 0.120707 0
M  V30 1691 C 157.669 -4.23063 1.52767 0
M  V30 1692 C 158.988 -4.36585 -0.555127 0
M  V30 1693 H 156.107 -0.73527 0.0504646 0
M  V30 1694 H 158.749 -1.72022 0.806751 0
M  V30 1695 H 156.899 -3.85868 -0.451477 0
M  V30 1696 H 158.571 -4.08202 2.14869 0
M  V30 1697 H 156.814 -3.80586 2.08175 0
M  V30 1698 H 157.485 -5.32071 1.46984 0
M  V30 1699 H 159.961 -4.16044 -0.0685429 0
M  V30 1700 H 158.837 -5.46294 -0.534185 0
M  V30 1701 H 159.098 -4.11138 -1.62535 0
M  V30 1702 N 158.157 -0.370918 -1.53173 0
M  V30 1703 C 159.404 0.217102 -2.01333 0
M  V30 1704 C 159.732 1.48338 -1.25802 0
M  V30 1705 O 158.987 1.92698 -0.34146 0
M  V30 1706 C 159.286 0.549696 -3.53147 0
M  V30 1707 C 158.952 -0.622872 -4.46577 0
M  V30 1708 C 157.614 -0.944595 -4.71838 0
M  V30 1709 C 159.966 -1.40819 -5.01816 0
M  V30 1710 C 157.294 -2.05351 -5.49589 0
M  V30 1711 C 159.646 -2.50757 -5.80778 0
M  V30 1712 C 158.31 -2.83458 -6.04324 0
M  V30 1713 H 157.58 0.0794431 -0.736729 0
M  V30 1714 H 160.227 -0.504481 -1.84736 0
M  V30 1715 H 158.532 1.35237 -3.6772 0
M  V30 1716 H 160.229 1.017 -3.87889 0
M  V30 1717 H 156.819 -0.36209 -4.27068 0
M  V30 1718 H 161.003 -1.17289 -4.82242 0
M  V30 1719 H 156.259 -2.3108 -5.6605 0
M  V30 1720 H 160.433 -3.12022 -6.22588 0
M  V30 1721 H 158.06 -3.69508 -6.64355 0
M  V30 1722 N 159.635 1.57281 -0.100228 0
M  V30 1723 C 160.883 1.94153 0.561157 0
M  V30 1724 C 161.204 0.983157 1.68401 0
M  V30 1725 O 160.474 0.0361132 1.95867 0
M  V30 1726 H 159.054 0.716791 0.210283 0
M  V30 1727 H 161.716 1.94202 -0.164765 0
M  V30 1728 H 160.812 2.96709 0.968008 0
M  V30 1729 N 161.113 -0.173488 1.56642 0
M  V30 1730 C 162.023 -1.23482 1.99473 0
M  V30 1731 C 163.039 -1.48567 0.905752 0
M  V30 1732 O 164.215 -1.60758 1.21321 0
M  V30 1733 C 161.28 -2.55444 2.34413 0
M  V30 1734 C 160.341 -2.38241 3.57127 0
M  V30 1735 C 159.574 -3.63909 3.90392 0
M  V30 1736 O 159.797 -4.68996 3.24653 0
M  V30 1737 O 158.731 -3.58149 4.83749 0
M  V30 1738 H 162.557 -0.901279 2.90018 0
M  V30 1739 H 160.142 -0.380185 1.44482 0
M  V30 1740 H 162.024 -3.33292 2.57865 0
M  V30 1741 H 160.699 -2.88382 1.4703 0
M  V30 1742 H 159.606 -1.58431 3.38896 0
M  V30 1743 H 160.939 -2.10228 4.45045 0
M  V30 1744 N 162.591 -1.51276 -0.441967 0
M  V30 1745 C 163.554 -1.7167 -1.51862 0
M  V30 1746 C 164.554 -0.586793 -1.49711 0
M  V30 1747 O 165.744 -0.854276 -1.51815 0
M  V30 1748 C 162.876 -1.76889 -2.91416 0
M  V30 1749 H 164.069 -2.67754 -1.35084 0
M  V30 1750 H 161.622 -1.41196 -0.670333 0
M  V30 1751 H 162.357 -0.826026 -3.13604 0
M  V30 1752 H 162.142 -2.59001 -2.94382 0
M  V30 1753 H 163.632 -1.94522 -3.69528 0
M  V30 1754 N 164.069 0.697108 -1.41344 0
M  V30 1755 C 165.002 1.82134 -1.37486 0
M  V30 1756 C 165.98 1.60784 -0.242351 0
M  V30 1757 O 167.164 1.83553 -0.429012 0
M  V30 1758 C 164.291 3.18788 -1.14421 0
M  V30 1759 C 163.337 3.58932 -2.3037 0
M  V30 1760 S 164.17 3.63916 -3.92843 0
M  V30 1761 C 165.326 5.03298 -3.72078 0
M  V30 1762 H 165.559 1.85129 -2.32625 0
M  V30 1763 H 163.092 0.865671 -1.2785 0
M  V30 1764 H 165.05 3.97677 -1.018 0
M  V30 1765 H 163.711 3.13404 -0.20905 0
M  V30 1766 H 162.904 4.58202 -2.09922 0
M  V30 1767 H 162.506 2.87347 -2.39391 0
M  V30 1768 H 164.798 5.90753 -3.31688 0
M  V30 1769 H 165.741 5.28788 -4.70945 0
M  V30 1770 H 166.149 4.74764 -3.05384 0
M  V30 1771 N 165.547 1.27147 0.931209 0
M  V30 1772 C 166.787 1.14511 1.69312 0
M  V30 1773 C 167.151 -0.304638 1.89568 0
M  V30 1774 O 168.352 -0.553343 2.63043 0
M  V30 1775 C 166.623 1.90349 3.02493 0
M  V30 1776 S 168.182 1.93884 3.93642 0
M  V30 1777 H 165 0.408858 0.581684 0
M  V30 1778 H 167.602 1.61006 1.10893 0
M  V30 1779 H 166.306 2.94877 2.85439 0
M  V30 1780 H 165.837 1.44333 3.65966 0
M  V30 1781 H 167.852 1.03273 4.85334 0
M  V30 1782 N 167.025 -1.13721 1.09112 0
M  V30 1783 C 167.972 -2.19031 0.727591 0
M  V30 1784 C 168.942 -1.63555 -0.289656 0
M  V30 1785 O 170.127 -1.90023 -0.172026 0
M  V30 1786 C 167.267 -3.4477 0.15082 0
M  V30 1787 C 166.38 -4.14365 1.22172 0
M  V30 1788 C 165.515 -5.27709 0.608042 0
M  V30 1789 C 164.554 -5.89147 1.66047 0
M  V30 1790 N 163.691 -6.93929 1.06806 0
M  V30 1791 H 168.531 -2.49475 1.62991 0
M  V30 1792 H 166.068 -1.22499 0.81439 0
M  V30 1793 H 168.026 -4.16714 -0.201358 0
M  V30 1794 H 166.656 -3.14787 -0.714783 0
M  V30 1795 H 165.708 -3.40737 1.69122 0
M  V30 1796 H 167.02 -4.56114 2.01895 0
M  V30 1797 H 166.174 -6.06355 0.204523 0
M  V30 1798 H 164.913 -4.872 -0.220769 0
M  V30 1799 H 163.918 -5.09198 2.07357 0
M  V30 1800 H 165.143 -6.31729 2.49189 0
M  V30 1801 H 163.089 -6.55483 0.260476 0
M  V30 1802 H 163.006 -7.34202 1.8023 0
M  V30 1803 H 164.274 -7.76434 0.690644 0
M  V30 1804 N 168.503 -0.877838 -1.30888 0
M  V30 1805 C 169.433 -0.35534 -2.3078 0
M  V30 1806 C 170.414 0.557994 -1.60687 0
M  V30 1807 O 171.599 0.473355 -1.88343 0
M  V30 1808 C 168.729 0.437221 -3.44537 0
M  V30 1809 C 167.683 -0.383715 -4.26276 0
M  V30 1810 C 167.009 0.535014 -5.32017 0
M  V30 1811 C 168.309 -1.62201 -4.96476 0
M  V30 1812 H 170.003 -1.19007 -2.74732 0
M  V30 1813 H 167.549 -0.573698 -1.32078 0
M  V30 1814 H 169.502 0.813334 -4.13477 0
M  V30 1815 H 168.226 1.30553 -2.99372 0
M  V30 1816 H 166.885 -0.741874 -3.59015 0
M  V30 1817 H 166.533 1.40083 -4.831 0
M  V30 1818 H 166.233 -0.0104211 -5.87599 0
M  V30 1819 H 167.757 0.907799 -6.03814 0
M  V30 1820 H 169.171 -1.31689 -5.5797 0
M  V30 1821 H 167.568 -2.10711 -5.61891 0
M  V30 1822 H 168.638 -2.37044 -4.23011 0
M  V30 1823 N 169.982 1.44106 -0.638065 0
M  V30 1824 C 170.93 2.3248 0.0748149 0
M  V30 1825 C 171.924 1.47746 0.828702 0
M  V30 1826 O 173.13 1.64049 0.740816 0
M  V30 1827 H 169.505 0.750771 0.0429686 0
M  V30 1828 H 171.476 2.90348 -0.688504 0
M  V30 1829 C 170.225 3.31843 1.03805 0
M  V30 1830 H 169.548 3.97059 0.467375 0
M  V30 1831 H 170.988 3.96345 1.50622 0
M  V30 1832 C 169.447 2.61291 2.1267 0
M  V30 1833 O 169.977 2.41702 3.20847 0
M  V30 1834 N 168.183 2.20915 1.88798 0
M  V30 1835 H 167.73 2.37047 1.00829 0
M  V30 1836 H 167.688 1.74038 2.61836 0
M  V30 1837 N 171.46 0.379036 1.52974 0
M  V30 1838 C 172.871 -0.0972525 1.86447 0
M  V30 1839 C 173.222 -1.47027 1.29914 0
M  V30 1840 O 172.347 -2.07135 0.626433 0
M  V30 1841 C 172.942 -0.183248 3.38304 0
M  V30 1842 C 171.501 -0.603812 3.71525 0
M  V30 1843 C 170.648 0.240632 2.76254 0
M  V30 1844 H 173.599 0.597316 1.4703 0
M  V30 1845 H 173.62 -1.00432 3.67006 0
M  V30 1846 H 173.132 0.816191 3.79421 0
M  V30 1847 H 171.233 -1.61099 3.35973 0
M  V30 1848 H 171.346 -0.369086 4.77676 0
M  V30 1849 H 169.71 -0.292548 2.53014 0
M  V30 1850 H 170.493 1.23786 3.20206 0
M  V30 1851 N 172.938 -1.57226 0.108567 0
M  V30 1852 C 174.185 -1.94833 -0.551943 0
M  V30 1853 C 174.513 -0.991204 -1.67348 0
M  V30 1854 O 173.768 -0.0131878 -1.95696 0
M  V30 1855 C 174.067 -3.38911 -1.13463 0
M  V30 1856 C 173.733 -4.50696 -0.135509 0
M  V30 1857 C 172.395 -4.80998 0.139252 0
M  V30 1858 C 174.747 -5.18333 0.545957 0
M  V30 1859 C 172.075 -5.76259 1.10194 0
M  V30 1860 C 174.427 -6.14627 1.49721 0
M  V30 1861 C 173.091 -6.43327 1.78006 0
M  V30 1862 H 172.361 -0.712944 -0.20197 0
M  V30 1863 H 175.008 -1.90582 0.18726 0
M  V30 1864 H 173.313 -3.39805 -1.95037 0
M  V30 1865 H 175.01 -3.65317 -1.65362 0
M  V30 1866 H 171.6 -4.27087 -0.359846 0
M  V30 1867 H 175.784 -4.95087 0.346842 0
M  V30 1868 H 171.04 -5.96804 1.32795 0
M  V30 1869 H 175.214 -6.66126 2.03099 0
M  V30 1870 H 172.841 -7.1695 2.52759 0
M  V30 1871 N 174.416 0.165178 -1.56732 0
M  V30 1872 C 175.662 0.882112 -1.82611 0
M  V30 1873 C 175.995 1.81628 -0.687378 0
M  V30 1874 O 175.27 1.92009 0.310267 0
M  V30 1875 C 175.553 1.67245 -3.18906 0
M  V30 1876 C 175.406 0.760987 -4.43316 0
M  V30 1877 C 176.725 2.63884 -3.52212 0
M  V30 1878 H 173.844 0.319242 -0.664269 0
M  V30 1879 H 176.486 0.148052 -1.89422 0
M  V30 1880 H 174.636 2.29824 -3.1323 0
M  V30 1881 H 176.308 0.147596 -4.61064 0
M  V30 1882 H 174.551 0.0694102 -4.33744 0
M  V30 1883 H 175.222 1.34962 -5.35247 0
M  V30 1884 H 177.698 2.11429 -3.58381 0
M  V30 1885 H 176.574 3.16245 -4.48643 0
M  V30 1886 H 176.835 3.44377 -2.77231 0
M  V30 1887 N 175.894 1.51508 0.433938 0
M  V30 1888 C 176.826 1.69266 1.54537 0
M  V30 1889 C 177.839 0.573276 1.52373 0
M  V30 1890 O 179.028 0.847698 1.57087 0
M  V30 1891 C 176.128 1.69524 2.93453 0
M  V30 1892 C 175.301 2.98101 3.20085 0
M  V30 1893 C 174.36 2.90502 4.38742 0
M  V30 1894 O 173.386 3.64442 4.3723 0
M  V30 1895 N 174.588 2.06586 5.42496 0
M  V30 1896 H 177.353 2.65145 1.39708 0
M  V30 1897 H 174.914 1.49437 0.622922 0
M  V30 1898 H 176.906 1.62004 3.70859 0
M  V30 1899 H 175.476 0.812245 3.01863 0
M  V30 1900 H 174.696 3.19464 2.30947 0
M  V30 1901 H 175.984 3.83207 3.34708 0
M  V30 1902 H 175.382 1.45896 5.46563 0
M  V30 1903 H 173.939 2.04943 6.18742 0
M  V30 1904 N 177.372 -0.689602 1.41712 0
M  V30 1905 C 178.612 -1.46184 1.42862 0
M  V30 1906 C 178.976 -1.91962 0.0382204 0
M  V30 1907 O 180.177 -2.68694 -0.0755019 0
M  V30 1908 C 178.448 -2.6371 2.4123 0
M  V30 1909 S 180.007 -3.52768 2.6096 0
M  V30 1910 H 176.825 -0.49947 0.506015 0
M  V30 1911 H 179.427 -0.804107 1.78198 0
M  V30 1912 H 178.131 -2.28293 3.41044 0
M  V30 1913 H 177.662 -3.3437 2.07269 0
M  V30 1914 H 179.677 -4.59146 1.88148 0
M  V30 1915 N 178.85 -1.27639 -0.924453 0
M  V30 1916 C 180.096 -1.14336 -1.67497 0
M  V30 1917 C 180.429 0.309465 -1.91718 0
M  V30 1918 O 179.704 1.22608 -1.50989 0
M  V30 1919 C 179.987 -1.93096 -3.0395 0
M  V30 1920 C 179.84 -3.46381 -2.8695 0
M  V30 1921 C 181.159 -1.73798 -4.0433 0
M  V30 1922 H 178.278 -0.416728 -0.607871 0
M  V30 1923 H 180.92 -1.56832 -1.07256 0
M  V30 1924 H 179.07 -1.56982 -3.55372 0
M  V30 1925 H 180.742 -3.92343 -2.42621 0
M  V30 1926 H 178.985 -3.72557 -2.22225 0
M  V30 1927 H 179.656 -3.96735 -3.83804 0
M  V30 1928 H 182.132 -2.05293 -3.61931 0
M  V30 1929 H 181.008 -2.31294 -4.97789 0
M  V30 1930 H 181.269 -0.686725 -4.36734 0
M  V30 1931 N 180.328 1.1314 -1.09713 0
M  V30 1932 C 181.553 1.88862 -0.857081 0
M  V30 1933 C 181.978 1.78729 0.586304 0
M  V30 1934 O 181.336 1.13692 1.41222 0
M  V30 1935 C 181.384 3.36325 -1.30069 0
M  V30 1936 O 180.488 4.09815 -0.461007 0
M  V30 1937 H 179.829 0.587108 -0.310162 0
M  V30 1938 H 182.359 1.43129 -1.46203 0
M  V30 1939 H 182.369 3.87157 -1.28738 0
M  V30 1940 H 181.044 3.43017 -2.35185 0
M  V30 1941 H 179.621 3.68986 -0.538888 0
M  V30 1942 N 181.806 0.884767 1.30421 0
M  V30 1943 C 183.055 0.499164 1.95426 0
M  V30 1944 C 183.368 -0.95645 1.70621 0
M  V30 1945 O 184.574 -1.44889 2.29607 0
M  V30 1946 C 183.03 0.84177 3.49917 0
M  V30 1947 C 182.638 2.31514 3.83543 0
M  V30 1948 C 184.382 0.525355 4.21237 0
M  V30 1949 C 182.289 2.59939 5.31212 0
M  V30 1950 H 181.219 0.182944 0.73147 0
M  V30 1951 H 183.87 1.07971 1.48373 0
M  V30 1952 H 182.252 0.190311 3.95542 0
M  V30 1953 H 183.426 3.0109 3.48829 0
M  V30 1954 H 181.741 2.59907 3.25326 0
M  V30 1955 H 184.338 0.714762 5.29901 0
M  V30 1956 H 184.681 -0.535222 4.12845 0
M  V30 1957 H 185.214 1.134 3.81294 0
M  V30 1958 H 181.953 3.64736 5.44654 0
M  V30 1959 H 181.473 1.94972 5.67227 0
M  V30 1960 H 183.152 2.45429 5.98643 0
M  V30 1961 N 183.284 -1.43765 0.645699 0
M  V30 1962 C 184.512 -2.06253 0.163556 0
M  V30 1963 C 184.927 -1.48352 -1.16778 0
M  V30 1964 O 184.284 -0.611932 -1.71935 0
M  V30 1965 C 184.335 -3.61453 0.0583186 0
M  V30 1966 O 184.056 -4.172 1.33702 0
M  V30 1967 C 185.557 -4.41002 -0.450795 0
M  V30 1968 H 182.777 -0.665413 0.0864077 0
M  V30 1969 H 185.321 -1.84396 0.884222 0
M  V30 1970 H 183.476 -3.82522 -0.612865 0
M  V30 1971 H 183.89 -5.10791 1.19131 0
M  V30 1972 H 185.364 -5.49966 -0.473403 0
M  V30 1973 H 185.841 -4.13488 -1.48068 0
M  V30 1974 H 186.447 -4.24886 0.187637 0
M  V30 1975 N 184.763 -0.387143 -1.52771 0
M  V30 1976 C 186.009 0.196025 -2.0185 0
M  V30 1977 C 186.342 1.46641 -1.27319 0
M  V30 1978 O 185.617 1.90889 -0.373032 0
M  V30 1979 C 185.9 0.466136 -3.5707 0
M  V30 1980 C 185.753 -0.819385 -4.42274 0
M  V30 1981 C 187.072 1.25768 -4.21747 0
M  V30 1982 H 184.191 0.0697708 -0.73369 0
M  V30 1983 H 186.833 -0.516286 -1.82851 0
M  V30 1984 H 184.983 1.07293 -3.7339 0
M  V30 1985 H 186.655 -1.4563 -4.37709 0
M  V30 1986 H 184.898 -1.43517 -4.09372 0
M  V30 1987 H 185.569 -0.585065 -5.48891 0
M  V30 1988 H 188.045 0.744167 -4.09391 0
M  V30 1989 H 186.921 1.41541 -5.30337 0
M  V30 1990 H 187.182 2.27228 -3.79236 0
M  V30 1991 N 186.241 1.57166 -0.116904 0
M  V30 1992 C 187.466 1.999 0.55271 0
M  V30 1993 C 187.891 0.996039 1.59564 0
M  V30 1994 O 187.249 -0.032556 1.81271 0
M  V30 1995 C 187.297 3.4152 1.15742 0
M  V30 1996 O 186.401 3.44106 2.27299 0
M  V30 1997 H 185.742 0.649447 0.138258 0
M  V30 1998 H 188.272 2.03573 -0.204759 0
M  V30 1999 H 188.282 3.79684 1.49346 0
M  V30 2000 H 186.957 4.14034 0.393493 0
M  V30 2001 H 185.534 3.17759 1.9515 0
M  V30 2002 N 187.719 -0.156864 1.56817 0
M  V30 2003 C 188.968 -0.869504 1.81996 0
M  V30 2004 C 189.281 -1.82777 0.696545 0
M  V30 2005 O 190.487 -2.58384 0.833658 0
M  V30 2006 C 188.943 -1.59679 3.22538 0
M  V30 2007 C 188.551 -0.681431 4.42787 0
M  V30 2008 C 190.295 -2.2968 3.56997 0
M  V30 2009 C 188.202 -1.40978 5.74351 0
M  V30 2010 H 187.132 -0.328438 0.678708 0
M  V30 2011 H 189.783 -0.1223 1.83092 0
M  V30 2012 H 188.165 -2.38927 3.158 0
M  V30 2013 H 189.339 0.0751166 4.60739 0
M  V30 2014 H 187.654 -0.0903431 4.16302 0
M  V30 2015 H 190.251 -2.84794 4.52544 0
M  V30 2016 H 190.594 -3.05707 2.82576 0
M  V30 2017 H 191.127 -1.57361 3.65352 0
M  V30 2018 H 187.866 -0.691561 6.51842 0
M  V30 2019 H 187.386 -2.13929 5.60352 0
M  V30 2020 H 189.065 -1.95337 6.16808 0
M  V30 2021 N 189.197 -1.51736 -0.425897 0
M  V30 2022 C 190.444 -1.6497 -1.17436 0
M  V30 2023 C 190.772 -0.371445 -1.9092 0
M  V30 2024 O 190.027 0.644963 -1.84767 0
M  V30 2025 C 190.326 -2.81103 -2.20717 0
M  V30 2026 C 189.992 -4.19954 -1.64162 0
M  V30 2027 C 188.654 -4.57725 -1.48462 0
M  V30 2028 C 191.006 -5.06552 -1.22696 0
M  V30 2029 C 188.334 -5.79789 -0.897873 0
M  V30 2030 C 190.686 -6.29205 -0.654464 0
M  V30 2031 C 189.35 -6.6574 -0.484456 0
M  V30 2032 H 188.62 -0.603668 -0.429727 0
M  V30 2033 H 191.267 -1.85798 -0.463829 0
M  V30 2034 H 189.572 -2.54542 -2.97852 0
M  V30 2035 H 191.269 -2.8854 -2.78471 0
M  V30 2036 H 187.859 -3.90181 -1.77361 0
M  V30 2037 H 192.043 -4.77968 -1.33642 0
M  V30 2038 H 187.299 -6.06733 -0.75402 0
M  V30 2039 H 191.473 -6.95643 -0.324694 0
M  V30 2040 H 189.1 -7.60195 -0.0276833 0
M  V30 2041 N 190.675 0.682077 -1.42076 0
M  V30 2042 C 191.9 1.47558 -1.45744 0
M  V30 2043 C 192.325 1.87977 -0.0680981 0
M  V30 2044 O 191.683 1.55522 0.9318 0
M  V30 2045 C 191.731 2.70575 -2.38373 0
M  V30 2046 O 190.835 3.68573 -1.85007 0
M  V30 2047 H 190.176 0.443585 -0.494093 0
M  V30 2048 H 192.706 0.837238 -1.86686 0
M  V30 2049 H 192.716 3.18729 -2.54707 0
M  V30 2050 H 191.391 2.40495 -3.39315 0
M  V30 2051 H 189.968 3.2757 -1.78192 0
M  V30 2052 N 192.153 1.28127 0.917671 0
M  V30 2053 C 193.083 1.14248 2.03641 0
M  V30 2054 C 194.064 0.0412748 1.7005 0
M  V30 2055 O 195.249 0.217566 1.92977 0
M  V30 2056 C 192.379 0.799431 3.37974 0
M  V30 2057 C 191.333 1.85497 3.85713 0
M  V30 2058 C 190.659 1.36565 5.16966 0
M  V30 2059 C 191.959 3.26085 4.08002 0
M  V30 2060 H 193.653 2.07835 2.15511 0
M  V30 2061 H 191.199 1.00064 1.03553 0
M  V30 2062 H 193.152 0.689114 4.15727 0
M  V30 2063 H 191.876 -0.172145 3.26146 0
M  V30 2064 H 190.535 1.95437 3.10161 0
M  V30 2065 H 190.183 0.383253 5.01538 0
M  V30 2066 H 189.883 2.07143 5.49878 0
M  V30 2067 H 191.407 1.26848 5.97279 0
M  V30 2068 H 192.821 3.19089 4.76293 0
M  V30 2069 H 191.218 3.94462 4.52238 0
M  V30 2070 H 192.288 3.70394 3.12948 0
M  V30 2071 N 193.631 -1.12557 1.10312 0
M  V30 2072 C 194.877 -1.84311 0.846011 0
M  V30 2073 C 195.21 -1.83805 -0.626859 0
M  V30 2074 O 194.485 -1.28268 -1.46211 0
M  V30 2075 C 194.768 -3.32048 1.39341 0
M  V30 2076 C 194.621 -3.41016 2.93305 0
M  V30 2077 C 195.94 -4.27764 1.03468 0
M  V30 2078 H 193.059 -0.669192 0.30879 0
M  V30 2079 H 195.701 -1.32057 1.36605 0
M  V30 2080 H 193.851 -3.76678 0.951087 0
M  V30 2081 H 195.523 -3.05031 3.46055 0
M  V30 2082 H 193.766 -2.81603 3.29973 0
M  V30 2083 H 194.437 -4.44948 3.26689 0
M  V30 2084 H 196.913 -3.91253 1.41633 0
M  V30 2085 H 195.789 -5.29549 1.44463 0
M  V30 2086 H 196.05 -4.42064 -0.0560404 0
M  V30 2087 N 195.109 -0.891671 -1.2995 0
M  V30 2088 C 196.039 -0.379797 -2.30391 0
M  V30 2089 C 197.02 0.540919 -1.6127 0
M  V30 2090 O 198.205 0.453352 -1.88834 0
M  V30 2091 C 195.335 0.400654 -3.44981 0
M  V30 2092 C 194.289 -0.428905 -4.25846 0
M  V30 2093 C 193.615 0.478557 -5.32554 0
M  V30 2094 C 194.915 -1.67458 -4.94727 0
M  V30 2095 H 196.609 -1.21914 -2.73454 0
M  V30 2096 H 194.155 -0.587675 -1.31462 0
M  V30 2097 H 196.108 0.769434 -4.14316 0
M  V30 2098 H 194.832 1.27371 -3.0074 0
M  V30 2099 H 193.491 -0.779911 -3.58208 0
M  V30 2100 H 193.139 1.34951 -4.84559 0
M  V30 2101 H 192.839 -0.0727433 -5.87555 0
M  V30 2102 H 194.363 0.843705 -6.04743 0
M  V30 2103 H 195.777 -1.376 -5.56542 0
M  V30 2104 H 194.174 -2.16659 -5.59624 0
M  V30 2105 H 195.244 -2.41518 -4.20473 0
M  V30 2106 N 196.587 1.43421 -0.653314 0
M  V30 2107 C 197.836 2.01032 -0.164076 0
M  V30 2108 C 198.149 1.52147 1.22926 0
M  V30 2109 O 199.355 2.02031 1.81371 0
M  V30 2110 C 197.811 3.59082 -0.24252 0
M  V30 2111 C 197.419 4.1696 -1.63855 0
M  V30 2112 C 199.163 4.24079 0.18911 0
M  V30 2113 C 197.07 5.67304 -1.67092 0
M  V30 2114 H 196 0.751798 -0.0575769 0
M  V30 2115 H 198.651 1.6439 -0.815362 0
M  V30 2116 H 197.033 3.93125 0.476276 0
M  V30 2117 H 198.207 3.94416 -2.38271 0
M  V30 2118 H 196.522 3.64335 -2.01616 0
M  V30 2119 H 199.119 5.34381 0.184775 0
M  V30 2120 H 199.462 3.98005 1.22056 0
M  V30 2121 H 199.995 3.94918 -0.477938 0
M  V30 2122 H 196.734 5.98145 -2.68146 0
M  V30 2123 H 196.254 5.91904 -0.970014 0
M  V30 2124 H 197.933 6.31344 -1.4147 0
M  V30 2125 N 198.065 0.39524 1.52563 0
M  V30 2126 C 199.028 -0.425001 2.25225 0
M  V30 2127 C 200.028 -0.985266 1.27079 0
M  V30 2128 O 201.218 -0.866332 1.5113 0
M  V30 2129 C 198.35 -1.59686 3.01186 0
M  V30 2130 H 199.543 0.211233 2.99155 0
M  V30 2131 H 197.096 0.147472 1.55603 0
M  V30 2132 H 197.831 -2.27035 2.31572 0
M  V30 2133 H 197.616 -1.20176 3.73229 0
M  V30 2134 H 199.106 -2.17743 3.5634 0
M  V30 2135 N 199.544 -1.57102 0.125237 0
M  V30 2136 C 200.79 -1.95697 -0.532035 0
M  V30 2137 C 201.123 -1.009 -1.6593 0
M  V30 2138 O 200.398 -0.047347 -1.94442 0
M  V30 2139 C 200.681 -3.44181 -1.05884 0
M  V30 2140 C 200.534 -4.49752 0.0654392 0
M  V30 2141 C 201.853 -3.94655 -1.9477 0
M  V30 2142 H 198.972 -0.711571 -0.191925 0
M  V30 2143 H 201.614 -1.88923 0.20206 0
M  V30 2144 H 199.764 -3.50085 -1.68442 0
M  V30 2145 H 201.436 -4.55943 0.700982 0
M  V30 2146 H 199.679 -4.27653 0.727709 0
M  V30 2147 H 200.35 -5.50924 -0.344505 0
M  V30 2148 H 202.826 -3.91094 -1.42074 0
M  V30 2149 H 201.702 -4.99057 -2.28546 0
M  V30 2150 H 201.963 -3.35718 -2.87656 0
M  V30 2151 N 201.022 0.148545 -1.56898 0
M  V30 2152 C 201.932 1.20293 -2.01412 0
M  V30 2153 C 202.948 1.47107 -0.929273 0
M  V30 2154 O 204.124 1.58807 -1.23863 0
M  V30 2155 C 201.189 2.51682 -2.38447 0
M  V30 2156 C 200.25 2.32529 -3.60872 0
M  V30 2157 C 199.483 3.57653 -3.96132 0
M  V30 2158 O 199.706 4.63771 -3.32073 0
M  V30 2159 O 198.64 3.50408 -4.89385 0
M  V30 2160 H 202.466 0.855025 -2.91416 0
M  V30 2161 H 200.051 0.357151 -1.45068 0
M  V30 2162 H 201.933 3.29147 -2.63135 0
M  V30 2163 H 200.608 2.86006 -1.51599 0
M  V30 2164 H 199.515 1.53019 -3.41373 0
M  V30 2165 H 200.848 2.03121 -4.48333 0
M  V30 2166 N 202.5 1.5196 0.417844 0
M  V30 2167 C 203.916 1.40569 0.755816 0
M  V30 2168 C 204.116 0.503316 1.95113 0
M  V30 2169 O 203.172 -0.0341925 2.52477 0
M  V30 2170 C 204.485 2.82947 1.01791 0
M  V30 2171 C 206.033 2.92231 1.12116 0
M  V30 2172 C 206.508 4.35559 1.41608 0
M  V30 2173 N 207.999 4.38753 1.48491 0
M  V30 2174 C 208.734 5.46705 1.7292 0
M  V30 2175 N 208.23 6.64788 1.95011 0
M  V30 2176 N 210.023 5.34209 1.74863 0
M  V30 2177 H 202.174 2.09168 -0.369098 0
M  V30 2178 H 204.437 0.942409 -0.102809 0
M  V30 2179 H 204.143 3.5106 0.212081 0
M  V30 2180 H 204.017 3.23462 1.94042 0
M  V30 2181 H 206.404 2.24304 1.9176 0
M  V30 2182 H 206.485 2.55185 0.177225 0
M  V30 2183 H 206.129 5.04042 0.624848 0
M  V30 2184 H 206.059 4.70133 2.37239 0
M  V30 2185 H 208.55 3.5363 1.33244 0
M  V30 2186 H 208.863 7.42845 2.13076 0
M  V30 2187 H 207.208 6.67869 1.92293 0
M  V30 2188 H 210.399 4.40937 1.57137 0
M  V30 2189 H 210.572 6.18415 1.93563 0
M  V30 2190 N 203.978 -0.674533 1.42435 0
M  V30 2191 C 204.928 -1.7807 1.4239 0
M  V30 2192 C 205.912 -1.58169 0.295202 0
M  V30 2193 O 207.104 -1.68643 0.537449 0
M  V30 2194 C 204.233 -3.16532 1.32901 0
M  V30 2195 C 203.319 -3.42055 2.50717 0
M  V30 2196 N 203.71 -3.38162 3.76139 0
M  V30 2197 C 202.008 -3.72692 2.44983 0
M  V30 2198 C 202.709 -3.63177 4.54398 0
M  V30 2199 N 201.685 -3.83954 3.84812 0
M  V30 2200 H 205.487 -1.73454 2.37257 0
M  V30 2201 H 203.001 -0.875381 1.36788 0
M  V30 2202 H 204.998 -3.958 1.30951 0
M  V30 2203 H 203.658 -3.22345 0.390363 0
M  V30 2204 H 204.669 -3.18057 4.0873 0
M  V30 2205 H 201.346 -3.85749 1.59699 0
M  V30 2206 H 202.736 -3.66125 5.63384 0
M  V30 2207 N 205.456 -1.28612 -0.910864 0
M  V30 2208 C 206.388 -1.08589 -2.01844 0
M  V30 2209 C 207.401 -0.0367419 -1.62759 0
M  V30 2210 O 208.59 -0.280101 -1.76289 0
M  V30 2211 C 205.69 -0.628626 -3.33019 0
M  V30 2212 C 204.863 -1.75382 -4.00699 0
M  V30 2213 C 203.922 -1.28945 -5.10156 0
M  V30 2214 O 202.948 -1.9922 -5.33198 0
M  V30 2215 N 204.15 -0.154224 -5.80295 0
M  V30 2216 H 206.915 -2.03973 -2.19579 0
M  V30 2217 H 204.476 -1.20403 -1.08234 0
M  V30 2218 H 206.468 -0.301508 -4.03575 0
M  V30 2219 H 205.038 0.232451 -3.11735 0
M  V30 2220 H 204.258 -2.25039 -3.23653 0
M  V30 2221 H 205.546 -2.50854 -4.42662 0
M  V30 2222 H 204.944 0.43194 -5.64049 0
M  V30 2223 H 203.501 0.113599 -6.51701 0
M  V30 2224 N 206.934 1.1197 -1.10907 0
M  V30 2225 C 207.864 2.19928 -0.784473 0
M  V30 2226 C 208.845 1.6833 0.244726 0
M  V30 2227 O 210.03 1.93892 0.109418 0
M  V30 2228 C 207.16 3.46597 -0.220827 0
M  V30 2229 C 206.114 4.11376 -1.18127 0
M  V30 2230 C 205.44 5.32554 -0.478594 0
M  V30 2231 C 206.74 4.56945 -2.52979 0
M  V30 2232 H 208.434 2.47337 -1.68715 0
M  V30 2233 H 205.98 1.18879 -0.812642 0
M  V30 2234 H 207.933 4.21396 0.0184278 0
M  V30 2235 H 206.657 3.1863 0.717113 0
M  V30 2236 H 205.316 3.38564 -1.40606 0
M  V30 2237 H 204.964 5.00856 0.463976 0
M  V30 2238 H 204.664 5.76844 -1.11912 0
M  V30 2239 H 206.188 6.10096 -0.248 0
M  V30 2240 H 207.602 5.23093 -2.3462 0
M  V30 2241 H 205.999 5.1203 -3.12962 0
M  V30 2242 H 207.069 3.70676 -3.12614 0
M  V30 2243 N 208.412 0.89855 1.29475 0
M  V30 2244 C 209.661 0.519863 1.94885 0
M  V30 2245 C 209.974 -0.9383 1.71625 0
M  V30 2246 O 211.18 -1.42445 2.31131 0
M  V30 2247 C 209.636 0.878836 3.49005 0
M  V30 2248 C 209.244 2.35569 3.81066 0
M  V30 2249 C 210.988 0.570004 4.20656 0
M  V30 2250 C 208.895 2.65558 5.28425 0
M  V30 2251 H 207.825 0.190692 0.729488 0
M  V30 2252 H 210.476 1.09539 1.47219 0
M  V30 2253 H 208.858 0.232253 3.95318 0
M  V30 2254 H 210.032 3.04773 3.45616 0
M  V30 2255 H 208.347 2.63343 3.22552 0
M  V30 2256 H 210.944 0.770925 5.29113 0
M  V30 2257 H 211.287 -0.491404 4.1339 0
M  V30 2258 H 211.82 1.17438 3.8007 0
M  V30 2259 H 208.559 3.70493 5.40754 0
M  V30 2260 H 208.079 2.00977 5.65127 0
M  V30 2261 H 209.758 2.51765 5.96006 0
M  V30 2262 N 209.89 -1.43072 0.660911 0
M  V30 2263 C 211.139 -2.00942 0.174735 0
M  V30 2264 C 211.452 -1.52797 -1.22117 0
M  V30 2265 O 212.658 -2.02991 -1.80297 0
M  V30 2266 C 211.114 -3.58948 0.261559 0
M  V30 2267 C 210.722 -4.16085 1.66064 0
M  V30 2268 C 212.466 -4.24173 -0.166617 0
M  V30 2269 C 210.373 -5.6641 1.70098 0
M  V30 2270 H 209.303 -0.751483 0.0615631 0
M  V30 2271 H 211.954 -1.63955 0.824069 0
M  V30 2272 H 210.336 -3.93372 -0.455421 0
M  V30 2273 H 211.51 -3.93147 2.40359 0
M  V30 2274 H 209.825 -3.6326 2.03546 0
M  V30 2275 H 212.422 -5.34471 -0.156433 0
M  V30 2276 H 212.765 -3.98647 -1.19943 0
M  V30 2277 H 213.298 -3.94659 0.498875 0
M  V30 2278 H 210.037 -5.96715 2.71315 0
M  V30 2279 H 209.557 -5.91382 1.00139 0
M  V30 2280 H 211.236 -6.30585 1.44816 0
M  V30 2281 N 211.368 -0.403325 -1.52352 0
M  V30 2282 C 212.316 0.439752 -2.28405 0
M  V30 2283 C 213.31 1.05089 -1.32863 0
M  V30 2284 O 214.516 0.989759 -1.50345 0
M  V30 2285 H 210.891 0.160587 -0.734653 0
M  V30 2286 H 212.862 -0.222983 -2.97566 0
M  V30 2287 C 211.611 1.54736 -3.11371 0
M  V30 2288 H 210.934 1.08643 -3.84755 0
M  V30 2289 H 212.374 2.1112 -3.67701 0
M  V30 2290 C 210.833 2.51141 -2.24566 0
M  V30 2291 O 211.363 3.54887 -1.88196 0
M  V30 2292 N 209.569 2.21213 -1.8845 0
M  V30 2293 H 209.116 1.36878 -2.18225 0
M  V30 2294 H 209.074 2.85963 -1.30662 0
M  V30 2295 N 212.846 1.57033 -0.133567 0
M  V30 2296 C 214.257 1.82593 0.389464 0
M  V30 2297 C 214.608 1.05156 1.6564 0
M  V30 2298 O 213.733 0.292644 2.14412 0
M  V30 2299 C 214.328 3.31204 0.713377 0
M  V30 2300 C 212.887 3.57393 1.18098 0
M  V30 2301 C 212.034 2.76598 0.197126 0
M  V30 2302 H 214.985 1.54598 -0.358481 0
M  V30 2303 H 215.006 3.46627 1.56939 0
M  V30 2304 H 214.518 3.87537 -0.2089 0
M  V30 2305 H 212.619 3.06433 2.11966 0
M  V30 2306 H 212.732 4.65915 1.11624 0
M  V30 2307 H 211.096 2.45257 0.687088 0
M  V30 2308 H 211.879 3.35697 -0.718504 0
M  V30 2309 N 214.325 -0.140222 1.56975 0
M  V30 2310 C 215.741 -0.493088 1.51792 0
M  V30 2311 C 215.941 -1.83013 0.843116 0
M  V30 2312 O 214.997 -2.49041 0.416493 0
M  V30 2313 C 216.31 -0.497144 2.96562 0
M  V30 2314 C 217.858 -0.582186 3.07538 0
M  V30 2315 C 218.333 -0.616838 4.53827 0
M  V30 2316 N 219.824 -0.678873 4.58198 0
M  V30 2317 C 220.559 -0.726782 5.68775 0
M  V30 2318 N 220.055 -0.733623 6.88905 0
M  V30 2319 N 221.848 -0.768179 5.56826 0
M  V30 2320 H 213.999 0.736108 1.99237 0
M  V30 2321 H 216.262 0.269182 0.90898 0
M  V30 2322 H 215.968 0.417217 3.49217 0
M  V30 2323 H 215.842 -1.33263 3.52875 0
M  V30 2324 H 218.229 -1.48697 2.54899 0
M  V30 2325 H 218.31 0.280581 2.54257 0
M  V30 2326 H 217.954 0.283812 5.07106 0
M  V30 2327 H 217.884 -1.49619 5.04898 0
M  V30 2328 H 220.375 -0.68061 3.7172 0
M  V30 2329 H 220.688 -0.772215 7.68932 0
M  V30 2330 H 219.033 -0.701389 6.91452 0
M  V30 2331 H 222.224 -0.760051 4.61888 0
M  V30 2332 H 222.397 -0.80205 6.43017 0
M  V30 2333 N 215.803 -1.52179 -0.40978 0
M  V30 2334 C 217.051 -1.65878 -1.15451 0
M  V30 2335 C 217.372 -0.390771 -1.91044 0
M  V30 2336 O 216.642 0.594323 -1.86667 0
M  V30 2337 H 215.222 -0.611405 -0.429177 0
M  V30 2338 H 217.884 -1.89219 -0.467134 0
M  V30 2339 H 216.98 -2.49954 -1.86894 0
M  V30 2340 N 217.281 0.66697 -1.42791 0
M  V30 2341 C 218.527 1.42754 -1.44889 0
M  V30 2342 C 218.882 1.92283 -0.0669755 0
M  V30 2343 O 218.175 1.68494 0.912154 0
M  V30 2344 C 218.369 2.6349 -2.4147 0
M  V30 2345 C 218.198 2.25776 -3.88915 0
M  V30 2346 C 216.968 2.1476 -4.57391 0
M  V30 2347 C 219.166 1.86927 -4.79127 0
M  V30 2348 N 217.148 1.70232 -5.89826 0
M  V30 2349 C 218.519 1.53378 -6.00729 0
M  V30 2350 C 220.574 1.73989 -4.66511 0
M  V30 2351 C 219.277 1.08187 -7.11117 0
M  V30 2352 C 221.303 1.30203 -5.76889 0
M  V30 2353 C 220.665 0.975818 -6.97608 0
M  V30 2354 H 216.764 0.518559 -0.585338 0
M  V30 2355 H 219.348 0.768906 -1.78874 0
M  V30 2356 H 217.519 3.27033 -2.09533 0
M  V30 2357 H 219.251 3.30123 -2.34096 0
M  V30 2358 H 216.006 2.3408 -4.11708 0
M  V30 2359 H 216.43 1.50369 -6.6009 0
M  V30 2360 H 221.072 1.97853 -3.7365 0
M  V30 2361 H 218.79 0.830701 -8.03819 0
M  V30 2362 H 222.376 1.20701 -5.69142 0
M  V30 2363 H 221.256 0.642157 -7.81566 0
M  V30 2364 N 218.759 1.29093 0.90403 0
M  V30 2365 C 220.175 1.07011 1.1841 0
M  V30 2366 C 220.375 -0.181358 2.00682 0
M  V30 2367 O 219.431 -0.880331 2.36657 0
M  V30 2368 C 220.744 2.32311 1.90924 0
M  V30 2369 C 222.292 2.37587 2.03768 0
M  V30 2370 C 222.767 3.62679 2.79693 0
M  V30 2371 N 224.258 3.63376 2.87249 0
M  V30 2372 C 224.993 4.56848 3.46522 0
M  V30 2373 N 224.489 5.60648 4.06996 0
M  V30 2374 N 226.282 4.44426 3.44154 0
M  V30 2375 H 218.433 2.09412 0.354993 0
M  V30 2376 H 220.696 0.922181 0.219742 0
M  V30 2377 H 220.402 3.23536 1.37905 0
M  V30 2378 H 220.276 2.39483 2.91424 0
M  V30 2379 H 222.663 1.46853 2.55965 0
M  V30 2380 H 222.744 2.34403 1.02415 0
M  V30 2381 H 222.388 4.53762 2.28173 0
M  V30 2382 H 222.318 3.63119 3.81381 0
M  V30 2383 H 224.809 2.88321 2.44293 0
M  V30 2384 H 225.122 6.28101 4.50232 0
M  V30 2385 H 223.467 5.64463 4.05471 0
M  V30 2386 H 226.658 3.62529 2.96126 0
M  V30 2387 H 226.831 5.17457 3.90054 0
M  V30 2388 N 220.237 -1.11381 1.11499 0
M  V30 2389 C 221.648 -1.6465 0.880191 0
M  V30 2390 C 221.999 -1.87199 -0.587434 0
M  V30 2391 O 221.124 -1.60667 -1.44966 0
M  V30 2392 C 221.719 -2.99105 1.59128 0
M  V30 2393 C 220.278 -3.49279 1.40289 0
M  V30 2394 C 219.425 -2.24077 1.63354 0
M  V30 2395 H 222.376 -0.950123 1.27116 0
M  V30 2396 H 222.397 -3.66107 1.03664 0
M  V30 2397 H 221.909 -2.82661 2.65941 0
M  V30 2398 H 220.01 -3.70887 0.356888 0
M  V30 2399 H 220.123 -4.2803 2.15238 0
M  V30 2400 H 218.487 -2.31733 1.05698 0
M  V30 2401 H 219.27 -2.10175 2.71443 0
M  V30 2402 N 221.715 -0.905404 -1.28997 0
M  V30 2403 C 222.663 -0.377431 -2.29517 0
M  V30 2404 C 223.657 0.526461 -1.61012 0
M  V30 2405 O 224.863 0.40863 -1.753 0
M  V30 2406 H 221.238 -0.103437 -0.744852 0
M  V30 2407 H 223.209 -1.23848 -2.71485 0
M  V30 2408 C 221.958 0.374833 -3.45674 0
M  V30 2409 H 221.281 -0.311474 -3.98585 0
M  V30 2410 H 222.721 0.70903 -4.1803 0
M  V30 2411 C 221.18 1.57963 -2.97572 0
M  V30 2412 O 221.71 2.67886 -2.99333 0
M  V30 2413 N 219.916 1.42375 -2.53333 0
M  V30 2414 H 219.463 0.529466 -2.521 0
M  V30 2415 H 219.421 2.23117 -2.21509 0
M  V30 2416 N 223.193 1.4272 -0.668489 0
M  V30 2417 C 224.141 2.32586 0.0254857 0
M  V30 2418 C 225.135 1.49471 0.797176 0
M  V30 2419 O 226.341 1.65583 0.705853 0
M  V30 2420 H 222.716 0.751514 0.0270339 0
M  V30 2421 H 224.687 2.88823 -0.749936 0
M  V30 2422 C 223.436 3.3397 0.967427 0
M  V30 2423 H 222.759 3.97961 0.383048 0
M  V30 2424 H 224.199 3.9945 1.42181 0
M  V30 2425 C 222.658 2.65744 2.0708 0
M  V30 2426 O 223.188 2.48454 3.15648 0
M  V30 2427 N 221.394 2.2487 1.8407 0
M  V30 2428 H 220.941 2.39132 0.95778 0
M  V30 2429 H 220.899 1.79552 2.58086 0
M  V30 2430 N 224.671 0.411399 1.52136 0
M  V30 2431 C 226.087 0.0623865 1.59478 0
M  V30 2432 C 226.287 -1.42554 1.4241 0
M  V30 2433 O 225.343 -2.19263 1.2522 0
M  V30 2434 C 226.656 0.559331 2.95452 0
M  V30 2435 C 228.204 0.517503 3.08692 0
M  V30 2436 C 228.679 0.990994 4.4715 0
M  V30 2437 N 230.17 0.947908 4.53397 0
M  V30 2438 C 230.905 1.28544 5.58806 0
M  V30 2439 N 230.401 1.69454 6.71757 0
M  V30 2440 N 232.194 1.20526 5.49026 0
M  V30 2441 H 224.345 1.37982 1.61477 0
M  V30 2442 H 226.608 0.566977 0.759764 0
M  V30 2443 H 226.314 1.59938 3.1323 0
M  V30 2444 H 226.188 -0.0298014 3.77188 0
M  V30 2445 H 228.575 -0.513505 2.90598 0
M  V30 2446 H 228.656 1.14272 2.28857 0
M  V30 2447 H 228.3 2.02034 4.65988 0
M  V30 2448 H 228.23 0.34257 5.25485 0
M  V30 2449 H 230.721 0.647157 3.72317 0
M  V30 2450 H 231.034 1.93513 7.48179 0
M  V30 2451 H 229.379 1.73359 6.73032 0
M  V30 2452 H 232.57 0.884505 4.59667 0
M  V30 2453 H 232.743 1.47161 6.31069 0
M  V30 2454 N 226.149 -1.5696 0.141893 0
M  V30 2455 C 227.099 -2.13074 -0.811383 0
M  V30 2456 C 228.083 -1.05726 -1.21288 0
M  V30 2457 O 229.275 -1.31914 -1.18015 0
M  V30 2458 C 226.404 -2.75186 -2.0525 0
M  V30 2459 C 225.49 -3.8965 -1.67432 0
M  V30 2460 N 225.881 -4.95733 -1.0041 0
M  V30 2461 C 224.179 -4.00262 -1.96739 0
M  V30 2462 C 224.88 -5.75858 -0.822345 0
M  V30 2463 N 223.856 -5.26452 -1.3546 0
M  V30 2464 H 227.658 -2.92465 -0.290031 0
M  V30 2465 H 225.172 -1.6229 -0.0598218 0
M  V30 2466 H 227.169 -3.13745 -2.74535 0
M  V30 2467 H 225.829 -1.97266 -2.57907 0
M  V30 2468 H 226.84 -5.13607 -0.665441 0
M  V30 2469 H 223.517 -3.33412 -2.51282 0
M  V30 2470 H 224.907 -6.71254 -0.294496 0
M  V30 2471 N 227.627 0.131896 -1.57047 0
M  V30 2472 C 228.59 1.14638 -1.98471 0
M  V30 2473 C 229.59 1.35029 -0.873148 0
M  V30 2474 O 230.78 1.31764 -1.13946 0
M  V30 2475 C 227.912 2.50358 -2.31373 0
M  V30 2476 H 229.105 0.79064 -2.8929 0
M  V30 2477 H 226.658 0.375761 -1.51716 0
M  V30 2478 H 227.393 2.90876 -1.43393 0
M  V30 2479 H 227.178 2.36915 -3.12432 0
M  V30 2480 H 228.668 3.23395 -2.64207 0
M  V30 2481 N 229.106 1.52395 0.401703 0
M  V30 2482 C 230.336 1.70429 1.1678 0
M  V30 2483 C 230.744 0.416702 1.84554 0
M  V30 2484 O 230.087 -0.617697 1.73003 0
M  V30 2485 C 230.149 2.78919 2.26814 0
M  V30 2486 C 229.813 4.20437 1.79113 0
M  V30 2487 C 230.81 5.04028 1.27482 0
M  V30 2488 C 228.495 4.66704 1.85722 0
M  V30 2489 C 230.489 6.31961 0.830913 0
M  V30 2490 C 228.176 5.94625 1.40942 0
M  V30 2491 C 229.174 6.77082 0.897128 0
M  V30 2492 O 228.862 8.02607 0.455822 0
M  V30 2493 H 228.594 0.574272 0.356634 0
M  V30 2494 H 231.148 1.99767 0.477724 0
M  V30 2495 H 229.378 2.44973 2.99207 0
M  V30 2496 H 231.067 2.8548 2.88541 0
M  V30 2497 H 231.833 4.69471 1.21744 0
M  V30 2498 H 227.712 4.0262 2.24539 0
M  V30 2499 H 231.256 6.96271 0.430368 0
M  V30 2500 H 227.153 6.28688 1.46362 0
M  V30 2501 H 227.921 8.16453 0.578457 0
M  V30 2502 N 230.584 -0.659388 1.43143 0
M  V30 2503 C 231.83 -1.42145 1.44647 0
M  V30 2504 C 232.163 -1.9408 0.0681907 0
M  V30 2505 O 231.438 -1.71899 -0.910007 0
M  V30 2506 C 231.721 -2.60735 2.48373 0
M  V30 2507 C 231.574 -2.14332 3.95451 0
M  V30 2508 C 232.893 -3.62951 2.48906 0
M  V30 2509 H 230.012 -0.51552 0.526696 0
M  V30 2510 H 232.654 -0.748069 1.74654 0
M  V30 2511 H 230.804 -3.18184 2.22916 0
M  V30 2512 H 232.476 -1.61932 4.31944 0
M  V30 2513 H 230.719 -1.4576 4.08578 0
M  V30 2514 H 231.39 -2.99583 4.63631 0
M  V30 2515 H 233.866 -3.1525 2.71582 0
M  V30 2516 H 232.742 -4.43487 3.23435 0
M  V30 2517 H 233.003 -4.15126 1.52061 0
M  V30 2518 N 232.062 -1.29571 -0.897171 0
M  V30 2519 C 233.31 -1.17456 -1.64464 0
M  V30 2520 C 233.631 0.273698 -1.9307 0
M  V30 2521 O 232.901 1.18684 -1.55855 0
M  V30 2522 H 231.481 -0.431706 -0.609622 0
M  V30 2523 H 234.143 -1.62531 -1.07562 0
M  V30 2524 H 233.239 -1.72648 -2.59998 0
M  V30 2525 N 233.54 1.10788 -1.12088 0
M  V30 2526 C 234.789 1.82036 -0.868659 0
M  V30 2527 C 235.102 1.85929 0.607426 0
M  V30 2528 O 236.308 2.53346 0.97613 0
M  V30 2529 C 234.764 3.26951 -1.50435 0
M  V30 2530 C 234.372 3.31367 -3.01496 0
M  V30 2531 C 236.116 4.03053 -1.33225 0
M  V30 2532 C 234.023 4.7072 -3.58017 0
M  V30 2533 H 232.953 0.682108 -0.321318 0
M  V30 2534 H 235.604 1.24618 -1.34694 0
M  V30 2535 H 233.986 3.84343 -0.953735 0
M  V30 2536 H 235.16 2.83819 -3.6302 0
M  V30 2537 H 233.475 2.6875 -3.18061 0
M  V30 2538 H 236.072 5.05981 -1.72878 0
M  V30 2539 H 236.415 4.15387 -0.275529 0
M  V30 2540 H 236.948 3.52066 -1.85188 0
M  V30 2541 H 233.687 4.63585 -4.63432 0
M  V30 2542 H 233.207 5.1865 -3.01268 0
M  V30 2543 H 234.886 5.39685 -3.56859 0
M  V30 2544 N 235.018 0.912232 1.28515 0
M  V30 2545 C 235.981 0.404223 2.25607 0
M  V30 2546 C 236.981 -0.468602 1.53821 0
M  V30 2547 O 238.171 -0.271873 1.72065 0
M  V30 2548 C 235.303 -0.420653 3.38295 0
M  V30 2549 H 236.496 1.26188 2.7206 0
M  V30 2550 H 234.049 0.691495 1.40171 0
M  V30 2551 H 234.784 -1.29777 2.97201 0
M  V30 2552 H 234.569 0.204935 3.91564 0
M  V30 2553 H 236.059 -0.766971 4.10496 0
M  V30 2554 N 236.496 -1.42363 0.676048 0
M  V30 2555 C 237.742 -2.0182 0.199125 0
M  V30 2556 C 238.075 -1.53339 -1.19168 0
M  V30 2557 O 237.35 -0.736124 -1.80032 0
M  V30 2558 C 237.633 -3.59331 0.235144 0
M  V30 2559 C 237.486 -4.17989 1.66149 0
M  V30 2560 C 238.805 -4.3813 -0.41595 0
M  V30 2561 H 235.924 -0.733293 0.0738311 0
M  V30 2562 H 238.566 -1.69368 0.86107 0
M  V30 2563 H 236.716 -3.87109 -0.328487 0
M  V30 2564 H 238.388 -4.0116 2.27747 0
M  V30 2565 H 236.631 -3.7377 2.20178 0
M  V30 2566 H 237.302 -5.27126 1.63837 0
M  V30 2567 H 239.778 -4.16051 0.0638529 0
M  V30 2568 H 238.654 -5.47717 -0.360115 0
M  V30 2569 H 238.915 -4.16101 -1.49373 0
M  V30 2570 N 237.974 -0.419461 -1.51915 0
M  V30 2571 C 239.223 0.154346 -2.01109 0
M  V30 2572 C 239.536 1.45338 -1.30905 0
M  V30 2573 O 240.742 2.10906 -1.7097 0
M  V30 2574 C 239.198 0.325615 -3.58424 0
M  V30 2575 C 238.806 -0.961934 -4.37551 0
M  V30 2576 C 240.55 0.854155 -4.15818 0
M  V30 2577 C 238.457 -0.757287 -5.86531 0
M  V30 2578 H 237.387 0.0614563 -0.751491 0
M  V30 2579 H 240.038 -0.54649 -1.75173 0
M  V30 2580 H 238.42 1.08903 -3.80731 0
M  V30 2581 H 239.594 -1.7323 -4.26999 0
M  V30 2582 H 237.909 -1.41766 -3.91524 0
M  V30 2583 H 240.506 1.02346 -5.24814 0
M  V30 2584 H 240.849 1.83172 -3.73837 0
M  V30 2585 H 241.382 0.149528 -3.97519 0
M  V30 2586 H 238.121 -1.70671 -6.32892 0
M  V30 2587 H 237.641 -0.0264061 -5.99794 0
M  V30 2588 H 239.32 -0.403482 -6.45741 0
M  V30 2589 N 239.452 1.56882 -0.150215 0
M  V30 2590 C 240.698 1.97299 0.494427 0
M  V30 2591 C 241.053 1.0338 1.62266 0
M  V30 2592 O 240.346 0.0694497 1.91474 0
M  V30 2593 C 240.54 3.41801 1.04437 0
M  V30 2594 C 240.369 4.49691 -0.0290451 0
M  V30 2595 C 239.139 5.03095 -0.47156 0
M  V30 2596 C 241.337 5.07693 -0.821703 0
M  V30 2597 N 239.319 5.94593 -1.52749 0
M  V30 2598 C 240.69 5.95431 -1.72805 0
M  V30 2599 C 242.745 4.90256 -0.869134 0
M  V30 2600 C 241.448 6.67599 -2.67777 0
M  V30 2601 C 243.474 5.63127 -1.8067 0
M  V30 2602 C 242.836 6.50576 -2.70057 0
M  V30 2603 H 238.935 0.76755 0.149639 0
M  V30 2604 H 241.519 1.93145 -0.24556 0
M  V30 2605 H 239.69 3.46541 1.75396 0
M  V30 2606 H 241.422 3.69272 1.6559 0
M  V30 2607 H 238.177 4.73543 -0.0732101 0
M  V30 2608 H 238.601 6.45047 -2.05531 0
M  V30 2609 H 243.243 4.22363 -0.192134 0
M  V30 2610 H 240.961 7.34717 -3.36476 0
M  V30 2611 H 244.547 5.51629 -1.84924 0
M  V30 2612 H 243.427 7.05974 -3.41424 0
M  V30 2613 N 240.93 -0.123565 1.57115 0
M  V30 2614 C 242.176 -0.833386 1.84885 0
M  V30 2615 C 242.509 -1.79742 0.735292 0
M  V30 2616 O 241.784 -1.92764 -0.25925 0
M  V30 2617 C 242.067 -1.5873 3.23228 0
M  V30 2618 C 241.92 -0.643183 4.45178 0
M  V30 2619 C 243.239 -2.54453 3.59085 0
M  V30 2620 H 240.358 -0.301518 0.6725 0
M  V30 2621 H 243 -0.097778 1.89748 0
M  V30 2622 H 241.15 -2.21438 3.19214 0
M  V30 2623 H 242.822 -0.0253015 4.61293 0
M  V30 2624 H 241.065 0.0456139 4.33776 0
M  V30 2625 H 241.736 -1.20724 5.38637 0
M  V30 2626 H 244.212 -2.01853 3.63861 0
M  V30 2627 H 243.088 -3.04238 4.5687 0
M  V30 2628 H 243.349 -3.36906 2.86264 0
M  V30 2629 N 242.408 -1.52605 -0.393616 0
M  V30 2630 C 243.338 -1.80022 -1.48709 0
M  V30 2631 C 244.319 -0.651995 -1.57108 0
M  V30 2632 O 245.504 -0.89913 -1.72132 0
M  V30 2633 C 242.634 -1.96492 -2.86371 0
M  V30 2634 C 241.588 -3.12161 -2.92813 0
M  V30 2635 C 240.914 -3.13877 -4.3288 0
M  V30 2636 C 242.214 -4.51322 -2.6288 0
M  V30 2637 H 243.908 -2.71589 -1.26015 0
M  V30 2638 H 241.454 -1.30684 -0.604778 0
M  V30 2639 H 243.407 -2.14255 -3.62867 0
M  V30 2640 H 242.131 -1.01611 -3.10391 0
M  V30 2641 H 240.79 -2.94173 -2.18764 0
M  V30 2642 H 240.438 -2.16687 -4.53933 0
M  V30 2643 H 240.138 -3.91576 -4.38112 0
M  V30 2644 H 241.662 -3.33789 -5.1129 0
M  V30 2645 H 243.076 -4.69435 -3.29096 0
M  V30 2646 H 241.473 -5.31053 -2.79468 0
M  V30 2647 H 242.543 -4.58353 -1.58242 0
M  V30 2648 N 243.887 0.651787 -1.4349 0
M  V30 2649 C 244.85 1.74647 -1.48429 0
M  V30 2650 C 245.85 1.56513 -0.368817 0
M  V30 2651 O 247.04 1.62385 -0.630623 0
M  V30 2652 C 244.172 3.13533 -1.33827 0
M  V30 2653 H 245.365 1.71649 -2.4592 0
M  V30 2654 H 242.918 0.863573 -1.30277 0
M  V30 2655 H 243.653 3.22142 -0.37349 0
M  V30 2656 H 243.438 3.28101 -2.14691 0
M  V30 2657 H 244.928 3.93356 -1.40218 0
M  V30 2658 N 245.365 1.30045 0.890287 0
M  V30 2659 C 246.611 1.18737 1.64406 0
M  V30 2660 C 246.944 -0.258525 1.92472 0
M  V30 2661 O 246.219 -1.18562 1.54186 0
M  V30 2662 C 246.502 2.01087 2.98724 0
M  V30 2663 C 246.355 3.53867 2.77665 0
M  V30 2664 C 247.674 1.84457 3.9958 0
M  V30 2665 H 244.793 0.432698 0.596608 0
M  V30 2666 H 247.435 1.5962 1.0306 0
M  V30 2667 H 245.585 1.66349 3.51084 0
M  V30 2668 H 247.257 3.98637 2.32133 0
M  V30 2669 H 245.5 3.78318 2.12269 0
M  V30 2670 H 246.171 4.06772 3.7315 0
M  V30 2671 H 248.647 2.14817 3.56361 0
M  V30 2672 H 247.523 2.44411 4.91482 0
M  V30 2673 H 247.784 0.802276 4.3476 0
M  V30 2674 N 246.843 -1.10192 1.12674 0
M  V30 2675 C 247.806 -2.14786 0.799979 0
M  V30 2676 C 248.806 -1.59711 -0.18685 0
M  V30 2677 O 249.996 -1.74156 0.0392558 0
M  V30 2678 C 247.128 -3.40374 0.189228 0
M  V30 2679 H 248.321 -2.45203 1.72671 0
M  V30 2680 H 245.874 -1.25597 0.930326 0
M  V30 2681 H 246.609 -3.15577 -0.747107 0
M  V30 2682 H 246.394 -3.81637 0.899766 0
M  V30 2683 H 247.884 -4.17594 -0.0228143 0
M  V30 2684 N 248.321 -0.919034 -1.28029 0
M  V30 2685 C 249.546 -0.570357 -1.99403 0
M  V30 2686 C 249.971 0.842486 -1.68178 0
M  V30 2687 O 249.329 1.56391 -0.917141 0
M  V30 2688 C 249.377 -0.792541 -3.51783 0
M  V30 2689 O 248.481 0.145988 -4.12142 0
M  V30 2690 H 247.822 -0.220555 -0.6263 0
M  V30 2691 H 250.352 -1.23592 -1.63053 0
M  V30 2692 H 250.362 -0.704708 -4.01868 0
M  V30 2693 H 249.037 -1.82247 -3.73844 0
M  V30 2694 H 247.614 0.00897528 -3.72899 0
M  V30 2695 N 249.799 1.42003 -0.683588 0
M  V30 2696 C 251.024 2.06265 -0.216647 0
M  V30 2697 C 251.449 1.51059 1.12083 0
M  V30 2698 O 250.807 0.632638 1.69904 0
M  V30 2699 C 250.855 3.60191 -0.171759 0
M  V30 2700 O 249.959 4.03396 0.857069 0
M  V30 2701 H 249.3 0.65502 -0.108834 0
M  V30 2702 H 251.83 1.81982 -0.935077 0
M  V30 2703 H 251.84 4.08 0.0014303 0
M  V30 2704 H 250.515 3.99743 -1.14796 0
M  V30 2705 H 249.092 3.67117 0.654208 0
M  V30 2706 N 251.277 0.427512 1.51691 0
M  V30 2707 C 252.207 -0.3796 2.30394 0
M  V30 2708 C 253.188 -1.02982 1.35384 0
M  V30 2709 O 254.373 -1.03534 1.643 0
M  V30 2710 C 251.503 -1.48649 3.1388 0
M  V30 2711 C 250.457 -0.960294 4.17088 0
M  V30 2712 C 249.783 -2.16219 4.89033 0
M  V30 2713 C 251.083 -0.00153679 5.223 0
M  V30 2714 H 252.777 0.277164 2.98114 0
M  V30 2715 H 250.323 0.134739 1.43368 0
M  V30 2716 H 252.276 -2.05826 3.67714 0
M  V30 2717 H 251 -2.1714 2.43962 0
M  V30 2718 H 249.659 -0.410806 3.64291 0
M  V30 2719 H 249.307 -2.83307 4.15628 0
M  V30 2720 H 249.007 -1.81654 5.58816 0
M  V30 2721 H 250.531 -2.73968 5.45687 0
M  V30 2722 H 251.945 -0.482687 5.71264 0
M  V30 2723 H 250.342 0.256199 5.99553 0
M  V30 2724 H 251.412 0.938174 4.75738 0
M  V30 2725 N 252.755 -1.56801 0.158532 0
M  V30 2726 C 254.166 -1.83189 -0.360366 0
M  V30 2727 C 254.517 -1.07778 -1.63946 0
M  V30 2728 O 253.642 -0.326718 -2.13919 0
M  V30 2729 C 254.237 -3.32297 -0.660595 0
M  V30 2730 C 252.796 -3.59227 -1.12398 0
M  V30 2731 C 251.943 -2.76877 -0.153097 0
M  V30 2732 H 254.894 -1.54008 0.383031 0
M  V30 2733 H 254.915 -3.4908 -1.51405 0
M  V30 2734 H 254.427 -3.87156 0.270527 0
M  V30 2735 H 252.528 -3.09766 -2.07064 0
M  V30 2736 H 252.641 -4.67632 -1.04197 0
M  V30 2737 H 251.005 -2.46319 -0.647983 0
M  V30 2738 H 251.788 -3.34511 0.77182 0
M  V30 2739 N 254.233 0.115231 -1.57178 0
M  V30 2740 C 255.48 0.822351 -1.8505 0
M  V30 2741 C 255.808 1.79701 -0.744168 0
M  V30 2742 O 255.063 1.93909 0.26414 0
M  V30 2743 C 255.362 1.60324 -3.19423 0
M  V30 2744 C 255.028 0.772536 -4.44233 0
M  V30 2745 C 253.69 0.543468 -4.78121 0
M  V30 2746 C 256.042 0.193746 -5.2084 0
M  V30 2747 C 253.37 -0.274583 -5.86057 0
M  V30 2748 C 255.722 -0.611517 -6.29637 0
M  V30 2749 C 254.386 -0.850867 -6.62055 0
M  V30 2750 H 253.656 0.30092 -0.677147 0
M  V30 2751 H 256.303 0.0845802 -1.91313 0
M  V30 2752 H 254.608 2.41203 -3.08753 0
M  V30 2753 H 256.305 2.1544 -3.38211 0
M  V30 2754 H 252.895 0.96117 -4.17683 0
M  V30 2755 H 257.079 0.357926 -4.95008 0
M  V30 2756 H 252.335 -0.469206 -6.09597 0
M  V30 2757 H 256.509 -1.06697 -6.88178 0
M  V30 2758 H 254.136 -1.48657 -7.45523 0
M  V30 2759 N 255.711 1.52812 0.385517 0
M  V30 2760 C 256.641 1.80808 1.47752 0
M  V30 2761 C 257.622 0.660318 1.5676 0
M  V30 2762 O 258.807 0.908246 1.71652 0
M  V30 2763 C 255.937 1.98008 2.85324 0
M  V30 2764 C 254.891 3.13709 2.91154 0
M  V30 2765 C 254.217 3.16169 4.31209 0
M  V30 2766 C 255.517 4.52709 2.60483 0
M  V30 2767 H 257.211 2.72253 1.24573 0
M  V30 2768 H 254.757 1.31003 0.597839 0
M  V30 2769 H 256.71 2.16176 3.61726 0
M  V30 2770 H 255.434 1.03255 3.09848 0
M  V30 2771 H 254.093 2.95329 2.17201 0
M  V30 2772 H 253.741 2.19092 4.52778 0
M  V30 2773 H 253.441 3.93894 4.36029 0
M  V30 2774 H 254.965 3.36496 5.09512 0
M  V30 2775 H 256.379 4.71173 3.26602 0
M  V30 2776 H 254.776 5.32528 2.76648 0
M  V30 2777 H 255.846 4.59186 1.55809 0
M  V30 2778 N 257.189 -0.644168 1.43834 0
M  V30 2779 C 258.438 -1.39985 1.45214 0
M  V30 2780 C 258.751 -1.95421 0.0835494 0
M  V30 2781 O 259.957 -2.71488 -0.0251748 0
M  V30 2782 C 258.413 -2.53384 2.55587 0
M  V30 2783 C 258.021 -2.04517 3.98594 0
M  V30 2784 C 259.765 -3.30685 2.66172 0
M  V30 2785 C 257.672 -3.1518 5.00416 0
M  V30 2786 H 256.602 -0.526005 0.540218 0
M  V30 2787 H 259.253 -0.694367 1.69855 0
M  V30 2788 H 257.635 -3.26446 2.24163 0
M  V30 2789 H 258.809 -1.38405 4.39523 0
M  V30 2790 H 257.124 -1.40068 3.92135 0
M  V30 2791 H 259.721 -4.13158 3.39418 0
M  V30 2792 H 260.064 -3.79312 1.71546 0
M  V30 2793 H 260.597 -2.64708 2.96942 0
M  V30 2794 H 257.336 -2.71511 5.96625 0
M  V30 2795 H 256.856 -3.79974 4.64091 0
M  V30 2796 H 258.535 -3.80166 5.23529 0
M  V30 2797 N 258.668 -1.30515 -0.883378 0
M  V30 2798 C 259.898 -1.22182 -1.66599 0
M  V30 2799 C 260.306 0.217507 -1.87946 0
M  V30 2800 O 259.649 1.1554 -1.42815 0
M  V30 2801 C 259.711 -1.88146 -3.06335 0
M  V30 2802 C 259.375 -3.37476 -3.08154 0
M  V30 2803 C 260.372 -4.33443 -2.87094 0
M  V30 2804 C 258.057 -3.7895 -3.29701 0
M  V30 2805 C 260.051 -5.68858 -2.8754 0
M  V30 2806 C 257.738 -5.14482 -3.29776 0
M  V30 2807 C 258.736 -6.09246 -3.0872 0
M  V30 2808 O 258.424 -7.42302 -3.08615 0
M  V30 2809 H 258.156 -0.423898 -0.52658 0
M  V30 2810 H 260.71 -1.72703 -1.11188 0
M  V30 2811 H 258.94 -1.32157 -3.63416 0
M  V30 2812 H 260.629 -1.7391 -3.66756 0
M  V30 2813 H 261.395 -4.02733 -2.70243 0
M  V30 2814 H 257.274 -3.05631 -3.45124 0
M  V30 2815 H 260.818 -6.428 -2.71024 0
M  V30 2816 H 256.715 -5.44832 -3.46163 0
M  V30 2817 H 257.483 -7.5131 -3.24769 0
M  V30 2818 N 260.146 1.09593 -1.13257 0
M  V30 2819 C 261.078 2.16015 -0.766167 0
M  V30 2820 C 262.091 1.61423 0.211303 0
M  V30 2821 O 263.28 1.78498 -0.00863946 0
M  V30 2822 C 260.38 3.38706 -0.114662 0
M  V30 2823 C 259.553 4.22717 -1.12379 0
M  V30 2824 C 258.612 5.23835 -0.498301 0
M  V30 2825 O 257.638 5.573 -1.15781 0
M  V30 2826 N 258.84 5.75886 0.730417 0
M  V30 2827 H 261.605 2.48055 -1.68193 0
M  V30 2828 H 259.166 1.25292 -1.02535 0
M  V30 2829 H 261.158 4.03464 0.315991 0
M  V30 2830 H 259.728 3.04569 0.704011 0
M  V30 2831 H 258.948 3.54122 -1.73179 0
M  V30 2832 H 260.236 4.75673 -1.80589 0
M  V30 2833 H 259.634 5.50911 1.28504 0
M  V30 2834 H 258.191 6.42387 1.10376 0
M  V30 2835 N 261.624 0.925811 1.2754 0
M  V30 2836 C 262.87 0.566092 1.94739 0
M  V30 2837 C 263.203 -0.890057 1.72603 0
M  V30 2838 O 262.478 -1.63467 1.05399 0
M  V30 2839 C 262.761 0.89054 3.48915 0
M  V30 2840 C 262.614 2.4003 3.80402 0
M  V30 2841 C 263.933 0.395101 4.38323 0
M  V30 2842 H 261.052 0.20714 0.707292 0
M  V30 2843 H 263.694 1.15725 1.50691 0
M  V30 2844 H 261.844 0.387452 3.86563 0
M  V30 2845 H 263.516 2.97494 3.52555 0
M  V30 2846 H 261.759 2.85028 3.2702 0
M  V30 2847 H 262.43 2.57785 4.8811 0
M  V30 2848 H 264.906 0.826241 4.07814 0
M  V30 2849 H 263.782 0.651086 5.45025 0
M  V30 2850 H 264.043 -0.704798 4.36446 0
M  V30 2851 N 263.102 -1.41638 0.69111 0
M  V30 2852 C 264.035 -2.28183 -0.0274913 0
M  V30 2853 C 265.013 -1.41984 -0.792424 0
M  V30 2854 O 266.197 -1.71415 -0.784169 0
M  V30 2855 C 263.324 -3.22135 -1.04628 0
M  V30 2856 C 262.37 -4.24848 -0.375037 0
M  V30 2857 S 263.203 -5.28231 0.879321 0
M  V30 2858 C 264.359 -6.25748 -0.137983 0
M  V30 2859 H 264.592 -2.88782 0.706553 0
M  V30 2860 H 262.125 -1.46709 0.481222 0
M  V30 2861 H 264.083 -3.76797 -1.62894 0
M  V30 2862 H 262.744 -2.6064 -1.75287 0
M  V30 2863 H 261.937 -4.90837 -1.14433 0
M  V30 2864 H 261.539 -3.73758 0.134434 0
M  V30 2865 H 263.831 -6.70188 -0.992659 0
M  V30 2866 H 264.774 -7.06417 0.487867 0
M  V30 2867 H 265.182 -5.62363 -0.490762 0
M  V30 2868 N 264.58 -0.43555 -1.51462 0
M  V30 2869 C 265.808 0.130242 -2.0649 0
M  V30 2870 C 266.223 1.36614 -1.30315 0
M  V30 2871 O 265.58 1.78869 -0.362223 0
M  V30 2872 C 265.631 0.454253 -3.58635 0
M  V30 2873 O 265.352 -0.73259 -4.31931 0
M  V30 2874 C 266.853 1.07091 -4.3017 0
M  V30 2875 H 264.073 0.00871669 -0.670943 0
M  V30 2876 H 266.617 -0.614117 -1.95061 0
M  V30 2877 H 264.772 1.14851 -3.69984 0
M  V30 2878 H 265.186 -0.455787 -5.22516 0
M  V30 2879 H 266.66 1.24764 -5.37716 0
M  V30 2880 H 267.137 2.05144 -3.88346 0
M  V30 2881 H 267.743 0.416089 -4.2326 0
M  V30 2882 N 266.058 1.56714 -0.166846 0
M  V30 2883 C 267.335 1.88412 0.525373 0
M  V30 2884 C 267.715 1.07602 1.81618 0
M  V30 2885 O 267.063 0.168621 2.27877 0
M  V30 2886 C 267.273 3.40363 0.771613 0
M  V30 2887 C 268.621 4.10007 1.1036 0
M  V30 2888 O 269.645 3.45655 0.860304 0
M  V30 2889 O 268.504 5.2369 1.56239 0
M  V30 2890 H 265.598 0.781587 0.270278 0
M  V30 2891 H 268.144 1.68458 -0.204946 0
M  V30 2892 H 266.916 3.91046 -0.141093 0
M  V30 2893 H 266.539 3.65914 1.55541 0
M  V30 2894 N 267.536 -0.106894 1.57237 0
M  V30 2895 C 268.446 -1.14911 2.0453 0
M  V30 2896 C 269.462 -1.44592 0.96795 0
M  V30 2897 O 270.638 -1.55468 1.2803 0
M  V30 2898 C 267.703 -2.45272 2.45036 0
M  V30 2899 C 266.764 -2.22879 3.66911 0
M  V30 2900 C 265.997 -3.47024 4.05475 0
M  V30 2901 O 266.22 -4.54804 3.44252 0
M  V30 2902 O 265.154 -3.3731 4.98504 0
M  V30 2903 H 268.98 -0.777461 2.9358 0
M  V30 2904 H 266.565 -0.318563 1.45964 0
M  V30 2905 H 268.447 -3.22055 2.71769 0
M  V30 2906 H 267.122 -2.81886 1.59129 0
M  V30 2907 H 266.029 -1.43915 3.45311 0
M  V30 2908 H 267.362 -1.91163 4.53561 0
M  V30 2909 N 269.014 -1.53014 -0.377408 0
M  V30 2910 C 270.425 -1.60438 -0.954798 0
M  V30 2911 C 270.776 -0.464418 -1.90624 0
M  V30 2912 O 269.901 0.41087 -2.12464 0
M  V30 2913 C 270.496 -2.90797 -1.73847 0
M  V30 2914 C 269.055 -3.00595 -2.26538 0
M  V30 2915 C 268.202 -2.55645 -1.07429 0
M  V30 2916 H 271.153 -1.57926 -0.156575 0
M  V30 2917 H 271.174 -2.77935 -2.5987 0
M  V30 2918 H 270.686 -3.73746 -1.04574 0
M  V30 2919 H 268.787 -2.22208 -2.99089 0
M  V30 2920 H 268.9 -4.05456 -2.5523 0
M  V30 2921 H 267.264 -2.10239 -1.43777 0
M  V30 2922 H 268.047 -3.41 -0.396728 0
M  V30 2923 N 270.492 0.636531 -1.44174 0
M  V30 2924 C 271.739 1.39619 -1.46672 0
M  V30 2925 C 272.067 1.94257 -0.0972691 0
M  V30 2926 O 271.322 1.73768 0.900175 0
M  V30 2927 C 271.621 2.58309 -2.47005 0
M  V30 2928 C 271.287 2.21992 -3.92467 0
M  V30 2929 C 269.949 2.118 -4.32081 0
M  V30 2930 C 272.301 1.9321 -4.84065 0
M  V30 2931 C 269.629 1.71007 -5.61225 0
M  V30 2932 C 271.981 1.53911 -6.13591 0
M  V30 2933 C 270.645 1.42257 -6.52165 0
M  V30 2934 H 269.915 0.510902 -0.536712 0
M  V30 2935 H 272.562 0.722328 -1.77355 0
M  V30 2936 H 270.867 3.30903 -2.09786 0
M  V30 2937 H 272.564 3.16533 -2.46186 0
M  V30 2938 H 269.154 2.30841 -3.61124 0
M  V30 2939 H 273.338 1.99997 -4.54219 0
M  V30 2940 H 268.594 1.60583 -5.89935 0
M  V30 2941 H 272.768 1.30677 -6.8403 0
M  V30 2942 H 270.395 1.10419 -7.52138 0
M  V30 2943 N 271.97 1.30982 0.876444 0
M  V30 2944 C 272.902 1.13902 1.98894 0
M  V30 2945 C 273.915 0.0798815 1.62604 0
M  V30 2946 O 275.104 0.326743 1.75484 0
M  V30 2947 C 272.204 0.716699 3.31235 0
M  V30 2948 C 271.377 1.85945 3.95908 0
M  V30 2949 C 270.436 1.42426 5.06558 0
M  V30 2950 O 269.462 2.13287 5.27729 0
M  V30 2951 N 270.664 0.308025 5.79682 0
M  V30 2952 H 273.429 2.09724 2.14094 0
M  V30 2953 H 270.99 1.2323 1.05004 0
M  V30 2954 H 272.982 0.408403 4.02634 0
M  V30 2955 H 271.552 -0.149719 3.12241 0
M  V30 2956 H 270.772 2.33541 3.17573 0
M  V30 2957 H 272.06 2.62503 4.35855 0
M  V30 2958 H 271.458 -0.282241 5.64995 0
M  V30 2959 H 270.015 0.0592282 6.51773 0
M  V30 2960 N 273.449 -1.08991 1.13837 0
M  V30 2961 C 274.397 -2.17841 0.815347 0
M  V30 2962 C 275.391 -1.68164 -0.204233 0
M  V30 2963 O 276.597 -1.79897 -0.0609304 0
M  V30 2964 H 272.972 -0.710654 0.245915 0
M  V30 2965 H 274.943 -2.42315 1.74143 0
M  V30 2966 C 273.692 -3.46381 0.302614 0
M  V30 2967 H 273.015 -3.84979 1.0785 0
M  V30 2968 H 274.455 -4.23844 0.115074 0
M  V30 2969 C 272.914 -3.22556 -0.972591 0
M  V30 2970 O 273.444 -3.45599 -2.04754 0
M  V30 2971 N 271.65 -2.76134 -0.905455 0
M  V30 2972 H 271.197 -2.57582 -0.0305421 0
M  V30 2973 H 271.155 -2.60571 -1.75926 0
M  V30 2974 N 274.927 -0.932562 -1.27047 0
M  V30 2975 C 276.173 -0.576412 -1.94436 0
M  V30 2976 C 276.506 0.880891 -1.73072 0
M  V30 2977 O 275.781 1.62905 -1.06264 0
M  V30 2978 C 276.064 -0.909031 -3.48437 0
M  V30 2979 C 275.917 -2.42044 -3.79123 0
M  V30 2980 C 277.236 -0.418341 -4.38107 0
M  V30 2981 H 274.355 -0.210888 -0.706184 0
M  V30 2982 H 276.997 -1.16522 -1.50075 0
M  V30 2983 H 275.147 -0.407947 -3.86352 0
M  V30 2984 H 276.819 -2.99359 -3.50973 0
M  V30 2985 H 275.062 -2.86758 -3.25503 0
M  V30 2986 H 275.733 -2.6037 -4.86736 0
M  V30 2987 H 278.209 -0.847856 -4.0737 0
M  V30 2988 H 277.085 -0.679981 -5.44672 0
M  V30 2989 H 277.346 0.681642 -4.36814 0
M  V30 2990 N 276.405 1.4127 -0.698611 0
M  V30 2991 C 277.633 2.05503 -0.239992 0
M  V30 2992 C 278.048 1.52584 1.11191 0
M  V30 2993 O 277.405 0.675323 1.69545 0
M  V30 2994 C 277.456 3.60987 -0.192429 0
M  V30 2995 O 277.177 4.1195 -1.49094 0
M  V30 2996 C 278.678 4.42371 0.28681 0
M  V30 2997 H 275.898 0.661748 -0.111045 0
M  V30 2998 H 278.442 1.80987 -0.95205 0
M  V30 2999 H 276.597 3.84533 0.470472 0
M  V30 3000 H 277.011 5.06018 -1.38007 0
M  V30 3001 H 278.485 5.51344 0.26896 0
M  V30 3002 H 278.962 4.18699 1.32619 0
M  V30 3003 H 279.568 4.23897 -0.345201 0
M  V30 3004 N 277.883 0.443576 1.51229 0
M  V30 3005 C 278.813 -0.355142 2.30783 0
M  V30 3006 C 279.794 -1.0154 1.36468 0
M  V30 3007 O 280.979 -1.01785 1.65389 0
M  V30 3008 C 278.109 -1.45312 3.15439 0
M  V30 3009 C 277.063 -0.916002 4.18083 0
M  V30 3010 C 276.389 -2.1102 4.91299 0
M  V30 3011 C 277.689 0.0538602 5.22272 0
M  V30 3012 H 279.383 0.308767 2.97804 0
M  V30 3013 H 276.929 0.149937 1.43217 0
M  V30 3014 H 278.882 -2.01914 3.69876 0
M  V30 3015 H 277.606 -2.14541 2.46252 0
M  V30 3016 H 276.265 -0.372145 3.64706 0
M  V30 3017 H 275.913 -2.78882 4.18609 0
M  V30 3018 H 275.613 -1.75717 5.60712 0
M  V30 3019 H 277.137 -2.68164 5.48562 0
M  V30 3020 H 278.551 -0.422069 5.71744 0
M  V30 3021 H 276.948 0.319776 5.99247 0
M  V30 3022 H 278.018 0.98858 4.74716 0
M  V30 3023 N 279.361 -1.56624 0.175154 0
M  V30 3024 C 280.638 -1.88688 -0.515373 0
M  V30 3025 C 281.018 -1.08564 -1.81044 0
M  V30 3026 O 280.366 -0.180703 -2.27784 0
M  V30 3027 C 280.576 -3.40768 -0.753552 0
M  V30 3028 C 281.924 -4.10587 -1.08184 0
M  V30 3029 O 282.948 -3.46106 -0.841961 0
M  V30 3030 O 281.807 -5.24512 -1.53459 0
M  V30 3031 H 278.901 -0.78301 -0.26613 0
M  V30 3032 H 281.447 -1.68347 0.213877 0
M  V30 3033 H 280.219 -3.90965 0.161829 0
M  V30 3034 H 279.842 -3.66733 -1.53598 0
M  V30 3035 N 280.839 0.0985539 -1.57292 0
M  V30 3036 C 281.802 1.10402 -2.00858 0
M  V30 3037 C 282.802 1.33146 -0.901593 0
M  V30 3038 O 283.992 1.29318 -1.16716 0
M  V30 3039 C 281.124 2.45394 -2.36632 0
M  V30 3040 H 282.317 0.729099 -2.90902 0
M  V30 3041 H 279.87 0.343495 -1.52479 0
M  V30 3042 H 280.605 2.87769 -1.49531 0
M  V30 3043 H 280.39 2.30235 -3.17387 0
M  V30 3044 H 281.88 3.17718 -2.71007 0
M  V30 3045 N 282.317 1.53212 0.369288 0
M  V30 3046 C 283.547 1.72868 1.13139 0
M  V30 3047 C 283.955 0.455754 1.83629 0
M  V30 3048 O 283.298 -0.580861 1.74275 0
M  V30 3049 C 283.36 2.83667 2.20847 0
M  V30 3050 C 283.024 4.24142 1.70155 0
M  V30 3051 C 284.021 5.06619 1.16763 0
M  V30 3052 C 281.706 4.70539 1.7578 0
M  V30 3053 C 283.7 6.33581 0.696678 0
M  V30 3054 C 281.387 5.97481 1.28297 0
M  V30 3055 C 282.385 6.78833 0.753307 0
M  V30 3056 O 282.073 8.03393 0.285475 0
M  V30 3057 H 281.805 0.581707 0.344373 0
M  V30 3058 H 284.359 2.00736 0.435243 0
M  V30 3059 H 282.589 2.51265 2.93944 0
M  V30 3060 H 284.278 2.91536 2.82421 0
M  V30 3061 H 285.044 4.71948 1.11758 0
M  V30 3062 H 280.923 4.07293 2.15949 0
M  V30 3063 H 284.467 6.97027 0.282581 0
M  V30 3064 H 280.364 6.31651 1.32994 0
M  V30 3065 H 281.132 8.17497 0.405145 0
M  V30 3066 N 283.795 -0.628877 1.44509 0
M  V30 3067 C 284.742 -1.74074 1.51549 0
M  V30 3068 C 285.712 -1.62084 0.363021 0
M  V30 3069 O 286.897 -1.81975 0.573567 0
M  V30 3070 C 284.037 -3.12328 1.46784 0
M  V30 3071 C 283.15 -3.35277 2.72422 0
M  V30 3072 C 282.285 -4.63515 2.59475 0
M  V30 3073 C 281.324 -4.7965 3.80266 0
M  V30 3074 N 280.461 -5.99168 3.65981 0
M  V30 3075 H 285.301 -1.67392 2.46544 0
M  V30 3076 H 282.838 -0.816527 1.22357 0
M  V30 3077 H 284.796 -3.92286 1.42012 0
M  V30 3078 H 283.426 -3.18018 0.553544 0
M  V30 3079 H 282.478 -2.49242 2.87372 0
M  V30 3080 H 283.79 -3.43078 3.62076 0
M  V30 3081 H 282.944 -5.51638 2.52548 0
M  V30 3082 H 281.683 -4.58076 1.67384 0
M  V30 3083 H 280.688 -3.89957 3.87574 0
M  V30 3084 H 281.913 -4.86902 4.73395 0
M  V30 3085 H 279.859 -5.94814 2.76644 0
M  V30 3086 H 279.776 -6.08035 4.49254 0
M  V30 3087 H 281.044 -6.89846 3.6295 0
M  V30 3088 N 285.273 -1.31445 -0.869486 0
M  V30 3089 C 286.55 -1.11795 -1.60503 0
M  V30 3090 C 286.93 0.327168 -2.08549 0
M  V30 3091 O 286.278 1.32135 -1.8642 0
M  V30 3092 C 286.488 -2.13258 -2.76265 0
M  V30 3093 C 287.836 -2.45805 -3.46215 0
M  V30 3094 O 288.86 -2.11688 -2.86473 0
M  V30 3095 O 287.719 -3.04228 -4.5399 0
M  V30 3096 H 284.813 -0.430421 -0.706163 0
M  V30 3097 H 287.359 -1.42925 -0.914907 0
M  V30 3098 H 286.131 -3.10461 -2.3818 0
M  V30 3099 H 285.754 -1.83035 -3.52964 0
M  V30 3100 N 286.751 1.08385 -1.14413 0
M  V30 3101 C 287.698 2.15311 -0.831265 0
M  V30 3102 C 288.668 1.64751 0.211292 0
M  V30 3103 O 289.853 1.90627 0.0811674 0
M  V30 3104 C 286.993 3.43658 -0.315143 0
M  V30 3105 C 286.106 4.08064 -1.41802 0
M  V30 3106 C 285.241 5.24207 -0.859126 0
M  V30 3107 C 284.28 5.80554 -1.93967 0
M  V30 3108 N 283.417 6.88042 -1.39793 0
M  V30 3109 H 288.257 2.41415 -1.74708 0
M  V30 3110 H 285.794 1.18474 -0.871909 0
M  V30 3111 H 287.752 4.172 0.00230884 0
M  V30 3112 H 286.382 3.17839 0.56378 0
M  V30 3113 H 285.434 3.3228 -1.85187 0
M  V30 3114 H 286.746 4.45962 -2.23427 0
M  V30 3115 H 285.9 6.04689 -0.49359 0
M  V30 3116 H 284.639 4.87699 -0.011932 0
M  V30 3117 H 283.644 4.98725 -2.31415 0
M  V30 3118 H 284.869 6.19121 -2.79046 0
M  V30 3119 H 282.815 6.53493 -0.572919 0
M  V30 3120 H 282.732 7.24767 -2.15054 0
M  V30 3121 H 284 7.72255 -1.0603 0
M  V30 3122 N 288.23 0.939286 1.26551 0
M  V30 3123 C 289.46 0.601663 1.97645 0
M  V30 3124 C 289.868 -0.827206 1.70159 0
M  V30 3125 O 289.211 -1.56291 0.965338 0
M  V30 3126 C 289.273 0.761725 3.51337 0
M  V30 3127 C 288.937 2.16487 4.0247 0
M  V30 3128 C 289.934 3.14016 4.14355 0
M  V30 3129 C 287.619 2.48494 4.36527 0
M  V30 3130 C 289.613 4.41654 4.59587 0
M  V30 3131 C 287.3 3.76364 4.81449 0
M  V30 3132 C 288.298 4.72758 4.92939 0
M  V30 3133 O 287.986 5.98352 5.36871 0
M  V30 3134 H 287.718 0.225758 0.637189 0
M  V30 3135 H 290.272 1.26178 1.62075 0
M  V30 3136 H 288.502 0.0444808 3.86674 0
M  V30 3137 H 290.191 0.427442 4.03643 0
M  V30 3138 H 290.957 2.90613 3.8829 0
M  V30 3139 H 286.836 1.74202 4.26819 0
M  V30 3140 H 290.38 5.16896 4.68471 0
M  V30 3141 H 286.277 3.99582 5.06956 0
M  V30 3142 H 287.045 6.01507 5.55096 0
M  V30 3143 N 289.708 -1.40897 0.706093 0
M  V30 3144 C 290.954 -2.01352 0.241889 0
M  V30 3145 C 291.287 -1.55832 -1.15888 0
M  V30 3146 O 290.562 -0.774145 -1.7843 0
M  V30 3147 C 290.845 -3.58752 0.311311 0
M  V30 3148 C 290.698 -4.1437 1.74978 0
M  V30 3149 C 292.017 -4.38914 -0.322922 0
M  V30 3150 H 289.136 -0.731562 0.0893687 0
M  V30 3151 H 291.778 -1.67504 0.896802 0
M  V30 3152 H 289.928 -3.87718 -0.246302 0
M  V30 3153 H 291.6 -3.96239 2.36205 0
M  V30 3154 H 289.843 -3.69016 2.28057 0
M  V30 3155 H 290.514 -5.23532 1.74981 0
M  V30 3156 H 292.99 -4.15822 0.152089 0
M  V30 3157 H 291.866 -5.48358 -0.243855 0
M  V30 3158 H 292.127 -4.19176 -1.40513 0
M  V30 3159 N 291.186 -0.45159 -1.50991 0
M  V30 3160 C 292.426 0.109066 -2.04109 0
M  V30 3161 C 292.79 1.38716 -1.32747 0
M  V30 3162 O 293.991 2.02896 -1.76314 0
M  V30 3163 C 292.262 0.308354 -3.56067 0
M  V30 3164 S 293.821 0.830369 -4.30872 0
M  V30 3165 H 290.639 0.0251531 -0.710555 0
M  V30 3166 H 293.241 -0.614264 -1.85599 0
M  V30 3167 H 291.945 -0.627962 -4.05567 0
M  V30 3168 H 291.476 1.05836 -3.78896 0
M  V30 3169 H 293.491 2.10626 -4.49279 0
M  V30 3170 N 292.664 1.56529 -0.183458 0
M  V30 3171 C 293.911 1.97244 0.458357 0
M  V30 3172 C 294.239 1.06992 1.62428 0
M  V30 3173 O 293.494 0.106542 1.9541 0
M  V30 3174 C 293.793 3.43939 0.971637 0
M  V30 3175 C 293.459 4.5083 -0.0796784 0
M  V30 3176 C 292.121 4.79786 -0.368584 0
M  V30 3177 C 294.473 5.15138 -0.792638 0
M  V30 3178 C 291.801 5.70345 -1.37563 0
M  V30 3179 C 294.153 6.06784 -1.78875 0
M  V30 3180 C 292.817 6.34102 -2.08497 0
M  V30 3181 H 292.087 0.721768 0.167725 0
M  V30 3182 H 294.734 1.89472 -0.277976 0
M  V30 3183 H 293.039 3.48724 1.78602 0
M  V30 3184 H 294.736 3.72791 1.47744 0
M  V30 3185 H 291.326 4.28317 0.155668 0
M  V30 3186 H 295.51 4.92868 -0.582659 0
M  V30 3187 H 290.766 5.89789 -1.61118 0
M  V30 3188 H 294.94 6.55677 -2.3465 0
M  V30 3189 H 292.567 7.04074 -2.86678 0
M  V30 3190 N 294.142 -0.090211 1.57342 0
M  V30 3191 C 295.419 -0.824761 1.77361 0
M  V30 3192 C 295.799 -1.96698 0.76637 0
M  V30 3193 O 295.147 -2.27586 -0.204179 0
M  V30 3194 C 295.357 -1.31481 3.23286 0
M  V30 3195 C 296.705 -1.75563 3.86604 0
M  V30 3196 O 297.729 -1.41093 3.27065 0
M  V30 3197 O 296.588 -2.39317 4.91314 0
M  V30 3198 H 293.682 -0.393776 0.727234 0
M  V30 3199 H 296.228 -0.0717138 1.69548 0
M  V30 3200 H 295 -0.496671 3.88135 0
M  V30 3201 H 294.623 -2.12973 3.35751 0
M  V30 3202 N 295.62 -1.53406 -0.361157 0
M  V30 3203 C 296.552 -1.76446 -1.46286 0
M  V30 3204 C 297.565 -0.645322 -1.49464 0
M  V30 3205 O 298.754 -0.921681 -1.52864 0
M  V30 3206 C 295.854 -1.83332 -2.85031 0
M  V30 3207 C 295.027 -3.13033 -3.05498 0
M  V30 3208 C 294.086 -3.11104 -4.24383 0
M  V30 3209 O 293.112 -3.84888 -4.19344 0
M  V30 3210 N 294.314 -2.32234 -5.32022 0
M  V30 3211 H 297.079 -2.71508 -1.26899 0
M  V30 3212 H 294.64 -1.52238 -0.550915 0
M  V30 3213 H 296.632 -1.79514 -3.62708 0
M  V30 3214 H 295.202 -0.955342 -2.97644 0
M  V30 3215 H 294.422 -3.30119 -2.15442 0
M  V30 3216 H 295.71 -3.9874 -3.16044 0
M  V30 3217 H 295.108 -1.71807 -5.38979 0
M  V30 3218 H 293.665 -2.3423 -6.08259 0
M  V30 3219 N 297.098 0.621204 -1.44841 0
M  V30 3220 C 298.345 1.38055 -1.48145 0
M  V30 3221 C 298.673 1.94143 -0.117867 0
M  V30 3222 O 297.928 1.74713 0.881694 0
M  V30 3223 C 298.227 2.55675 -2.4973 0
M  V30 3224 C 297.893 2.17817 -3.94799 0
M  V30 3225 C 296.555 2.07205 -4.34303 0
M  V30 3226 C 298.907 1.88065 -4.86087 0
M  V30 3227 C 296.235 1.65045 -5.63007 0
M  V30 3228 C 298.587 1.47394 -6.15189 0
M  V30 3229 C 297.251 1.35331 -6.53637 0
M  V30 3230 H 296.521 0.505181 -0.542101 0
M  V30 3231 H 299.168 0.703477 -1.78111 0
M  V30 3232 H 297.473 3.2866 -2.13284 0
M  V30 3233 H 299.17 3.13904 -2.4953 0
M  V30 3234 H 295.76 2.26998 -3.63552 0
M  V30 3235 H 299.944 1.95168 -4.56315 0
M  V30 3236 H 295.2 1.54317 -5.91605 0
M  V30 3237 H 299.374 1.23415 -6.85377 0
M  V30 3238 H 297.001 1.02435 -7.53267 0
M  V30 3239 N 298.576 1.31904 0.862503 0
M  V30 3240 C 299.987 1.19803 1.43193 0
M  V30 3241 C 300.338 -0.192567 1.95253 0
M  V30 3242 O 299.463 -1.09081 1.86896 0
M  V30 3243 C 300.058 2.16883 2.60283 0
M  V30 3244 C 298.617 2.08692 3.13248 0
M  V30 3245 C 297.764 2.05691 1.85975 0
M  V30 3246 H 300.715 1.43846 0.670365 0
M  V30 3247 H 300.736 1.76278 3.37204 0
M  V30 3248 H 300.248 3.18083 2.22363 0
M  V30 3249 H 298.349 1.10713 3.55771 0
M  V30 3250 H 298.462 2.9815 3.75025 0
M  V30 3251 H 296.826 1.50814 2.05249 0
M  V30 3252 H 297.609 3.08659 1.50282 0
M  V30 3253 N 300.054 -1.07777 1.14986 0
M  V30 3254 C 301.279 -1.84558 0.946213 0
M  V30 3255 C 301.704 -1.81323 -0.500362 0
M  V30 3256 O 301.062 -1.20301 -1.35637 0
M  V30 3257 C 301.11 -3.29736 1.45968 0
M  V30 3258 O 300.214 -4.07149 0.65601 0
M  V30 3259 H 299.555 -0.571641 0.33782 0
M  V30 3260 H 302.085 -1.35991 1.52865 0
M  V30 3261 H 302.095 -3.80574 1.47063 0
M  V30 3262 H 300.77 -3.31406 2.51283 0
M  V30 3263 H 299.347 -3.65994 0.714322 0
M  V30 3264 N 301.532 -0.945985 -1.26051 0
M  V30 3265 C 302.809 -0.513816 -1.88731 0
M  V30 3266 C 303.189 1.00872 -1.8544 0
M  V30 3267 O 302.537 1.8708 -1.312 0
M  V30 3268 C 302.747 -1.08062 -3.31849 0
M  V30 3269 C 304.095 -1.1522 -4.08668 0
M  V30 3270 O 305.119 -1.03155 -3.40936 0
M  V30 3271 O 303.978 -1.34044 -5.29806 0
M  V30 3272 H 301.072 -0.168193 -0.809716 0
M  V30 3273 H 303.618 -1.03886 -1.34186 0
M  V30 3274 H 302.39 -2.1241 -3.2863 0
M  V30 3275 H 302.013 -0.538307 -3.93939 0
M  V30 3276 N 303.011 1.40521 -0.713556 0
M  V30 3277 C 304.236 2.05759 -0.26035 0
M  V30 3278 C 304.661 1.53403 1.08854 0
M  V30 3279 O 304.019 0.668535 1.68524 0
M  V30 3280 C 304.067 3.59745 -0.248122 0
M  V30 3281 O 303.171 4.05123 0.77131 0
M  V30 3282 H 302.512 0.652564 -0.122703 0
M  V30 3283 H 305.042 1.79958 -0.973467 0
M  V30 3284 H 305.052 4.07911 -0.0851129 0
M  V30 3285 H 303.727 3.97218 -1.2325 0
M  V30 3286 H 302.304 3.68422 0.57619 0
M  V30 3287 N 304.489 0.459591 1.5075 0
M  V30 3288 C 305.439 -0.358926 2.25157 0
M  V30 3289 C 306.423 -0.971285 1.28276 0
M  V30 3290 O 307.615 -0.885739 1.53244 0
M  V30 3291 C 304.744 -1.44695 3.11317 0
M  V30 3292 C 303.83 -0.842894 4.15639 0
M  V30 3293 N 304.221 0.0299373 5.05791 0
M  V30 3294 C 302.519 -1.10809 4.32015 0
M  V30 3295 C 303.22 0.371563 5.80512 0
M  V30 3296 N 302.196 -0.250409 5.43023 0
M  V30 3297 H 305.998 0.313636 2.92222 0
M  V30 3298 H 303.512 0.273021 1.60089 0
M  V30 3299 H 305.509 -2.04641 3.63218 0
M  V30 3300 H 304.169 -2.12162 2.45799 0
M  V30 3301 H 305.18 0.39797 5.16369 0
M  V30 3302 H 301.857 -1.7786 3.77719 0
M  V30 3303 H 303.247 1.08319 6.63111 0
M  V30 3304 N 305.967 -1.56429 0.191757 0
M  V30 3305 C 307.383 -1.58754 -0.164137 0
M  V30 3306 C 307.583 -1.20782 -1.61288 0
M  V30 3307 O 306.639 -0.928999 -2.34789 0
M  V30 3308 C 307.952 -3.00396 0.135195 0
M  V30 3309 C 309.5 -3.1291 0.0750351 0
M  V30 3310 C 309.975 -4.56679 0.347632 0
M  V30 3311 N 311.466 -4.62252 0.296131 0
M  V30 3312 C 312.201 -5.71379 0.480948 0
M  V30 3313 N 311.697 -6.88986 0.725933 0
M  V30 3314 N 313.49 -5.60563 0.415435 0
M  V30 3315 H 305.641 -1.79393 1.13718 0
M  V30 3316 H 307.904 -0.832414 0.453643 0
M  V30 3317 H 307.61 -3.32726 1.13958 0
M  V30 3318 H 307.484 -3.72963 -0.563773 0
M  V30 3319 H 309.871 -2.80394 -0.919948 0
M  V30 3320 H 309.952 -2.42736 0.807029 0
M  V30 3321 H 309.596 -4.89907 1.33992 0
M  V30 3322 H 309.526 -5.25039 -0.405212 0
M  V30 3323 H 312.017 -3.7773 0.113259 0
M  V30 3324 H 312.33 -7.68046 0.855857 0
M  V30 3325 H 310.675 -6.90801 0.762788 0
M  V30 3326 H 313.866 -4.67561 0.224486 0
M  V30 3327 H 314.039 -6.45551 0.562889 0
M  V30 3328 N 307.445 0.0818655 -1.57387 0
M  V30 3329 C 308.375 1.09885 -2.06028 0
M  V30 3330 C 309.356 1.4098 -0.951774 0
M  V30 3331 O 310.541 1.50781 -1.22387 0
M  V30 3332 C 307.671 2.4151 -2.4958 0
M  V30 3333 C 306.625 2.24792 -3.64215 0
M  V30 3334 C 305.951 3.61712 -3.93787 0
M  V30 3335 C 307.251 1.67749 -4.94629 0
M  V30 3336 H 308.945 0.694128 -2.91243 0
M  V30 3337 H 306.491 0.332448 -1.4011 0
M  V30 3338 H 308.444 3.12939 -2.82219 0
M  V30 3339 H 307.168 2.83943 -1.61381 0
M  V30 3340 H 305.827 1.55807 -3.31843 0
M  V30 3341 H 305.475 4.01697 -3.02735 0
M  V30 3342 H 305.175 3.51368 -4.70971 0
M  V30 3343 H 306.699 4.34587 -4.28913 0
M  V30 3344 H 308.113 2.29032 -5.25564 0
M  V30 3345 H 306.51 1.68128 -5.76067 0
M  V30 3346 H 307.58 0.638059 -4.80684 0
M  V30 3347 N 308.923 1.53595 0.353017 0
M  V30 3348 C 310.148 1.7462 1.11904 0
M  V30 3349 C 310.573 0.479721 1.8188 0
M  V30 3350 O 309.931 -0.567066 1.72204 0
M  V30 3351 C 309.979 2.92029 2.11545 0
M  V30 3352 O 309.083 2.61516 3.18878 0
M  V30 3353 H 308.424 0.579531 0.324099 0
M  V30 3354 H 310.954 2.00525 0.406301 0
M  V30 3355 H 310.964 3.18551 2.5493 0
M  V30 3356 H 309.639 3.83888 1.60008 0
M  V30 3357 H 308.216 2.45852 2.80377 0
M  V30 3358 N 310.401 -0.613514 1.45168 0
M  V30 3359 C 311.631 -1.39743 1.52169 0
M  V30 3360 C 312.039 -1.88596 0.151086 0
M  V30 3361 O 311.382 -1.6251 -0.856521 0
M  V30 3362 C 311.444 -2.64035 2.43979 0
M  V30 3363 C 311.108 -2.36861 3.90827 0
M  V30 3364 C 312.105 -1.97591 4.80889 0
M  V30 3365 C 309.79 -2.49956 4.35692 0
M  V30 3366 C 311.784 -1.71768 6.1382 0
M  V30 3367 C 309.471 -2.23747 5.68665 0
M  V30 3368 C 310.469 -1.84714 6.57548 0
M  V30 3369 O 310.157 -1.58809 7.88058 0
M  V30 3370 H 309.889 -0.434382 0.517966 0
M  V30 3371 H 312.443 -0.75587 1.90986 0
M  V30 3372 H 310.673 -3.3089 2.00122 0
M  V30 3373 H 312.362 -3.26069 2.41731 0
M  V30 3374 H 313.128 -1.87015 4.47493 0
M  V30 3375 H 309.007 -2.79305 3.66756 0
M  V30 3376 H 312.551 -1.41227 6.83155 0
M  V30 3377 H 308.448 -2.33938 6.01617 0
M  V30 3378 H 309.216 -1.7291 8.00028 0
M  V30 3379 N 311.879 -1.3236 -0.855495 0
M  V30 3380 C 313.107 -1.2587 -1.64208 0
M  V30 3381 C 313.522 0.173457 -1.88002 0
M  V30 3382 O 312.879 1.11027 -1.44842 0
M  V30 3383 C 312.93 -2.01424 -3.00184 0
M  V30 3384 O 312.651 -3.39051 -2.77445 0
M  V30 3385 C 314.152 -2.01948 -3.94629 0
M  V30 3386 H 311.372 -0.434318 -0.511477 0
M  V30 3387 H 313.916 -1.74469 -1.0668 0
M  V30 3388 H 312.071 -1.56549 -3.5436 0
M  V30 3389 H 312.485 -3.77711 -3.63916 0
M  V30 3390 H 313.959 -2.59297 -4.87308 0
M  V30 3391 H 314.436 -1.00554 -4.27534 0
M  V30 3392 H 315.042 -2.46767 -3.4639 0
M  V30 3393 N 313.357 1.07166 -1.15556 0
M  V30 3394 C 314.585 1.83514 -0.955519 0
M  V30 3395 C 315 1.82163 0.49621 0
M  V30 3396 O 314.357 1.23441 1.34419 0
M  V30 3397 C 314.408 3.30515 -1.46432 0
M  V30 3398 O 314.129 3.31937 -2.85918 0
M  V30 3399 C 315.63 4.23625 -1.30603 0
M  V30 3400 H 312.85 0.578926 -0.339244 0
M  V30 3401 H 315.394 1.35265 -1.53374 0
M  V30 3402 H 313.549 3.76106 -0.928584 0
M  V30 3403 H 313.963 4.23794 -3.09029 0
M  V30 3404 H 315.437 5.24831 -1.71047 0
M  V30 3405 H 315.914 4.38485 -0.250441 0
M  V30 3406 H 316.52 3.83871 -1.83094 0
M  V30 3407 N 314.835 0.952656 1.25548 0
M  V30 3408 C 315.765 0.489287 2.28316 0
M  V30 3409 C 316.746 -0.463359 1.63667 0
M  V30 3410 O 317.931 -0.36274 1.90782 0
M  V30 3411 C 315.061 -0.235603 3.465 0
M  V30 3412 C 314.015 0.631593 4.23314 0
M  V30 3413 C 313.341 -0.223923 5.34231 0
M  V30 3414 C 314.641 1.90871 4.86174 0
M  V30 3415 H 316.335 1.34822 2.67326 0
M  V30 3416 H 313.881 0.649728 1.28509 0
M  V30 3417 H 315.834 -0.570882 4.17515 0
M  V30 3418 H 314.558 -1.12877 3.06474 0
M  V30 3419 H 313.217 0.949929 3.54079 0
M  V30 3420 H 312.865 -1.11678 4.90446 0
M  V30 3421 H 312.565 0.35299 5.86539 0
M  V30 3422 H 314.089 -0.554214 6.0808 0
M  V30 3423 H 315.503 1.63997 5.49343 0
M  V30 3424 H 313.9 2.43112 5.4865 0
M  V30 3425 H 314.97 2.61304 4.08471 0
M  V30 3426 N 316.313 -1.40141 0.720998 0
M  V30 3427 C 317.243 -2.33339 0.0867621 0
M  V30 3428 C 318.224 -1.53178 -0.739622 0
M  V30 3429 O 319.409 -1.81625 -0.687449 0
M  V30 3430 C 316.539 -3.37194 -0.831728 0
M  V30 3431 C 315.493 -4.27857 -0.110558 0
M  V30 3432 C 314.819 -5.22294 -1.14513 0
M  V30 3433 C 316.119 -5.11872 1.0385 0
M  V30 3434 H 317.813 -2.86626 0.865219 0
M  V30 3435 H 315.359 -1.37814 0.417516 0
M  V30 3436 H 317.312 -4.01335 -1.28485 0
M  V30 3437 H 316.036 -2.82314 -1.64214 0
M  V30 3438 H 314.695 -3.65176 0.322797 0
M  V30 3439 H 314.343 -4.63717 -1.94874 0
M  V30 3440 H 314.043 -5.83797 -0.667446 0
M  V30 3441 H 315.567 -5.89312 -1.59824 0
M  V30 3442 H 316.981 -5.69436 0.664482 0
M  V30 3443 H 315.378 -5.82445 1.4449 0
M  V30 3444 H 316.448 -4.4753 1.86668 0
M  V30 3445 N 317.792 -0.46758 -1.50504 0
M  V30 3446 C 318.722 0.318381 -2.31319 0
M  V30 3447 C 319.703 0.993564 -1.38066 0
M  V30 3448 O 320.888 0.991411 -1.66987 0
M  V30 3449 C 318.018 1.40275 -3.17711 0
M  V30 3450 C 316.972 0.849373 -4.19487 0
M  V30 3451 C 316.298 2.03177 -4.94594 0
M  V30 3452 C 317.598 -0.136942 -5.2212 0
M  V30 3453 H 319.292 -0.356106 -2.97275 0
M  V30 3454 H 316.838 -0.172703 -1.42961 0
M  V30 3455 H 318.791 1.96004 -3.73042 0
M  V30 3456 H 317.515 2.10596 -2.49634 0
M  V30 3457 H 316.174 0.314076 -3.65252 0
M  V30 3458 H 315.822 2.72187 -4.22993 0
M  V30 3459 H 315.522 1.66774 -5.63436 0
M  V30 3460 H 317.046 2.59403 -5.52759 0
M  V30 3461 H 318.46 0.331056 -5.72343 0
M  V30 3462 H 316.857 -0.41507 -5.98663 0
M  V30 3463 H 317.927 -1.06398 -4.73083 0
M  V30 3464 N 319.27 1.56325 -0.20005 0
M  V30 3465 C 320.516 1.98012 0.438059 0
M  V30 3466 C 320.849 1.08702 1.60927 0
M  V30 3467 O 320.124 0.140064 1.93995 0
M  V30 3468 C 320.407 3.48841 0.893419 0
M  V30 3469 C 320.26 4.48928 -0.279947 0
M  V30 3470 C 321.579 4.03498 1.75719 0
M  V30 3471 H 318.698 0.719918 0.157757 0
M  V30 3472 H 321.34 1.87743 -0.291968 0
M  V30 3473 H 319.49 3.57723 1.51547 0
M  V30 3474 H 321.162 4.52079 -0.91772 0
M  V30 3475 H 319.405 4.23694 -0.930919 0
M  V30 3476 H 320.076 5.5194 0.0812601 0
M  V30 3477 H 322.552 3.97427 1.23253 0
M  V30 3478 H 321.428 5.09393 2.04476 0
M  V30 3479 H 321.689 3.4906 2.71311 0
M  V30 3480 N 320.748 -0.0735177 1.57428 0
M  V30 3481 C 321.678 -1.0879 2.06608 0
M  V30 3482 C 322.659 -1.40473 0.959237 0
M  V30 3483 O 323.844 -1.5013 1.23185 0
M  V30 3484 C 320.974 -2.40183 2.50857 0
M  V30 3485 C 319.928 -2.22858 3.65402 0
M  V30 3486 C 319.254 -3.59619 3.957 0
M  V30 3487 C 320.554 -1.65123 4.95511 0
M  V30 3488 H 322.248 -0.678673 2.91607 0
M  V30 3489 H 319.794 -0.325013 1.40284 0
M  V30 3490 H 321.747 -3.11437 2.83874 0
M  V30 3491 H 320.471 -2.83083 1.62885 0
M  V30 3492 H 319.13 -1.54045 3.32664 0
M  V30 3493 H 318.778 -4.00086 3.04861 0
M  V30 3494 H 318.478 -3.48866 4.72828 0
M  V30 3495 H 320.002 -4.32306 4.31212 0
M  V30 3496 H 321.416 -2.26241 5.26771 0
M  V30 3497 H 319.813 -1.65071 5.7695 0
M  V30 3498 H 320.883 -0.612559 4.81015 0
M  V30 3499 N 322.226 -1.5378 -0.344866 0
M  V30 3500 C 323.158 -1.77988 -1.44406 0
M  V30 3501 C 324.171 -0.661138 -1.48771 0
M  V30 3502 O 325.36 -0.937842 -1.51877 0
M  V30 3503 C 322.46 -1.86345 -2.8307 0
M  V30 3504 C 321.633 -3.16256 -3.0216 0
M  V30 3505 C 320.692 -3.15588 -4.21059 0
M  V30 3506 O 319.718 -3.89314 -4.15239 0
M  V30 3507 N 320.92 -2.37864 -5.29529 0
M  V30 3508 H 323.685 -2.72839 -1.24012 0
M  V30 3509 H 321.246 -1.52814 -0.534737 0
M  V30 3510 H 323.238 -1.83351 -3.60783 0
M  V30 3511 H 321.808 -0.986858 -2.96614 0
M  V30 3512 H 321.028 -3.32385 -2.11929 0
M  V30 3513 H 322.316 -4.0207 -3.11797 0
M  V30 3514 H 321.714 -1.77514 -5.37127 0
M  V30 3515 H 320.271 -2.40668 -6.05741 0
M  V30 3516 N 323.704 0.605807 -1.45491 0
M  V30 3517 C 324.934 1.38934 -1.52908 0
M  V30 3518 C 325.342 1.88513 -0.161086 0
M  V30 3519 O 324.685 1.62962 0.847891 0
M  V30 3520 C 324.747 2.62737 -2.45376 0
M  V30 3521 C 324.411 2.34785 -3.92078 0
M  V30 3522 C 325.408 1.95038 -4.8193 0
M  V30 3523 C 323.093 2.47642 -4.37011 0
M  V30 3524 C 325.087 1.68511 -6.14722 0
M  V30 3525 C 322.774 2.20728 -5.69844 0
M  V30 3526 C 323.772 1.81225 -6.58519 0
M  V30 3527 O 323.46 1.54627 -7.88889 0
M  V30 3528 H 323.192 0.431629 -0.520262 0
M  V30 3529 H 325.746 0.74573 -1.91384 0
M  V30 3530 H 323.976 3.29824 -2.01874 0
M  V30 3531 H 325.665 3.24783 -2.43456 0
M  V30 3532 H 326.431 1.84639 -4.48479 0
M  V30 3533 H 322.31 2.77356 -3.68232 0
M  V30 3534 H 325.854 1.37602 -6.83894 0
M  V30 3535 H 321.751 2.30744 -6.02849 0
M  V30 3536 H 322.519 1.68665 -8.00933 0
M  V30 3537 N 325.182 1.32811 0.848464 0
M  V30 3538 C 326.429 1.23724 1.60308 0
M  V30 3539 C 326.757 -0.1994 1.93475 0
M  V30 3540 O 326.012 -1.15406 1.5805 0
M  V30 3541 C 326.311 2.04831 2.92881 0
M  V30 3542 C 325.977 3.54125 2.79117 0
M  V30 3543 C 324.639 3.94829 2.7507 0
M  V30 3544 C 326.991 4.49036 2.64606 0
M  V30 3545 C 324.319 5.28675 2.544 0
M  V30 3546 C 326.671 5.83033 2.4547 0
M  V30 3547 C 325.335 6.22931 2.39819 0
M  V30 3548 H 324.605 0.452737 0.586609 0
M  V30 3549 H 327.252 1.64301 0.983743 0
M  V30 3550 H 325.557 1.57001 3.58968 0
M  V30 3551 H 327.254 1.95164 3.50303 0
M  V30 3552 H 323.844 3.21801 2.83094 0
M  V30 3553 H 328.028 4.18505 2.66772 0
M  V30 3554 H 323.284 5.58637 2.48465 0
M  V30 3555 H 327.458 6.56186 2.33222 0
M  V30 3556 H 325.085 7.26584 2.23562 0
M  V30 3557 N 326.66 -1.06551 1.16123 0
M  V30 3558 C 327.908 -1.78947 0.939267 0
M  V30 3559 C 328.229 -1.87532 -0.534476 0
M  V30 3560 O 327.499 -1.38211 -1.38833 0
M  V30 3561 H 326.079 -0.662807 0.344523 0
M  V30 3562 H 328.741 -1.28725 1.46342 0
M  V30 3563 H 327.837 -2.81117 1.35572 0
M  V30 3564 N 328.138 -0.959301 -1.25041 0
M  V30 3565 C 329.549 -0.65667 -1.74771 0
M  V30 3566 C 329.9 0.827852 -1.77879 0
M  V30 3567 O 329.025 1.64783 -1.40269 0
M  V30 3568 C 329.62 -1.1853 -3.1739 0
M  V30 3569 C 328.179 -0.932734 -3.6466 0
M  V30 3570 C 327.326 -1.32558 -2.43564 0
M  V30 3571 H 330.277 -1.13558 -1.10862 0
M  V30 3572 H 330.298 -0.547582 -3.76539 0
M  V30 3573 H 329.81 -2.26576 -3.15095 0
M  V30 3574 H 327.911 0.13257 -3.72364 0
M  V30 3575 H 328.024 -1.57248 -4.52559 0
M  V30 3576 H 326.388 -0.743956 -2.43593 0
M  V30 3577 H 327.171 -2.41537 -2.43957 0
M  V30 3578 N 329.616 1.39756 -0.72842 0
M  V30 3579 C 330.546 2.33289 -0.0991354 0
M  V30 3580 C 331.527 1.53568 0.731489 0
M  V30 3581 O 332.712 1.81987 0.677807 0
M  V30 3582 C 329.842 3.3763 0.813834 0
M  V30 3583 C 328.796 4.2791 0.0878663 0
M  V30 3584 C 328.122 5.22894 1.11741 0
M  V30 3585 C 329.422 5.11314 -1.06563 0
M  V30 3586 H 331.116 2.86163 -0.880408 0
M  V30 3587 H 328.662 1.37591 -0.424819 0
M  V30 3588 H 330.615 4.0201 1.26355 0
M  V30 3589 H 329.339 2.83181 1.62715 0
M  V30 3590 H 327.998 3.65 -0.342159 0
M  V30 3591 H 327.646 4.64744 1.92412 0
M  V30 3592 H 327.346 5.84143 0.636477 0
M  V30 3593 H 328.87 5.90151 1.56697 0
M  V30 3594 H 330.284 5.69076 -0.694671 0
M  V30 3595 H 328.681 5.81671 -1.47577 0
M  V30 3596 H 329.751 4.46534 -1.89038 0
M  V30 3597 N 331.094 0.475555 1.50254 0
M  V30 3598 C 332.334 -0.0765802 2.04256 0
M  V30 3599 C 332.698 -1.36587 1.34937 0
M  V30 3600 O 333.899 -2.00066 1.79519 0
M  V30 3601 C 332.17 -0.251668 3.56513 0
M  V30 3602 S 333.729 -0.761716 4.32138 0
M  V30 3603 H 330.547 -0.0138456 0.710865 0
M  V30 3604 H 333.149 0.643714 1.84598 0
M  V30 3605 H 331.853 0.692404 4.04517 0
M  V30 3606 H 331.384 -0.997946 3.80532 0
M  V30 3607 H 333.399 -2.03451 4.52573 0
M  V30 3608 N 332.573 -1.56217 0.208337 0
M  V30 3609 C 333.82 -1.97949 -0.42692 0
M  V30 3610 C 334.148 -1.09562 -1.60706 0
M  V30 3611 O 333.403 -0.137616 -1.95216 0
M  V30 3612 C 333.702 -3.45441 -0.916797 0
M  V30 3613 C 333.368 -4.50646 0.151391 0
M  V30 3614 C 332.03 -4.79139 0.444867 0
M  V30 3615 C 334.382 -5.13811 0.874492 0
M  V30 3616 C 331.71 -5.68084 1.46619 0
M  V30 3617 C 334.062 -6.03861 1.88506 0
M  V30 3618 C 332.726 -6.30704 2.18559 0
M  V30 3619 H 331.996 -0.724345 -0.156221 0
M  V30 3620 H 334.643 -1.89006 0.308084 0
M  V30 3621 H 332.948 -3.51521 -1.73032 0
M  V30 3622 H 334.645 -3.75094 -1.41794 0
M  V30 3623 H 331.235 -4.28511 -0.0875068 0
M  V30 3624 H 335.419 -4.91879 0.660996 0
M  V30 3625 H 330.675 -5.87151 1.7048 0
M  V30 3626 H 334.849 -6.51861 2.45051 0
M  V30 3627 H 332.476 -6.99424 2.97843 0
M  V30 3628 N 334.051 0.0651679 -1.57465 0
M  V30 3629 C 335.3 0.761916 -1.86756 0
M  V30 3630 C 335.613 1.78406 -0.801925 0
M  V30 3631 O 336.819 2.53084 -0.982885 0
M  V30 3632 C 335.275 1.40603 -3.31299 0
M  V30 3633 C 334.883 0.422115 -4.46007 0
M  V30 3634 C 336.627 2.08476 -3.69781 0
M  V30 3635 C 334.534 1.07252 -5.81593 0
M  V30 3636 H 333.464 0.288308 -0.696702 0
M  V30 3637 H 336.115 0.015344 -1.83494 0
M  V30 3638 H 334.497 2.20109 -3.29193 0
M  V30 3639 H 335.671 -0.343613 -4.59517 0
M  V30 3640 H 333.986 -0.152527 -4.16121 0
M  V30 3641 H 336.583 2.57925 -4.68379 0
M  V30 3642 H 336.926 2.88712 -2.99919 0
M  V30 3643 H 337.459 1.35792 -3.73905 0
M  V30 3644 H 334.198 0.310342 -6.54765 0
M  V30 3645 H 333.718 1.80895 -5.71872 0
M  V30 3646 H 335.397 1.59043 -6.27148 0
M  V30 3647 N 335.529 1.53961 0.336706 0
M  V30 3648 C 336.776 1.71536 1.07618 0
M  V30 3649 C 337.104 0.482125 1.8843 0
M  V30 3650 O 336.359 -0.536142 1.88213 0
M  V30 3651 C 336.658 2.93493 2.03953 0
M  V30 3652 C 336.324 4.28811 1.39399 0
M  V30 3653 C 334.986 4.65602 1.21523 0
M  V30 3654 C 337.338 5.12844 0.929541 0
M  V30 3655 C 334.666 5.84037 0.558312 0
M  V30 3656 C 337.018 6.31951 0.286505 0
M  V30 3657 C 335.682 6.67432 0.0954869 0
M  V30 3658 H 334.952 0.627696 0.393801 0
M  V30 3659 H 337.599 1.88186 0.354715 0
M  V30 3660 H 335.904 2.71475 2.82504 0
M  V30 3661 H 337.601 3.04285 2.61174 0
M  V30 3662 H 334.191 3.99858 1.54311 0
M  V30 3663 H 338.375 4.84947 1.05548 0
M  V30 3664 H 333.631 6.10097 0.398995 0
M  V30 3665 H 337.805 6.96352 -0.0814376 0
M  V30 3666 H 335.432 7.59063 -0.415579 0
M  V30 3667 N 337.007 -0.598083 1.45811 0
M  V30 3668 C 338.256 -1.35295 1.49594 0
M  V30 3669 C 338.569 -1.95057 0.145679 0
M  V30 3670 O 339.775 -2.71431 0.0612099 0
M  V30 3671 C 338.231 -2.45124 2.63519 0
M  V30 3672 C 337.839 -1.91732 4.04899 0
M  V30 3673 C 339.583 -3.2205 2.76558 0
M  V30 3674 C 337.49 -2.991 5.1019 0
M  V30 3675 H 336.42 -0.508552 0.556679 0
M  V30 3676 H 339.071 -0.639977 1.71978 0
M  V30 3677 H 337.453 -3.19149 2.34435 0
M  V30 3678 H 338.627 -1.24352 4.43704 0
M  V30 3679 H 336.942 -1.27522 3.96393 0
M  V30 3680 H 339.539 -4.0215 3.52391 0
M  V30 3681 H 339.882 -3.73663 1.83526 0
M  V30 3682 H 340.415 -2.55127 3.05213 0
M  V30 3683 H 337.154 -2.52393 6.04961 0
M  V30 3684 H 336.674 -3.65017 4.75944 0
M  V30 3685 H 338.353 -3.63318 5.35359 0
M  V30 3686 N 338.485 -1.33259 -0.841409 0
M  V30 3687 C 339.725 -1.25902 -1.61022 0
M  V30 3688 C 340.089 0.173325 -1.91216 0
M  V30 3689 O 341.29 0.370824 -2.6623 0
M  V30 3690 C 339.561 -2.10735 -2.88662 0
M  V30 3691 S 341.12 -2.20541 -3.79351 0
M  V30 3692 H 337.938 -0.447958 -0.552137 0
M  V30 3693 H 340.54 -1.68263 -0.995382 0
M  V30 3694 H 339.244 -3.1384 -2.64448 0
M  V30 3695 H 338.775 -1.69201 -3.55154 0
M  V30 3696 H 340.79 -1.36462 -4.77067 0
M  V30 3697 N 339.963 1.05934 -1.16686 0
M  V30 3698 C 341.193 1.82226 -0.973515 0
M  V30 3699 C 341.601 1.8297 0.481532 0
M  V30 3700 O 340.944 1.25009 1.34604 0
M  V30 3701 C 341.006 3.29897 -1.42858 0
M  V30 3702 C 340.67 3.52849 -2.90425 0
M  V30 3703 C 341.667 3.45595 -3.88407 0
M  V30 3704 C 339.352 3.80053 -3.28428 0
M  V30 3705 C 341.346 3.65217 -5.22394 0
M  V30 3706 C 339.033 3.99325 -4.62583 0
M  V30 3707 C 340.031 3.91905 -5.59374 0
M  V30 3708 O 339.719 4.10647 -6.91104 0
M  V30 3709 H 339.451 0.581314 -0.345036 0
M  V30 3710 H 342.005 1.3453 -1.55212 0
M  V30 3711 H 340.235 3.78472 -0.793477 0
M  V30 3712 H 341.924 3.87692 -1.20207 0
M  V30 3713 H 342.69 3.24564 -3.60393 0
M  V30 3714 H 338.569 3.84936 -2.53664 0
M  V30 3715 H 342.113 3.59341 -5.9793 0
M  V30 3716 H 338.01 4.19846 -4.90306 0
M  V30 3717 H 338.778 4.27915 -6.97733 0
M  V30 3718 N 341.441 0.965919 1.2453 0
M  V30 3719 C 342.688 0.626831 1.92554 0
M  V30 3720 C 343.016 -0.837739 1.75534 0
M  V30 3721 O 342.271 -1.61793 1.10098 0
M  V30 3722 C 342.57 0.945428 3.44669 0
M  V30 3723 C 342.236 2.39785 3.81856 0
M  V30 3724 C 340.898 2.79483 3.91718 0
M  V30 3725 C 343.25 3.34055 4.00071 0
M  V30 3726 C 340.578 4.12496 4.1721 0
M  V30 3727 C 342.93 4.66694 4.27059 0
M  V30 3728 C 341.594 5.06172 4.3514 0
M  V30 3729 H 340.864 0.229374 0.704605 0
M  V30 3730 H 343.511 1.21707 1.4785 0
M  V30 3731 H 341.816 0.272926 3.90848 0
M  V30 3732 H 343.513 0.661484 3.95507 0
M  V30 3733 H 340.103 2.08003 3.74743 0
M  V30 3734 H 344.287 3.04571 3.91855 0
M  V30 3735 H 339.543 4.42709 4.21685 0
M  V30 3736 H 343.717 5.3971 4.40097 0
M  V30 3737 H 341.344 6.09262 4.54646 0
M  V30 3738 N 342.919 -1.39368 0.735821 0
M  V30 3739 C 343.866 -2.30599 0.0963825 0
M  V30 3740 C 344.836 -1.49257 -0.728794 0
M  V30 3741 O 346.021 -1.77941 -0.688588 0
M  V30 3742 C 343.161 -3.35596 -0.804305 0
M  V30 3743 C 342.274 -4.31987 0.0335761 0
M  V30 3744 C 341.409 -5.24053 -0.868461 0
M  V30 3745 C 340.448 -6.12095 -0.0258776 0
M  V30 3746 N 339.585 -6.96514 -0.883893 0
M  V30 3747 H 344.425 -2.8471 0.880002 0
M  V30 3748 H 341.962 -1.40188 0.445619 0
M  V30 3749 H 343.92 -3.95062 -1.34096 0
M  V30 3750 H 342.55 -2.82938 -1.55389 0
M  V30 3751 H 341.602 -3.74133 0.68766 0
M  V30 3752 H 342.914 -4.94074 0.685036 0
M  V30 3753 H 342.068 -5.88549 -1.47293 0
M  V30 3754 H 340.807 -4.62289 -1.5537 0
M  V30 3755 H 339.812 -5.4661 0.591386 0
M  V30 3756 H 341.037 -6.75923 0.656156 0
M  V30 3757 H 338.983 -6.37318 -1.55441 0
M  V30 3758 H 338.9 -7.55448 -0.288931 0
M  V30 3759 H 340.168 -7.65439 -1.4739 0
M  V30 3760 N 344.397 -0.483516 -1.5 0
M  V30 3761 C 345.646 0.0689102 -2.01582 0
M  V30 3762 C 345.959 1.39655 -1.36952 0
M  V30 3763 O 347.165 2.03465 -1.79762 0
M  V30 3764 C 345.621 0.173302 -3.59483 0
M  V30 3765 C 345.229 -1.14665 -4.33077 0
M  V30 3766 C 346.973 0.677024 -4.19066 0
M  V30 3767 C 344.88 -1.00537 -5.82792 0
M  V30 3768 H 343.81 0.0295277 -0.753422 0
M  V30 3769 H 346.461 -0.620295 -1.72698 0
M  V30 3770 H 344.843 0.926569 -3.85007 0
M  V30 3771 H 346.017 -1.91184 -4.19268 0
M  V30 3772 H 344.332 -1.58244 -3.85159 0
M  V30 3773 H 346.929 0.799952 -5.28682 0
M  V30 3774 H 347.272 1.67151 -3.81269 0
M  V30 3775 H 347.805 -0.0192083 -3.97795 0
M  V30 3776 H 344.544 -1.9736 -6.25083 0
M  V30 3777 H 344.064 -0.280776 -5.99142 0
M  V30 3778 H 345.743 -0.677 -6.43448 0
M  V30 3779 N 345.875 1.56104 -0.216619 0
M  V30 3780 C 347.105 2.02269 0.420802 0
M  V30 3781 C 347.513 1.09575 1.5424 0
M  V30 3782 O 346.856 0.0967308 1.83445 0
M  V30 3783 C 346.918 3.44784 1.01806 0
M  V30 3784 C 346.582 4.56988 0.0325154 0
M  V30 3785 C 347.579 5.14225 -0.766055 0
M  V30 3786 C 345.264 5.02228 -0.0848092 0
M  V30 3787 C 347.258 6.15169 -1.6687 0
M  V30 3788 C 344.945 6.03011 -0.990994 0
M  V30 3789 C 345.943 6.59357 -1.78149 0
M  V30 3790 O 345.631 7.58179 -2.67245 0
M  V30 3791 H 345.363 0.667353 0.107776 0
M  V30 3792 H 347.917 2.02747 -0.329034 0
M  V30 3793 H 346.147 3.41359 1.81689 0
M  V30 3794 H 347.836 3.74626 1.56237 0
M  V30 3795 H 348.602 4.80126 -0.685836 0
M  V30 3796 H 344.481 4.58054 0.520349 0
M  V30 3797 H 348.025 6.59076 -2.28615 0
M  V30 3798 H 343.922 6.36532 -1.07225 0
M  V30 3799 H 344.69 7.75682 -2.61265 0
M  V30 3800 N 347.353 -0.0568162 1.57498 0
M  V30 3801 C 348.602 -0.752001 1.87157 0
M  V30 3802 C 348.915 -1.77978 0.811375 0
M  V30 3803 O 350.121 -2.52559 0.996293 0
M  V30 3804 C 348.577 -1.38844 3.3204 0
M  V30 3805 C 348.185 -0.398456 4.46225 0
M  V30 3806 C 349.929 -2.06512 3.70882 0
M  V30 3807 C 347.836 -1.04166 5.82154 0
M  V30 3808 H 346.766 -0.28461 0.698222 0
M  V30 3809 H 349.417 -0.00561272 1.83499 0
M  V30 3810 H 347.799 -2.1836 3.30356 0
M  V30 3811 H 348.973 0.367977 4.59328 0
M  V30 3812 H 347.288 0.174592 4.16034 0
M  V30 3813 H 349.885 -2.55437 4.6974 0
M  V30 3814 H 350.228 -2.87117 3.01445 0
M  V30 3815 H 350.761 -1.33808 3.7462 0
M  V30 3816 H 347.5 -0.275614 6.5492 0
M  V30 3817 H 347.02 -1.7786 5.72823 0
M  V30 3818 H 348.699 -1.55715 6.27982 0
M  V30 3819 N 348.832 -1.54138 -0.328536 0
M  V30 3820 C 350.248 -1.44736 -0.672574 0
M  V30 3821 C 350.448 -0.616217 -1.91846 0
M  V30 3822 O 349.504 -0.113067 -2.52247 0
M  V30 3823 C 350.817 -2.884 -0.851217 0
M  V30 3824 C 352.365 -2.98271 -0.948877 0
M  V30 3825 C 352.84 -4.43074 -1.15973 0
M  V30 3826 N 354.331 -4.46665 -1.22658 0
M  V30 3827 C 355.066 -5.55857 -1.40751 0
M  V30 3828 N 354.562 -6.75026 -1.5592 0
M  V30 3829 N 356.355 -5.43495 -1.4342 0
M  V30 3830 H 348.506 -2.06661 0.490421 0
M  V30 3831 H 350.769 -0.934812 0.157579 0
M  V30 3832 H 350.475 -3.51699 -0.00704236 0
M  V30 3833 H 350.349 -3.34225 -1.74853 0
M  V30 3834 H 352.736 -2.35102 -1.78356 0
M  V30 3835 H 352.817 -2.55785 -0.0281435 0
M  V30 3836 H 352.461 -5.06827 -0.329915 0
M  V30 3837 H 352.391 -4.83165 -2.09426 0
M  V30 3838 H 354.882 -3.60797 -1.124 0
M  V30 3839 H 355.195 -7.54004 -1.69404 0
M  V30 3840 H 353.54 -6.77944 -1.53027 0
M  V30 3841 H 356.731 -4.49349 -1.31162 0
M  V30 3842 H 356.904 -6.28649 -1.57178 0
M  V30 3843 N 350.31 0.590341 -1.46126 0
M  V30 3844 C 351.24 1.71032 -1.58966 0
M  V30 3845 C 352.221 1.64302 -0.440335 0
M  V30 3846 O 353.406 1.82436 -0.665634 0
M  V30 3847 C 350.536 3.09665 -1.57241 0
M  V30 3848 C 349.49 3.31221 -2.71066 0
M  V30 3849 C 348.816 4.70303 -2.54399 0
M  V30 3850 C 350.116 3.19796 -4.1295 0
M  V30 3851 H 351.81 1.60543 -2.52718 0
M  V30 3852 H 349.356 0.770933 -1.21625 0
M  V30 3853 H 351.309 3.87831 -1.64819 0
M  V30 3854 H 350.033 3.21036 -0.600289 0
M  V30 3855 H 348.692 2.55452 -2.62944 0
M  V30 3856 H 348.34 4.78429 -1.55288 0
M  V30 3857 H 348.04 4.85679 -3.30741 0
M  V30 3858 H 349.564 5.50647 -2.63857 0
M  V30 3859 H 350.978 3.87815 -4.22223 0
M  V30 3860 H 349.375 3.46696 -4.89818 0
M  V30 3861 H 350.445 2.16983 -4.33643 0
M  V30 3862 N 351.788 1.33704 0.83433 0
M  V30 3863 C 352.735 1.24335 1.94447 0
M  V30 3864 C 353.705 0.120991 1.65659 0
M  V30 3865 O 354.89 0.300035 1.88426 0
M  V30 3866 C 352.03 0.993124 3.30501 0
M  V30 3867 C 351.143 2.20217 3.71657 0
M  V30 3868 C 350.278 1.88572 4.96602 0
M  V30 3869 C 349.317 3.05683 5.30306 0
M  V30 3870 N 348.454 2.73997 6.46429 0
M  V30 3871 H 353.294 2.1928 2.01792 0
M  V30 3872 H 350.831 1.09035 0.987404 0
M  V30 3873 H 352.789 0.828467 4.08892 0
M  V30 3874 H 351.419 0.0803902 3.227 0
M  V30 3875 H 350.471 2.47642 2.88752 0
M  V30 3876 H 351.783 3.07752 3.92543 0
M  V30 3877 H 350.937 1.68776 5.82752 0
M  V30 3878 H 349.676 0.982799 4.77695 0
M  V30 3879 H 348.681 3.26088 4.42659 0
M  V30 3880 H 349.906 3.96737 5.51159 0
M  V30 3881 H 347.852 1.86268 6.28999 0
M  V30 3882 H 347.769 3.55064 6.67432 0
M  V30 3883 H 349.037 2.57679 7.35678 0
M  V30 3884 N 353.266 -1.05314 1.17247 0
M  V30 3885 C 354.682 -1.30452 0.919473 0
M  V30 3886 C 354.882 -1.9703 -0.42209 0
M  V30 3887 O 353.938 -2.24311 -1.15935 0
M  V30 3888 C 355.251 -2.17551 2.07586 0
M  V30 3889 C 356.799 -2.30937 2.11275 0
M  V30 3890 C 357.274 -3.21396 3.26296 0
M  V30 3891 N 358.765 -3.28981 3.26076 0
M  V30 3892 C 359.5 -3.99095 4.11716 0
M  V30 3893 N 358.996 -4.71648 5.07465 0
M  V30 3894 N 360.789 -3.95247 3.9967 0
M  V30 3895 H 352.94 -0.604988 2.03602 0
M  V30 3896 H 355.203 -0.329368 0.888944 0
M  V30 3897 H 354.909 -1.75921 3.0454 0
M  V30 3898 H 354.783 -3.18182 2.02584 0
M  V30 3899 H 357.17 -2.71809 1.14907 0
M  V30 3900 H 357.251 -1.2994 2.20339 0
M  V30 3901 H 356.895 -2.81238 4.22927 0
M  V30 3902 H 356.825 -4.22395 3.14467 0
M  V30 3903 H 359.316 -2.77286 2.5675 0
M  V30 3904 H 359.629 -5.22705 5.6921 0
M  V30 3905 H 357.974 -4.70594 5.11435 0
M  V30 3906 H 361.165 -3.37691 3.24164 0
M  V30 3907 H 361.338 -4.4962 4.66632 0
M  V30 3908 N 354.744 -0.972509 -1.24016 0
M  V30 3909 C 356.16 -0.679827 -1.44397 0
M  V30 3910 C 356.36 0.756716 -1.86751 0
M  V30 3911 O 355.416 1.53007 -2.00861 0
M  V30 3912 C 356.729 -1.66803 -2.50195 0
M  V30 3913 C 358.277 -1.68119 -2.64017 0
M  V30 3914 C 358.752 -2.65748 -3.73017 0
M  V30 3915 N 360.243 -2.64219 -3.8045 0
M  V30 3916 C 360.978 -3.36433 -4.64328 0
M  V30 3917 N 360.474 -4.1818 -5.52356 0
M  V30 3918 N 362.267 -3.25235 -4.58453 0
M  V30 3919 H 354.418 -1.90059 -0.948228 0
M  V30 3920 H 356.681 -0.818527 -0.478245 0
M  V30 3921 H 356.387 -2.69498 -2.25973 0
M  V30 3922 H 356.261 -1.4446 -3.48441 0
M  V30 3923 H 358.648 -0.661319 -2.87594 0
M  V30 3924 H 358.729 -1.94525 -1.66113 0
M  V30 3925 H 358.373 -3.67872 -3.50189 0
M  V30 3926 H 358.303 -2.36619 -4.70446 0
M  V30 3927 H 360.794 -2.04887 -3.17537 0
M  V30 3928 H 361.107 -4.70157 -6.13329 0
M  V30 3929 H 359.452 -4.22273 -5.52006 0
M  V30 3930 H 362.643 -2.60829 -3.88698 0
M  V30 3931 H 362.816 -3.81776 -5.23594 0
M  V30 3932 N 356.222 1.38976 -0.743202 0
M  V30 3933 C 357.17 2.32394 -0.0978389 0
M  V30 3934 C 358.164 1.53486 0.716824 0
M  V30 3935 O 359.37 1.69092 0.617088 0
M  V30 3936 H 355.745 0.75189 -0.0128402 0
M  V30 3937 H 357.716 2.84441 -0.901981 0
M  V30 3938 C 356.465 3.38629 0.789036 0
M  V30 3939 H 355.788 3.99432 0.171559 0
M  V30 3940 H 357.228 4.06426 1.20807 0
M  V30 3941 C 355.687 2.76347 1.92702 0
M  V30 3942 O 356.217 2.64836 3.02034 0
M  V30 3943 N 354.423 2.34311 1.71891 0
M  V30 3944 H 353.97 2.43873 0.829675 0
M  V30 3945 H 353.928 1.9298 2.48205 0
M  V30 3946 N 357.7 0.491464 1.49741 0
M  V30 3947 C 358.648 -0.305837 2.30581 0
M  V30 3948 C 359.642 -0.971642 1.38764 0
M  V30 3949 O 360.848 -0.90042 1.5586 0
M  V30 3950 H 357.223 -0.117482 0.742767 0
M  V30 3951 H 359.194 0.396093 2.95759 0
M  V30 3952 C 357.943 -1.36319 3.19863 0
M  V30 3953 H 357.266 -0.860258 3.90435 0
M  V30 3954 H 358.706 -1.89323 3.79385 0
M  V30 3955 C 357.165 -2.37621 2.38826 0
M  V30 3956 O 357.695 -3.43311 2.08567 0
M  V30 3957 N 355.901 -2.09849 2.01026 0
M  V30 3958 H 355.448 -1.23922 2.25834 0
M  V30 3959 H 355.406 -2.77859 1.47112 0
M  V30 3960 N 359.178 -1.55987 0.224894 0
M  V30 3961 C 360.111 -2.16413 -0.723929 0
M  V30 3962 C 361.089 -1.10952 -1.18863 0
M  V30 3963 O 362.273 -1.39225 -1.27077 0
M  V30 3964 C 359.4 -2.74711 -1.98121 0
M  V30 3965 C 358.446 -3.9303 -1.6562 0
M  V30 3966 S 359.279 -5.29817 -0.778058 0
M  V30 3967 C 360.435 -5.91555 -2.04483 0
M  V30 3968 H 360.668 -2.96555 -0.210347 0
M  V30 3969 H 358.201 -1.54397 0.00955457 0
M  V30 3970 H 360.159 -3.08938 -2.70311 0
M  V30 3971 H 358.82 -1.94555 -2.46591 0
M  V30 3972 H 358.013 -4.32334 -2.59043 0
M  V30 3973 H 357.615 -3.59966 -1.01491 0
M  V30 3974 H 359.907 -6.07732 -2.99446 0
M  V30 3975 H 360.85 -6.87498 -1.69563 0
M  V30 3976 H 361.258 -5.20419 -2.18688 0
M  V30 3977 N 360.656 0.0484629 -1.57525 0
M  V30 3978 C 361.589 1.08755 -2.00618 0
M  V30 3979 C 362.567 1.36272 -0.887058 0
M  V30 3980 O 363.751 1.49255 -1.15131 0
M  V30 3981 C 360.878 2.42675 -2.36277 0
M  V30 3982 C 359.924 2.31142 -3.58435 0
M  V30 3983 S 360.757 1.68326 -5.08357 0
M  V30 3984 C 361.913 3.03776 -5.47239 0
M  V30 3985 H 362.146 0.720415 -2.88439 0
M  V30 3986 H 359.679 0.257801 -1.52233 0
M  V30 3987 H 361.637 3.19699 -2.57494 0
M  V30 3988 H 360.298 2.76541 -1.48942 0
M  V30 3989 H 359.491 3.29957 -3.80978 0
M  V30 3990 H 359.093 1.62258 -3.36969 0
M  V30 3991 H 361.385 4.00106 -5.46737 0
M  V30 3992 H 362.328 2.85988 -6.47778 0
M  V30 3993 H 362.736 3.05456 -4.74718 0
M  V30 3994 N 362.134 1.5431 0.320358 0
M  V30 3995 C 363.411 1.63322 1.07635 0
M  V30 3996 C 363.791 0.46912 2.05821 0
M  V30 3997 O 363.139 -0.536274 2.22118 0
M  V30 3998 C 363.349 3.00465 1.77544 0
M  V30 3999 C 364.697 3.56621 2.30449 0
M  V30 4000 O 365.721 3.02791 1.87606 0
M  V30 4001 O 364.58 4.5083 3.08892 0
M  V30 4002 H 361.674 0.661502 0.496331 0
M  V30 4003 H 364.22 1.66656 0.319992 0
M  V30 4004 H 362.992 3.76629 1.06143 0
M  V30 4005 H 362.615 3.00824 2.59982 0
M  V30 4006 N 363.613 -0.582584 1.46437 0
M  V30 4007 C 364.56 -1.69164 1.5701 0
M  V30 4008 C 365.53 -1.60847 0.414403 0
M  V30 4009 O 366.715 -1.80058 0.631171 0
M  V30 4010 C 363.855 -3.075 1.56646 0
M  V30 4011 C 362.968 -3.2644 2.82951 0
M  V30 4012 C 362.103 -4.55026 2.7409 0
M  V30 4013 C 361.142 -4.6731 3.95333 0
M  V30 4014 N 360.279 -5.87221 3.84858 0
M  V30 4015 H 365.119 -1.59464 2.51744 0
M  V30 4016 H 362.656 -0.777186 1.24893 0
M  V30 4017 H 364.614 -3.8757 1.5442 0
M  V30 4018 H 363.244 -3.16096 0.654439 0
M  V30 4019 H 362.296 -2.39974 2.95155 0
M  V30 4020 H 363.608 -3.31385 3.72808 0
M  V30 4021 H 362.762 -5.43324 2.6997 0
M  V30 4022 H 361.501 -4.52519 1.81873 0
M  V30 4023 H 360.506 -3.77429 3.99784 0
M  V30 4024 H 361.731 -4.71595 4.88646 0
M  V30 4025 H 359.677 -5.85712 2.95427 0
M  V30 4026 H 359.594 -5.93435 4.6837 0
M  V30 4027 H 360.862 -6.7795 3.84713 0
M  V30 4028 N 365.091 -1.34144 -0.827227 0
M  V30 4029 C 366.024 -1.19707 -1.94282 0
M  V30 4030 C 367.002 -0.0897256 -1.62352 0
M  V30 4031 O 368.186 -0.254095 -1.8678 0
M  V30 4032 C 365.313 -0.838646 -3.28153 0
M  V30 4033 C 364.359 -1.95514 -3.79047 0
M  V30 4034 S 365.192 -3.56793 -3.99323 0
M  V30 4035 C 366.348 -3.22983 -5.36127 0
M  V30 4036 H 366.581 -2.1414 -2.06231 0
M  V30 4037 H 364.114 -1.19121 -0.982321 0
M  V30 4038 H 366.072 -0.638637 -4.05502 0
M  V30 4039 H 364.733 0.0872776 -3.13979 0
M  V30 4040 H 363.926 -1.658 -4.75948 0
M  V30 4041 H 363.528 -2.11241 -3.08631 0
M  V30 4042 H 365.82 -2.74531 -6.19386 0
M  V30 4043 H 366.763 -4.19008 -5.70822 0
M  V30 4044 H 367.171 -2.59276 -5.01434 0
M  V30 4045 N 366.569 1.04691 -1.17803 0
M  V30 4046 C 367.985 1.29963 -0.926379 0
M  V30 4047 C 368.185 1.97251 0.411635 0
M  V30 4048 O 367.241 2.24922 1.14744 0
M  V30 4049 C 368.554 2.16447 -2.08737 0
M  V30 4050 C 370.102 2.29814 -2.12496 0
M  V30 4051 C 370.577 3.19661 -3.27995 0
M  V30 4052 N 372.068 3.27247 -3.27816 0
M  V30 4053 C 372.803 3.96906 -4.13827 0
M  V30 4054 N 372.299 4.6895 -5.09959 0
M  V30 4055 N 374.092 3.93122 -4.01761 0
M  V30 4056 H 366.243 0.594182 -2.0392 0
M  V30 4057 H 368.506 0.324649 -0.890678 0
M  V30 4058 H 368.212 1.74304 -3.05469 0
M  V30 4059 H 368.086 3.17103 -2.04268 0
M  V30 4060 H 370.473 2.71196 -1.16347 0
M  V30 4061 H 370.554 1.2877 -2.21025 0
M  V30 4062 H 370.198 2.78991 -4.24413 0
M  V30 4063 H 370.128 4.20722 -3.16703 0
M  V30 4064 H 372.619 2.75921 -2.58217 0
M  V30 4065 H 372.932 5.19679 -5.71974 0
M  V30 4066 H 371.277 4.67875 -5.13924 0
M  V30 4067 H 374.468 3.35967 -3.2595 0
M  V30 4068 H 374.641 4.47139 -4.6901 0
M  V30 4069 N 368.047 0.979072 1.23499 0
M  V30 4070 C 369.324 0.563674 1.87302 0
M  V30 4071 C 369.704 -0.959199 1.88049 0
M  V30 4072 O 369.052 -1.83535 1.36114 0
M  V30 4073 C 369.262 1.16822 3.28867 0
M  V30 4074 C 370.61 1.26014 4.0547 0
M  V30 4075 O 371.634 1.12158 3.38082 0
M  V30 4076 O 370.493 1.48044 5.26066 0
M  V30 4077 H 367.587 0.189602 0.804972 0
M  V30 4078 H 370.133 1.07407 1.31384 0
M  V30 4079 H 368.905 2.21049 3.22883 0
M  V30 4080 H 368.528 0.642564 3.92373 0
M  V30 4081 N 369.525 -1.3858 0.750561 0
M  V30 4082 C 370.473 -2.32339 0.110162 0
M  V30 4083 C 371.467 -1.53864 -0.708674 0
M  V30 4084 O 372.673 -1.69417 -0.608112 0
M  V30 4085 H 369.048 -0.751812 0.0168275 0
M  V30 4086 H 371.019 -2.83959 0.917053 0
M  V30 4087 C 369.768 -3.39043 -0.771067 0
M  V30 4088 H 369.091 -3.99517 -0.150374 0
M  V30 4089 H 370.531 -4.07061 -1.1865 0
M  V30 4090 C 368.99 -2.77365 -1.91234 0
M  V30 4091 O 369.52 -2.66434 -3.00626 0
M  V30 4092 N 367.726 -2.35219 -1.70646 0
M  V30 4093 H 367.273 -2.4431 -0.81673 0
M  V30 4094 H 367.231 -1.94294 -2.47178 0
M  V30 4095 N 371.003 -0.499398 -1.49478 0
M  V30 4096 C 371.95 0.279881 -2.29097 0
M  V30 4097 C 372.92 0.961805 -1.3542 0
M  V30 4098 O 374.105 0.968777 -1.64376 0
M  V30 4099 C 371.245 1.33932 -3.18051 0
M  V30 4100 C 370.358 0.669333 -4.26783 0
M  V30 4101 C 369.493 1.70907 -5.02955 0
M  V30 4102 C 368.532 1.02087 -6.03527 0
M  V30 4103 N 367.669 2.00474 -6.7287 0
M  V30 4104 H 372.509 -0.405317 -2.95231 0
M  V30 4105 H 370.046 -0.211726 -1.45568 0
M  V30 4106 H 372.004 1.96553 -3.67998 0
M  V30 4107 H 370.634 1.9933 -2.53904 0
M  V30 4108 H 369.686 -0.0701234 -3.80335 0
M  V30 4109 H 370.998 0.127503 -4.98637 0
M  V30 4110 H 370.152 2.41037 -5.56764 0
M  V30 4111 H 368.891 2.28476 -4.30871 0
M  V30 4112 H 367.896 0.305338 -5.48951 0
M  V30 4113 H 369.121 0.451708 -6.77596 0
M  V30 4114 H 367.067 2.57007 -6.03559 0
M  V30 4115 H 366.984 1.51353 -7.40694 0
M  V30 4116 H 368.252 2.69897 -7.31284 0
M  V30 4117 N 372.481 1.55866 -0.233164 0
M  V30 4118 C 373.711 2.02704 0.399325 0
M  V30 4119 C 374.119 1.11204 1.53069 0
M  V30 4120 O 373.462 0.116182 1.83332 0
M  V30 4121 C 373.524 3.45844 0.981429 0
M  V30 4122 C 373.188 4.56997 -0.0159561 0
M  V30 4123 C 374.185 5.13384 -0.820552 0
M  V30 4124 C 371.87 5.0211 -0.138072 0
M  V30 4125 C 373.864 6.13365 -1.73386 0
M  V30 4126 C 371.551 6.01926 -1.0549 0
M  V30 4127 C 372.549 6.57431 -1.85132 0
M  V30 4128 O 372.237 7.55302 -2.75272 0
M  V30 4129 H 371.969 0.668459 0.100692 0
M  V30 4130 H 374.523 2.02387 -0.35052 0
M  V30 4131 H 372.753 3.43267 1.78058 0
M  V30 4132 H 374.442 3.76262 1.52255 0
M  V30 4133 H 375.208 4.79372 -0.736721 0
M  V30 4134 H 371.087 4.5858 0.471737 0
M  V30 4135 H 374.631 6.56614 -2.35592 0
M  V30 4136 H 370.528 6.35359 -1.1397 0
M  V30 4137 H 371.296 7.72867 -2.69477 0
M  V30 4138 N 373.959 -0.0401083 1.57549 0
M  V30 4139 C 375.375 -0.395556 1.54621 0
M  V30 4140 C 375.575 -1.77281 0.957799 0
M  V30 4141 O 374.631 -2.45888 0.574031 0
M  V30 4142 C 375.944 -0.307535 2.99123 0
M  V30 4143 C 377.492 -0.385425 3.10618 0
M  V30 4144 C 377.967 -0.326973 4.56831 0
M  V30 4145 N 379.458 -0.386102 4.61588 0
M  V30 4146 C 380.193 -0.363591 5.72246 0
M  V30 4147 N 379.689 -0.29402 6.92176 0
M  V30 4148 N 381.482 -0.412503 5.60584 0
M  V30 4149 H 373.633 0.861325 1.94152 0
M  V30 4150 H 375.896 0.326445 0.890021 0
M  V30 4151 H 375.602 0.638461 3.45856 0
M  V30 4152 H 375.476 -1.10552 3.60636 0
M  V30 4153 H 377.863 -1.32185 2.63839 0
M  V30 4154 H 377.944 0.44171 2.51957 0
M  V30 4155 H 377.588 0.605738 5.04275 0
M  V30 4156 H 377.518 -1.17207 5.13391 0
M  V30 4157 H 380.009 -0.442832 3.75296 0
M  V30 4158 H 380.322 -0.28164 7.72287 0
M  V30 4159 H 378.667 -0.260232 6.94513 0
M  V30 4160 H 381.858 -0.464769 4.65787 0
M  V30 4161 H 382.031 -0.391492 6.46816 0
M  V30 4162 N 375.437 -1.54477 -0.31217 0
M  V30 4163 C 376.662 -1.77526 -1.07235 0
M  V30 4164 C 377.087 -0.527775 -1.80544 0
M  V30 4165 O 376.445 0.52121 -1.73646 0
M  V30 4166 C 376.493 -2.97535 -2.03728 0
M  V30 4167 O 375.597 -2.69878 -3.11833 0
M  V30 4168 H 374.938 -0.58792 -0.30862 0
M  V30 4169 H 377.468 -2.01532 -0.352993 0
M  V30 4170 H 377.478 -3.25198 -2.46395 0
M  V30 4171 H 376.153 -3.87996 -1.49774 0
M  V30 4172 H 374.73 -2.53199 -2.7376 0
M  V30 4173 N 376.915 0.57481 -1.46744 0
M  V30 4174 C 378.14 1.36341 -1.56288 0
M  V30 4175 C 378.565 1.86954 -0.207347 0
M  V30 4176 O 377.923 1.62006 0.813871 0
M  V30 4177 C 377.971 2.52147 -2.57787 0
M  V30 4178 O 377.075 3.53834 -2.11838 0
M  V30 4179 H 376.416 0.405713 -0.525636 0
M  V30 4180 H 378.946 0.696453 -1.92382 0
M  V30 4181 H 378.956 2.98958 -2.77648 0
M  V30 4182 H 377.631 2.14663 -3.5622 0
M  V30 4183 H 376.208 3.1345 -2.01999 0
M  V30 4184 N 378.394 1.34581 0.820102 0
M  V30 4185 C 379.304 1.28471 1.96297 0
M  V30 4186 C 380.32 0.191902 1.72939 0
M  V30 4187 O 381.496 0.418879 1.96996 0
M  V30 4188 C 378.561 1.04281 3.30645 0
M  V30 4189 C 377.622 2.22745 3.66992 0
M  V30 4190 C 376.855 1.997 4.9493 0
M  V30 4191 O 377.078 0.956656 5.6232 0
M  V30 4192 O 376.012 2.86723 5.2922 0
M  V30 4193 H 379.838 2.24624 2.04396 0
M  V30 4194 H 377.423 1.14816 0.955913 0
M  V30 4195 H 379.305 0.925841 4.11104 0
M  V30 4196 H 377.98 0.111697 3.23507 0
M  V30 4197 H 376.887 2.40003 2.86966 0
M  V30 4198 H 378.22 3.14257 3.78819 0
M  V30 4199 N 379.872 -1.04064 1.18357 0
M  V30 4200 C 381.1 -1.80916 1.00384 0
M  V30 4201 C 381.515 -1.83414 -0.447738 0
M  V30 4202 O 380.872 -1.26962 -1.31099 0
M  V30 4203 C 380.923 -3.26516 1.55144 0
M  V30 4204 O 380.644 -3.2424 2.94618 0
M  V30 4205 C 382.145 -4.20013 1.41789 0
M  V30 4206 H 379.365 -0.569728 0.354474 0
M  V30 4207 H 381.909 -1.31151 1.56906 0
M  V30 4208 H 380.064 -3.73512 1.02798 0
M  V30 4209 H 380.478 -4.15452 3.20156 0
M  V30 4210 H 381.952 -5.20111 1.84901 0
M  V30 4211 H 382.429 -4.37667 0.36661 0
M  V30 4212 H 383.035 -3.78881 1.93207 0
M  V30 4213 N 381.35 -0.985608 -1.22978 0
M  V30 4214 C 382.297 -0.529825 -2.24636 0
M  V30 4215 C 383.267 0.434028 -1.60329 0
M  V30 4216 O 384.452 0.340414 -1.87739 0
M  V30 4217 C 381.592 0.156533 -3.44745 0
M  V30 4218 C 380.705 -0.848197 -4.23591 0
M  V30 4219 C 379.84 -0.136109 -5.31026 0
M  V30 4220 C 378.879 -1.1297 -6.01585 0
M  V30 4221 N 378.016 -0.446415 -7.00679 0
M  V30 4222 H 382.856 -1.40148 -2.62988 0
M  V30 4223 H 380.393 -0.702168 -1.29259 0
M  V30 4224 H 382.351 0.571324 -4.1327 0
M  V30 4225 H 380.981 0.992025 -3.07179 0
M  V30 4226 H 380.033 -1.38135 -3.54433 0
M  V30 4227 H 381.345 -1.60512 -4.72268 0
M  V30 4228 H 380.499 0.335784 -6.0577 0
M  V30 4229 H 379.238 0.653373 -4.83304 0
M  V30 4230 H 378.243 -1.6123 -5.25628 0
M  V30 4231 H 379.468 -1.91993 -6.51395 0
M  V30 4232 H 377.414 0.323763 -6.55201 0
M  V30 4233 H 377.331 -1.1419 -7.47326 0
M  V30 4234 H 378.599 0.00291697 -7.795 0
M  V30 4235 N 382.828 1.3818 -0.7579 0
M  V30 4236 C 384.244 1.5353 -0.435972 0
M  V30 4237 C 384.444 1.71961 1.05032 0
M  V30 4238 O 383.5 1.73307 1.83633 0
M  V30 4239 C 384.813 2.73989 -1.23898 0
M  V30 4240 C 386.361 2.87841 -1.22949 0
M  V30 4241 C 386.836 4.11266 -2.01554 0
M  V30 4242 N 388.327 4.18352 -1.98837 0
M  V30 4243 C 389.062 5.12856 -2.5645 0
M  V30 4244 N 388.558 6.13005 -3.22794 0
M  V30 4245 N 390.351 5.05238 -2.46356 0
M  V30 4246 H 382.502 1.24467 -1.7211 0
M  V30 4247 H 384.765 0.604982 -0.729864 0
M  V30 4248 H 384.471 2.66789 -2.29165 0
M  V30 4249 H 384.345 3.67294 -0.858764 0
M  V30 4250 H 386.732 2.9452 -0.184854 0
M  V30 4251 H 386.813 1.95534 -1.64924 0
M  V30 4252 H 386.457 4.05349 -3.06031 0
M  V30 4253 H 386.387 5.02661 -1.5697 0
M  V30 4254 H 388.878 3.46628 -1.50524 0
M  V30 4255 H 389.191 6.81619 -3.64165 0
M  V30 4256 H 387.536 6.13325 -3.2689 0
M  V30 4257 H 390.727 4.25938 -1.9415 0
M  V30 4258 H 390.9 5.78707 -2.91552 0
M  V30 4259 N 384.306 0.507319 1.49211 0
M  V30 4260 C 385.555 -0.0368315 2.01666 0
M  V30 4261 C 385.868 -1.37459 1.39156 0
M  V30 4262 O 387.074 -2.00579 1.82976 0
M  V30 4263 C 385.53 -0.116089 3.59713 0
M  V30 4264 C 385.138 1.2154 4.31198 0
M  V30 4265 C 386.882 -0.610268 4.2009 0
M  V30 4266 C 384.789 1.09796 5.81119 0
M  V30 4267 H 383.719 -0.0175376 0.753796 0
M  V30 4268 H 386.37 0.647691 1.71689 0
M  V30 4269 H 384.752 -0.8652 3.86433 0
M  V30 4270 H 385.926 1.9783 4.16173 0
M  V30 4271 H 384.241 1.64352 3.82593 0
M  V30 4272 H 386.838 -0.715742 5.29888 0
M  V30 4273 H 387.181 -1.61064 3.8388 0
M  V30 4274 H 387.714 0.0824916 3.97714 0
M  V30 4275 H 384.453 2.0728 6.21864 0
M  V30 4276 H 383.973 0.376058 5.9862 0
M  V30 4277 H 385.652 0.779281 6.4229 0
M  V30 4278 N 385.784 -1.5574 0.241426 0
M  V30 4279 C 386.732 -2.22538 -0.676718 0
M  V30 4280 C 387.726 -1.21117 -1.18436 0
M  V30 4281 O 388.932 -1.39144 -1.14188 0
M  V30 4282 H 385.307 -0.713776 -0.236701 0
M  V30 4283 H 387.278 -2.98264 -0.0901187 0
M  V30 4284 C 386.027 -2.93439 -1.86518 0
M  V30 4285 H 385.35 -3.7125 -1.4837 0
M  V30 4286 H 386.79 -3.43549 -2.48495 0
M  V30 4287 C 385.249 -1.97008 -2.73294 0
M  V30 4288 O 385.779 -1.49965 -3.72657 0
M  V30 4289 N 383.985 -1.64227 -2.39745 0
M  V30 4290 H 383.532 -2.02677 -1.58996 0
M  V30 4291 H 383.49 -0.999708 -2.98083 0
M  V30 4292 N 387.262 0.0317525 -1.57568 0
M  V30 4293 C 388.511 0.722131 -1.8833 0
M  V30 4294 C 388.824 1.76664 -0.839587 0
M  V30 4295 O 390.03 2.50942 -1.03635 0
M  V30 4296 C 388.486 1.33544 -3.34207 0
M  V30 4297 C 388.094 0.327415 -4.46802 0
M  V30 4298 C 389.838 2.00585 -3.7412 0
M  V30 4299 C 387.745 0.948915 -5.83738 0
M  V30 4300 H 386.675 0.273466 -0.702661 0
M  V30 4301 H 389.326 -0.0235811 -1.83485 0
M  V30 4302 H 387.708 2.13077 -3.33788 0
M  V30 4303 H 388.882 -0.441006 -4.58685 0
M  V30 4304 H 387.197 -0.240758 -4.15703 0
M  V30 4305 H 389.794 2.47932 -4.73744 0
M  V30 4306 H 390.137 2.82285 -3.05975 0
M  V30 4307 H 390.67 1.27831 -3.76702 0
M  V30 4308 H 387.409 0.171387 -6.55276 0
M  V30 4309 H 386.929 1.68724 -5.7558 0
M  V30 4310 H 388.608 1.45705 -6.3038 0
M  V30 4311 N 388.74 1.54641 0.303973 0
M  V30 4312 C 389.673 1.80263 1.3993 0
M  V30 4313 C 390.651 0.653657 1.48883 0
M  V30 4314 O 391.835 0.893284 1.6599 0
M  V30 4315 C 388.962 1.9367 2.77866 0
M  V30 4316 C 388.008 3.16078 2.86351 0
M  V30 4317 S 388.841 4.74219 2.4875 0
M  V30 4318 C 389.997 4.90558 3.88721 0
M  V30 4319 H 390.23 2.72886 1.17986 0
M  V30 4320 H 387.763 1.46014 0.501918 0
M  V30 4321 H 389.721 2.0208 3.57315 0
M  V30 4322 H 388.382 1.01991 2.9708 0
M  V30 4323 H 387.575 3.22252 3.87517 0
M  V30 4324 H 387.177 3.06099 2.14893 0
M  V30 4325 H 389.469 4.74398 4.83687 0
M  V30 4326 H 390.412 5.92651 3.87518 0
M  V30 4327 H 390.82 4.18728 3.78585 0
M  V30 4328 N 390.218 -0.567019 1.47046 0
M  V30 4329 C 391.148 -1.68482 1.61667 0
M  V30 4330 C 392.129 -1.6358 0.466418 0
M  V30 4331 O 393.314 -1.81354 0.694574 0
M  V30 4332 C 390.444 -3.07124 1.62148 0
M  V30 4333 C 389.398 -3.26867 2.76301 0
M  V30 4334 C 388.724 -4.66196 2.61849 0
M  V30 4335 C 390.024 -3.13186 4.17986 0
M  V30 4336 H 391.718 -1.56502 2.5524 0
M  V30 4337 H 389.264 -0.751486 1.22836 0
M  V30 4338 H 391.217 -3.8516 1.70968 0
M  V30 4339 H 389.941 -3.2004 0.651287 0
M  V30 4340 H 388.6 -2.51237 2.66975 0
M  V30 4341 H 388.248 -4.75898 1.62879 0
M  V30 4342 H 387.948 -4.80356 3.38425 0
M  V30 4343 H 389.472 -5.46379 2.72584 0
M  V30 4344 H 390.886 -3.81049 4.2834 0
M  V30 4345 H 389.283 -3.3886 4.95272 0
M  V30 4346 H 390.353 -2.10057 4.3704 0
M  V30 4347 N 391.696 -1.35014 -0.812953 0
M  V30 4348 C 392.626 -1.30069 -1.93919 0
M  V30 4349 C 393.607 -0.176275 -1.69184 0
M  V30 4350 O 394.792 -0.370227 -1.90638 0
M  V30 4351 C 391.922 -1.06547 -3.30552 0
M  V30 4352 C 390.876 -2.15561 -3.69753 0
M  V30 4353 C 390.202 -1.77214 -5.04479 0
M  V30 4354 C 391.502 -3.57476 -3.808 0
M  V30 4355 H 393.196 -2.24303 -1.98314 0
M  V30 4356 H 390.742 -1.07977 -0.952736 0
M  V30 4357 H 392.695 -1.01729 -4.08937 0
M  V30 4358 H 391.419 -0.0875719 -3.26483 0
M  V30 4359 H 390.078 -2.19466 -2.9365 0
M  V30 4360 H 389.726 -0.780589 -4.96906 0
M  V30 4361 H 389.426 -2.50184 -5.31678 0
M  V30 4362 H 390.95 -1.7391 -5.8531 0
M  V30 4363 H 392.364 -3.55929 -4.4943 0
M  V30 4364 H 390.761 -4.29152 -4.19462 0
M  V30 4365 H 391.831 -3.94091 -2.82525 0
M  V30 4366 N 393.175 1.03435 -1.18907 0
M  V30 4367 C 394.4 1.80919 -1.01406 0
M  V30 4368 C 394.825 1.83055 0.432721 0
M  V30 4369 O 394.183 1.25252 1.31079 0
M  V30 4370 C 394.231 3.24091 -1.58105 0
M  V30 4371 O 393.335 4.04434 -0.806669 0
M  V30 4372 H 392.676 0.558709 -0.358803 0
M  V30 4373 H 395.206 1.30223 -1.57807 0
M  V30 4374 H 395.216 3.74853 -1.61087 0
M  V30 4375 H 393.891 3.21851 -2.6341 0
M  V30 4376 H 392.468 3.63091 -0.849666 0
M  V30 4377 N 394.653 0.992116 1.22453 0
M  V30 4378 C 395.902 0.662992 1.90492 0
M  V30 4379 C 396.215 -0.808407 1.78113 0
M  V30 4380 O 397.421 -1.24908 2.41061 0
M  V30 4381 C 395.877 1.1353 3.41524 0
M  V30 4382 C 395.485 2.63187 3.62542 0
M  V30 4383 C 397.229 0.880465 4.15269 0
M  V30 4384 C 395.136 3.04024 5.0727 0
M  V30 4385 H 394.066 0.244278 0.713333 0
M  V30 4386 H 396.717 1.20157 1.38688 0
M  V30 4387 H 395.099 0.52485 3.92506 0
M  V30 4388 H 396.273 3.2957 3.22056 0
M  V30 4389 H 394.588 2.86543 3.02129 0
M  V30 4390 H 397.185 1.16128 5.21937 0
M  V30 4391 H 397.528 -0.183408 4.15896 0
M  V30 4392 H 398.061 1.45307 3.70312 0
M  V30 4393 H 394.8 4.09584 5.11782 0
M  V30 4394 H 394.32 2.42343 5.48662 0
M  V30 4395 H 395.999 2.95282 5.75689 0
M  V30 4396 N 396.131 -1.37776 0.765217 0
M  V30 4397 C 397.377 -2.00145 0.327072 0
M  V30 4398 C 397.71 -1.60607 -1.09175 0
M  V30 4399 O 396.985 -0.849127 -1.74986 0
M  V30 4400 C 397.268 -3.57109 0.46319 0
M  V30 4401 C 397.121 -4.06576 1.92395 0
M  V30 4402 C 398.44 -4.39888 -0.136473 0
M  V30 4403 H 395.559 -0.727113 0.120316 0
M  V30 4404 H 398.201 -1.63549 0.967039 0
M  V30 4405 H 396.351 -3.88414 -0.0816358 0
M  V30 4406 H 398.023 -3.85864 2.52798 0
M  V30 4407 H 396.266 -3.59011 2.43503 0
M  V30 4408 H 396.937 -5.15639 1.97028 0
M  V30 4409 H 399.413 -4.14803 0.328317 0
M  V30 4410 H 398.289 -5.48899 -0.0110582 0
M  V30 4411 H 398.55 -4.24758 -1.22608 0
M  V30 4412 N 397.609 -0.515225 -1.4894 0
M  V30 4413 C 398.855 0.0242508 -2.02785 0
M  V30 4414 C 399.188 1.35323 -1.39289 0
M  V30 4415 O 398.463 1.87041 -0.533469 0
M  V30 4416 C 398.746 0.16184 -3.59736 0
M  V30 4417 C 398.599 -1.19127 -4.33738 0
M  V30 4418 C 399.918 0.895719 -4.30888 0
M  V30 4419 H 397.037 0.00733914 -0.736963 0
M  V30 4420 H 399.679 -0.669395 -1.77818 0
M  V30 4421 H 397.829 0.752624 -3.8114 0
M  V30 4422 H 399.501 -1.82202 -4.23792 0
M  V30 4423 H 397.744 -1.77695 -3.95736 0
M  V30 4424 H 398.415 -1.04815 -5.41957 0
M  V30 4425 H 400.891 0.394528 -4.14225 0
M  V30 4426 H 399.767 0.960859 -5.40425 0
M  V30 4427 H 400.028 1.9427 -3.97129 0
M  V30 4428 N 399.087 1.5561 -0.249682 0
M  V30 4429 C 400.05 2.20217 0.635394 0
M  V30 4430 C 401.05 1.17227 1.10066 0
M  V30 4431 O 402.24 1.42292 1.00492 0
M  V30 4432 C 399.372 2.84794 1.87363 0
M  V30 4433 H 400.565 2.99814 0.0716752 0
M  V30 4434 H 398.118 1.563 -0.000153234 0
M  V30 4435 H 398.853 2.09142 2.47851 0
M  V30 4436 H 398.638 3.60241 1.5482 0
M  V30 4437 H 400.128 3.3423 2.5036 0
M  V30 4438 N 400.565 -0.0233959 1.57583 0
M  V30 4439 C 401.812 -0.713063 1.8953 0
M  V30 4440 C 402.14 -1.75056 0.847673 0
M  V30 4441 O 401.395 -1.95119 -0.150636 0
M  V30 4442 C 401.694 -1.41428 3.28227 0
M  V30 4443 C 401.36 -0.512222 4.47981 0
M  V30 4444 C 400.022 -0.263785 4.80476 0
M  V30 4445 C 402.374 0.110248 5.21083 0
M  V30 4446 C 399.702 0.615804 5.83459 0
M  V30 4447 C 402.054 0.977573 6.25001 0
M  V30 4448 C 400.718 1.23542 6.55968 0
M  V30 4449 H 399.988 -0.260928 0.69354 0
M  V30 4450 H 402.635 0.0271047 1.91481 0
M  V30 4451 H 400.94 -2.22791 3.22291 0
M  V30 4452 H 402.637 -1.95355 3.50196 0
M  V30 4453 H 399.227 -0.716013 4.22577 0
M  V30 4454 H 403.411 -0.0687137 4.96252 0
M  V30 4455 H 398.667 0.82382 6.05824 0
M  V30 4456 H 402.841 1.46638 6.80786 0
M  V30 4457 H 400.468 1.91871 7.35588 0
M  V30 4458 N 402.043 -1.548 -0.295768 0
M  V30 4459 C 403.006 -1.85363 -1.34808 0
M  V30 4460 C 404.006 -0.726817 -1.43436 0
M  V30 4461 O 405.196 -0.995088 -1.42981 0
M  V30 4462 C 402.328 -2.03859 -2.73229 0
M  V30 4463 H 403.521 -2.7941 -1.08949 0
M  V30 4464 H 401.074 -1.46942 -0.532702 0
M  V30 4465 H 401.809 -1.12117 -3.04303 0
M  V30 4466 H 401.594 -2.8588 -2.68356 0
M  V30 4467 H 403.084 -2.28857 -3.49305 0
M  V30 4468 N 403.521 0.559213 -1.47345 0
M  V30 4469 C 404.767 1.31843 -1.54095 0
M  V30 4470 C 405.1 1.93149 -0.201726 0
M  V30 4471 O 404.375 1.77759 0.789428 0
M  V30 4472 C 404.658 2.43006 -2.65744 0
M  V30 4473 C 404.511 1.86581 -4.09277 0
M  V30 4474 C 405.83 3.44943 -2.73318 0
M  V30 4475 H 402.949 0.478012 -0.560957 0
M  V30 4476 H 405.591 0.625977 -1.79392 0
M  V30 4477 H 403.741 3.02072 -2.44305 0
M  V30 4478 H 405.413 1.31792 -4.42073 0
M  V30 4479 H 403.656 1.17268 -4.17649 0
M  V30 4480 H 404.327 2.66933 -4.83168 0
M  V30 4481 H 406.803 2.95793 -2.92653 0
M  V30 4482 H 405.679 4.20153 -3.53218 0
M  V30 4483 H 405.94 4.03665 -1.80296 0
M  V30 4484 N 404.999 1.35443 0.805782 0
M  V30 4485 C 406.239 1.30127 1.57627 0
M  V30 4486 C 406.603 -0.122567 1.91608 0
M  V30 4487 O 407.804 -0.300107 2.67119 0
M  V30 4488 C 406.075 2.18314 2.82973 0
M  V30 4489 S 407.634 2.30521 3.7337 0
M  V30 4490 H 404.452 0.462439 0.540066 0
M  V30 4491 H 407.054 1.70843 0.95042 0
M  V30 4492 H 405.758 3.20741 2.56034 0
M  V30 4493 H 405.289 1.78558 3.50543 0
M  V30 4494 H 407.304 1.49062 4.73281 0
M  V30 4495 N 406.477 -1.02803 1.19454 0
M  V30 4496 C 407.723 -1.76598 1.0092 0
M  V30 4497 C 408.078 -1.86939 -0.455142 0
M  V30 4498 O 407.371 -1.37575 -1.33355 0
M  V30 4499 C 407.565 -3.18941 1.6128 0
M  V30 4500 C 407.394 -3.22476 3.13431 0
M  V30 4501 C 406.164 -3.30375 3.82336 0
M  V30 4502 C 408.362 -3.09451 4.10785 0
M  V30 4503 N 406.344 -3.23292 5.21877 0
M  V30 4504 C 407.715 -3.10012 5.36929 0
M  V30 4505 C 409.77 -2.93585 4.02135 0
M  V30 4506 C 408.473 -2.96334 6.55423 0
M  V30 4507 C 410.499 -2.81256 5.20239 0
M  V30 4508 C 409.861 -2.82472 6.45282 0
M  V30 4509 H 405.96 -0.657447 0.423424 0
M  V30 4510 H 408.544 -1.22369 1.5144 0
M  V30 4511 H 406.715 -3.71489 1.1336 0
M  V30 4512 H 408.447 -3.81102 1.36173 0
M  V30 4513 H 405.202 -3.3663 3.33132 0
M  V30 4514 H 405.626 -3.23156 5.94894 0
M  V30 4515 H 410.268 -2.91466 3.0628 0
M  V30 4516 H 407.986 -2.97203 7.51463 0
M  V30 4517 H 411.572 -2.70014 5.15348 0
M  V30 4518 H 410.452 -2.73036 7.35133 0
M  V30 4519 N 407.956 -0.998596 -1.21925 0
M  V30 4520 C 408.886 -0.573688 -2.26343 0
M  V30 4521 C 409.867 0.402296 -1.65274 0
M  V30 4522 O 411.052 0.291683 -1.91997 0
M  V30 4523 C 408.182 0.106839 -3.47136 0
M  V30 4524 C 407.136 -0.788269 -4.20678 0
M  V30 4525 C 406.462 0.0254927 -5.34694 0
M  V30 4526 C 407.762 -2.08784 -4.78755 0
M  V30 4527 H 409.456 -1.44651 -2.62138 0
M  V30 4528 H 407.002 -0.696975 -1.26009 0
M  V30 4529 H 408.955 0.415531 -4.19346 0
M  V30 4530 H 407.679 1.01424 -3.10452 0
M  V30 4531 H 406.338 -1.08069 -3.50309 0
M  V30 4532 H 405.986 0.933989 -4.94253 0
M  V30 4533 H 405.686 -0.570437 -5.84825 0
M  V30 4534 H 407.21 0.328147 -6.09718 0
M  V30 4535 H 408.624 -1.84272 -5.42878 0
M  V30 4536 H 407.021 -2.63307 -5.39249 0
M  V30 4537 H 408.091 -2.76284 -3.98491 0
M  V30 4538 N 409.434 1.37368 -0.772513 0
M  V30 4539 C 410.845 1.8231 -0.402493 0
M  V30 4540 C 411.196 1.6436 1.07146 0
M  V30 4541 O 410.321 1.15514 1.82991 0
M  V30 4542 C 410.916 3.30979 -0.723776 0
M  V30 4543 C 409.475 3.74195 -0.406802 0
M  V30 4544 C 408.622 2.59885 -0.967218 0
M  V30 4545 H 411.573 1.25829 -0.967099 0
M  V30 4546 H 411.594 3.80499 -0.00870832 0
M  V30 4547 H 411.106 3.44011 -1.7966 0
M  V30 4548 H 409.207 3.66732 0.658673 0
M  V30 4549 H 409.32 4.7027 -0.915588 0
M  V30 4550 H 407.684 2.51674 -0.391416 0
M  V30 4551 H 408.467 2.7571 -2.04546 0
M  V30 4552 N 410.912 0.523116 1.48665 0
M  V30 4553 C 411.842 -0.23231 2.32342 0
M  V30 4554 C 412.823 -0.941637 1.41659 0
M  V30 4555 O 414.008 -0.928751 1.70552 0
M  V30 4556 C 411.138 -1.28387 3.22698 0
M  V30 4557 C 410.092 -0.693098 4.22351 0
M  V30 4558 C 409.418 -1.8468 5.01794 0
M  V30 4559 C 410.718 0.33063 5.21252 0
M  V30 4560 H 412.412 0.466192 2.95748 0
M  V30 4561 H 409.958 0.225643 1.42221 0
M  V30 4562 H 411.911 -1.82024 3.80059 0
M  V30 4563 H 410.635 -2.01186 2.57278 0
M  V30 4564 H 409.294 -0.178299 3.66166 0
M  V30 4565 H 408.942 -2.56301 4.32804 0
M  V30 4566 H 408.642 -1.45747 5.69238 0
M  V30 4567 H 410.166 -2.38709 5.62006 0
M  V30 4568 H 411.58 -0.118407 5.73178 0
M  V30 4569 H 409.977 0.636974 5.9671 0
M  V30 4570 H 411.047 1.23883 4.68808 0
M  V30 4571 N 412.39 -1.55475 0.257931 0
M  V30 4572 C 413.618 -2.03609 -0.367559 0
M  V30 4573 C 414.033 -1.13687 -1.50734 0
M  V30 4574 O 413.39 -0.153479 -1.81853 0
M  V30 4575 C 413.441 -3.51001 -0.864908 0
M  V30 4576 O 413.162 -4.37499 0.229465 0
M  V30 4577 C 414.663 -4.14946 -1.55997 0
M  V30 4578 H 411.883 -0.665459 -0.0860521 0
M  V30 4579 H 414.427 -2.00843 0.385014 0
M  V30 4580 H 412.582 -3.54266 -1.56762 0
M  V30 4581 H 412.996 -5.24286 -0.14998 0
M  V30 4582 H 414.47 -5.19735 -1.85956 0
M  V30 4583 H 414.947 -3.6209 -2.4857 0
M  V30 4584 H 415.553 -4.15635 -0.901543 0
M  V30 4585 N 413.868 0.0150385 -1.57593 0
M  V30 4586 C 415.117 0.702115 -1.89085 0
M  V30 4587 C 415.43 1.75764 -0.858277 0
M  V30 4588 O 416.636 2.49829 -1.0629 0
M  V30 4589 C 415.092 1.29992 -3.35604 0
M  V30 4590 C 414.7 0.280007 -4.47124 0
M  V30 4591 C 416.444 1.96606 -3.76227 0
M  V30 4592 C 414.351 0.886949 -5.84711 0
M  V30 4593 H 413.281 0.265997 -0.705522 0
M  V30 4594 H 415.932 -0.0430408 -1.8345 0
M  V30 4595 H 414.314 2.09525 -3.36029 0
M  V30 4596 H 415.488 -0.489631 -4.58191 0
M  V30 4597 H 413.803 -0.284835 -4.15425 0
M  V30 4598 H 416.4 2.42893 -4.76347 0
M  V30 4599 H 416.743 2.79024 -3.08952 0
M  V30 4600 H 417.276 1.23828 -3.78036 0
M  V30 4601 H 414.015 0.101876 -6.55421 0
M  V30 4602 H 413.535 1.6261 -5.77337 0
M  V30 4603 H 415.214 1.39011 -6.3189 0
M  V30 4604 N 415.346 1.54954 0.287554 0
M  V30 4605 C 416.593 1.74873 1.02106 0
M  V30 4606 C 416.921 0.541829 1.86801 0
M  V30 4607 O 416.176 -0.475992 1.89823 0
M  V30 4608 C 416.475 2.99833 1.94512 0
M  V30 4609 C 416.141 4.33029 1.25686 0
M  V30 4610 C 414.803 4.69233 1.06649 0
M  V30 4611 C 417.155 5.15542 0.765913 0
M  V30 4612 C 414.483 5.85518 0.372222 0
M  V30 4613 C 416.835 6.32542 0.0853101 0
M  V30 4614 C 415.499 6.67398 -0.1169 0
M  V30 4615 H 414.769 0.639906 0.373632 0
M  V30 4616 H 417.416 1.89219 0.294665 0
M  V30 4617 H 415.721 2.80325 2.73725 0
M  V30 4618 H 417.418 3.1244 2.51361 0
M  V30 4619 H 414.008 4.04564 1.41512 0
M  V30 4620 H 418.192 4.88059 0.90066 0
M  V30 4621 H 413.448 6.11057 0.204695 0
M  V30 4622 H 417.622 6.95741 -0.302936 0
M  V30 4623 H 415.249 7.57357 -0.656859 0
M  V30 4624 N 416.824 -0.551391 1.4764 0
M  V30 4625 C 417.772 -1.67896 1.60978 0
M  V30 4626 C 418.766 -1.62549 0.476877 0
M  V30 4627 O 419.972 -1.67664 0.654878 0
M  V30 4628 H 416.347 -0.555649 0.506713 0
M  V30 4629 H 418.318 -1.53784 2.55721 0
M  V30 4630 C 417.067 -3.06234 1.64669 0
M  V30 4631 H 416.39 -3.11033 2.51194 0
M  V30 4632 H 417.83 -3.84804 1.7805 0
M  V30 4633 C 416.289 -3.34737 0.381115 0
M  V30 4634 O 416.819 -3.98381 -0.515297 0
M  V30 4635 N 415.025 -2.8944 0.259354 0
M  V30 4636 H 414.572 -2.37827 0.98976 0
M  V30 4637 H 414.53 -3.08882 -0.586464 0
M  V30 4638 N 418.302 -1.35869 -0.798587 0
M  V30 4639 C 419.53 -1.32722 -1.58722 0
M  V30 4640 C 419.945 0.0935631 -1.88568 0
M  V30 4641 O 419.302 1.04784 -1.49421 0
M  V30 4642 C 419.353 -2.13974 -2.91371 0
M  V30 4643 O 419.074 -3.50514 -2.62815 0
M  V30 4644 C 420.575 -2.18504 -3.85708 0
M  V30 4645 H 417.795 -0.45562 -0.492596 0
M  V30 4646 H 420.339 -1.78837 -0.991843 0
M  V30 4647 H 418.494 -1.71438 -3.47402 0
M  V30 4648 H 418.908 -3.92806 -3.47568 0
M  V30 4649 H 420.382 -2.79732 -4.75872 0
M  V30 4650 H 420.859 -1.18597 -4.22885 0
M  V30 4651 H 421.465 -2.61236 -3.35612 0
M  V30 4652 N 419.78 1.02168 -1.19998 0
M  V30 4653 C 421.026 1.75945 -1.00852 0
M  V30 4654 C 421.359 1.88702 0.458828 0
M  V30 4655 O 420.634 1.40911 1.34069 0
M  V30 4656 C 420.917 3.18154 -1.68671 0
M  V30 4657 C 420.77 3.13224 -3.22817 0
M  V30 4658 C 422.089 4.16711 -1.41561 0
M  V30 4659 H 419.208 0.638673 -0.367785 0
M  V30 4660 H 421.85 1.19222 -1.4794 0
M  V30 4661 H 420 3.66586 -1.28636 0
M  V30 4662 H 421.672 2.72635 -3.72112 0
M  V30 4663 H 419.915 2.50751 -3.53986 0
M  V30 4664 H 420.586 4.13728 -3.65422 0
M  V30 4665 H 423.062 3.76913 -1.76284 0
M  V30 4666 H 421.938 5.14391 -1.91553 0
M  V30 4667 H 422.199 4.40774 -0.342193 0
M  V30 4668 N 421.258 1.00505 1.21394 0
M  V30 4669 C 422.505 0.687774 1.90462 0
M  V30 4670 C 422.833 -0.78147 1.7811 0
M  V30 4671 O 422.088 -1.58208 1.1519 0
M  V30 4672 C 422.387 1.0546 3.41486 0
M  V30 4673 C 422.053 2.51812 3.74034 0
M  V30 4674 C 420.715 2.91804 3.82628 0
M  V30 4675 C 423.067 3.46614 3.8924 0
M  V30 4676 C 420.395 4.2556 4.03876 0
M  V30 4677 C 422.747 4.80044 4.11995 0
M  V30 4678 C 421.411 5.19759 4.18816 0
M  V30 4679 H 420.681 0.251674 0.696951 0
M  V30 4680 H 423.328 1.26349 1.43903 0
M  V30 4681 H 421.633 0.397133 3.89782 0
M  V30 4682 H 423.33 0.786976 3.93202 0
M  V30 4683 H 419.92 2.1982 3.67936 0
M  V30 4684 H 424.104 3.16883 3.81967 0
M  V30 4685 H 419.36 4.55901 4.07387 0
M  V30 4686 H 423.534 5.53439 4.22704 0
M  V30 4687 H 421.161 6.23418 4.35033 0
M  V30 4688 N 422.737 -1.36956 0.779787 0
M  V30 4689 C 424.014 -1.93697 0.272156 0
M  V30 4690 C 424.394 -1.71267 -1.23413 0
M  V30 4691 O 423.742 -1.06607 -2.02107 0
M  V30 4692 C 423.952 -3.42812 0.654291 0
M  V30 4693 C 425.3 -4.19921 0.628602 0
M  V30 4694 O 426.324 -3.51209 0.594172 0
M  V30 4695 O 425.183 -5.42465 0.662864 0
M  V30 4696 H 422.277 -0.824447 0.0649286 0
M  V30 4697 H 424.823 -1.46196 0.861682 0
M  V30 4698 H 423.595 -3.52754 1.69353 0
M  V30 4699 H 423.218 -3.97582 0.0381369 0
M  V30 4700 N 424.215 -0.530993 -1.48385 0
M  V30 4701 C 425.461 -0.00538653 -2.03399 0
M  V30 4702 C 425.816 1.31899 -1.40073 0
M  V30 4703 O 425.109 1.83901 -0.537676 0
M  V30 4704 C 425.303 0.172742 -3.56982 0
M  V30 4705 C 425.132 -1.13282 -4.35198 0
M  V30 4706 C 423.902 -1.69296 -4.76096 0
M  V30 4707 C 426.1 -2.04367 -4.71952 0
M  V30 4708 N 424.082 -2.9413 -5.38851 0
M  V30 4709 C 425.453 -3.13777 -5.34737 0
M  V30 4710 C 427.508 -2.04681 -4.53883 0
M  V30 4711 C 426.211 -4.23567 -5.81363 0
M  V30 4712 C 428.237 -3.13466 -5.01491 0
M  V30 4713 C 427.599 -4.21595 -5.64302 0
M  V30 4714 H 423.698 -0.0434945 -0.780789 0
M  V30 4715 H 426.282 -0.712495 -1.81195 0
M  V30 4716 H 424.453 0.848937 -3.79009 0
M  V30 4717 H 426.185 0.698046 -3.98634 0
M  V30 4718 H 422.94 -1.23422 -4.57235 0
M  V30 4719 H 423.364 -3.57689 -5.74794 0
M  V30 4720 H 428.006 -1.22378 -4.04702 0
M  V30 4721 H 425.724 -5.06648 -6.2955 0
M  V30 4722 H 429.31 -3.14765 -4.893 0
M  V30 4723 H 428.19 -5.04384 -6.00472 0
M  V30 4724 N 425.693 1.55336 -0.266172 0
M  V30 4725 C 426.641 2.23587 0.641228 0
M  V30 4726 C 427.635 1.22986 1.16494 0
M  V30 4727 O 428.841 1.40943 1.1196 0
M  V30 4728 H 425.216 0.717452 0.225315 0
M  V30 4729 H 427.187 2.9837 0.0426561 0
M  V30 4730 C 425.936 2.96369 1.81826 0
M  V30 4731 H 425.259 3.73563 1.42445 0
M  V30 4732 H 426.699 3.47459 2.42998 0
M  V30 4733 C 425.158 2.0133 2.70125 0
M  V30 4734 O 425.688 1.55875 3.70224 0
M  V30 4735 N 423.894 1.6802 2.37102 0
M  V30 4736 H 423.441 2.05181 1.55751 0
M  V30 4737 H 423.399 1.047 2.96454 0
M  V30 4738 N 427.171 -0.0066808 1.57599 0
M  V30 4739 C 428.121 -1.0086 2.04478 0
M  V30 4740 C 429.105 -1.30714 0.938231 0
M  V30 4741 O 430.297 -1.29924 1.20203 0
M  V30 4742 C 427.426 -2.30273 2.54615 0
M  V30 4743 C 426.512 -2.03413 3.72134 0
M  V30 4744 N 426.903 -1.46688 4.84062 0
M  V30 4745 C 425.201 -2.33589 3.79937 0
M  V30 4746 C 425.902 -1.36146 5.65543 0
M  V30 4747 N 424.878 -1.84477 5.1134 0
M  V30 4748 H 428.68 -0.564402 2.8843 0
M  V30 4749 H 426.194 -0.212521 1.61003 0
M  V30 4750 H 428.191 -3.02885 2.86472 0
M  V30 4751 H 426.851 -2.75352 1.72079 0
M  V30 4752 H 427.862 -1.14658 5.05049 0
M  V30 4753 H 424.539 -2.81589 3.08243 0
M  V30 4754 H 425.929 -0.925873 6.6549 0
M  V30 4755 N 428.649 -1.55105 -0.279332 0
M  V30 4756 C 429.581 -1.83952 -1.36727 0
M  V30 4757 C 430.594 -0.723642 -1.45833 0
M  V30 4758 O 431.783 -1.00141 -1.47763 0
M  V30 4759 C 428.883 -1.98183 -2.74912 0
M  V30 4760 C 428.056 -3.28787 -2.88475 0
M  V30 4761 C 427.115 -3.33162 -4.07295 0
M  V30 4762 O 426.141 -4.06576 -3.98353 0
M  V30 4763 N 427.343 -2.60109 -5.18964 0
M  V30 4764 H 430.108 -2.77853 -1.12328 0
M  V30 4765 H 427.669 -1.54945 -0.469442 0
M  V30 4766 H 429.661 -1.98488 -3.52682 0
M  V30 4767 H 428.231 -1.11177 -2.92162 0
M  V30 4768 H 427.451 -3.41075 -1.97641 0
M  V30 4769 H 428.739 -4.14933 -2.94463 0
M  V30 4770 H 428.137 -2.00136 -5.29115 0
M  V30 4771 H 426.694 -2.66143 -5.94988 0
M  V30 4772 N 430.127 0.543554 -1.4793 0
M  V30 4773 C 431.376 1.29649 -1.54512 0
M  V30 4774 C 431.689 1.94382 -0.217973 0
M  V30 4775 O 432.895 2.71017 -0.161908 0
M  V30 4776 C 431.351 2.35175 -2.72435 0
M  V30 4777 C 430.959 1.76572 -4.11736 0
M  V30 4778 C 432.703 3.11564 -2.8832 0
M  V30 4779 C 430.61 2.79958 -5.20939 0
M  V30 4780 H 429.54 0.487541 -0.57517 0
M  V30 4781 H 432.191 0.575708 -1.74235 0
M  V30 4782 H 430.573 3.10229 -2.46118 0
M  V30 4783 H 431.747 1.07799 -4.48013 0
M  V30 4784 H 430.062 1.12722 -4.00852 0
M  V30 4785 H 432.659 3.88794 -3.67074 0
M  V30 4786 H 433.002 3.66594 -1.97268 0
M  V30 4787 H 433.535 2.43623 -3.14472 0
M  V30 4788 H 430.274 2.29766 -6.13912 0
M  V30 4789 H 429.794 3.47101 -4.89164 0
M  V30 4790 H 431.473 3.43198 -5.48474 0
M  V30 4791 N 431.605 1.3629 0.791371 0
M  V30 4792 C 432.854 1.29742 1.54434 0
M  V30 4793 C 433.167 -0.121729 1.95221 0
M  V30 4794 O 434.373 -0.309579 2.69729 0
M  V30 4795 C 432.829 2.27623 2.78776 0
M  V30 4796 C 432.437 3.74963 2.45166 0
M  V30 4797 C 434.181 2.30047 3.56761 0
M  V30 4798 C 432.088 4.64626 3.65891 0
M  V30 4799 H 431.018 0.482113 0.579727 0
M  V30 4800 H 433.669 1.61642 0.868565 0
M  V30 4801 H 432.051 1.88714 3.48142 0
M  V30 4802 H 433.225 4.22596 1.83709 0
M  V30 4803 H 431.54 3.75295 1.80396 0
M  V30 4804 H 434.137 2.94247 4.46456 0
M  V30 4805 H 434.48 1.30846 3.95203 0
M  V30 4806 H 435.013 2.67563 2.94372 0
M  V30 4807 H 431.752 5.64883 3.32547 0
M  V30 4808 H 431.272 4.2171 4.26521 0
M  V30 4809 H 432.951 4.80801 4.32943 0
M  V30 4810 N 433.083 -1.0153 1.20538 0
M  V30 4811 C 434.046 -2.0826 0.957098 0
M  V30 4812 C 435.046 -1.60657 -0.0678655 0
M  V30 4813 O 436.236 -1.73385 0.168332 0
M  V30 4814 C 433.368 -3.38033 0.441188 0
M  V30 4815 H 434.561 -2.31719 1.90384 0
M  V30 4816 H 432.114 -1.1835 1.02093 0
M  V30 4817 H 432.849 -3.20249 -0.510961 0
M  V30 4818 H 432.634 -3.73911 1.18038 0
M  V30 4819 H 434.124 -4.16613 0.287009 0
M  V30 4820 N 434.561 -1.01147 -1.20859 0
M  V30 4821 C 435.789 -0.716911 -1.94082 0
M  V30 4822 C 436.204 0.721568 -1.74467 0
M  V30 4823 O 435.561 1.48889 -1.05539 0
M  V30 4824 C 435.612 -1.03662 -3.46318 0
M  V30 4825 O 435.333 -2.4186 -3.65288 0
M  V30 4826 C 436.834 -0.762386 -4.36695 0
M  V30 4827 H 434.054 -0.26367 -0.617024 0
M  V30 4828 H 436.598 -1.35127 -1.53496 0
M  V30 4829 H 434.753 -0.447757 -3.84804 0
M  V30 4830 H 435.167 -2.53224 -4.59323 0
M  V30 4831 H 436.641 -1.03621 -5.42187 0
M  V30 4832 H 437.118 0.303514 -4.3815 0
M  V30 4833 H 437.724 -1.33316 -4.03865 0
M  V30 4834 N 436.039 1.36541 -0.78704 0
M  V30 4835 C 437.279 2.01138 -0.363714 0
M  V30 4836 C 437.643 1.61114 1.04433 0
M  V30 4837 O 438.844 2.18285 1.56861 0
M  V30 4838 C 437.115 3.53603 -0.519582 0
M  V30 4839 S 438.674 4.38415 -0.183782 0
M  V30 4840 H 435.492 0.697263 -0.13909 0
M  V30 4841 H 438.094 1.66475 -1.02501 0
M  V30 4842 H 436.798 3.8022 -1.5447 0
M  V30 4843 H 436.329 3.93084 0.15773 0
M  V30 4844 H 438.344 4.85698 1.01547 0
M  V30 4845 N 437.518 0.538854 1.48102 0
M  V30 4846 C 438.466 -0.232325 2.31437 0
M  V30 4847 C 439.46 -0.927004 1.41785 0
M  V30 4848 O 440.666 -0.850378 1.58646 0
M  V30 4849 H 437.041 -0.0937916 0.746128 0
M  V30 4850 H 439.012 0.489986 2.9435 0
M  V30 4851 C 437.761 -1.26074 3.24038 0
M  V30 4852 H 437.084 -0.735609 3.92974 0
M  V30 4853 H 438.524 -1.77157 3.85216 0
M  V30 4854 C 436.983 -2.29902 2.46265 0
M  V30 4855 O 437.513 -3.36502 2.19384 0
M  V30 4856 N 435.719 -2.03348 2.07601 0
M  V30 4857 H 435.266 -1.16675 2.29662 0
M  V30 4858 H 435.224 -2.73038 1.55877 0
M  V30 4859 N 438.996 -1.55193 0.274407 0
M  V30 4860 C 439.946 -2.19184 -0.627882 0
M  V30 4861 C 440.93 -1.15625 -1.11892 0
M  V30 4862 O 442.122 -1.41441 -1.06411 0
M  V30 4863 C 439.251 -2.91591 -1.81189 0
M  V30 4864 C 438.337 -4.02438 -1.33807 0
M  V30 4865 N 438.728 -5.0246 -0.580349 0
M  V30 4866 C 437.026 -4.15496 -1.62109 0
M  V30 4867 C 437.727 -5.80756 -0.331344 0
M  V30 4868 N 436.703 -5.36038 -0.903556 0
M  V30 4869 H 440.505 -2.93871 -0.0411216 0
M  V30 4870 H 438.019 -1.62213 0.0779348 0
M  V30 4871 H 440.016 -3.35883 -2.46957 0
M  V30 4872 H 438.676 -2.18414 -2.40261 0
M  V30 4873 H 439.687 -5.17399 -0.227762 0
M  V30 4874 H 436.364 -3.53509 -2.22121 0
M  V30 4875 H 437.754 -6.71335 0.275454 0
M  V30 4876 N 440.474 -0.00167713 -1.576 0
M  V30 4877 C 441.422 1.0074 -2.09652 0
M  V30 4878 C 442.416 1.35483 -1.01689 0
M  V30 4879 O 443.622 1.34028 -1.20152 0
M  V30 4880 H 439.997 0.342537 -0.669457 0
M  V30 4881 H 441.968 0.542841 -2.93421 0
M  V30 4882 C 440.717 2.2899 -2.61647 0
M  V30 4883 H 440.04 2.03124 -3.44355 0
M  V30 4884 H 441.48 2.9787 -3.01744 0
M  V30 4885 C 439.939 3.00085 -1.53136 0
M  V30 4886 O 440.469 3.91135 -0.91524 0
M  V30 4887 N 438.675 2.6194 -1.25841 0
M  V30 4888 H 438.222 1.8798 -1.76129 0
M  V30 4889 H 438.18 3.09822 -0.534576 0
M  V30 4890 N 441.952 1.55251 0.271103 0
M  V30 4891 C 442.882 1.9127 1.33933 0
M  V30 4892 C 443.863 0.77478 1.5143 0
M  V30 4893 O 445.048 1.03307 1.64442 0
M  V30 4894 C 442.178 2.18627 2.69851 0
M  V30 4895 C 441.132 3.34442 2.67081 0
M  V30 4896 C 440.458 3.47284 4.06569 0
M  V30 4897 C 441.758 4.70784 2.26185 0
M  V30 4898 H 443.452 2.80744 1.04035 0
M  V30 4899 H 440.998 1.35077 0.499017 0
M  V30 4900 H 442.951 2.42413 3.44694 0
M  V30 4901 H 441.675 1.25955 3.01335 0
M  V30 4902 H 440.334 3.10627 1.94695 0
M  V30 4903 H 439.982 2.52074 4.35279 0
M  V30 4904 H 439.682 4.25152 4.0561 0
M  V30 4905 H 441.206 3.73363 4.83148 0
M  V30 4906 H 442.62 4.94102 2.90751 0
M  V30 4907 H 441.017 5.51582 2.36384 0
M  V30 4908 H 442.087 4.69478 1.21319 0
M  V30 4909 N 443.43 -0.535701 1.48216 0
M  V30 4910 C 444.36 -1.65014 1.65204 0
M  V30 4911 C 445.341 -1.62554 0.501011 0
M  V30 4912 O 446.526 -1.7984 0.732886 0
M  V30 4913 C 443.656 -3.03616 1.68626 0
M  V30 4914 C 442.61 -3.20932 2.83172 0
M  V30 4915 C 441.936 -4.60537 2.71679 0
M  V30 4916 C 443.236 -3.04249 4.24535 0
M  V30 4917 H 444.93 -1.51053 2.58502 0
M  V30 4918 H 442.476 -0.725262 1.24402 0
M  V30 4919 H 444.429 -3.81446 1.79099 0
M  V30 4920 H 443.153 -3.18587 0.719026 0
M  V30 4921 H 441.812 -2.45517 2.72244 0
M  V30 4922 H 441.46 -4.72336 1.72937 0
M  V30 4923 H 441.16 -4.73069 3.48538 0
M  V30 4924 H 442.684 -5.40475 2.84112 0
M  V30 4925 H 444.098 -3.71877 4.36326 0
M  V30 4926 H 442.495 -3.28278 5.02348 0
M  V30 4927 H 443.565 -2.00739 4.41397 0
M  V30 4928 N 444.908 -1.36708 -0.784132 0
M  V30 4929 C 446.155 -1.31231 -1.54222 0
M  V30 4930 C 446.483 0.106864 -1.94206 0
M  V30 4931 O 445.738 1.07734 -1.63376 0
M  V30 4932 C 446.037 -2.18571 -2.82774 0
M  V30 4933 C 445.703 -3.67039 -2.61903 0
M  V30 4934 C 444.365 -4.07503 -2.55919 0
M  V30 4935 C 446.717 -4.61149 -2.4288 0
M  V30 4936 C 444.045 -5.40211 -2.28886 0
M  V30 4937 C 446.397 -5.94081 -2.17373 0
M  V30 4938 C 445.061 -6.33664 -2.09825 0
M  V30 4939 H 444.331 -0.48021 -0.56434 0
M  V30 4940 H 446.978 -1.68807 -0.904233 0
M  V30 4941 H 445.283 -1.73949 -3.51068 0
M  V30 4942 H 446.98 -2.11655 -3.40592 0
M  V30 4943 H 443.57 -3.34941 -2.67418 0
M  V30 4944 H 447.754 -4.30756 -2.46501 0
M  V30 4945 H 443.01 -5.69855 -2.21529 0
M  V30 4946 H 447.184 -6.66566 -2.01649 0
M  V30 4947 H 444.811 -7.36423 -1.88641 0
M  V30 4948 N 446.386 1.0089 -1.21074 0
M  V30 4949 C 447.316 2.1145 -0.990523 0
M  V30 4950 C 448.297 1.69897 0.0831699 0
M  V30 4951 O 449.482 1.94052 -0.0758853 0
M  V30 4952 C 446.612 3.42914 -0.550177 0
M  V30 4953 C 445.566 3.98244 -1.56799 0
M  V30 4954 C 444.892 5.25568 -0.984013 0
M  V30 4955 C 446.192 4.30752 -2.95381 0
M  V30 4956 H 447.886 2.3013 -1.91521 0
M  V30 4957 H 445.432 1.10592 -0.92225 0
M  V30 4958 H 447.385 4.19653 -0.383305 0
M  V30 4959 H 446.109 3.24014 0.41015 0
M  V30 4960 H 444.768 3.23621 -1.72236 0
M  V30 4961 H 444.416 5.02998 -0.0155216 0
M  V30 4962 H 444.116 5.63551 -1.66384 0
M  V30 4963 H 445.64 6.04955 -0.828378 0
M  V30 4964 H 447.054 4.98349 -2.8341 0
M  V30 4965 H 445.451 4.79869 -3.60341 0
M  V30 4966 H 446.521 3.39192 -3.46521 0
M  V30 4967 N 447.864 1.01787 1.20321 0
M  V30 4968 C 448.794 0.609625 2.25401 0
M  V30 4969 C 449.775 -0.375951 1.65893 0
M  V30 4970 O 450.96 -0.261101 1.92437 0
M  V30 4971 C 448.09 -0.0515995 3.47262 0
M  V30 4972 C 447.044 0.855095 4.19371 0
M  V30 4973 C 446.37 0.0595757 5.34667 0
M  V30 4974 C 447.67 2.16374 4.75373 0
M  V30 4975 H 449.364 1.48803 2.59804 0
M  V30 4976 H 446.91 0.716934 1.24884 0
M  V30 4977 H 448.863 -0.348764 4.19954 0
M  V30 4978 H 447.587 -0.964726 3.12027 0
M  V30 4979 H 446.246 1.13628 3.48546 0
M  V30 4980 H 445.894 -0.85524 4.95676 0
M  V30 4981 H 445.594 0.663406 5.83843 0
M  V30 4982 H 447.118 -0.231105 6.10162 0
M  V30 4983 H 448.532 1.92885 5.39878 0
M  V30 4984 H 446.929 2.71853 5.34991 0
M  V30 4985 H 447.999 2.82589 3.94045 0
M  V30 4986 N 449.342 -1.36122 0.79427 0
M  V30 4987 C 450.582 -2.00942 0.374376 0
M  V30 4988 C 450.946 -1.61666 -1.03577 0
M  V30 4989 O 452.147 -2.19113 -1.55701 0
M  V30 4990 C 450.418 -3.53323 0.538327 0
M  V30 4991 S 451.977 -4.38311 0.20703 0
M  V30 4992 H 448.795 -0.696515 0.142785 0
M  V30 4993 H 451.397 -1.65929 1.03382 0
M  V30 4994 H 450.101 -3.79395 1.56484 0
M  V30 4995 H 449.632 -3.93162 -0.136882 0
M  V30 4996 H 451.647 -4.8623 -0.989695 0
M  V30 4997 N 450.82 -0.546701 -1.47814 0
M  V30 4998 C 451.77 0.227042 -2.26867 0
M  V30 4999 C 452.754 0.894844 -1.33721 0
M  V30 5000 O 453.946 0.794887 -1.58147 0
M  V30 5001 C 451.075 1.26299 -3.19223 0
M  V30 5002 C 450.161 0.59913 -4.19847 0
M  V30 5003 N 450.552 -0.324777 -5.04756 0
M  V30 5004 C 448.85 0.854331 -4.37741 0
M  V30 5005 C 449.551 -0.709386 -5.77358 0
M  V30 5006 N 448.527 -0.0666153 -5.43559 0
M  V30 5007 H 452.329 -0.483476 -2.89896 0
M  V30 5008 H 449.843 -0.365893 -1.58224 0
M  V30 5009 H 451.84 1.83116 -3.74532 0
M  V30 5010 H 450.5 1.97471 -2.57751 0
M  V30 5011 H 451.511 -0.698351 -5.1317 0
M  V30 5012 H 448.188 1.55536 -3.87447 0
M  V30 5013 H 449.578 -1.46796 -6.55668 0
M  V30 5014 N 452.299 1.55045 -0.282633 0
M  V30 5015 C 453.229 2.2579 0.595066 0
M  V30 5016 C 454.21 1.25074 1.15284 0
M  V30 5017 O 455.395 1.5381 1.18559 0
M  V30 5018 C 452.525 2.98472 1.77572 0
M  V30 5019 C 451.479 4.0618 1.34914 0
M  V30 5020 C 450.805 4.66477 2.6135 0
M  V30 5021 C 452.105 5.1996 0.493821 0
M  V30 5022 H 453.799 2.994 0.00505653 0
M  V30 5023 H 451.345 1.44 0.000992001 0
M  V30 5024 H 453.298 3.46677 2.39568 0
M  V30 5025 H 452.022 2.2241 2.39168 0
M  V30 5026 H 450.681 3.58797 0.752338 0
M  V30 5027 H 450.329 3.87074 3.2122 0
M  V30 5028 H 450.029 5.39207 2.33516 0
M  V30 5029 H 451.553 5.17435 3.24181 0
M  V30 5030 H 452.967 5.64172 1.01898 0
M  V30 5031 H 451.364 5.99299 0.310047 0
M  V30 5032 H 452.434 4.82462 -0.485593 0
M  V30 5033 N 453.777 0.010035 1.57597 0
M  V30 5034 C 455.005 -0.683413 1.95287 0
M  V30 5035 C 455.42 -1.66747 0.885481 0
M  V30 5036 O 454.777 -1.82003 -0.134629 0
M  V30 5037 C 454.828 -1.40652 3.33015 0
M  V30 5038 O 454.549 -0.461916 4.35658 0
M  V30 5039 C 456.05 -2.19356 3.85225 0
M  V30 5040 H 453.27 -0.189708 0.643624 0
M  V30 5041 H 455.814 0.0641359 2.04399 0
M  V30 5042 H 453.969 -2.10562 3.2518 0
M  V30 5043 H 454.383 -0.973215 5.15392 0
M  V30 5044 H 455.857 -2.65433 4.83993 0
M  V30 5045 H 456.334 -3.02457 3.18459 0
M  V30 5046 H 456.94 -1.54442 3.96267 0
M  V30 5047 N 455.255 -1.55392 -0.262866 0
M  V30 5048 C 456.218 -1.88181 -1.30846 0
M  V30 5049 C 457.218 -0.757079 -1.41862 0
M  V30 5050 O 458.408 -1.02519 -1.40838 0
M  V30 5051 C 455.54 -2.09609 -2.68844 0
M  V30 5052 H 456.733 -2.81659 -1.02997 0
M  V30 5053 H 454.286 -1.48039 -0.501414 0
M  V30 5054 H 455.021 -1.18547 -3.01856 0
M  V30 5055 H 454.806 -2.91508 -2.62231 0
M  V30 5056 H 456.296 -2.36215 -3.44372 0
M  V30 5057 N 456.733 0.527833 -1.48498 0
M  V30 5058 C 457.666 1.64892 -1.57753 0
M  V30 5059 C 458.644 1.5687 -0.427867 0
M  V30 5060 O 459.828 1.77311 -0.639764 0
M  V30 5061 C 456.955 3.03301 -1.50752 0
M  V30 5062 C 456.001 3.29675 -2.70586 0
M  V30 5063 S 456.834 3.15712 -4.32535 0
M  V30 5064 C 457.99 4.56564 -4.28136 0
M  V30 5065 H 458.223 1.56792 -2.52594 0
M  V30 5066 H 455.756 0.710959 -1.37057 0
M  V30 5067 H 457.714 3.83123 -1.474 0
M  V30 5068 H 456.375 3.08839 -0.572454 0
M  V30 5069 H 455.568 4.3065 -2.61833 0
M  V30 5070 H 455.17 2.57526 -2.71212 0
M  V30 5071 H 457.462 5.48126 -3.98201 0
M  V30 5072 H 458.405 4.70371 -5.29298 0
M  V30 5073 H 458.813 4.35987 -3.58574 0
M  V30 5074 N 458.211 1.37122 0.776871 0
M  V30 5075 C 459.46 1.31373 1.53049 0
M  V30 5076 C 459.773 -0.101016 1.95339 0
M  V30 5077 O 460.979 -0.280953 2.70042 0
M  V30 5078 C 459.435 2.30567 2.76346 0
M  V30 5079 C 459.043 3.77543 2.41175 0
M  V30 5080 C 460.787 2.33818 3.54301 0
M  V30 5081 C 458.694 4.68481 3.60943 0
M  V30 5082 H 457.624 0.488234 0.574581 0
M  V30 5083 H 460.275 1.62554 0.851372 0
M  V30 5084 H 458.657 1.92396 3.46121 0
M  V30 5085 H 459.831 4.24521 1.79216 0
M  V30 5086 H 458.146 3.77187 1.76405 0
M  V30 5087 H 460.743 2.98965 4.4331 0
M  V30 5088 H 461.086 1.3503 3.93793 0
M  V30 5089 H 461.619 2.7067 2.91518 0
M  V30 5090 H 458.358 5.68378 3.26537 0
M  V30 5091 H 457.878 4.2621 4.22025 0
M  V30 5092 H 459.557 4.85366 4.27819 0
M  V30 5093 N 459.689 -1.00246 1.21608 0
M  V30 5094 C 460.914 -1.78167 1.06167 0
M  V30 5095 C 461.339 -1.84138 -0.384035 0
M  V30 5096 O 460.697 -1.28683 -1.27712 0
M  V30 5097 C 460.745 -3.19786 1.66642 0
M  V30 5098 O 459.849 -4.02153 0.913613 0
M  V30 5099 H 459.19 -0.549 0.37349 0
M  V30 5100 H 461.72 -1.25994 1.61204 0
M  V30 5101 H 461.73 -3.70451 1.70969 0
M  V30 5102 H 460.405 -3.14754 2.7185 0
M  V30 5103 H 458.982 -3.60711 0.945635 0
M  V30 5104 N 461.167 -1.02423 -1.1978 0
M  V30 5105 C 462.395 -0.737456 -1.93311 0
M  V30 5106 C 462.81 0.703023 -1.75223 0
M  V30 5107 O 462.167 1.47761 -1.07112 0
M  V30 5108 C 462.218 -1.0733 -3.45199 0
M  V30 5109 O 461.939 -2.4572 -3.62702 0
M  V30 5110 C 463.44 -0.80866 -4.35862 0
M  V30 5111 H 460.66 -0.2702 -0.614193 0
M  V30 5112 H 463.204 -1.36747 -1.52054 0
M  V30 5113 H 461.359 -0.488545 -3.84307 0
M  V30 5114 H 461.773 -2.58081 -4.56612 0
M  V30 5115 H 463.247 -1.09365 -5.41057 0
M  V30 5116 H 463.724 0.257025 -4.38447 0
M  V30 5117 H 464.33 -1.37592 -4.02428 0
M  V30 5118 N 462.645 1.35699 -0.801477 0
M  V30 5119 C 463.885 2.00741 -0.385027 0
M  V30 5120 C 464.249 1.62213 1.02718 0
M  V30 5121 O 465.45 2.19936 1.54537 0
M  V30 5122 C 463.721 3.53032 -0.557057 0
M  V30 5123 S 465.28 4.38195 -0.230272 0
M  V30 5124 H 462.098 0.695748 -0.146477 0
M  V30 5125 H 464.7 1.65378 -1.04261 0
M  V30 5126 H 463.404 3.7856 -1.58494 0
M  V30 5127 H 462.935 3.93229 0.116029 0
M  V30 5128 H 464.95 4.86748 0.963895 0
M  V30 5129 N 464.123 0.554532 1.47522 0
M  V30 5130 C 465.369 0.0295227 2.02779 0
M  V30 5131 C 465.702 -1.31582 1.42828 0
M  V30 5132 O 464.977 -1.85561 0.582872 0
M  V30 5133 C 465.26 -0.0664057 3.60039 0
M  V30 5134 C 465.113 1.30585 4.30427 0
M  V30 5135 C 466.432 -0.781162 4.33112 0
M  V30 5136 H 463.551 0.0122027 0.736899 0
M  V30 5137 H 466.193 0.716305 1.7598 0
M  V30 5138 H 464.343 -0.651307 3.83002 0
M  V30 5139 H 466.015 1.93374 4.18813 0
M  V30 5140 H 464.258 1.88125 3.90886 0
M  V30 5141 H 464.929 1.19147 5.38988 0
M  V30 5142 H 467.405 -0.284565 4.15126 0
M  V30 5143 H 466.281 -0.817237 5.42782 0
M  V30 5144 H 466.542 -1.83672 4.0214 0
M  V30 5145 N 465.601 -1.54893 0.290851 0
M  V30 5146 C 466.549 -2.24579 -0.605576 0
M  V30 5147 C 467.543 -1.24824 -1.14522 0
M  V30 5148 O 468.749 -1.42706 -1.09704 0
M  V30 5149 H 465.124 -0.720946 -0.213872 0
M  V30 5150 H 467.095 -2.984 0.0048173 0
M  V30 5151 C 465.844 -2.99224 -1.77088 0
M  V30 5152 H 465.167 -3.75782 -1.36484 0
M  V30 5153 H 466.607 -3.51281 -2.3744 0
M  V30 5154 C 465.066 -2.05602 -2.66888 0
M  V30 5155 O 465.596 -1.61745 -3.67698 0
M  V30 5156 N 463.802 -1.71771 -2.34399 0
M  V30 5157 H 463.349 -2.07633 -1.52468 0
M  V30 5158 H 463.307 -1.09403 -2.94751 0
M  V30 5159 N 467.08 -0.0183926 -1.57589 0
M  V30 5160 C 468.491 0.521927 -1.79256 0
M  V30 5161 C 468.842 1.72885 -0.927636 0
M  V30 5162 O 467.967 2.15978 -0.135091 0
M  V30 5163 C 468.562 0.953632 -3.25102 0
M  V30 5164 C 467.121 1.43913 -3.47801 0
M  V30 5165 C 466.268 0.398837 -2.74417 0
M  V30 5166 H 469.219 -0.244485 -1.56805 0
M  V30 5167 H 469.24 1.81863 -3.34224 0
M  V30 5168 H 468.752 0.0750123 -3.88028 0
M  V30 5169 H 466.853 2.33804 -2.90115 0
M  V30 5170 H 466.966 1.45391 -4.56507 0
M  V30 5171 H 465.33 0.864572 -2.39577 0
M  V30 5172 H 466.113 -0.471132 -3.40052 0
M  V30 5173 N 468.558 1.5553 0.254621 0
M  V30 5174 C 469.807 1.76202 0.981612 0
M  V30 5175 C 470.12 0.580883 1.86776 0
M  V30 5176 O 471.326 0.670448 2.63092 0
M  V30 5177 C 469.782 3.11921 1.79537 0
M  V30 5178 C 469.39 4.37659 0.956991 0
M  V30 5179 C 471.134 3.41936 2.51555 0
M  V30 5180 C 469.041 5.64411 1.76619 0
M  V30 5181 H 467.971 0.656841 0.370237 0
M  V30 5182 H 470.622 1.81969 0.236556 0
M  V30 5183 H 469.004 3.00241 2.58208 0
M  V30 5184 H 470.178 4.60307 0.21315 0
M  V30 5185 H 468.493 4.14922 0.350497 0
M  V30 5186 H 471.09 4.33849 3.12536 0
M  V30 5187 H 471.433 2.62905 3.22779 0
M  V30 5188 H 471.966 3.54797 1.799 0
M  V30 5189 H 468.705 6.46241 1.09783 0
M  V30 5190 H 468.225 5.45877 2.48551 0
M  V30 5191 H 469.904 6.03386 2.33527 0
M  V30 5192 N 470.036 -0.519951 1.48776 0
M  V30 5193 C 471.283 -1.27522 1.57303 0
M  V30 5194 C 471.611 -1.92869 0.251328 0
M  V30 5195 O 470.866 -1.80372 -0.759243 0
M  V30 5196 C 471.165 -2.37864 2.6675 0
M  V30 5197 C 470.831 -1.90103 4.08867 0
M  V30 5198 C 469.493 -1.76795 4.47546 0
M  V30 5199 C 471.845 -1.54133 4.97888 0
M  V30 5200 C 469.173 -1.25868 5.73039 0
M  V30 5201 C 471.525 -1.04665 6.23881 0
M  V30 5202 C 470.189 -0.899823 6.61407 0
M  V30 5203 H 469.459 -0.466636 0.575614 0
M  V30 5204 H 472.106 -0.579109 1.82534 0
M  V30 5205 H 470.411 -3.13186 2.35418 0
M  V30 5206 H 472.108 -2.95969 2.70561 0
M  V30 5207 H 468.698 -2.01414 3.78326 0
M  V30 5208 H 472.882 -1.6327 4.68675 0
M  V30 5209 H 468.138 -1.13196 6.0083 0
M  V30 5210 H 472.312 -0.759074 6.92251 0
M  V30 5211 H 469.939 -0.503011 7.58534 0
M  V30 5212 N 471.514 -1.37532 -0.769588 0
M  V30 5213 C 472.744 -1.35861 -1.55645 0
M  V30 5214 C 473.152 0.0574398 -1.89113 0
M  V30 5215 O 472.495 1.03021 -1.52093 0
M  V30 5216 C 472.557 -2.13431 -2.89288 0
M  V30 5217 C 472.221 -3.62378 -2.78444 0
M  V30 5218 C 473.218 -4.56215 -2.49326 0
M  V30 5219 C 470.903 -4.05529 -2.96398 0
M  V30 5220 C 472.897 -5.91181 -2.38294 0
M  V30 5221 C 470.584 -5.40579 -2.84987 0
M  V30 5222 C 471.582 -6.33218 -2.55975 0
M  V30 5223 O 471.27 -7.65787 -2.44594 0
M  V30 5224 H 471.002 -0.467001 -0.48876 0
M  V30 5225 H 473.556 -1.81505 -0.961515 0
M  V30 5226 H 471.786 -1.62481 -3.50909 0
M  V30 5227 H 473.475 -2.04368 -3.50697 0
M  V30 5228 H 474.241 -4.24187 -2.35139 0
M  V30 5229 H 470.12 -3.33781 -3.1798 0
M  V30 5230 H 473.664 -6.63457 -2.15571 0
M  V30 5231 H 469.561 -5.72209 -2.98743 0
M  V30 5232 H 470.329 -7.76132 -2.59927 0
M  V30 5233 N 472.992 0.995999 -1.22138 0
M  V30 5234 C 474.24 1.73167 -1.042 0
M  V30 5235 C 474.561 1.90329 0.42423 0
M  V30 5236 O 473.831 1.4607 1.30539 0
M  V30 5237 H 472.411 0.641593 -0.38258 0
M  V30 5238 H 475.073 1.19974 -1.53598 0
M  V30 5239 H 474.169 2.72734 -1.51731 0
M  V30 5240 N 474.47 1.03057 1.19235 0
M  V30 5241 C 475.717 0.728019 1.88961 0
M  V30 5242 C 476.045 -0.743515 1.79728 0
M  V30 5243 O 475.3 -1.55729 1.1852 0
M  V30 5244 C 475.599 1.1268 3.39172 0
M  V30 5245 C 475.265 2.5969 3.68608 0
M  V30 5246 C 473.927 2.99854 3.76352 0
M  V30 5247 C 476.279 3.54793 3.81801 0
M  V30 5248 C 473.607 4.34031 3.94758 0
M  V30 5249 C 475.959 4.88675 4.0172 0
M  V30 5250 C 474.623 5.28526 4.07697 0
M  V30 5251 H 473.893 0.266401 0.691456 0
M  V30 5252 H 476.54 1.29373 1.41191 0
M  V30 5253 H 474.845 0.479722 3.88852 0
M  V30 5254 H 476.542 0.870203 3.91444 0
M  V30 5255 H 473.132 2.27575 3.63191 0
M  V30 5256 H 477.316 3.24914 3.7516 0
M  V30 5257 H 472.572 4.6444 3.97625 0
M  V30 5258 H 476.746 5.6228 4.1087 0
M  V30 5259 H 474.373 6.32506 4.21712 0
M  V30 5260 N 475.948 -1.35272 0.808662 0
M  V30 5261 C 476.878 -2.32315 0.234981 0
M  V30 5262 C 477.859 -1.57572 -0.64071 0
M  V30 5263 O 479.044 -1.8563 -0.570551 0
M  V30 5264 C 476.174 -3.41801 -0.615601 0
M  V30 5265 C 475.128 -4.27694 0.161767 0
M  V30 5266 C 474.454 -5.28519 -0.810649 0
M  V30 5267 C 475.754 -5.04231 1.36193 0
M  V30 5268 H 477.448 -2.80543 1.04575 0
M  V30 5269 H 474.994 -1.3488 0.504315 0
M  V30 5270 H 476.947 -4.08693 -1.02702 0
M  V30 5271 H 475.671 -2.92186 -1.45928 0
M  V30 5272 H 474.33 -3.62384 0.554382 0
M  V30 5273 H 473.978 -4.75171 -1.64988 0
M  V30 5274 H 473.678 -5.8686 -0.294822 0
M  V30 5275 H 475.202 -5.98283 -1.22023 0
M  V30 5276 H 476.616 -5.64058 1.02528 0
M  V30 5277 H 475.013 -5.72077 1.81239 0
M  V30 5278 H 476.083 -4.34753 2.14751 0
M  V30 5279 N 477.426 -0.562348 -1.47226 0
M  V30 5280 C 478.374 0.195476 -2.31777 0
M  V30 5281 C 479.368 0.90433 -1.43242 0
M  V30 5282 O 480.574 0.825031 -1.59979 0
M  V30 5283 H 476.949 0.0819095 -0.747526 0
M  V30 5284 H 478.92 -0.536753 -2.93533 0
M  V30 5285 C 477.669 1.20902 -3.26003 0
M  V30 5286 H 476.992 0.672997 -3.94095 0
M  V30 5287 H 478.432 1.71006 -3.87986 0
M  V30 5288 C 476.891 2.25955 -2.49891 0
M  V30 5289 O 477.421 3.32969 -2.2471 0
M  V30 5290 N 475.627 2.00019 -2.1081 0
M  V30 5291 H 475.174 1.13006 -2.31489 0
M  V30 5292 H 475.132 2.70523 -1.60201 0
M  V30 5293 N 478.904 1.54736 -0.299062 0
M  V30 5294 C 479.851 2.23448 0.577899 0
M  V30 5295 C 480.821 1.21637 1.13109 0
M  V30 5296 O 482.006 1.50252 1.17597 0
M  V30 5297 C 479.146 2.9774 1.74484 0
M  V30 5298 C 478.259 4.1432 1.22323 0
M  V30 5299 C 477.394 4.76199 2.35388 0
M  V30 5300 C 476.433 5.84927 1.80351 0
M  V30 5301 N 475.57 6.4077 2.86982 0
M  V30 5302 H 480.41 2.97996 -0.0146545 0
M  V30 5303 H 477.947 1.47088 -0.0190013 0
M  V30 5304 H 479.905 3.39045 2.43114 0
M  V30 5305 H 478.535 2.25572 2.30905 0
M  V30 5306 H 477.587 3.7797 0.429249 0
M  V30 5307 H 478.899 4.92659 0.780309 0
M  V30 5308 H 478.053 5.20346 3.11969 0
M  V30 5309 H 476.792 3.97188 2.83006 0
M  V30 5310 H 475.797 5.40207 1.02259 0
M  V30 5311 H 477.022 6.65821 1.3364 0
M  V30 5312 H 474.968 5.64643 3.33938 0
M  V30 5313 H 474.885 7.1445 2.4718 0
M  V30 5314 H 476.153 6.89574 3.63466 0
M  V30 5315 N 480.382 0.0267497 1.57577 0
M  V30 5316 C 481.33 -0.973923 2.11229 0
M  V30 5317 C 482.324 -1.33849 1.03831 0
M  V30 5318 O 483.53 -1.321 1.22269 0
M  V30 5319 H 479.905 -0.331844 0.674821 0
M  V30 5320 H 481.876 -0.496092 2.94247 0
M  V30 5321 C 480.625 -2.24798 2.65257 0
M  V30 5322 H 479.948 -1.9762 3.47543 0
M  V30 5323 H 481.388 -2.93031 3.06445 0
M  V30 5324 C 479.847 -2.97611 1.57891 0
M  V30 5325 O 480.377 -3.89629 0.97735 0
M  V30 5326 N 478.583 -2.59905 1.29992 0
M  V30 5327 H 478.13 -1.85154 1.79097 0
M  V30 5328 H 478.088 -3.08932 0.583798 0
M  V30 5329 N 481.861 -1.55662 -0.24637 0
M  V30 5330 C 483.108 -1.77519 -0.974335 0
M  V30 5331 C 483.436 -0.591165 -1.85298 0
M  V30 5332 O 482.691 0.425497 -1.91018 0
M  V30 5333 C 482.99 -3.04885 -1.86494 0
M  V30 5334 C 482.656 -4.36209 -1.14161 0
M  V30 5335 C 481.318 -4.71896 -0.941701 0
M  V30 5336 C 483.67 -5.17391 -0.628957 0
M  V30 5337 C 480.998 -5.86299 -0.216852 0
M  V30 5338 C 483.35 -6.32546 0.0824273 0
M  V30 5339 C 482.014 -6.66853 0.293807 0
M  V30 5340 H 481.284 -0.649588 -0.356535 0
M  V30 5341 H 483.931 -1.89934 -0.244394 0
M  V30 5342 H 482.236 -2.87484 -2.66196 0
M  V30 5343 H 483.933 -3.18994 -2.42989 0
M  V30 5344 H 480.523 -4.08174 -1.30736 0
M  V30 5345 H 484.707 -4.90276 -0.770943 0
M  V30 5346 H 479.963 -6.11385 -0.0426124 0
M  V30 5347 H 484.137 -6.94693 0.487292 0
M  V30 5348 H 481.764 -7.55349 0.857428 0
M  V30 5349 N 483.339 0.512053 -1.4905 0
M  V30 5350 C 484.271 1.63121 -1.6101 0
M  V30 5351 C 485.284 1.55145 -0.493352 0
M  V30 5352 O 486.473 1.61278 -0.764955 0
M  V30 5353 C 483.573 3.01863 -1.54052 0
M  V30 5354 C 482.746 3.35138 -2.81072 0
M  V30 5355 C 481.805 4.5324 -2.67319 0
M  V30 5356 O 480.831 4.55571 -3.41238 0
M  V30 5357 N 482.033 5.52495 -1.78127 0
M  V30 5358 H 484.798 1.53292 -2.5753 0
M  V30 5359 H 482.359 0.699706 -1.45999 0
M  V30 5360 H 484.351 3.78774 -1.42521 0
M  V30 5361 H 482.921 3.05675 -0.654345 0
M  V30 5362 H 482.141 2.4723 -3.07036 0
M  V30 5363 H 483.429 3.54162 -3.65304 0
M  V30 5364 H 482.827 5.53403 -1.17308 0
M  V30 5365 H 481.384 6.28553 -1.72525 0
M  V30 5366 N 484.817 1.37938 0.762283 0
M  V30 5367 C 486.233 1.18945 1.06415 0
M  V30 5368 C 486.433 0.0321163 2.01474 0
M  V30 5369 O 485.489 -0.624844 2.44647 0
M  V30 5370 C 486.802 2.51218 1.65258 0
M  V30 5371 C 488.35 2.57824 1.7747 0
M  V30 5372 C 488.825 3.90251 2.39725 0
M  V30 5373 N 490.316 3.91744 2.47166 0
M  V30 5374 C 491.051 4.90966 2.96209 0
M  V30 5375 N 490.547 6.00585 3.45354 0
M  V30 5376 N 492.34 4.78363 2.9517 0
M  V30 5377 H 484.491 2.11994 0.131301 0
M  V30 5378 H 486.754 0.940262 0.120879 0
M  V30 5379 H 486.46 3.36317 1.02878 0
M  V30 5380 H 486.334 2.68989 2.64433 0
M  V30 5381 H 488.721 1.73126 2.3898 0
M  V30 5382 H 488.802 2.43928 0.770241 0
M  V30 5383 H 488.446 4.75368 1.78852 0
M  V30 5384 H 488.376 4.01454 3.40796 0
M  V30 5385 H 490.867 3.12563 2.12397 0
M  V30 5386 H 491.18 6.72236 3.81207 0
M  V30 5387 H 489.525 6.04217 3.43434 0
M  V30 5388 H 492.716 3.91841 2.56082 0
M  V30 5389 H 492.889 5.55843 3.33081 0
M  V30 5390 N 486.295 -0.989507 1.22664 0
M  V30 5391 C 487.572 -1.70326 0.961688 0
M  V30 5392 C 487.952 -2.04537 -0.522279 0
M  V30 5393 O 487.3 -1.73136 -1.49118 0
M  V30 5394 C 487.51 -2.95135 1.86269 0
M  V30 5395 C 488.858 -3.67842 2.12078 0
M  V30 5396 O 489.882 -3.0515 1.83745 0
M  V30 5397 O 488.741 -4.80644 2.60083 0
M  V30 5398 H 485.835 -0.743589 0.361946 0
M  V30 5399 H 488.381 -1.04555 1.33665 0
M  V30 5400 H 487.153 -2.66382 2.8663 0
M  V30 5401 H 486.776 -3.68645 1.48952 0
M  V30 5402 N 487.773 -1.03688 -1.18687 0
M  V30 5403 C 488.703 -0.645407 -2.24403 0
M  V30 5404 C 489.684 0.349511 -1.66471 0
M  V30 5405 O 490.869 0.230453 -1.92828 0
M  V30 5406 C 487.999 -0.00365337 -3.473 0
M  V30 5407 C 486.953 -0.921705 -4.17958 0
M  V30 5408 C 486.279 -0.144629 -5.34504 0
M  V30 5409 C 487.579 -2.23909 -4.71871 0
M  V30 5410 H 489.273 -1.52917 -2.57404 0
M  V30 5411 H 486.819 -0.736711 -1.23728 0
M  V30 5412 H 488.772 0.281908 -4.20456 0
M  V30 5413 H 487.496 0.914963 -3.13522 0
M  V30 5414 H 486.155 -1.19159 -3.46694 0
M  V30 5415 H 485.803 0.776274 -4.96974 0
M  V30 5416 H 485.503 -0.756206 -5.82714 0
M  V30 5417 H 487.027 0.134004 -6.10453 0
M  V30 5418 H 488.441 -2.0145 -5.36741 0
M  V30 5419 H 486.838 -2.8033 -5.30599 0
M  V30 5420 H 487.908 -2.88822 -3.895 0
M  V30 5421 N 489.251 1.34841 -0.815825 0
M  V30 5422 C 490.183 2.28409 -0.190265 0
M  V30 5423 C 491.196 1.50705 0.615771 0
M  V30 5424 O 492.385 1.72822 0.446616 0
M  V30 5425 C 489.485 3.30441 0.752446 0
M  V30 5426 C 488.658 4.37399 -0.00922152 0
M  V30 5427 C 487.717 5.19234 0.853351 0
M  V30 5428 O 486.743 5.68404 0.300919 0
M  V30 5429 N 487.945 5.38248 2.17416 0
M  V30 5430 H 490.71 2.82732 -0.994114 0
M  V30 5431 H 488.271 1.47289 -0.672129 0
M  V30 5432 H 490.263 3.82084 1.33394 0
M  V30 5433 H 488.833 2.76565 1.45707 0
M  V30 5434 H 488.053 3.86567 -0.771979 0
M  V30 5435 H 489.341 5.05992 -0.533807 0
M  V30 5436 H 488.739 4.99961 2.6468 0
M  V30 5437 H 487.296 5.93035 2.70467 0
M  V30 5438 N 490.729 0.570148 1.46925 0
M  V30 5439 C 491.976 0.0509529 2.02436 0
M  V30 5440 C 492.304 -1.30405 1.44308 0
M  V30 5441 O 491.559 -1.86493 0.593198 0
M  V30 5442 C 491.858 -0.0780336 3.57315 0
M  V30 5443 C 491.524 1.20775 4.34424 0
M  V30 5444 C 490.186 1.56004 4.5521 0
M  V30 5445 C 492.538 2.0592 4.78797 0
M  V30 5446 C 489.866 2.76201 5.17619 0
M  V30 5447 C 492.218 3.25332 5.42533 0
M  V30 5448 C 490.882 3.60859 5.61549 0
M  V30 5449 H 490.152 0.018645 0.740765 0
M  V30 5450 H 492.799 0.744262 1.76445 0
M  V30 5451 H 491.104 -0.854394 3.82371 0
M  V30 5452 H 492.801 -0.495312 3.97929 0
M  V30 5453 H 489.391 0.923469 4.18533 0
M  V30 5454 H 493.575 1.80008 4.62505 0
M  V30 5455 H 488.831 3.0388 5.30535 0
M  V30 5456 H 493.005 3.91586 5.75876 0
M  V30 5457 H 490.632 4.54088 6.09678 0
M  V30 5458 N 492.207 -1.54576 0.307264 0
M  V30 5459 C 493.454 -2.00263 -0.300167 0
M  V30 5460 C 493.782 -1.19561 -1.53413 0
M  V30 5461 O 493.037 -0.261487 -1.93945 0
M  V30 5462 C 493.336 -3.50572 -0.695253 0
M  V30 5463 C 493.002 -4.48771 0.437679 0
M  V30 5464 C 491.664 -4.7534 0.748681 0
M  V30 5465 C 494.016 -5.0721 1.19949 0
M  V30 5466 C 491.344 -5.5761 1.8245 0
M  V30 5467 C 493.696 -5.90651 2.26527 0
M  V30 5468 C 492.36 -6.15528 2.58227 0
M  V30 5469 H 491.63 -0.732814 -0.109839 0
M  V30 5470 H 494.277 -1.86664 0.427661 0
M  V30 5471 H 492.582 -3.61814 -1.50326 0
M  V30 5472 H 494.279 -3.83352 -1.17653 0
M  V30 5473 H 490.869 -4.282 0.185187 0
M  V30 5474 H 495.053 -4.86679 0.972474 0
M  V30 5475 H 490.309 -5.75121 2.07476 0
M  V30 5476 H 494.483 -6.34957 2.86011 0
M  V30 5477 H 492.11 -6.79066 3.4172 0
M  V30 5478 N 493.685 -0.035106 -1.57561 0
M  V30 5479 C 494.932 0.642229 -1.92046 0
M  V30 5480 C 495.26 1.7179 -0.91206 0
M  V30 5481 O 494.515 1.95544 0.0781153 0
M  V30 5482 C 494.814 1.29149 -3.3325 0
M  V30 5483 C 494.48 0.345604 -4.49574 0
M  V30 5484 C 493.142 0.0852775 -4.81124 0
M  V30 5485 C 495.494 -0.303569 -5.20315 0
M  V30 5486 C 492.822 -0.831927 -5.80772 0
M  V30 5487 C 495.174 -1.20886 -6.20942 0
M  V30 5488 C 493.838 -1.47802 -6.50931 0
M  V30 5489 H 493.108 0.235008 -0.702746 0
M  V30 5490 H 495.755 -0.0981529 -1.91248 0
M  V30 5491 H 494.06 2.10676 -3.30337 0
M  V30 5492 H 495.757 1.82223 -3.57205 0
M  V30 5493 H 492.347 0.558683 -4.24943 0
M  V30 5494 H 496.531 -0.115515 -4.96166 0
M  V30 5495 H 491.787 -1.0481 -6.02349 0
M  V30 5496 H 495.961 -1.71804 -6.74875 0
M  V30 5497 H 493.588 -2.19039 -7.2796 0
M  V30 5498 N 495.163 1.55791 0.238111 0
M  V30 5499 C 496.111 1.91885 1.31464 0
M  V30 5500 C 497.105 0.798929 1.49377 0
M  V30 5501 O 498.311 0.983626 1.50747 0
M  V30 5502 H 494.686 0.609551 0.440399 0
M  V30 5503 H 496.657 2.81747 0.982925 0
M  V30 5504 C 495.406 2.23763 2.6613 0
M  V30 5505 H 494.729 3.09444 2.53149 0
M  V30 5506 H 496.169 2.52915 3.40309 0
M  V30 5507 C 494.628 1.05699 3.1989 0
M  V30 5508 O 495.158 0.309524 4.00506 0
M  V30 5509 N 493.364 0.845251 2.78036 0
M  V30 5510 H 492.911 1.4548 2.12588 0
M  V30 5511 H 492.869 0.0569973 3.14348 0
M  V30 5512 N 496.642 -0.504142 1.49319 0
M  V30 5513 C 497.889 -1.25846 1.58647 0
M  V30 5514 C 498.217 -1.92592 0.27177 0
M  V30 5515 O 497.472 -1.81167 -0.74007 0
M  V30 5516 C 497.771 -2.35021 2.69258 0
M  V30 5517 C 497.437 -1.85755 4.1086 0
M  V30 5518 C 496.099 -1.72038 4.49395 0
M  V30 5519 C 498.451 -1.48844 4.99495 0
M  V30 5520 C 495.779 -1.19783 5.74342 0
M  V30 5521 C 498.131 -0.980422 6.24956 0
M  V30 5522 C 496.795 -0.829622 6.62324 0
M  V30 5523 H 496.065 -0.460505 0.580531 0
M  V30 5524 H 498.712 -0.559716 1.83138 0
M  V30 5525 H 497.017 -3.10672 2.38726 0
M  V30 5526 H 498.714 -2.93083 2.73685 0
M  V30 5527 H 495.304 -1.9739 3.80441 0
M  V30 5528 H 499.488 -1.5829 4.70381 0
M  V30 5529 H 494.744 -1.06817 6.01997 0
M  V30 5530 H 498.918 -0.685608 6.93017 0
M  V30 5531 H 496.545 -0.42253 7.59025 0
M  V30 5532 N 498.12 -1.38341 -0.754957 0
M  V30 5533 C 499.36 -1.35888 -1.52689 0
M  V30 5534 C 499.724 0.0513682 -1.91931 0
M  V30 5535 O 500.925 0.200761 -2.68049 0
M  V30 5536 C 499.196 -2.28666 -2.74676 0
M  V30 5537 S 500.755 -2.4422 -3.64558 0
M  V30 5538 H 497.573 -0.482165 -0.522531 0
M  V30 5539 H 500.175 -1.74253 -0.886358 0
M  V30 5540 H 498.879 -3.30023 -2.43953 0
M  V30 5541 H 498.41 -1.91445 -3.43675 0
M  V30 5542 H 500.425 -1.66525 -4.67423 0
M  V30 5543 N 499.598 0.982988 -1.23187 0
M  V30 5544 C 500.875 1.69814 -0.970707 0
M  V30 5545 C 501.255 2.04811 0.511424 0
M  V30 5546 O 500.603 1.73924 1.48198 0
M  V30 5547 C 500.813 2.94143 -1.87831 0
M  V30 5548 C 502.161 3.66712 -2.14026 0
M  V30 5549 O 503.185 3.04171 -1.8536 0
M  V30 5550 O 502.044 4.79258 -2.62629 0
M  V30 5551 H 499.138 0.741659 -0.365884 0
M  V30 5552 H 501.684 1.03844 -1.34218 0
M  V30 5553 H 500.456 2.64858 -2.88038 0
M  V30 5554 H 500.079 3.6785 -1.50905 0
M  V30 5555 N 501.076 1.04316 1.18135 0
M  V30 5556 C 502.323 0.74802 1.88178 0
M  V30 5557 C 502.651 -0.72441 1.80506 0
M  V30 5558 O 501.906 -1.54463 1.20165 0
M  V30 5559 C 502.205 1.16271 3.37958 0
M  V30 5560 C 501.871 2.63585 3.65833 0
M  V30 5561 C 500.533 3.03829 3.73151 0
M  V30 5562 C 502.885 3.58822 3.78016 0
M  V30 5563 C 500.213 4.38194 3.90132 0
M  V30 5564 C 502.565 4.92909 3.96514 0
M  V30 5565 C 501.229 5.3282 4.02068 0
M  V30 5566 H 500.499 0.27372 0.688592 0
M  V30 5567 H 503.146 1.30863 1.39811 0
M  V30 5568 H 501.451 0.520938 3.88321 0
M  V30 5569 H 503.148 0.911672 3.90499 0
M  V30 5570 H 499.738 2.31414 3.60757 0
M  V30 5571 H 503.922 3.28875 3.71692 0
M  V30 5572 H 499.178 4.68631 3.92677 0
M  V30 5573 H 503.352 5.66606 4.04883 0
M  V30 5574 H 500.979 6.36943 4.14979 0
M  V30 5575 N 502.554 -1.34406 0.822964 0
M  V30 5576 C 503.97 -1.51275 0.508727 0
M  V30 5577 C 504.17 -1.76776 -0.967083 0
M  V30 5578 O 503.226 -1.81871 -1.75155 0
M  V30 5579 C 504.539 -2.67765 1.36829 0
M  V30 5580 C 506.087 -2.81647 1.36542 0
M  V30 5581 C 506.562 -4.01181 2.20947 0
M  V30 5582 N 508.053 -4.08388 2.18571 0
M  V30 5583 C 508.788 -5.00036 2.80627 0
M  V30 5584 N 508.284 -5.96906 3.51674 0
M  V30 5585 N 510.077 -4.92908 2.70181 0
M  V30 5586 H 502.228 -1.16113 1.77852 0
M  V30 5587 H 504.491 -0.56947 0.757897 0
M  V30 5588 H 504.197 -2.55551 2.41633 0
M  V30 5589 H 504.071 -3.62779 1.03303 0
M  V30 5590 H 506.458 -2.93303 0.325163 0
M  V30 5591 H 506.539 -1.87443 1.74066 0
M  V30 5592 H 506.183 -3.90286 3.25022 0
M  V30 5593 H 506.113 -4.94599 1.80774 0
M  V30 5594 H 508.604 -3.39051 1.66891 0
M  V30 5595 H 508.917 -6.63468 3.96271 0
M  V30 5596 H 507.262 -5.9703 3.5578 0
M  V30 5597 H 510.453 -4.1619 2.14251 0
M  V30 5598 H 510.626 -5.64137 3.18831 0
M  V30 5599 N 504.032 -0.577932 -1.46621 0
M  V30 5600 C 505.257 -0.0652536 -2.07297 0
M  V30 5601 C 505.682 1.22828 -1.4246 0
M  V30 5602 O 505.04 1.74075 -0.506718 0
M  V30 5603 C 505.088 0.0920589 -3.60482 0
M  V30 5604 O 504.192 1.14972 -3.96049 0
M  V30 5605 H 503.533 -0.06065 -0.661224 0
M  V30 5606 H 506.063 -0.799515 -1.88332 0
M  V30 5607 H 506.073 0.299741 -4.06897 0
M  V30 5608 H 504.748 -0.852612 -4.07067 0
M  V30 5609 H 503.325 0.920879 -3.61351 0
M  V30 5610 N 505.51 1.54411 -0.315457 0
M  V30 5611 C 506.926 1.59556 0.037464 0
M  V30 5612 C 507.126 1.33217 1.5118 0
M  V30 5613 O 506.182 1.11264 2.26664 0
M  V30 5614 C 507.495 2.98372 -0.373477 0
M  V30 5615 C 509.043 3.11324 -0.323452 0
M  V30 5616 C 509.518 4.52472 -0.709433 0
M  V30 5617 N 511.009 4.58437 -0.662524 0
M  V30 5618 C 511.744 5.65751 -0.933474 0
M  V30 5619 N 511.24 6.81039 -1.27114 0
M  V30 5620 N 513.033 5.55489 -0.859573 0
M  V30 5621 H 505.184 1.6979 -1.27614 0
M  V30 5622 H 507.447 0.793732 -0.518356 0
M  V30 5623 H 507.153 3.22618 -1.40037 0
M  V30 5624 H 507.027 3.76264 0.265615 0
M  V30 5625 H 509.414 2.86818 0.694223 0
M  V30 5626 H 509.495 2.35555 -0.997367 0
M  V30 5627 H 509.139 4.7771 -1.72498 0
M  V30 5628 H 509.069 5.26598 -0.0132923 0
M  V30 5629 H 511.56 3.75636 -0.413065 0
M  V30 5630 H 511.873 7.58816 -1.46348 0
M  V30 5631 H 510.218 6.82555 -1.30932 0
M  V30 5632 H 513.409 4.64299 -0.595324 0
M  V30 5633 H 513.582 6.39036 -1.0741 0
M  V30 5634 N 506.988 0.0434614 1.5754 0
M  V30 5635 C 508.265 -0.671479 1.83713 0
M  V30 5636 C 508.645 -1.89495 0.930315 0
M  V30 5637 O 507.993 -2.28498 -0.0105639 0
M  V30 5638 C 508.203 -1.0361 3.33266 0
M  V30 5639 C 509.551 -1.42167 4.00092 0
M  V30 5640 O 510.575 -1.12866 3.37846 0
M  V30 5641 O 509.434 -1.96817 5.09829 0
M  V30 5642 H 506.528 -0.330726 0.75799 0
M  V30 5643 H 509.074 0.0722373 1.69546 0
M  V30 5644 H 507.846 -0.165938 3.90948 0
M  V30 5645 H 507.469 -1.83751 3.52592 0
M  V30 5646 N 508.466 -1.55915 -0.229846 0
M  V30 5647 C 509.743 -1.6932 -0.979295 0
M  V30 5648 C 510.123 -0.588321 -2.02736 0
M  V30 5649 O 509.471 0.40586 -2.24867 0
M  V30 5650 C 509.681 -3.10305 -1.59724 0
M  V30 5651 C 511.029 -3.6945 -2.09264 0
M  V30 5652 O 512.053 -3.13214 -1.69633 0
M  V30 5653 O 510.912 -4.68072 -2.82082 0
M  V30 5654 H 508.006 -0.689314 -0.456919 0
M  V30 5655 H 510.552 -1.68238 -0.222283 0
M  V30 5656 H 509.324 -3.82177 -0.840039 0
M  V30 5657 H 508.947 -3.1547 -2.42001 0
M  V30 5658 N 509.944 0.496216 -1.49584 0
M  V30 5659 C 511.221 1.25755 -1.49816 0
M  V30 5660 C 511.601 2.09859 -0.228572 0
M  V30 5661 O 510.949 2.14449 0.788908 0
M  V30 5662 C 511.159 2.11017 -2.7798 0
M  V30 5663 C 512.507 2.70047 -3.27658 0
M  V30 5664 O 513.531 2.21281 -2.79129 0
M  V30 5665 O 512.39 3.58834 -4.1219 0
M  V30 5666 H 509.484 0.569322 -0.599834 0
M  V30 5667 H 512.03 0.510094 -1.61852 0
M  V30 5668 H 510.802 1.48879 -3.61871 0
M  V30 5669 H 510.425 2.92947 -2.68827 0
M  V30 5670 N 511.423 1.38739 0.74761 0
M  V30 5671 C 512.653 1.3832 1.53464 0
M  V30 5672 C 513.061 -0.0273464 1.8918 0
M  V30 5673 O 512.404 -1.00588 1.53713 0
M  V30 5674 C 512.466 2.18007 2.85855 0
M  V30 5675 C 512.13 3.66762 2.72644 0
M  V30 5676 C 513.127 4.60124 2.42037 0
M  V30 5677 C 510.812 4.10193 2.89909 0
M  V30 5678 C 512.806 5.94897 2.28859 0
M  V30 5679 C 510.493 5.45045 2.7635 0
M  V30 5680 C 511.491 6.37211 2.45869 0
M  V30 5681 O 511.179 7.69581 2.3238 0
M  V30 5682 H 510.911 0.474718 0.481268 0
M  V30 5683 H 513.465 1.83012 0.932518 0
M  V30 5684 H 511.695 1.68043 3.48279 0
M  V30 5685 H 513.384 2.09921 3.47402 0
M  V30 5686 H 514.15 4.27874 2.28361 0
M  V30 5687 H 510.029 3.38797 3.1263 0
M  V30 5688 H 513.573 6.66802 2.04989 0
M  V30 5689 H 509.47 5.76889 2.89601 0
M  V30 5690 H 510.238 7.80169 2.47546 0
M  V30 5691 N 512.901 -0.976442 1.23707 0
M  V30 5692 C 513.811 -2.10359 1.03856 0
M  V30 5693 C 514.827 -1.73991 -0.0180919 0
M  V30 5694 O 516.003 -2.0061 0.178211 0
M  V30 5695 C 513.068 -3.40809 0.636387 0
M  V30 5696 C 512.129 -3.91179 1.76854 0
M  V30 5697 C 511.362 -5.15404 1.38546 0
M  V30 5698 O 511.585 -5.69754 0.27142 0
M  V30 5699 O 510.519 -5.5994 2.20797 0
M  V30 5700 H 514.345 -2.29997 1.98331 0
M  V30 5701 H 511.93 -1.08742 1.02448 0
M  V30 5702 H 513.812 -4.19269 0.423223 0
M  V30 5703 H 512.487 -3.22493 -0.279322 0
M  V30 5704 H 511.394 -3.13819 2.03638 0
M  V30 5705 H 512.727 -4.13958 2.6627 0
M  V30 5706 N 514.379 -1.04941 -1.1758 0
M  V30 5707 C 515.607 -0.778294 -1.91703 0
M  V30 5708 C 516.022 0.665697 -1.76675 0
M  V30 5709 O 515.379 1.45456 -1.10222 0
M  V30 5710 C 515.43 -1.14628 -3.42845 0
M  V30 5711 O 515.151 -2.53359 -3.57409 0
M  V30 5712 C 516.652 -0.900931 -4.34049 0
M  V30 5713 H 513.872 -0.283167 -0.608323 0
M  V30 5714 H 516.416 -1.39942 -1.49119 0
M  V30 5715 H 514.571 -0.569953 -3.83184 0
M  V30 5716 H 514.985 -2.67709 -4.51035 0
M  V30 5717 H 516.459 -1.20817 -5.38616 0
M  V30 5718 H 516.936 0.163966 -4.38894 0
M  V30 5719 H 517.542 -1.46097 -3.99419 0
M  V30 5720 N 515.857 1.33968 -0.830081 0
M  V30 5721 C 517.106 1.97323 -0.417928 0
M  V30 5722 C 517.419 1.6652 1.02618 0
M  V30 5723 O 518.625 2.2342 1.54259 0
M  V30 5724 C 517.081 3.53099 -0.696359 0
M  V30 5725 C 516.689 3.92788 -2.15457 0
M  V30 5726 C 518.433 4.23049 -0.350724 0
M  V30 5727 C 516.34 5.41506 -2.37751 0
M  V30 5728 H 515.27 0.738409 -0.152541 0
M  V30 5729 H 517.921 1.52711 -1.01744 0
M  V30 5730 H 516.303 3.95991 -0.0265904 0
M  V30 5731 H 517.477 3.6098 -2.86408 0
M  V30 5732 H 515.792 3.35795 -2.46232 0
M  V30 5733 H 518.389 5.32403 -0.495036 0
M  V30 5734 H 518.732 4.10279 0.705476 0
M  V30 5735 H 519.265 3.85657 -0.975362 0
M  V30 5736 H 516.004 5.5927 -3.41903 0
M  V30 5737 H 515.524 5.74804 -1.7135 0
M  V30 5738 H 517.203 6.0828 -2.20465 0
M  V30 5739 N 517.335 0.585699 1.46312 0
M  V30 5740 C 518.298 -0.135673 2.28798 0
M  V30 5741 C 519.298 -0.815988 1.38558 0
M  V30 5742 O 520.488 -0.667487 1.60904 0
M  V30 5743 C 517.62 -1.20163 3.1902 0
M  V30 5744 H 518.813 0.589257 2.94054 0
M  V30 5745 H 516.366 0.343794 1.52472 0
M  V30 5746 H 517.101 -1.95804 2.58517 0
M  V30 5747 H 516.886 -0.718282 3.85465 0
M  V30 5748 H 518.376 -1.70749 3.81096 0
M  V30 5749 N 518.813 -1.54241 0.323641 0
M  V30 5750 C 519.746 -2.20579 -0.584833 0
M  V30 5751 C 520.724 -1.18286 -1.11567 0
M  V30 5752 O 521.908 -1.47025 -1.17966 0
M  V30 5753 C 519.035 -2.86754 -1.80249 0
M  V30 5754 C 518.081 -4.02767 -1.4029 0
M  V30 5755 S 518.914 -5.33693 -0.439539 0
M  V30 5756 C 520.07 -6.03362 -1.66448 0
M  V30 5757 H 520.303 -2.97292 -0.0213238 0
M  V30 5758 H 517.836 -1.54024 0.107726 0
M  V30 5759 H 519.794 -3.25503 -2.50116 0
M  V30 5760 H 518.455 -2.09844 -2.33719 0
M  V30 5761 H 517.648 -4.47933 -2.31024 0
M  V30 5762 H 517.25 -3.65692 -0.783928 0
M  V30 5763 H 519.542 -6.25546 -2.6019 0
M  V30 5764 H 520.485 -6.9689 -1.25498 0
M  V30 5765 H 520.893 -5.33273 -1.85149 0
M  V30 5766 N 520.291 -0.0518155 -1.57515 0
M  V30 5767 C 521.516 0.634896 -1.97443 0
M  V30 5768 C 521.941 1.63546 -0.929207 0
M  V30 5769 O 521.299 1.80981 0.107484 0
M  V30 5770 C 521.347 1.29765 -3.36442 0
M  V30 5771 O 520.451 2.41333 -3.34413 0
M  V30 5772 H 519.792 0.164994 -0.643174 0
M  V30 5773 H 522.322 -0.120407 -2.04245 0
M  V30 5774 H 522.332 1.64918 -3.73184 0
M  V30 5775 H 521.007 0.564361 -4.12053 0
M  V30 5776 H 519.584 2.08122 -3.09418 0
M  V30 5777 N 521.769 1.56035 0.221574 0
M  V30 5778 C 522.997 1.8313 0.962864 0
M  V30 5779 C 523.412 0.630934 1.77946 0
M  V30 5780 O 522.769 -0.400519 1.78051 0
M  V30 5781 C 522.82 3.08742 1.88045 0
M  V30 5782 O 522.541 4.24147 1.09686 0
M  V30 5783 C 524.042 3.48824 2.73563 0
M  V30 5784 H 521.262 0.608775 0.282194 0
M  V30 5785 H 523.806 2.03124 0.23681 0
M  V30 5786 H 521.961 2.90723 2.56045 0
M  V30 5787 H 522.375 4.95505 1.71974 0
M  V30 5788 H 523.849 4.39752 3.3365 0
M  V30 5789 H 524.326 2.70575 3.45956 0
M  V30 5790 H 524.932 3.69282 2.10976 0
M  V30 5791 N 523.247 -0.488276 1.49845 0
M  V30 5792 C 524.18 -1.60651 1.62069 0
M  V30 5793 C 525.158 -1.5568 0.469308 0
M  V30 5794 O 526.342 -1.75553 0.686551 0
M  V30 5795 C 523.469 -2.99197 1.58741 0
M  V30 5796 C 522.515 -3.22385 2.79232 0
M  V30 5797 S 523.348 -3.04133 4.40753 0
M  V30 5798 C 524.504 -4.45052 4.4009 0
M  V30 5799 H 524.737 -1.50039 2.56662 0
M  V30 5800 H 522.27 -0.674371 1.38894 0
M  V30 5801 H 524.228 -3.79081 1.57506 0
M  V30 5802 H 522.889 -3.07213 0.654136 0
M  V30 5803 H 522.082 -4.23557 2.73159 0
M  V30 5804 H 521.684 -2.50245 2.77945 0
M  V30 5805 H 523.976 -5.37375 4.12594 0
M  V30 5806 H 524.919 -4.56172 5.41583 0
M  V30 5807 H 525.327 -4.26327 3.70008 0
M  V30 5808 N 524.725 -1.39134 -0.740242 0
M  V30 5809 C 525.675 -1.33928 -1.84519 0
M  V30 5810 C 526.659 -0.221097 -1.59374 0
M  V30 5811 O 527.851 -0.458195 -1.70967 0
M  V30 5812 C 524.98 -1.17991 -3.22387 0
M  V30 5813 C 524.066 -2.34488 -3.53378 0
M  V30 5814 N 524.457 -3.59954 -3.5534 0
M  V30 5815 C 522.755 -2.27331 -3.83714 0
M  V30 5816 C 523.456 -4.36962 -3.83978 0
M  V30 5817 N 522.432 -3.66482 -4.01487 0
M  V30 5818 H 526.234 -2.28907 -1.84333 0
M  V30 5819 H 523.748 -1.32555 -0.938237 0
M  V30 5820 H 525.745 -1.12345 -4.01478 0
M  V30 5821 H 524.405 -0.23957 -3.23815 0
M  V30 5822 H 525.416 -3.93448 -3.36778 0
M  V30 5823 H 522.093 -1.41531 -3.92779 0
M  V30 5824 H 523.483 -5.45692 -3.92008 0
M  V30 5825 N 526.204 0.969867 -1.24223 0
M  V30 5826 C 527.432 1.74756 -1.10761 0
M  V30 5827 C 527.847 1.85713 0.340041 0
M  V30 5828 O 527.204 1.34389 1.23474 0
M  V30 5829 C 527.255 3.16915 -1.73917 0
M  V30 5830 O 526.976 3.06511 -3.13021 0
M  V30 5831 C 528.477 4.11032 -1.66036 0
M  V30 5832 H 525.697 0.548092 -0.387087 0
M  V30 5833 H 528.241 1.2178 -1.64286 0
M  V30 5834 H 526.396 3.66884 -1.244 0
M  V30 5835 H 526.81 3.96079 -3.43834 0
M  V30 5836 H 528.284 5.08446 -2.14911 0
M  V30 5837 H 528.761 4.34785 -0.621159 0
M  V30 5838 H 529.367 3.66972 -2.14969 0
M  V30 5839 N 527.682 1.05563 1.17022 0
M  V30 5840 C 528.959 0.68165 1.83338 0
M  V30 5841 C 529.339 -0.837665 1.93769 0
M  V30 5842 O 528.687 -1.74507 1.47511 0
M  V30 5843 C 528.897 1.375 3.20772 0
M  V30 5844 C 530.245 1.51545 3.96635 0
M  V30 5845 O 531.269 1.33431 3.30264 0
M  V30 5846 O 530.128 1.812 5.15586 0
M  V30 5847 H 527.222 0.240412 0.791285 0
M  V30 5848 H 529.768 1.15545 1.24288 0
M  V30 5849 H 528.54 2.41135 3.08171 0
M  V30 5850 H 528.163 0.890798 3.87493 0
M  V30 5851 N 529.16 -1.33526 0.837174 0
M  V30 5852 C 530.406 -1.9813 0.432704 0
M  V30 5853 C 530.739 -1.66168 -1.00508 0
M  V30 5854 O 530.014 -0.94069 -1.70239 0
M  V30 5855 C 530.297 -3.54151 0.651834 0
M  V30 5856 C 530.15 -3.95806 2.13676 0
M  V30 5857 C 531.469 -4.39993 0.0968937 0
M  V30 5858 H 528.588 -0.719713 0.15869 0
M  V30 5859 H 531.23 -1.58193 1.05237 0
M  V30 5860 H 529.38 -3.88301 0.124369 0
M  V30 5861 H 531.052 -3.71921 2.72896 0
M  V30 5862 H 529.295 -3.45599 2.62191 0
M  V30 5863 H 529.966 -5.0447 2.24084 0
M  V30 5864 H 532.442 -4.12479 0.547733 0
M  V30 5865 H 531.318 -5.48186 0.279917 0
M  V30 5866 H 531.579 -4.3066 -0.9992 0
M  V30 5867 N 530.638 -0.59345 -1.46 0
M  V30 5868 C 531.863 -0.0872365 -2.07216 0
M  V30 5869 C 532.288 1.2131 -1.43755 0
M  V30 5870 O 531.646 1.73528 -0.525152 0
M  V30 5871 C 531.694 0.0538197 -3.6056 0
M  V30 5872 O 530.798 1.10765 -3.97247 0
M  V30 5873 H 530.139 -0.0676598 -0.660544 0
M  V30 5874 H 532.669 -0.819445 -1.87473 0
M  V30 5875 H 532.679 0.256567 -4.07193 0
M  V30 5876 H 531.354 -0.895739 -4.0614 0
M  V30 5877 H 529.931 0.882501 -3.62307 0
M  V30 5878 N 532.116 1.54067 -0.331816 0
M  V30 5879 C 533.063 2.24623 0.530372 0
M  V30 5880 C 534.033 1.24009 1.10503 0
M  V30 5881 O 535.218 1.52712 1.14384 0
M  V30 5882 C 532.358 3.01374 1.68129 0
M  V30 5883 C 531.471 4.16821 1.13507 0
M  V30 5884 C 530.606 4.81085 2.25234 0
M  V30 5885 C 529.645 5.88621 1.67903 0
M  V30 5886 N 528.782 6.46713 2.73326 0
M  V30 5887 H 533.622 2.97898 -0.0778607 0
M  V30 5888 H 531.159 1.47014 -0.0501965 0
M  V30 5889 H 533.117 3.44125 2.35868 0
M  V30 5890 H 531.747 2.30419 2.26069 0
M  V30 5891 H 530.799 3.78796 0.348979 0
M  V30 5892 H 532.111 4.94203 0.675633 0
M  V30 5893 H 531.265 5.26846 3.00862 0
M  V30 5894 H 530.004 4.03102 2.74518 0
M  V30 5895 H 529.009 5.42254 0.907773 0
M  V30 5896 H 530.234 6.68506 1.19487 0
M  V30 5897 H 528.18 5.71599 3.21886 0
M  V30 5898 H 528.097 7.19532 2.3197 0
M  V30 5899 H 529.365 6.97129 3.48758 0
M  V30 5900 N 533.594 0.0601682 1.57485 0
M  V30 5901 C 534.822 -0.620937 1.97363 0
M  V30 5902 C 535.237 -1.63846 0.938082 0
M  V30 5903 O 534.594 -1.82339 -0.0766578 0
M  V30 5904 C 534.645 -1.29987 3.37321 0
M  V30 5905 O 534.366 -0.323081 4.36907 0
M  V30 5906 C 535.867 -2.06989 3.92008 0
M  V30 5907 H 533.087 -0.169135 0.649334 0
M  V30 5908 H 535.631 0.129132 2.04092 0
M  V30 5909 H 533.786 -2.0011 3.31715 0
M  V30 5910 H 534.2 -0.808754 5.18227 0
M  V30 5911 H 535.674 -2.49901 4.92192 0
M  V30 5912 H 536.151 -2.92173 3.2792 0
M  V30 5913 H 536.757 -1.41757 4.0098 0
M  V30 5914 N 535.072 -1.5615 -0.213296 0
M  V30 5915 C 536.297 -1.83986 -0.957282 0
M  V30 5916 C 536.722 -0.641526 -1.76822 0
M  V30 5917 O 536.08 0.409722 -1.7661 0
M  V30 5918 C 536.128 -3.09889 -1.84393 0
M  V30 5919 O 535.232 -2.89163 -2.94038 0
M  V30 5920 H 534.573 -0.606357 -0.270605 0
M  V30 5921 H 537.103 -2.03369 -0.224111 0
M  V30 5922 H 537.113 -3.40209 -2.25215 0
M  V30 5923 H 535.788 -3.96735 -1.24795 0
M  V30 5924 H 534.365 -2.70097 -2.57103 0
M  V30 5925 N 536.55 0.480323 -1.50102 0
M  V30 5926 C 537.48 1.58769 -1.71215 0
M  V30 5927 C 538.461 1.60583 -0.560997 0
M  V30 5928 O 539.646 1.76996 -0.799127 0
M  V30 5929 C 536.776 2.97148 -1.79778 0
M  V30 5930 C 535.73 3.10201 -2.94888 0
M  V30 5931 C 535.056 4.50137 -2.88584 0
M  V30 5932 C 536.356 2.88283 -4.35534 0
M  V30 5933 H 538.05 1.41354 -2.6393 0
M  V30 5934 H 535.596 0.678591 -1.27008 0
M  V30 5935 H 537.549 3.74536 -1.93133 0
M  V30 5936 H 536.273 3.15699 -0.836772 0
M  V30 5937 H 534.932 2.35244 -2.81169 0
M  V30 5938 H 534.58 4.65593 -1.90349 0
M  V30 5939 H 534.28 4.59808 -3.65856 0
M  V30 5940 H 535.804 5.29558 -3.03976 0
M  V30 5941 H 537.218 3.55427 -4.49827 0
M  V30 5942 H 535.615 3.09408 -5.14186 0
M  V30 5943 H 536.685 1.84219 -4.48544 0
M  V30 5944 N 538.028 1.39524 0.732853 0
M  V30 5945 C 538.975 1.38416 1.84688 0
M  V30 5946 C 539.945 0.243539 1.64305 0
M  V30 5947 O 541.13 0.438979 1.85681 0
M  V30 5948 C 538.27 1.23555 3.22224 0
M  V30 5949 C 537.383 2.47179 3.54298 0
M  V30 5950 C 536.518 2.2489 4.81246 0
M  V30 5951 C 535.557 3.44178 5.0617 0
M  V30 5952 N 534.694 3.21192 6.24323 0
M  V30 5953 H 539.534 2.33645 1.84971 0
M  V30 5954 H 537.071 1.16059 0.903804 0
M  V30 5955 H 539.029 1.12949 4.0162 0
M  V30 5956 H 537.659 0.31954 3.21215 0
M  V30 5957 H 536.711 2.68379 2.69587 0
M  V30 5958 H 538.023 3.36022 3.68633 0
M  V30 5959 H 537.177 2.11538 5.68627 0
M  V30 5960 H 535.916 1.33443 4.69089 0
M  V30 5961 H 534.921 3.58025 4.17251 0
M  V30 5962 H 536.146 4.36528 5.20212 0
M  V30 5963 H 534.092 2.32413 6.1345 0
M  V30 5964 H 534.009 4.03594 6.39256 0
M  V30 5965 H 535.277 3.1154 7.14537 0
M  V30 5966 N 539.506 -0.963266 1.24736 0
M  V30 5967 C 540.438 -2.06162 1.0015 0
M  V30 5968 C 541.451 -1.62771 -0.0305905 0
M  V30 5969 O 542.64 -1.77296 0.206966 0
M  V30 5970 C 539.74 -3.35333 0.490385 0
M  V30 5971 C 538.913 -4.07609 1.58663 0
M  V30 5972 C 537.972 -5.15052 1.0774 0
M  V30 5973 O 536.998 -5.4098 1.77002 0
M  V30 5974 N 538.2 -5.80436 -0.0858605 0
M  V30 5975 H 540.965 -2.27825 1.94719 0
M  V30 5976 H 538.526 -1.13121 1.15825 0
M  V30 5977 H 540.518 -4.04477 0.134371 0
M  V30 5978 H 539.088 -3.10507 -0.361155 0
M  V30 5979 H 538.308 -3.32681 2.11463 0
M  V30 5980 H 539.596 -4.52656 2.32336 0
M  V30 5981 H 538.994 -5.6178 -0.664806 0
M  V30 5982 H 537.551 -6.50674 -0.382981 0
M  V30 5983 N 540.985 -1.06182 -1.16461 0
M  V30 5984 C 541.948 -0.675723 -2.19013 0
M  V30 5985 C 542.948 0.277963 -1.58379 0
M  V30 5986 O 544.138 0.0604962 -1.74095 0
M  V30 5987 C 541.27 0.00591459 -3.40899 0
M  V30 5988 H 542.463 -1.58353 -2.54685 0
M  V30 5989 H 540.016 -0.856908 -1.30716 0
M  V30 5990 H 540.751 0.92652 -3.10783 0
M  V30 5991 H 540.536 -0.67984 -3.86161 0
M  V30 5992 H 542.026 0.26181 -4.16778 0
M  V30 5993 N 542.463 1.3308 -0.844243 0
M  V30 5994 C 543.688 2.02341 -0.455282 0
M  V30 5995 C 544.113 1.6308 0.93737 0
M  V30 5996 O 543.471 0.826118 1.61385 0
M  V30 5997 C 543.519 3.55743 -0.58988 0
M  V30 5998 O 542.623 4.1063 0.38166 0
M  V30 5999 H 541.964 0.637898 -0.184343 0
M  V30 6000 H 544.494 1.6986 -1.14056 0
M  V30 6001 H 544.504 4.05243 -0.473522 0
M  V30 6002 H 543.179 3.83662 -1.60549 0
M  V30 6003 H 541.756 3.72236 0.22241 0
M  V30 6004 N 543.941 0.601185 1.45683 0
M  V30 6005 C 545.352 0.179659 1.85834 0
M  V30 6006 C 545.703 -1.26189 1.50236 0
M  V30 6007 O 544.828 -1.95587 0.925987 0
M  V30 6008 C 545.423 0.319277 3.37292 0
M  V30 6009 C 543.982 -0.0475092 3.7637 0
M  V30 6010 C 543.129 0.646692 2.69654 0
M  V30 6011 H 546.08 0.808268 1.36575 0
M  V30 6012 H 546.101 -0.4503 3.77826 0
M  V30 6013 H 545.613 1.36855 3.6317 0
M  V30 6014 H 543.714 -1.0962 3.5611 0
M  V30 6015 H 543.827 0.34168 4.7788 0
M  V30 6016 H 542.191 0.0849971 2.54558 0
M  V30 6017 H 542.974 1.69797 2.98369 0
M  V30 6018 N 545.419 -1.53889 0.339982 0
M  V30 6019 C 546.665 -2.01152 -0.258003 0
M  V30 6020 C 546.998 -1.22749 -1.50487 0
M  V30 6021 O 546.273 -0.314156 -1.91946 0
M  V30 6022 C 546.556 -3.55468 -0.575717 0
M  V30 6023 C 546.409 -4.44584 0.682996 0
M  V30 6024 C 547.728 -4.1768 -1.38677 0
M  V30 6025 H 544.847 -0.731198 -0.0922992 0
M  V30 6026 H 547.489 -1.84352 0.459814 0
M  V30 6027 H 545.639 -3.69914 -1.18725 0
M  V30 6028 H 547.311 -4.41981 1.32102 0
M  V30 6029 H 545.554 -4.13592 1.3086 0
M  V30 6030 H 546.225 -5.5043 0.416001 0
M  V30 6031 H 548.701 -4.0691 -0.869705 0
M  V30 6032 H 547.577 -5.25734 -1.57783 0
M  V30 6033 H 547.838 -3.72069 -2.38782 0
M  V30 6034 N 546.897 -0.0685191 -1.57451 0
M  V30 6035 C 547.86 0.885173 -2.11417 0
M  V30 6036 C 548.86 1.22853 -1.03748 0
M  V30 6037 O 550.05 1.16235 -1.2975 0
M  V30 6038 C 547.182 2.18964 -2.61281 0
M  V30 6039 H 548.375 0.417034 -2.96986 0
M  V30 6040 H 545.928 0.18014 -1.55258 0
M  V30 6041 H 546.663 2.70321 -1.79156 0
M  V30 6042 H 546.448 1.9534 -3.39977 0
M  V30 6043 H 547.938 2.87242 -3.0312 0
M  V30 6044 N 548.375 1.56261 0.205012 0
M  V30 6045 C 549.622 1.8004 0.926927 0
M  V30 6046 C 549.95 0.640086 1.83666 0
M  V30 6047 O 549.205 -0.374702 1.92079 0
M  V30 6048 C 549.504 3.09722 1.78345 0
M  V30 6049 C 549.17 4.39082 1.02555 0
M  V30 6050 C 547.832 4.74226 0.816256 0
M  V30 6051 C 550.184 5.18877 0.491559 0
M  V30 6052 C 547.512 5.86668 0.0613287 0
M  V30 6053 C 549.864 6.32105 -0.250107 0
M  V30 6054 C 548.528 6.6584 -0.470508 0
M  V30 6055 H 547.798 0.658812 0.339187 0
M  V30 6056 H 550.445 1.90515 0.19395 0
M  V30 6057 H 548.75 2.9444 2.5848 0
M  V30 6058 H 550.447 3.25324 2.34446 0
M  V30 6059 H 547.037 4.11497 1.19868 0
M  V30 6060 H 551.221 4.92147 0.640684 0
M  V30 6061 H 546.477 6.11283 -0.119501 0
M  V30 6062 H 550.651 6.93157 -0.671307 0
M  V30 6063 H 548.278 7.5281 -1.05739 0
M  V30 6064 N 549.853 -0.472356 1.50355 0
M  V30 6065 C 550.8 -1.57051 1.69126 0
M  V30 6066 C 551.77 -1.5733 0.532574 0
M  V30 6067 O 552.955 -1.7488 0.762994 0
M  V30 6068 C 550.095 -2.95033 1.79024 0
M  V30 6069 C 549.208 -3.04552 3.06386 0
M  V30 6070 C 548.343 -4.33441 3.07087 0
M  V30 6071 C 547.382 -4.36697 4.28908 0
M  V30 6072 N 546.519 -5.57056 4.27356 0
M  V30 6073 H 551.359 -1.40351 2.62879 0
M  V30 6074 H 548.896 -0.682403 1.30314 0
M  V30 6075 H 550.854 -3.75048 1.82744 0
M  V30 6076 H 549.484 -3.10371 0.887109 0
M  V30 6077 H 548.536 -2.17419 3.12143 0
M  V30 6078 H 549.848 -3.02818 3.96362 0
M  V30 6079 H 549.002 -5.21801 3.09529 0
M  V30 6080 H 547.741 -4.37782 2.14939 0
M  V30 6081 H 546.746 -3.46734 4.2668 0
M  V30 6082 H 547.971 -4.34049 5.22282 0
M  V30 6083 H 545.917 -5.62184 3.3806 0
M  V30 6084 H 545.834 -5.57058 5.111 0
M  V30 6085 H 547.102 -6.47545 4.33942 0
M  V30 6086 N 551.331 -1.39911 -0.725443 0
M  V30 6087 C 552.278 -1.39393 -1.83952 0
M  V30 6088 C 553.248 -0.252249 -1.64173 0
M  V30 6089 O 554.433 -0.44882 -1.85446 0
M  V30 6090 C 551.573 -1.25262 -3.21564 0
M  V30 6091 C 550.686 -2.49054 -3.52982 0
M  V30 6092 C 549.821 -2.27439 -4.80047 0
M  V30 6093 C 548.86 -3.46857 -5.04338 0
M  V30 6094 N 547.997 -3.24499 -6.22611 0
M  V30 6095 H 552.837 -2.34622 -1.83729 0
M  V30 6096 H 550.374 -1.16537 -0.897636 0
M  V30 6097 H 552.332 -1.15077 -4.01015 0
M  V30 6098 H 550.962 -0.33657 -3.21041 0
M  V30 6099 H 550.014 -2.69805 -2.6816 0
M  V30 6100 H 551.326 -3.37973 -3.66846 0
M  V30 6101 H 550.48 -2.14551 -5.67497 0
M  V30 6102 H 549.219 -1.35929 -4.68374 0
M  V30 6103 H 548.224 -3.60232 -4.15346 0
M  V30 6104 H 549.449 -4.3928 -5.17889 0
M  V30 6105 H 547.395 -2.35663 -6.12208 0
M  V30 6106 H 547.312 -4.06978 -6.37106 0
M  V30 6107 H 548.58 -3.15325 -7.12875 0
M  V30 6108 N 552.809 0.956637 -1.25245 0
M  V30 6109 C 554.058 1.69537 -1.0927 0
M  V30 6110 C 554.371 1.92136 0.366503 0
M  V30 6111 O 555.577 2.63687 0.64665 0
M  V30 6112 C 554.033 3.05211 -1.9072 0
M  V30 6113 C 553.641 2.90416 -3.41119 0
M  V30 6114 C 555.385 3.82882 -1.83308 0
M  V30 6115 C 553.292 4.21468 -4.14872 0
M  V30 6116 H 552.222 0.635804 -0.405302 0
M  V30 6117 H 554.873 1.06513 -1.49423 0
M  V30 6118 H 553.255 3.69128 -1.43389 0
M  V30 6119 H 554.429 2.35444 -3.9611 0
M  V30 6120 H 552.744 2.26203 -3.49602 0
M  V30 6121 H 555.341 4.79944 -2.35706 0
M  V30 6122 H 555.684 4.0853 -0.800572 0
M  V30 6123 H 556.217 3.25711 -2.28379 0
M  V30 6124 H 552.956 4.01009 -5.18529 0
M  V30 6125 H 552.476 4.76213 -3.64665 0
M  V30 6126 H 554.155 4.90022 -4.22478 0
M  V30 6127 N 554.287 1.06798 1.15896 0
M  V30 6128 C 555.235 0.677525 2.22514 0
M  V30 6129 C 556.229 -0.308994 1.66558 0
M  V30 6130 O 557.435 -0.173308 1.79164 0
M  V30 6131 H 553.81 0.200994 0.724642 0
M  V30 6132 H 555.781 1.5865 2.52731 0
M  V30 6133 C 554.53 0.0854153 3.47595 0
M  V30 6134 H 553.853 0.835645 3.90969 0
M  V30 6135 H 555.293 -0.150199 4.23734 0
M  V30 6136 C 553.752 -1.1724 3.15843 0
M  V30 6137 O 554.282 -2.25965 3.32119 0
M  V30 6138 N 552.488 -1.07636 2.69931 0
M  V30 6139 H 552.035 -0.191559 2.56887 0
M  V30 6140 H 551.993 -1.91876 2.4906 0
M  V30 6141 N 555.766 -1.3263 0.851289 0
M  V30 6142 C 556.714 -2.30882 0.282202 0
M  V30 6143 C 557.708 -1.58697 -0.592589 0
M  V30 6144 O 558.914 -1.73461 -0.480768 0
M  V30 6145 H 555.289 -0.748492 0.0725487 0
M  V30 6146 H 557.26 -2.76374 1.12516 0
M  V30 6147 C 556.009 -3.43828 -0.517449 0
M  V30 6148 H 555.332 -3.99532 0.146392 0
M  V30 6149 H 556.772 -4.1474 -0.88128 0
M  V30 6150 C 555.231 -2.90786 -1.70133 0
M  V30 6151 O 555.761 -2.88 -2.80034 0
M  V30 6152 N 553.967 -2.4723 -1.52728 0
M  V30 6153 H 553.514 -2.49695 -0.633257 0
M  V30 6154 H 553.472 -2.12094 -2.32085 0
M  V30 6155 N 557.244 -0.608902 -1.45362 0
M  V30 6156 C 558.192 0.121639 -2.32282 0
M  V30 6157 C 559.186 0.858301 -1.46046 0
M  V30 6158 O 560.392 0.773718 -1.62523 0
M  V30 6159 H 556.767 0.058086 -0.749753 0
M  V30 6160 H 558.738 -0.629866 -2.91677 0
M  V30 6161 C 557.487 1.1047 -3.29684 0
M  V30 6162 H 556.81 0.547278 -3.96036 0
M  V30 6163 H 558.25 1.58576 -3.9323 0
M  V30 6164 C 556.709 2.17891 -2.56954 0
M  V30 6165 O 557.239 3.25652 -2.35189 0
M  V30 6166 N 555.445 1.93211 -2.17066 0
M  V30 6167 H 554.992 1.05584 -2.34967 0
M  V30 6168 H 554.95 2.6529 -1.68727 0
M  V30 6169 N 558.722 1.53707 -0.348139 0
M  V30 6170 C 559.999 1.93247 0.302475 0
M  V30 6171 C 560.379 1.28012 1.67857 0
M  V30 6172 O 559.727 0.43274 2.24365 0
M  V30 6173 C 559.937 3.47031 0.370159 0
M  V30 6174 C 561.285 4.20066 0.61882 0
M  V30 6175 O 562.309 3.53319 0.452087 0
M  V30 6176 O 561.168 5.38318 0.94215 0
M  V30 6177 H 558.262 0.807736 0.177458 0
M  V30 6178 H 560.808 1.64927 -0.399651 0
M  V30 6179 H 559.58 3.86745 -0.59534 0
M  V30 6180 H 559.203 3.81532 1.11888 0
M  V30 6181 N 560.2 0.0768682 1.57412 0
M  V30 6182 C 561.477 -0.632359 1.85096 0
M  V30 6183 C 561.857 -1.87479 0.9703 0
M  V30 6184 O 561.205 -2.28469 0.0379062 0
M  V30 6185 C 561.415 -0.965174 3.35388 0
M  V30 6186 C 562.763 -1.33648 4.03018 0
M  V30 6187 O 563.787 -1.05675 3.40164 0
M  V30 6188 O 562.646 -1.85959 5.13889 0
M  V30 6189 H 559.74 -0.314574 0.764835 0
M  V30 6190 H 562.286 0.108184 1.69355 0
M  V30 6191 H 561.058 -0.0829745 3.91212 0
M  V30 6192 H 560.681 -1.76231 3.5641 0
M  V30 6193 N 561.678 -1.56367 -0.196722 0
M  V30 6194 C 562.626 -1.95304 -1.2633 0
M  V30 6195 C 563.62 -0.838252 -1.47206 0
M  V30 6196 O 564.826 -1.02325 -1.48087 0
M  V30 6197 H 561.201 -0.621013 -0.424083 0
M  V30 6198 H 563.172 -2.84254 -0.907879 0
M  V30 6199 C 561.921 -2.3074 -2.60104 0
M  V30 6200 H 561.244 -3.16047 -2.44856 0
M  V30 6201 H 562.684 -2.61849 -3.33484 0
M  V30 6202 C 561.143 -1.14143 -3.16975 0
M  V30 6203 O 561.673 -0.415602 -3.99544 0
M  V30 6204 N 559.879 -0.91867 -2.75697 0
M  V30 6205 H 559.426 -1.51065 -2.08656 0
M  V30 6206 H 559.384 -0.140321 -3.14087 0
M  V30 6207 N 563.156 0.464375 -1.50603 0
M  V30 6208 C 564.066 1.58723 -1.72754 0
M  V30 6209 C 565.082 1.62925 -0.610844 0
M  V30 6210 O 566.258 1.8067 -0.889963 0
M  V30 6211 C 563.323 2.94897 -1.82309 0
M  V30 6212 C 562.384 3.0103 -3.06071 0
M  V30 6213 C 561.617 4.30708 -3.1516 0
M  V30 6214 O 561.84 5.2159 -2.30868 0
M  V30 6215 O 560.774 4.42571 -4.0794 0
M  V30 6216 H 564.6 1.42954 -2.67951 0
M  V30 6217 H 562.185 0.644579 -1.3478 0
M  V30 6218 H 564.067 3.75764 -1.90735 0
M  V30 6219 H 562.742 3.10851 -0.902967 0
M  V30 6220 H 561.649 2.19217 -3.03142 0
M  V30 6221 H 562.982 2.90014 -3.97684 0
M  V30 6222 N 564.634 1.40294 0.718013 0
M  V30 6223 C 565.581 1.40367 1.8321 0
M  V30 6224 C 566.551 0.260952 1.64037 0
M  V30 6225 O 567.736 0.458648 1.85205 0
M  V30 6226 C 564.876 1.26965 3.20895 0
M  V30 6227 C 563.989 2.50922 3.51656 0
M  V30 6228 C 563.124 2.29981 4.78834 0
M  V30 6229 C 562.163 3.49527 5.02491 0
M  V30 6230 N 561.3 3.27796 6.20882 0
M  V30 6231 H 566.14 2.35593 1.82482 0
M  V30 6232 H 563.677 1.17012 0.891444 0
M  V30 6233 H 565.635 1.17202 4.00399 0
M  V30 6234 H 564.265 0.353591 3.20858 0
M  V30 6235 H 563.317 2.71223 2.66725 0
M  V30 6236 H 564.629 3.39913 3.65048 0
M  V30 6237 H 563.783 2.17558 5.66351 0
M  V30 6238 H 562.522 1.38411 4.67647 0
M  V30 6239 H 561.527 3.6243 4.1343 0
M  V30 6240 H 562.752 4.42021 5.15553 0
M  V30 6241 H 560.698 2.38906 6.1095 0
M  V30 6242 H 560.615 4.10351 6.34939 0
M  V30 6243 H 561.883 3.19101 7.11193 0
M  V30 6244 N 566.112 -0.949982 1.2575 0
M  V30 6245 C 567.361 -1.68956 1.10168 0
M  V30 6246 C 567.674 -1.92327 -0.356309 0
M  V30 6247 O 568.88 -2.64026 -0.632657 0
M  V30 6248 C 567.336 -3.04196 1.92336 0
M  V30 6249 C 566.944 -2.88603 3.42655 0
M  V30 6250 C 568.688 -3.81904 1.85336 0
M  V30 6251 C 566.595 -4.19262 4.17101 0
M  V30 6252 H 565.525 -0.633645 0.408668 0
M  V30 6253 H 568.176 -1.05719 1.49986 0
M  V30 6254 H 566.558 -3.68363 1.45344 0
M  V30 6255 H 567.732 -2.3334 3.97353 0
M  V30 6256 H 566.047 -2.24345 3.50796 0
M  V30 6257 H 568.644 -4.78688 2.38248 0
M  V30 6258 H 568.987 -4.08099 0.822226 0
M  V30 6259 H 569.52 -3.24495 2.30104 0
M  V30 6260 H 566.259 -3.98254 5.20648 0
M  V30 6261 H 565.779 -4.74273 3.67186 0
M  V30 6262 H 567.458 -4.87775 4.25071 0
M  V30 6263 O 567.629 -1.19786 -1.08322 0
M  V30 6264 H 568.32 -0.948322 -1.68898 0
M  V30 END ATOM
M  V30 BEGIN BOND
M  V30 END BOND
M  V30 END CTAB
M  END
$$$$
