drugbank_target|P26391 dTDP-glucose 4,6-dehydratase (DB03751)
 OpenBabel12092119593D

  0  0  0     0  0            999 V3000
M  V30 BEGIN CTAB
M  V30 COUNTS 5666 5738 0 0 0
M  V30 BEGIN ATOM
M  V30 1 H -0.908 1.98254 -0.117106 0
M  V30 2 N 0 1.576 0 0
M  V30 3 C 0.933 2.03868 1.02534 0
M  V30 4 C 1.911 0.928543 1.3348 0
M  V30 5 O 3.095 1.19667 1.45644 0
M  V30 6 C 0.222 2.43627 2.35294 0
M  V30 7 C -0.732 3.65373 2.2001 0
M  V30 8 S 0.101 5.13292 1.52614 0
M  V30 9 C 1.257 5.56322 2.86805 0
M  V30 10 H 1.49 2.90518 0.631377 0
M  V30 11 H -0.977 1.52953 0.210867 0
M  V30 12 H 0.981 2.67203 3.11629 0
M  V30 13 H -0.358 1.57376 2.7183 0
M  V30 14 H -1.165 3.90944 3.18086 0
M  V30 15 H -1.563 3.418 1.51819 0
M  V30 16 H 0.729 5.58782 3.83104 0
M  V30 17 H 1.672 6.56266 2.65933 0
M  V30 18 H 2.08 4.83886 2.90714 0
M  V30 19 N 1.4781 -0.272755 1.55222 0
M  V30 20 C 2.4251 -1.33716 1.88119 0
M  V30 21 C 3.3951 -1.49066 0.73271 0
M  V30 22 O 4.5801 -1.63469 0.984002 0
M  V30 23 C 1.7201 -2.69238 2.15882 0
M  V30 24 C 0.8331 -2.62108 3.43399 0
M  V30 25 C -0.0319 -3.89811 3.60861 0
M  V30 26 C -0.9929 -3.77193 4.8207 0
M  V30 27 N -1.8559 -4.9673 4.96189 0
M  V30 28 H 2.9841 -1.04962 2.78903 0
M  V30 29 H 0.5211 -0.507088 1.38083 0
M  V30 30 H 2.4791 -3.48089 2.29978 0
M  V30 31 H 1.1091 -2.96194 1.28331 0
M  V30 32 H 0.1611 -1.74967 3.37773 0
M  V30 33 H 1.4731 -2.48685 4.32386 0
M  V30 34 H 0.6271 -4.77103 3.74777 0
M  V30 35 H -0.6339 -4.06102 2.7006 0
M  V30 36 H -1.6289 -2.88284 4.68159 0
M  V30 37 H -0.4039 -3.62421 5.74307 0
M  V30 38 H -2.4579 -5.13431 4.08319 0
M  V30 39 H -2.5409 -4.85839 5.79221 0
M  V30 40 H -1.2729 -5.85594 5.1449 0
M  V30 41 N 2.9562 -1.48159 -0.537278 0
M  V30 42 C 4.2052 -1.5506 -1.28993 0
M  V30 43 C 4.5182 -0.226211 -1.94288 0
M  V30 44 O 5.7242 -0.173395 -2.70946 0
M  V30 45 C 4.1802 -2.73429 -2.34018 0
M  V30 46 C 3.7882 -4.1248 -1.74825 0
M  V30 47 C 5.5322 -2.89638 -3.10339 0
M  V30 48 C 3.4392 -5.22121 -2.77747 0
M  V30 49 H 2.3692 -0.577231 -0.485098 0
M  V30 50 H 5.0202 -1.74478 -0.568317 0
M  V30 51 H 3.4022 -2.47431 -3.09182 0
M  V30 52 H 4.5762 -4.48466 -1.05899 0
M  V30 53 H 2.8912 -4.01327 -1.11022 0
M  V30 54 H 5.4882 -3.68718 -3.87235 0
M  V30 55 H 5.8312 -1.9882 -3.65754 0
M  V30 56 H 6.3642 -3.15502 -2.42288 0
M  V30 57 H 3.1032 -6.1488 -2.27161 0
M  V30 58 H 2.6232 -4.90631 -3.45024 0
M  V30 59 H 4.3022 -5.49924 -3.4087 0
M  V30 60 N 4.4343 0.785586 -1.36625 0
M  V30 61 C 5.3643 1.91259 -1.33949 0
M  V30 62 C 6.3453 1.68795 -0.210325 0
M  V30 63 O 7.5303 1.89854 -0.408561 0
M  V30 64 C 4.6603 3.28339 -1.13186 0
M  V30 65 C 3.6143 3.65335 -2.22967 0
M  V30 66 C 2.9403 5.00806 -1.87342 0
M  V30 67 C 4.2403 3.7352 -3.65075 0
M  V30 68 H 5.9343 1.93755 -2.28253 0
M  V30 69 H 3.4803 0.930788 -1.09874 0
M  V30 70 H 5.4333 4.06804 -1.09948 0
M  V30 71 H 4.1573 3.2624 -0.153332 0
M  V30 72 H 2.8163 2.89169 -2.25337 0
M  V30 73 H 2.4643 4.95233 -0.880545 0
M  V30 74 H 2.1643 5.26529 -2.60846 0
M  V30 75 H 3.6883 5.81687 -1.85667 0
M  V30 76 H 5.1023 4.42168 -3.64911 0
M  V30 77 H 3.4993 4.10731 -4.37516 0
M  V30 78 H 4.5693 2.74527 -3.99703 0
M  V30 79 N 5.9124 1.20967 1.01018 0
M  V30 80 C 7.1614 1.01796 1.74128 0
M  V30 81 C 7.4744 -0.449691 1.90361 0
M  V30 82 O 8.6804 -0.76068 2.60626 0
M  V30 83 C 7.1364 1.7727 3.13215 0
M  V30 84 C 6.7444 3.28171 3.04972 0
M  V30 85 C 8.4884 1.66489 3.90489 0
M  V30 86 C 6.3954 3.96156 4.39107 0
M  V30 87 H 5.3254 0.377276 0.652824 0
M  V30 88 H 7.9764 1.44651 1.12909 0
M  V30 89 H 6.3584 1.27205 3.75013 0
M  V30 90 H 7.5324 3.85499 2.52443 0
M  V30 91 H 5.8474 3.39437 2.41188 0
M  V30 92 H 8.4444 2.14617 4.89738 0
M  V30 93 H 8.7874 0.6222 4.11624 0
M  V30 94 H 9.3204 2.14003 3.35332 0
M  V30 95 H 6.0594 5.00604 4.23174 0
M  V30 96 H 5.5794 3.43617 4.91617 0
M  V30 97 H 7.2584 4.00774 5.07926 0
M  V30 98 N 7.3905 -1.2043 1.01659 0
M  V30 99 C 8.6185 -1.93777 0.725132 0
M  V30 100 C 9.0335 -1.74772 -0.714166 0
M  V30 101 O 8.3905 -1.06169 -1.4844 0
M  V30 102 C 8.4415 -3.45876 1.05129 0
M  V30 103 O 8.1625 -3.6426 2.43406 0
M  V30 104 C 9.6635 -4.36368 0.780891 0
M  V30 105 H 6.8835 -0.615901 0.266284 0
M  V30 106 H 9.4275 -1.52922 1.35776 0
M  V30 107 H 7.5825 -3.8461 0.464065 0
M  V30 108 H 7.9965 -4.58246 2.55169 0
M  V30 109 H 9.4705 -5.41743 1.05918 0
M  V30 110 H 9.9475 -4.38275 -0.284937 0
M  V30 111 H 10.5535 -4.03296 1.35027 0
M  V30 112 N 8.8686 -0.792821 -1.36206 0
M  V30 113 C 10.1166 -0.366062 -1.98757 0
M  V30 114 C 10.4376 1.0668 -1.63231 0
M  V30 115 O 9.7076 1.73587 -0.907978 0
M  V30 116 H 8.2876 -0.132364 -0.735179 0
M  V30 117 H 10.9496 -1.01562 -1.66347 0
M  V30 118 H 10.0456 -0.460638 -3.08682 0
M  V30 119 N 10.3467 1.47872 -0.545128 0
M  V30 120 C 11.5947 2.02093 -0.016553 0
M  V30 121 C 11.9157 1.42305 1.3332 0
M  V30 122 O 11.1857 0.593853 1.86682 0
M  V30 123 H 9.7657 0.746993 -0.00313038 0
M  V30 124 H 12.4277 1.81414 -0.712397 0
M  V30 125 H 11.5237 3.11996 0.0805422 0
M  V30 126 N 11.8248 0.280983 1.55075 0
M  V30 127 C 12.7878 -0.590896 2.21452 0
M  V30 128 C 13.7878 -1.07682 1.19421 0
M  V30 129 O 14.9778 -0.97605 1.44288 0
M  V30 130 C 12.1098 -1.81587 2.88511 0
M  V30 131 H 13.3028 -0.0112554 2.99898 0
M  V30 132 H 10.8558 0.0316438 1.56268 0
M  V30 133 H 11.5908 -2.43587 2.14093 0
M  V30 134 H 11.3758 -1.4753 3.63287 0
M  V30 135 H 12.8658 -2.43575 3.39206 0
M  V30 136 N 13.3029 -1.57598 0.00835791 0
M  V30 137 C 14.5509 -1.90551 -0.6734 0
M  V30 138 C 14.8719 -0.883301 -1.73847 0
M  V30 139 O 14.1419 0.0781442 -1.95744 0
M  V30 140 H 12.7219 -0.703312 -0.251717 0
M  V30 141 H 15.3839 -1.94833 0.0512592 0
M  V30 142 H 14.4799 -2.9056 -1.13935 0
M  V30 143 N 14.781 0.264519 -1.55364 0
M  V30 144 C 16.028 0.994986 -1.7637 0
M  V30 145 C 16.356 1.85976 -0.5695 0
M  V30 146 O 15.611 1.90509 0.44776 0
M  V30 147 C 15.91 1.9004 -3.02687 0
M  V30 148 C 15.576 1.19243 -4.34847 0
M  V30 149 C 14.238 0.996709 -4.70764 0
M  V30 150 C 16.59 0.689296 -5.16622 0
M  V30 151 C 13.918 0.285261 -5.86006 0
M  V30 152 C 16.27 -0.00860079 -6.32599 0
M  V30 153 C 14.934 -0.215963 -6.67151 0
M  V30 154 H 14.204 0.364091 -0.645383 0
M  V30 155 H 16.851 0.266543 -1.89636 0
M  V30 156 H 15.156 2.69533 -2.84357 0
M  V30 157 H 16.853 2.46695 -3.16137 0
M  V30 158 H 13.443 1.3549 -4.06621 0
M  V30 159 H 17.627 0.828108 -4.89342 0
M  V30 160 H 12.883 0.113961 -6.11294 0
M  V30 161 H 17.057 -0.406186 -6.95214 0
M  V30 162 H 14.684 -0.769217 -7.56298 0
M  V30 163 N 16.2591 1.48442 0.529413 0
M  V30 164 C 17.5081 1.55742 1.28169 0
M  V30 165 C 17.8211 0.236511 1.94165 0
M  V30 166 O 19.0271 0.187761 2.7085 0
M  V30 167 C 17.4831 2.74667 2.32564 0
M  V30 168 C 17.0911 4.13402 1.72636 0
M  V30 169 C 18.8351 2.9128 3.08798 0
M  V30 170 C 16.7421 5.23587 2.74975 0
M  V30 171 H 15.6721 0.579796 0.48203 0
M  V30 172 H 18.3231 1.74776 0.559056 0
M  V30 173 H 16.7051 2.49067 3.07866 0
M  V30 174 H 17.8791 4.49022 1.03519 0
M  V30 175 H 16.1941 4.0191 1.08892 0
M  V30 176 H 18.7911 3.70767 3.85274 0
M  V30 177 H 19.1341 2.00757 3.64695 0
M  V30 178 H 19.6671 3.16782 2.40611 0
M  V30 179 H 16.4061 6.16076 2.23897 0
M  V30 180 H 15.9261 4.92454 3.42417 0
M  V30 181 H 17.6051 5.51724 3.37949 0
M  V30 182 N 17.7372 -0.778329 1.37039 0
M  V30 183 C 18.9852 -1.53361 1.31623 0
M  V30 184 C 19.3062 -1.94739 -0.100831 0
M  V30 185 O 18.5762 -1.65797 -1.04347 0
M  V30 186 H 17.1562 -0.568794 0.484234 0
M  V30 187 H 19.8182 -0.926742 1.71457 0
M  V30 188 H 18.9142 -2.43606 1.95096 0
M  V30 189 N 19.2153 -1.21501 -1.00376 0
M  V30 190 C 20.4403 -1.05977 -1.78279 0
M  V30 191 C 20.8653 0.385994 -1.84097 0
M  V30 192 O 20.2233 1.27849 -1.28547 0
M  V30 193 C 20.2713 -1.66302 -3.19963 0
M  V30 194 O 19.3753 -0.909333 -4.0225 0
M  V30 195 H 18.7163 -0.372906 -0.549397 0
M  V30 196 H 21.2463 -1.6107 -1.26165 0
M  V30 197 H 21.2563 -1.70574 -3.70632 0
M  V30 198 H 19.9313 -2.71515 -3.15043 0
M  V30 199 H 18.5083 -0.941795 -3.60811 0
M  V30 200 N 20.6934 1.19889 -1.02296 0
M  V30 201 C 21.6564 2.21116 -0.603351 0
M  V30 202 C 22.6564 1.5738 0.329884 0
M  V30 203 O 23.8464 1.73802 0.117702 0
M  V30 204 C 20.9784 3.40696 0.117992 0
M  V30 205 H 22.1714 2.59754 -1.49893 0
M  V30 206 H 19.7244 1.33463 -0.813468 0
M  V30 207 H 20.4594 3.07569 1.0282 0
M  V30 208 H 20.2444 3.88188 -0.552511 0
M  V30 209 H 21.7344 4.15692 0.398696 0
M  V30 210 N 22.1715 0.800033 1.35784 0
M  V30 211 C 23.4175 0.377901 1.99248 0
M  V30 212 C 23.7505 -1.05052 1.63333 0
M  V30 213 O 23.0255 -1.72768 0.893385 0
M  V30 214 C 23.3085 0.553922 3.55814 0
M  V30 215 C 23.1615 2.0268 4.01548 0
M  V30 216 C 24.4805 -0.0244802 4.40093 0
M  V30 217 H 21.5995 0.138782 0.723815 0
M  V30 218 H 24.2415 1.00835 1.61035 0
M  V30 219 H 22.3915 0.0172398 3.88496 0
M  V30 220 H 24.0635 2.62536 3.79305 0
M  V30 221 H 22.3065 2.5256 3.52698 0
M  V30 222 H 22.9775 2.10087 5.10458 0
M  V30 223 H 25.4535 0.433775 4.13833 0
M  V30 224 H 24.3295 0.128637 5.48749 0
M  V30 225 H 24.5905 -1.11758 4.27741 0
M  V30 226 N 23.6496 -1.47581 0.552962 0
M  V30 227 C 24.8956 -2.02782 0.0273648 0
M  V30 228 C 25.2286 -1.42687 -1.31734 0
M  V30 229 O 24.5036 -0.580897 -1.85623 0
M  V30 230 C 24.7866 -3.60031 -0.0702371 0
M  V30 231 C 24.6396 -4.30566 1.30126 0
M  V30 232 C 25.9586 -4.33028 -0.785771 0
M  V30 233 H 23.0776 -0.736912 0.0114185 0
M  V30 234 H 25.7196 -1.76056 0.714432 0
M  V30 235 H 23.8696 -3.82932 -0.655382 0
M  V30 236 H 25.5416 -4.19018 1.92929 0
M  V30 237 H 23.7846 -3.91086 1.87709 0
M  V30 238 H 24.4556 -5.39114 1.18573 0
M  V30 239 H 26.9316 -4.15095 -0.288982 0
M  V30 240 H 25.8076 -5.42695 -0.823013 0
M  V30 241 H 26.0686 -4.01945 -1.841 0
M  V30 242 N 25.1277 -0.289203 -1.54924 0
M  V30 243 C 26.5437 0.0645403 -1.59469 0
M  V30 244 C 26.7437 1.53419 -1.30632 0
M  V30 245 O 25.7997 2.2852 -1.074 0
M  V30 246 C 27.1127 -0.32278 -2.98963 0
M  V30 247 C 28.6607 -0.270564 -3.11828 0
M  V30 248 C 29.1357 -0.632532 -4.53611 0
M  V30 249 N 30.6267 -0.584617 -4.59496 0
M  V30 250 C 31.3617 -0.837314 -5.67254 0
M  V30 251 N 30.8577 -1.15536 -6.83098 0
M  V30 252 N 32.6507 -0.765166 -5.56868 0
M  V30 253 H 24.8017 -1.24714 -1.71931 0
M  V30 254 H 27.0647 -0.504809 -0.802416 0
M  V30 255 H 26.7707 -1.34541 -3.24948 0
M  V30 256 H 26.6447 0.32944 -3.75759 0
M  V30 257 H 29.0317 0.742805 -2.85598 0
M  V30 258 H 29.1127 -0.957242 -2.37214 0
M  V30 259 H 28.7567 -1.64365 -4.80569 0
M  V30 260 H 28.6867 0.07609 -5.26545 0
M  V30 261 H 31.1777 -0.349248 -3.76283 0
M  V30 262 H 31.4907 -1.33447 -7.61191 0
M  V30 263 H 29.8357 -1.19328 -6.84679 0
M  V30 264 H 33.0267 -0.516432 -4.65243 0
M  V30 265 H 33.1997 -0.965477 -6.40767 0
M  V30 266 N 26.6058 1.57591 -0.0167156 0
M  V30 267 C 27.5558 2.05953 0.978137 0
M  V30 268 C 28.5398 0.957532 1.29306 0
M  V30 269 O 29.7318 1.22119 1.28125 0
M  V30 270 C 26.8608 2.58006 2.26468 0
M  V30 271 C 25.9468 3.75113 1.97867 0
M  V30 272 N 26.3378 4.86187 1.39486 0
M  V30 273 C 24.6358 3.83363 2.27924 0
M  V30 274 C 25.3368 5.67502 1.27735 0
M  V30 275 N 24.3128 5.14023 1.76866 0
M  V30 276 H 28.1148 2.89236 0.521522 0
M  V30 277 H 25.6288 1.61301 0.188596 0
M  V30 278 H 27.6258 2.90937 2.98599 0
M  V30 279 H 26.2858 1.76148 2.72767 0
M  V30 280 H 27.2968 5.06695 1.07147 0
M  V30 281 H 23.9738 3.1239 2.76982 0
M  V30 282 H 25.3638 6.66791 0.826978 0
M  V30 283 N 28.0839 -0.256276 1.55502 0
M  V30 284 C 29.3329 -0.983486 1.76098 0
M  V30 285 C 29.6459 -1.86837 0.578896 0
M  V30 286 O 30.8519 -2.63163 0.667648 0
M  V30 287 C 29.3079 -1.79868 3.1173 0
M  V30 288 C 28.9159 -0.961648 4.37557 0
M  V30 289 C 30.6599 -2.51919 3.41668 0
M  V30 290 C 28.5669 -1.77219 5.64223 0
M  V30 291 H 27.4969 -0.370936 0.656447 0
M  V30 292 H 30.1479 -0.238492 1.81944 0
M  V30 293 H 28.5299 -2.58527 2.99966 0
M  V30 294 H 29.7039 -0.218048 4.60284 0
M  V30 295 H 28.0189 -0.354913 4.14885 0
M  V30 296 H 30.6159 -3.12998 4.33516 0
M  V30 297 H 30.9589 -3.23059 2.62562 0
M  V30 298 H 31.4919 -1.80278 3.54605 0
M  V30 299 H 28.2309 -1.10471 6.46124 0
M  V30 300 H 27.7509 -2.49132 5.45613 0
M  V30 301 H 29.4299 -2.34169 6.03137 0
M  V30 302 N 29.562 -1.4872 -0.521534 0
M  V30 303 C 30.811 -1.56419 -1.27341 0
M  V30 304 C 31.124 -0.246805 -1.94037 0
M  V30 305 O 32.33 -0.202122 -2.70747 0
M  V30 306 C 30.786 -2.75896 -2.31105 0
M  V30 307 C 30.394 -4.14311 -1.70441 0
M  V30 308 C 32.138 -2.92913 -3.07249 0
M  V30 309 C 30.045 -5.25038 -2.72194 0
M  V30 310 H 28.975 -0.582344 -0.478949 0
M  V30 311 H 31.626 -1.75071 -0.549779 0
M  V30 312 H 30.008 -2.50697 -3.06541 0
M  V30 313 H 31.182 -4.49564 -1.01136 0
M  V30 314 H 29.497 -4.02482 -1.06759 0
M  V30 315 H 32.094 -3.72805 -3.83302 0
M  V30 316 H 32.437 -2.02689 -3.63625 0
M  V30 317 H 32.97 -3.18054 -2.38928 0
M  V30 318 H 29.709 -6.17255 -2.20627 0
M  V30 319 H 29.229 -4.94263 -3.39801 0
M  V30 320 H 30.908 -5.53508 -3.35019 0
M  V30 321 N 31.0401 0.771051 -1.3745 0
M  V30 322 C 31.9871 1.88435 -1.3327 0
M  V30 323 C 32.9571 1.64914 -0.198136 0
M  V30 324 O 34.1421 1.86821 -0.387606 0
M  V30 325 C 31.2821 3.25509 -1.14622 0
M  V30 326 C 30.3951 3.60979 -2.37314 0
M  V30 327 C 29.5301 4.87265 -2.11533 0
M  V30 328 C 28.5691 5.15469 -3.30088 0
M  V30 329 N 27.7061 6.32944 -3.03853 0
M  V30 330 H 32.5461 1.91344 -2.28455 0
M  V30 331 H 30.0831 0.935466 -1.13523 0
M  V30 332 H 32.0411 4.04582 -1.01831 0
M  V30 333 H 30.6711 3.21974 -0.230837 0
M  V30 334 H 29.7231 2.76885 -2.60842 0
M  V30 335 H 31.0351 3.77759 -3.25729 0
M  V30 336 H 30.1891 5.74244 -1.95777 0
M  V30 337 H 28.9281 4.7259 -1.20457 0
M  V30 338 H 27.9331 4.26966 -3.46382 0
M  V30 339 H 29.1581 5.32052 -4.22016 0
M  V30 340 H 27.1041 6.19625 -2.15407 0
M  V30 341 H 27.0211 6.50143 -3.85812 0
M  V30 342 H 28.2891 7.22857 -2.91716 0
M  V30 343 N 32.5182 1.22032 0.997298 0
M  V30 344 C 33.4662 0.983634 2.10778 0
M  V30 345 C 34.4602 -0.0717564 1.69248 0
M  V30 346 O 35.6662 0.080304 1.79821 0
M  V30 347 H 32.0412 0.300877 0.689186 0
M  V30 348 H 34.0122 1.92606 2.27916 0
M  V30 349 C 32.7612 0.57326 3.42942 0
M  V30 350 H 32.0842 1.37702 3.75338 0
M  V30 351 H 33.5242 0.447031 4.21637 0
M  V30 352 C 31.9832 -0.7167 3.29188 0
M  V30 353 O 32.5132 -1.77027 3.60589 0
M  V30 354 N 30.7192 -0.686167 2.82383 0
M  V30 355 H 30.2662 0.171507 2.57028 0
M  V30 356 H 30.2242 -1.54955 2.73562 0
M  V30 357 N 33.9963 -1.19345 1.0293 0
M  V30 358 C 35.2243 -1.92997 0.745644 0
M  V30 359 C 35.6393 -1.75519 -0.695589 0
M  V30 360 O 34.9963 -1.07737 -1.47306 0
M  V30 361 C 35.0473 -3.44741 1.08792 0
M  V30 362 O 34.7683 -3.61658 2.47256 0
M  V30 363 C 36.2693 -4.35515 0.827129 0
M  V30 364 H 33.4893 -0.613042 0.272801 0
M  V30 365 H 36.0333 -1.51473 1.3739 0
M  V30 366 H 34.1883 -3.84097 0.504832 0
M  V30 367 H 34.6023 -4.55514 2.60015 0
M  V30 368 H 36.0763 -5.40589 1.11658 0
M  V30 369 H 36.5533 -4.38552 -0.238436 0
M  V30 370 H 37.1593 -4.01841 1.39297 0
M  V30 371 N 35.4744 -0.807222 -1.35358 0
M  V30 372 C 36.4064 -0.175717 -2.28525 0
M  V30 373 C 37.4194 0.625354 -1.5031 0
M  V30 374 O 38.6084 0.457611 -1.72535 0
M  V30 375 C 35.7084 0.773471 -3.29956 0
M  V30 376 C 34.8814 0.0186296 -4.37396 0
M  V30 377 C 33.9404 0.886395 -5.18681 0
M  V30 378 O 32.9664 0.337106 -5.68201 0
M  V30 379 N 34.1684 2.20839 -5.36852 0
M  V30 380 H 36.9334 -0.976091 -2.83359 0
M  V30 381 H 34.4944 -0.662737 -1.47714 0
M  V30 382 H 36.4864 1.35824 -3.81227 0
M  V30 383 H 35.0564 1.47465 -2.75632 0
M  V30 384 H 34.2764 -0.747349 -3.87051 0
M  V30 385 H 35.5644 -0.501577 -5.06322 0
M  V30 386 H 34.9624 2.67858 -4.98265 0
M  V30 387 H 33.5194 2.74237 -5.91301 0
M  V30 388 N 36.9525 1.47285 -0.560781 0
M  V30 389 C 38.2295 1.9558 0.0277798 0
M  V30 390 C 38.6095 1.5034 1.48192 0
M  V30 391 O 37.9575 0.743882 2.16052 0
M  V30 392 C 38.1675 3.48789 -0.121418 0
M  V30 393 C 39.5155 4.24594 0.0220912 0
M  V30 394 O 40.5395 3.56166 -0.0491439 0
M  V30 395 O 39.3985 5.46217 0.175958 0
M  V30 396 H 36.4925 0.824663 0.0621342 0
M  V30 397 H 39.0385 1.5767 -0.627556 0
M  V30 398 H 37.8105 3.74533 -1.13316 0
M  V30 399 H 37.4335 3.93473 0.571366 0
M  V30 400 N 38.4306 0.297415 1.54768 0
M  V30 401 C 39.6586 -0.315623 2.04478 0
M  V30 402 C 40.0736 -1.47792 1.17486 0
M  V30 403 O 39.4306 -1.81404 0.19971 0
M  V30 404 C 39.4816 -0.7753 3.53088 0
M  V30 405 O 39.2026 0.340732 4.36773 0
M  V30 406 C 40.7036 -1.45386 4.18781 0
M  V30 407 H 37.9236 -0.0690887 0.667434 0
M  V30 408 H 40.4676 0.436003 1.99798 0
M  V30 409 H 38.6226 -1.47696 3.58141 0
M  V30 410 H 39.0366 -0.0165035 5.24497 0
M  V30 411 H 40.5106 -1.72669 5.24299 0
M  V30 412 H 40.9876 -2.39275 3.68299 0
M  V30 413 H 41.5936 -0.795475 4.17795 0
M  V30 414 N 39.9087 -1.5758 0.0250728 0
M  V30 415 C 41.1547 -1.91917 -0.655413 0
M  V30 416 C 41.4877 -0.901433 -1.72011 0
M  V30 417 O 40.7627 0.0764069 -1.9435 0
M  V30 418 C 41.0457 -3.36751 -1.27558 0
M  V30 419 C 40.8987 -4.49258 -0.220719 0
M  V30 420 C 42.2177 -3.81469 -2.19475 0
M  V30 421 H 39.3367 -0.697925 -0.23679 0
M  V30 422 H 41.9787 -1.89825 0.0815036 0
M  V30 423 H 40.1287 -3.38664 -1.90365 0
M  V30 424 H 41.8007 -4.59478 0.409601 0
M  V30 425 H 40.0437 -4.31415 0.454264 0
M  V30 426 H 40.7147 -5.47618 -0.694175 0
M  V30 427 H 43.1907 -3.81266 -1.66659 0
M  V30 428 H 42.0667 -4.83512 -2.59822 0
M  V30 429 H 42.3277 -3.16744 -3.08424 0
M  V30 430 N 41.3868 0.248026 -1.55636 0
M  V30 431 C 42.6328 0.97767 -1.77678 0
M  V30 432 C 42.9658 1.85016 -0.590135 0
M  V30 433 O 42.2408 1.90095 0.411611 0
M  V30 434 C 42.5238 1.83914 -3.09593 0
M  V30 435 C 42.3768 0.99491 -4.38659 0
M  V30 436 C 43.6958 2.82183 -3.37729 0
M  V30 437 H 40.8148 0.354005 -0.646413 0
M  V30 438 H 43.4568 0.248253 -1.88371 0
M  V30 439 H 41.6068 2.46104 -3.00608 0
M  V30 440 H 43.2788 0.391789 -4.59633 0
M  V30 441 H 41.5218 0.299231 -4.32767 0
M  V30 442 H 42.1928 1.63145 -5.2734 0
M  V30 443 H 44.6688 2.30129 -3.4667 0
M  V30 444 H 43.5448 3.39582 -4.31249 0
M  V30 445 H 43.8058 3.58588 -2.58586 0
M  V30 446 N 42.8649 1.48995 0.513639 0
M  V30 447 C 43.8129 1.65199 1.63744 0
M  V30 448 C 44.8069 0.51809 1.61283 0
M  V30 449 O 46.0129 0.697335 1.65943 0
M  V30 450 H 42.3879 0.52069 0.542574 0
M  V30 451 H 44.3589 2.59552 1.47226 0
M  V30 452 C 43.1079 1.72409 3.01945 0
M  V30 453 H 42.4309 2.59029 3.04539 0
M  V30 454 H 43.8709 1.87785 3.80148 0
M  V30 455 C 42.3299 0.46618 3.33659 0
M  V30 456 O 42.8599 -0.413744 3.99564 0
M  V30 457 N 41.0659 0.332931 2.88687 0
M  V30 458 H 40.6129 1.04996 2.35231 0
M  V30 459 H 40.5709 -0.507665 3.10274 0
M  V30 460 N 44.343 -0.763751 1.37857 0
M  V30 461 C 45.592 -1.51789 1.32827 0
M  V30 462 C 45.905 -1.95426 -0.0823719 0
M  V30 463 O 47.111 -2.70298 -0.255172 0
M  V30 464 C 45.567 -2.74133 2.33193 0
M  V30 465 C 45.175 -2.37562 3.79827 0
M  V30 466 C 46.919 -3.52054 2.37188 0
M  V30 467 C 44.826 -3.56456 4.71904 0
M  V30 468 H 43.756 -0.569896 0.493695 0
M  V30 469 H 46.407 -0.835822 1.63359 0
M  V30 470 H 44.789 -3.4427 1.9569 0
M  V30 471 H 45.963 -1.75157 4.26212 0
M  V30 472 H 44.278 -1.72798 3.78853 0
M  V30 473 H 46.875 -4.40437 3.03182 0
M  V30 474 H 47.218 -3.92486 1.38782 0
M  V30 475 H 47.751 -2.88921 2.7344 0
M  V30 476 H 44.49 -3.21099 5.71468 0
M  V30 477 H 44.01 -4.17938 4.30218 0
M  V30 478 H 45.689 -4.23168 4.89426 0
M  V30 479 N 45.8211 -1.22559 -0.990812 0
M  V30 480 C 47.0981 -0.959875 -1.70428 0
M  V30 481 C 47.4781 0.524455 -2.04481 0
M  V30 482 O 46.8261 1.49302 -1.72977 0
M  V30 483 C 47.0361 -1.85955 -2.95333 0
M  V30 484 C 48.3841 -2.11687 -3.68068 0
M  V30 485 O 49.4081 -1.8342 -3.05345 0
M  V30 486 O 48.2671 -2.59572 -4.80921 0
M  V30 487 H 45.3611 -0.361154 -0.743974 0
M  V30 488 H 47.9071 -1.33554 -1.04697 0
M  V30 489 H 46.6791 -2.86346 -2.66687 0
M  V30 490 H 46.3021 -1.4856 -3.68803 0
M  V30 491 N 47.2992 1.18797 -1.03562 0
M  V30 492 C 48.2462 2.22253 -0.622259 0
M  V30 493 C 49.2162 1.61987 0.36736 0
M  V30 494 O 50.4012 1.88986 0.262492 0
M  V30 495 C 47.5412 3.45097 0.0138462 0
M  V30 496 C 46.6542 4.19722 -1.02263 0
M  V30 497 C 45.7892 5.30009 -0.355573 0
M  V30 498 C 44.8282 5.96399 -1.37749 0
M  V30 499 N 43.9652 6.98234 -0.735766 0
M  V30 500 H 48.8052 2.56968 -1.50903 0
M  V30 501 H 46.3422 1.26245 -0.755017 0
M  V30 502 H 48.3002 4.15279 0.399948 0
M  V30 503 H 46.9302 3.11018 0.864158 0
M  V30 504 H 45.9822 3.48418 -1.52673 0
M  V30 505 H 47.2942 4.65227 -1.79903 0
M  V30 506 H 46.4482 6.0664 0.0850095 0
M  V30 507 H 45.1872 4.85592 0.452967 0
M  V30 508 H 44.1922 5.18512 -1.82826 0
M  V30 509 H 45.4172 6.42899 -2.18764 0
M  V30 510 H 43.3632 6.55979 0.0525597 0
M  V30 511 H 43.2802 7.41965 -1.44995 0
M  V30 512 H 44.5482 7.78845 -0.31941 0
M  V30 513 N 48.7773 0.814389 1.34928 0
M  V30 514 C 49.7073 0.244827 2.32213 0
M  V30 515 C 50.6883 -0.634024 1.57842 0
M  V30 516 O 51.8733 -0.562676 1.8587 0
M  V30 517 C 49.0033 -0.601106 3.42058 0
M  V30 518 C 47.9573 0.179896 4.27622 0
M  V30 519 C 47.2833 -0.788237 5.28858 0
M  V30 520 C 48.5833 1.38329 5.03649 0
M  V30 521 H 50.2773 1.05763 2.80097 0
M  V30 522 H 47.8233 0.510029 1.34665 0
M  V30 523 H 49.7763 -1.00968 4.09125 0
M  V30 524 H 48.5003 -1.44688 2.92802 0
M  V30 525 H 47.1593 0.569739 3.62146 0
M  V30 526 H 46.8073 -1.62973 4.75866 0
M  V30 527 H 46.5073 -0.269942 5.8698 0
M  V30 528 H 48.0313 -1.19485 5.98795 0
M  V30 529 H 49.4453 1.04918 5.63618 0
M  V30 530 H 47.8423 1.83662 5.71304 0
M  V30 531 H 48.9123 2.16592 4.33839 0
M  V30 532 N 50.2554 -1.46986 0.568584 0
M  V30 533 C 51.4834 -2.0683 0.0539956 0
M  V30 534 C 51.8984 -1.41953 -1.24478 0
M  V30 535 O 51.2554 -0.519933 -1.74937 0
M  V30 536 C 51.3064 -3.61254 -0.133362 0
M  V30 537 O 51.0274 -4.237 1.11399 0
M  V30 538 C 52.5284 -4.37992 -0.683927 0
M  V30 539 H 49.7484 -0.669058 0.0510141 0
M  V30 540 H 52.2924 -1.88824 0.785234 0
M  V30 541 H 50.4474 -3.78735 -0.81477 0
M  V30 542 H 50.8614 -5.16388 0.91888 0
M  V30 543 H 52.3354 -5.46684 -0.764263 0
M  V30 544 H 52.8124 -4.05058 -1.69778 0
M  V30 545 H 53.4184 -4.25283 -0.0378494 0
M  V30 546 N 51.7335 -0.305618 -1.54608 0
M  V30 547 C 52.9635 0.304333 -2.04346 0
M  V30 548 C 53.3715 1.47715 -1.18224 0
M  V30 549 O 52.7145 1.82591 -0.201577 0
M  V30 550 C 52.7765 0.819031 -3.50046 0
M  V30 551 C 52.4405 -0.22912 -4.56425 0
M  V30 552 C 53.4375 -1.05914 -5.08997 0
M  V30 553 C 51.1225 -0.372148 -5.0092 0
M  V30 554 C 53.1165 -2.01809 -6.04609 0
M  V30 555 C 50.8035 -1.33454 -5.9635 0
M  V30 556 C 51.8015 -2.15599 -6.48079 0
M  V30 557 O 51.4895 -3.10205 -7.41639 0
M  V30 558 H 51.2215 0.0693996 -0.672428 0
M  V30 559 H 53.7755 -0.444548 -2.00532 0
M  V30 560 H 52.0055 1.61852 -3.51199 0
M  V30 561 H 53.6945 1.34537 -3.82955 0
M  V30 562 H 54.4605 -0.959538 -4.75413 0
M  V30 563 H 50.3395 0.257304 -4.60281 0
M  V30 564 H 53.8835 -2.65966 -6.44909 0
M  V30 565 H 49.7805 -1.43485 -6.29351 0
M  V30 566 H 50.5485 -3.05237 -7.59455 0
M  V30 567 N 53.2116 1.57565 -0.0334293 0
M  V30 568 C 54.1746 2.09393 0.932048 0
M  V30 569 C 55.1746 1.00986 1.25134 0
M  V30 570 O 56.3646 1.27129 1.19096 0
M  V30 571 C 53.4966 2.56338 2.2473 0
M  V30 572 H 54.6896 2.95984 0.483085 0
M  V30 573 H 52.2426 1.54819 0.21468 0
M  V30 574 H 52.9776 1.7309 2.74245 0
M  V30 575 H 52.7626 3.35542 2.02865 0
M  V30 576 H 54.2526 2.96646 2.93923 0
M  V30 577 N 54.6897 -0.239769 1.55765 0
M  V30 578 C 55.9377 -0.964892 1.77579 0
M  V30 579 C 56.2587 -1.85582 0.598699 0
M  V30 580 O 55.5287 -1.92075 -0.385226 0
M  V30 581 H 54.1087 -0.359265 0.654933 0
M  V30 582 H 56.7707 -0.256001 1.93211 0
M  V30 583 H 55.8667 -1.58243 2.69009 0
M  V30 584 N 56.1678 -1.49265 -0.50573 0
M  V30 585 C 57.1158 -1.66065 -1.62866 0
M  V30 586 C 58.1098 -0.526636 -1.61006 0
M  V30 587 O 59.3158 -0.706126 -1.65571 0
M  V30 588 H 55.6908 -0.52356 -0.539805 0
M  V30 589 H 57.6618 -2.60329 -1.45848 0
M  V30 590 C 56.4108 -1.74008 -3.01026 0
M  V30 591 H 55.7338 -2.6064 -3.03161 0
M  V30 592 H 57.1738 -1.89798 -3.79147 0
M  V30 593 C 55.6328 -0.483868 -3.33407 0
M  V30 594 O 56.1628 0.392548 -3.99777 0
M  V30 595 N 54.3688 -0.348236 -2.88506 0
M  V30 596 H 53.9158 -1.06242 -2.34671 0
M  V30 597 H 53.8738 0.491204 -3.10539 0
M  V30 598 N 57.6459 0.756429 -1.3826 0
M  V30 599 C 58.5759 1.88374 -1.37976 0
M  V30 600 C 59.5569 1.68311 -0.246082 0
M  V30 601 O 60.7419 1.88944 -0.44874 0
M  V30 602 C 57.8719 3.25864 -1.20125 0
M  V30 603 C 56.8259 3.60523 -2.30666 0
M  V30 604 C 56.1519 4.9672 -1.97923 0
M  V30 605 C 57.4519 3.65692 -3.72916 0
M  V30 606 H 59.1459 1.88869 -2.32312 0
M  V30 607 H 56.6919 0.907272 -1.11824 0
M  V30 608 H 58.6449 4.0438 -1.18552 0
M  V30 609 H 57.3689 3.25841 -0.222498 0
M  V30 610 H 56.0279 2.84324 -2.3142 0
M  V30 611 H 55.6759 4.93253 -0.985393 0
M  V30 612 H 55.3759 5.20878 -2.71955 0
M  V30 613 H 56.8999 5.77618 -1.97964 0
M  V30 614 H 58.3139 4.34328 -3.74208 0
M  V30 615 H 56.7109 4.01358 -4.4613 0
M  V30 616 H 57.7809 2.65987 -4.05436 0
M  V30 617 N 59.124 1.23083 0.984299 0
M  V30 618 C 60.034 1.02515 2.11016 0
M  V30 619 C 61.05 -0.0291702 1.73976 0
M  V30 620 O 62.226 0.165434 2.00719 0
M  V30 621 C 59.291 0.614673 3.41208 0
M  V30 622 C 58.352 1.74359 3.92297 0
M  V30 623 C 57.585 1.35261 5.16275 0
M  V30 624 O 57.808 0.235136 5.69915 0
M  V30 625 O 56.742 2.17227 5.61334 0
M  V30 626 H 60.568 1.96862 2.31255 0
M  V30 627 H 58.153 1.01753 1.09392 0
M  V30 628 H 60.035 0.396518 4.1953 0
M  V30 629 H 58.71 -0.299851 3.22308 0
M  V30 630 H 57.617 2.01635 3.1511 0
M  V30 631 H 58.95 2.63629 4.15645 0
M  V30 632 N 60.6021 -1.18246 1.0419 0
M  V30 633 C 61.8271 -1.92736 0.765996 0
M  V30 634 C 62.2521 -1.75728 -0.67091 0
M  V30 635 O 61.6101 -1.06825 -1.46486 0
M  V30 636 C 61.6581 -3.42148 1.13875 0
M  V30 637 O 60.7621 -4.11548 0.264954 0
M  V30 638 H 60.1031 -0.601238 0.281797 0
M  V30 639 H 62.6331 -1.49942 1.39207 0
M  V30 640 H 62.6431 -3.92858 1.1012 0
M  V30 641 H 61.3181 -3.53848 2.18551 0
M  V30 642 H 59.8951 -3.71137 0.362226 0
M  V30 643 N 62.0802 -0.821533 -1.34494 0
M  V30 644 C 63.0102 -0.257138 -2.3208 0
M  V30 645 C 63.9912 0.625645 -1.58176 0
M  V30 646 O 65.1762 0.552811 -1.86166 0
M  V30 647 C 62.3062 0.582958 -3.42372 0
M  V30 648 C 61.2602 -0.202571 -4.2752 0
M  V30 649 C 60.5862 0.760179 -5.29269 0
M  V30 650 C 61.8862 -1.40998 -5.02908 0
M  V30 651 H 63.5802 -1.07247 -2.79532 0
M  V30 652 H 61.1262 -0.517163 -1.34393 0
M  V30 653 H 63.0792 0.987972 -4.09655 0
M  V30 654 H 61.8032 1.43133 -2.93565 0
M  V30 655 H 60.4622 -0.588936 -3.61838 0
M  V30 656 H 60.1102 1.60447 -4.76724 0
M  V30 657 H 59.8102 0.238809 -5.87115 0
M  V30 658 H 61.3342 1.16308 -5.9942 0
M  V30 659 H 62.7482 -1.07905 -5.63054 0
M  V30 660 H 61.1452 -1.86689 -5.70322 0
M  V30 661 H 62.2152 -2.1889 -4.32684 0
M  V30 662 N 63.5583 1.46682 -0.576371 0
M  V30 663 C 64.7833 2.07304 -0.0630475 0
M  V30 664 C 65.2083 1.42329 1.2298 0
M  V30 665 O 64.5663 0.504865 1.74129 0
M  V30 666 C 64.6143 3.60472 0.095895 0
M  V30 667 O 63.7183 3.95927 1.15394 0
M  V30 668 H 63.0593 0.661288 -0.0599463 0
M  V30 669 H 65.5893 1.88417 -0.797511 0
M  V30 670 H 65.5993 4.06865 0.304071 0
M  V30 671 H 64.2743 4.07157 -0.84828 0
M  V30 672 H 62.8513 3.61252 0.924724 0
M  V30 673 N 65.0364 0.313813 1.54444 0
M  V30 674 C 66.3134 -0.345447 1.92525 0
M  V30 675 C 66.6934 -1.70667 1.24242 0
M  V30 676 O 66.0414 -2.25273 0.382654 0
M  V30 677 C 66.2514 -0.44737 3.46121 0
M  V30 678 C 67.5994 -0.712238 4.18584 0
M  V30 679 O 68.6234 -0.530678 3.52225 0
M  V30 680 O 67.4824 -1.06183 5.36085 0
M  V30 681 H 64.5764 -0.195407 0.803583 0
M  V30 682 H 67.1224 0.362813 1.65776 0
M  V30 683 H 65.8944 0.509043 3.87975 0
M  V30 684 H 65.5174 -1.20359 3.78945 0
M  V30 685 N 66.5145 -1.57545 0.0417849 0
M  V30 686 C 67.7635 -1.91494 -0.633492 0
M  V30 687 C 68.0765 -0.921084 -1.72556 0
M  V30 688 O 69.2825 -1.15228 -2.45835 0
M  V30 689 C 67.7385 -3.40072 -1.17808 0
M  V30 690 C 67.3465 -4.47843 -0.118633 0
M  V30 691 C 69.0905 -3.8307 -1.82915 0
M  V30 692 C 66.9975 -5.87529 -0.675578 0
M  V30 693 H 65.9275 -0.714653 -0.24039 0
M  V30 694 H 68.5785 -1.83175 0.109148 0
M  V30 695 H 66.9605 -3.43364 -1.97274 0
M  V30 696 H 68.1345 -4.56128 0.654494 0
M  V30 697 H 66.4495 -4.14128 0.434414 0
M  V30 698 H 69.0465 -4.84794 -2.25563 0
M  V30 699 H 69.3895 -3.1881 -2.67705 0
M  V30 700 H 69.9225 -3.82255 -1.10119 0
M  V30 701 H 66.6615 -6.55362 0.134475 0
M  V30 702 H 66.1815 -5.82824 -1.4169 0
M  V30 703 H 67.8605 -6.36491 -1.1614 0
M  V30 704 N 67.9926 0.231505 -1.5589 0
M  V30 705 C 69.2176 0.978689 -1.82856 0
M  V30 706 C 69.6426 1.77559 -0.620846 0
M  V30 707 O 69.0006 1.76119 0.430305 0
M  V30 708 C 69.0486 1.87997 -3.07716 0
M  V30 709 O 68.1526 2.97393 -2.85712 0
M  V30 710 H 67.4936 0.277663 -0.603158 0
M  V30 711 H 70.0236 0.24783 -2.03093 0
M  V30 712 H 70.0336 2.2917 -3.37558 0
M  V30 713 H 68.7086 1.29417 -3.95252 0
M  V30 714 H 67.2856 2.60238 -2.67078 0
M  V30 715 N 69.4707 1.49531 0.497807 0
M  V30 716 C 70.3807 1.69176 1.62532 0
M  V30 717 C 71.3967 0.5744 1.64246 0
M  V30 718 O 72.5727 0.849497 1.82608 0
M  V30 719 C 69.6377 1.75695 2.98885 0
M  V30 720 C 68.6987 2.9929 3.07773 0
M  V30 721 C 67.9317 3.05488 4.37622 0
M  V30 722 O 68.1547 2.19192 5.26603 0
M  V30 723 O 67.0887 3.9798 4.51548 0
M  V30 724 H 70.9147 2.647 1.48887 0
M  V30 725 H 68.4997 1.3331 0.674441 0
M  V30 726 H 70.3817 1.82317 3.79919 0
M  V30 727 H 69.0567 0.8335 3.12785 0
M  V30 728 H 67.9637 2.98183 2.25915 0
M  V30 729 H 69.2967 3.91125 2.98801 0
M  V30 730 N 70.9488 -0.749086 1.3866 0
M  V30 731 C 72.1738 -1.54344 1.38538 0
M  V30 732 C 72.5988 -1.88088 -0.0216655 0
M  V30 733 O 71.9568 -1.50899 -1.00494 0
M  V30 734 C 72.0048 -2.8164 2.25192 0
M  V30 735 O 71.1088 -3.7698 1.67212 0
M  V30 736 H 70.4498 -0.466654 0.472367 0
M  V30 737 H 72.9798 -0.925355 1.82478 0
M  V30 738 H 72.9898 -3.30519 2.3921 0
M  V30 739 H 71.6648 -2.56411 3.27454 0
M  V30 740 H 70.2418 -3.35699 1.6236 0
M  V30 741 N 72.4269 -1.23603 -0.977757 0
M  V30 742 C 73.3749 -1.01704 -2.09187 0
M  V30 743 C 74.3689 0.0448214 -1.69341 0
M  V30 744 O 75.5749 -0.108902 -1.7967 0
M  V30 745 H 71.9499 -0.311803 -0.684312 0
M  V30 746 H 73.9209 -1.96207 -2.24823 0
M  V30 747 C 72.6699 -0.627746 -3.41986 0
M  V30 748 H 71.9929 -1.43656 -3.73099 0
M  V30 749 H 73.4329 -0.514053 -4.20872 0
M  V30 750 C 71.8919 0.664238 -3.30287 0
M  V30 751 O 72.4219 1.71268 -3.6336 0
M  V30 752 N 70.6279 0.641156 -2.83439 0
M  V30 753 H 70.1749 -0.212376 -2.56723 0
M  V30 754 H 70.1329 1.50583 -2.75993 0
M  V30 755 N 73.905 1.17692 -1.04816 0
M  V30 756 C 75.321 1.39863 -0.768794 0
M  V30 757 C 75.521 1.91118 0.638451 0
M  V30 758 O 74.577 2.10036 1.40146 0
M  V30 759 C 75.89 2.39274 -1.82122 0
M  V30 760 C 77.438 2.52987 -1.843 0
M  V30 761 C 77.913 3.55669 -2.88555 0
M  V30 762 N 79.404 3.63183 -2.87493 0
M  V30 763 C 80.139 4.42381 -3.64811 0
M  V30 764 N 79.635 5.25125 -4.51903 0
M  V30 765 N 81.428 4.37217 -3.53267 0
M  V30 766 H 73.579 0.82752 -1.95617 0
M  V30 767 H 75.842 0.426123 -0.846831 0
M  V30 768 H 75.548 2.08678 -2.83102 0
M  V30 769 H 75.422 3.38725 -1.65967 0
M  V30 770 H 77.809 2.82896 -0.839869 0
M  V30 771 H 77.89 1.53623 -2.04532 0
M  V30 772 H 77.534 3.26499 -3.89051 0
M  V30 773 H 77.464 4.54728 -2.65575 0
M  V30 774 H 79.955 3.04103 -2.24343 0
M  V30 775 H 80.268 5.82728 -5.07591 0
M  V30 776 H 78.613 5.24519 -4.55966 0
M  V30 777 H 81.804 3.71626 -2.84625 0
M  V30 778 H 81.977 4.98696 -4.13771 0
M  V30 779 N 75.3831 0.828654 1.34056 0
M  V30 780 C 76.6131 0.431993 2.02033 0
M  V30 781 C 77.0211 -0.96844 1.62536 0
M  V30 782 O 76.3641 -1.6391 0.829408 0
M  V30 783 C 76.4261 0.461224 3.56529 0
M  V30 784 C 76.0901 1.81599 4.1937 0
M  V30 785 C 77.0871 2.7777 4.39477 0
M  V30 786 C 74.7721 2.10604 4.56017 0
M  V30 787 C 76.7661 4.01115 4.95364 0
M  V30 788 C 74.4531 3.34207 5.11614 0
M  V30 789 C 75.4511 4.2928 5.31232 0
M  V30 790 O 75.1391 5.50699 5.8565 0
M  V30 791 H 74.8711 0.170943 0.654029 0
M  V30 792 H 77.4251 1.11988 1.72185 0
M  V30 793 H 75.6551 -0.283388 3.8566 0
M  V30 794 H 77.3441 0.0838149 4.05813 0
M  V30 795 H 78.1101 2.56659 4.11523 0
M  V30 796 H 73.9891 1.37402 4.40047 0
M  V30 797 H 77.5331 4.75333 5.10592 0
M  V30 798 H 73.4301 3.55179 5.38997 0
M  V30 799 H 74.1981 5.52298 6.04077 0
M  V30 800 N 76.8612 -1.46375 0.584142 0
M  V30 801 C 77.8092 -2.32042 -0.161047 0
M  V30 802 C 78.8032 -1.44569 -0.882966 0
M  V30 803 O 80.0092 -1.61186 -0.801191 0
M  V30 804 H 76.3842 -0.748659 -0.0708033 0
M  V30 805 H 78.3552 -2.92704 0.580269 0
M  V30 806 C 77.1042 -3.27762 -1.1605 0
M  V30 807 H 76.4272 -3.95051 -0.614419 0
M  V30 808 H 77.8672 -3.90481 -1.65228 0
M  V30 809 C 76.3262 -2.53218 -2.22221 0
M  V30 810 O 76.8562 -2.29628 -3.29597 0
M  V30 811 N 75.0622 -2.13756 -1.96868 0
M  V30 812 H 74.6092 -2.33142 -1.09557 0
M  V30 813 H 74.5672 -1.642 -2.68115 0
M  V30 814 N 78.3393 -0.321999 -1.54275 0
M  V30 815 C 79.5863 0.281044 -2.0054 0
M  V30 816 C 79.9143 1.52265 -1.21019 0
M  V30 817 O 79.1693 1.93687 -0.279982 0
M  V30 818 C 79.4683 0.661769 -3.5122 0
M  V30 819 C 79.1343 -0.480482 -4.48333 0
M  V30 820 C 77.7963 -0.794005 -4.74604 0
M  V30 821 C 80.1483 -1.24783 -5.06042 0
M  V30 822 C 77.4763 -1.87763 -5.55844 0
M  V30 823 C 79.8283 -2.32153 -5.88462 0
M  V30 824 C 78.4923 -2.64089 -6.13036 0
M  V30 825 H 77.7623 0.102841 -0.733829 0
M  V30 826 H 80.4093 -0.445453 -1.86247 0
M  V30 827 H 78.7143 1.46867 -3.63232 0
M  V30 828 H 80.4113 1.13989 -3.84457 0
M  V30 829 H 77.0013 -0.226039 -4.28004 0
M  V30 830 H 81.1853 -1.01887 -4.85729 0
M  V30 831 H 76.4413 -2.12954 -5.73115 0
M  V30 832 H 80.6153 -2.92057 -6.32199 0
M  V30 833 H 78.2423 -3.48185 -6.75775 0
M  V30 834 N 79.8174 1.5752 -0.0501392 0
M  V30 835 C 80.7274 2.14952 0.939827 0
M  V30 836 C 81.7434 1.10706 1.34239 0
M  V30 837 O 82.9194 1.42869 1.41952 0
M  V30 838 C 79.9844 2.68232 2.19665 0
M  V30 839 C 79.0454 3.87272 1.85253 0
M  V30 840 C 78.2784 4.38002 3.04943 0
M  V30 841 O 78.5014 3.87811 4.18281 0
M  V30 842 O 77.4354 5.29602 2.86017 0
M  V30 843 H 81.2614 2.9986 0.481392 0
M  V30 844 H 78.8464 1.4841 0.171699 0
M  V30 845 H 80.7284 3.02475 2.93406 0
M  V30 846 H 79.4034 1.86395 2.64648 0
M  V30 847 H 78.3104 3.5792 1.0883 0
M  V30 848 H 79.6434 4.70336 1.4507 0
M  V30 849 N 81.2955 -0.223234 1.56011 0
M  V30 850 C 82.2455 -1.28008 1.88674 0
M  V30 851 C 83.2295 -1.42369 0.749663 0
M  V30 852 O 84.4215 -1.45212 1.01205 0
M  V30 853 C 81.5505 -2.63084 2.20548 0
M  V30 854 C 80.6365 -2.52632 3.40643 0
M  V30 855 N 81.0275 -2.11829 4.59306 0
M  V30 856 C 79.3255 -2.83594 3.44224 0
M  V30 857 C 80.0265 -2.12587 5.41463 0
M  V30 858 N 79.0025 -2.5301 4.81131 0
M  V30 859 H 82.8045 -0.955487 2.77935 0
M  V30 860 H 80.3185 -0.431801 1.56554 0
M  V30 861 H 82.3155 -3.39385 2.42122 0
M  V30 862 H 80.9755 -2.96391 1.32599 0
M  V30 863 H 81.9865 -1.82988 4.84496 0
M  V30 864 H 78.6635 -3.21284 2.66614 0
M  V30 865 H 80.0535 -1.83179 6.46448 0
M  V30 866 N 82.7736 -1.49793 -0.48987 0
M  V30 867 C 83.7366 -1.66752 -1.57246 0
M  V30 868 C 84.7366 -0.538867 -1.51502 0
M  V30 869 O 85.9266 -0.805545 -1.54456 0
M  V30 870 C 83.0586 -1.67528 -2.96896 0
M  V30 871 H 84.2516 -2.63321 -1.43534 0
M  V30 872 H 81.8046 -1.38992 -0.714914 0
M  V30 873 H 82.5396 -0.725837 -3.16073 0
M  V30 874 H 82.3246 -2.49504 -3.02473 0
M  V30 875 H 83.8146 -1.82667 -3.7553 0
M  V30 876 N 84.2517 0.741722 -1.39055 0
M  V30 877 C 85.5287 1.49252 -1.26425 0
M  V30 878 C 85.9087 2.10705 0.129144 0
M  V30 879 O 85.2567 1.98045 1.13976 0
M  V30 880 C 85.4667 2.54934 -2.38347 0
M  V30 881 C 86.8147 3.21506 -2.77343 0
M  V30 882 O 87.8387 2.65245 -2.37747 0
M  V30 883 O 86.6977 4.23294 -3.45665 0
M  V30 884 H 83.7917 0.662451 -0.495064 0
M  V30 885 H 86.3377 0.776121 -1.50912 0
M  V30 886 H 85.1097 2.07857 -3.31529 0
M  V30 887 H 84.7327 3.34141 -2.15489 0
M  V30 888 N 85.7298 1.2412 0.971189 0
M  V30 889 C 86.9788 1.07284 1.70801 0
M  V30 890 C 87.2918 -0.388902 1.91695 0
M  V30 891 O 88.4978 -0.677379 2.62914 0
M  V30 892 C 86.9538 1.87145 3.07416 0
M  V30 893 C 86.5618 3.37707 2.94377 0
M  V30 894 C 88.3058 1.78828 3.84995 0
M  V30 895 C 86.2128 4.09925 4.26281 0
M  V30 896 H 85.1428 0.397854 0.64049 0
M  V30 897 H 87.7938 1.4817 1.0825 0
M  V30 898 H 86.1758 1.39071 3.70777 0
M  V30 899 H 87.3498 3.93335 2.4005 0
M  V30 900 H 85.6648 3.46938 2.30267 0
M  V30 901 H 88.2618 2.30089 4.82662 0
M  V30 902 H 88.6048 0.75284 4.09436 0
M  V30 903 H 89.1378 2.24563 3.28354 0
M  V30 904 H 85.8768 5.13813 4.07033 0
M  V30 905 H 85.3968 3.59083 4.80437 0
M  V30 906 H 87.0758 4.1673 4.94919 0
M  V30 907 N 87.2079 -1.17134 1.05439 0
M  V30 908 C 88.4479 -1.89137 0.77502 0
M  V30 909 C 88.8119 -1.79345 -0.685526 0
M  V30 910 O 90.0129 -2.46188 -1.0791 0
M  V30 911 C 88.2839 -3.35003 1.2453 0
M  V30 912 S 89.8429 -4.24952 1.09367 0
M  V30 913 H 86.6609 -0.652949 0.281387 0
M  V30 914 H 89.2629 -1.4145 1.34953 0
M  V30 915 H 87.9669 -3.39666 2.30338 0
M  V30 916 H 87.4979 -3.87736 0.665166 0
M  V30 917 H 89.5129 -4.96196 0.0193397 0
M  V30 918 N 88.686 -0.835752 -1.33615 0
M  V30 919 C 89.963 -0.352017 -1.92406 0
M  V30 920 C 90.343 1.16225 -1.76224 0
M  V30 921 O 89.691 1.97526 -1.14873 0
M  V30 922 C 89.901 -0.795485 -3.39813 0
M  V30 923 C 91.249 -0.801703 -4.16963 0
M  V30 924 O 92.273 -0.738889 -3.48452 0
M  V30 925 O 91.132 -0.886607 -5.3926 0
M  V30 926 H 88.226 -0.0989641 -0.821057 0
M  V30 927 H 90.772 -0.921397 -1.42507 0
M  V30 928 H 89.544 -1.83795 -3.45449 0
M  V30 929 H 89.167 -0.202505 -3.97084 0
M  V30 930 N 90.1641 1.46063 -0.591896 0
M  V30 931 C 91.3891 2.07226 -0.0850314 0
M  V30 932 C 91.8141 1.43625 1.21463 0
M  V30 933 O 91.1721 0.523305 1.73583 0
M  V30 934 C 91.2201 3.60554 0.0576567 0
M  V30 935 O 90.3241 3.97128 1.11188 0
M  V30 936 H 89.6651 0.660615 -0.0669568 0
M  V30 937 H 92.1951 1.8756 -0.81745 0
M  V30 938 H 92.2051 4.07165 0.2609 0
M  V30 939 H 90.8801 4.06235 -0.891416 0
M  V30 940 H 89.4571 3.62213 0.886356 0
M  V30 941 N 91.6422 0.330177 1.54103 0
M  V30 942 C 92.6052 -0.520144 2.2322 0
M  V30 943 C 93.6052 -1.03828 1.22786 0
M  V30 944 O 94.7952 -0.929652 1.4732 0
M  V30 945 C 91.9272 -1.72317 2.94142 0
M  V30 946 H 93.1202 0.0841605 2.99782 0
M  V30 947 H 90.6732 0.0813433 1.56088 0
M  V30 948 H 91.4082 -2.36653 2.21734 0
M  V30 949 H 91.1932 -1.35898 3.67796 0
M  V30 950 H 92.6832 -2.3266 3.46784 0
M  V30 951 N 93.1203 -1.57491 0.0584922 0
M  V30 952 C 94.0303 -2.15448 -0.928414 0
M  V30 953 C 95.0463 -1.11416 -1.3365 0
M  V30 954 O 96.2223 -1.4362 -1.41193 0
M  V30 955 C 93.2873 -2.69393 -2.18239 0
M  V30 956 C 92.3483 -3.88249 -1.83196 0
M  V30 957 C 91.5813 -4.39613 -3.02616 0
M  V30 958 O 91.8043 -3.90023 -4.16219 0
M  V30 959 O 90.7383 -5.31111 -2.83204 0
M  V30 960 H 94.5643 -3.00112 -0.465483 0
M  V30 961 H 92.1493 -1.48499 -0.163826 0
M  V30 962 H 94.0313 -3.04026 -2.91798 0
M  V30 963 H 92.7063 -1.87796 -2.63656 0
M  V30 964 H 91.6133 -3.58492 -1.06931 0
M  V30 965 H 92.9463 -4.71098 -1.42573 0
M  V30 966 N 94.5984 0.214957 -1.56127 0
M  V30 967 C 95.8474 0.936451 -1.78643 0
M  V30 968 C 96.1604 1.85237 -0.628229 0
M  V30 969 O 97.3664 2.613 -0.737186 0
M  V30 970 C 95.8224 1.7154 -3.16389 0
M  V30 971 C 95.4304 0.845299 -4.39953 0
M  V30 972 C 97.1744 2.42772 -3.48227 0
M  V30 973 C 95.0814 1.62198 -5.68723 0
M  V30 974 H 94.0114 0.353401 -0.666051 0
M  V30 975 H 96.6624 0.190169 -1.82512 0
M  V30 976 H 95.0444 2.50484 -3.06715 0
M  V30 977 H 96.2184 0.0959353 -4.607 0
M  V30 978 H 94.5334 0.244789 -4.1568 0
M  V30 979 H 97.1304 3.01394 -4.41663 0
M  V30 980 H 97.4734 3.15984 -2.71035 0
M  V30 981 H 98.0064 1.70813 -3.5926 0
M  V30 982 H 94.7454 0.933011 -6.48826 0
M  V30 983 H 94.2654 2.34579 -5.52026 0
M  V30 984 H 95.9444 2.18095 -6.09133 0
M  V30 985 N 96.0765 1.50051 0.48192 0
M  V30 986 C 97.3045 1.64237 1.25832 0
M  V30 987 C 97.7195 0.321336 1.86045 0
M  V30 988 O 97.0765 -0.695478 1.68729 0
M  V30 989 C 97.1275 2.72548 2.37487 0
M  V30 990 O 96.8485 3.99529 1.79745 0
M  V30 991 C 98.3495 2.9761 3.28547 0
M  V30 992 H 95.5695 0.55237 0.380957 0
M  V30 993 H 98.1135 1.96207 0.576467 0
M  V30 994 H 96.2685 2.43303 3.01467 0
M  V30 995 H 96.6825 4.59342 2.5319 0
M  V30 996 H 98.1565 3.77084 4.03127 0
M  V30 997 H 98.6335 2.0826 3.86684 0
M  V30 998 H 99.2395 3.28345 2.70314 0
M  V30 999 N 97.5546 -0.734337 1.39446 0
M  V30 1000 C 98.9706 -1.03997 1.21065 0
M  V30 1001 C 99.1706 -2.01369 0.0727019 0
M  V30 1002 O 98.2266 -2.45856 -0.575426 0
M  V30 1003 C 99.5396 -1.60163 2.54496 0
M  V30 1004 C 101.088 -1.7224 2.61347 0
M  V30 1005 C 101.563 -2.31814 3.95002 0
M  V30 1006 N 103.054 -2.39223 3.96644 0
M  V30 1007 C 103.789 -2.86258 4.96834 0
M  V30 1008 N 103.285 -3.33184 6.07421 0
M  V30 1009 N 105.078 -2.85473 4.84213 0
M  V30 1010 H 97.2286 -0.0885624 2.12215 0
M  V30 1011 H 99.4916 -0.10191 0.942506 0
M  V30 1012 H 99.1976 -0.960811 3.38321 0
M  V30 1013 H 99.0716 -2.5896 2.74262 0
M  V30 1014 H 101.459 -2.35443 1.77906 0
M  V30 1015 H 101.54 -0.720939 2.4543 0
M  V30 1016 H 101.184 -1.69238 4.78875 0
M  V30 1017 H 101.114 -3.32638 4.08239 0
M  V30 1018 H 103.605 -2.06057 3.16779 0
M  V30 1019 H 103.918 -3.67586 6.7978 0
M  V30 1020 H 102.263 -3.31191 6.11013 0
M  V30 1021 H 105.454 -2.48136 3.96921 0
M  V30 1022 H 105.627 -3.21814 5.62441 0
M  V30 1023 N 99.0327 -1.24633 -0.964593 0
M  V30 1024 C 100.282 -1.08188 -1.7023 0
M  V30 1025 C 100.595 0.37873 -1.91898 0
M  V30 1026 O 101.801 0.663427 -2.6327 0
M  V30 1027 C 100.257 -1.88773 -3.06419 0
M  V30 1028 C 99.8647 -3.39263 -2.92582 0
M  V30 1029 C 101.609 -1.80867 -3.84041 0
M  V30 1030 C 99.5157 -4.1218 -4.24101 0
M  V30 1031 H 98.4457 -0.401245 -0.638372 0
M  V30 1032 H 101.097 -1.48742 -1.07462 0
M  V30 1033 H 99.4787 -1.41035 -3.70034 0
M  V30 1034 H 100.653 -3.94603 -2.37961 0
M  V30 1035 H 98.9677 -3.48154 -2.28424 0
M  V30 1036 H 101.565 -2.32646 -4.81435 0
M  V30 1037 H 101.908 -0.774543 -4.09031 0
M  V30 1038 H 102.441 -2.26301 -3.27159 0
M  V30 1039 H 99.1797 -5.15965 -4.04303 0
M  V30 1040 H 98.6997 -3.61626 -4.78526 0
M  V30 1041 H 100.379 -4.19349 -4.92702 0
M  V30 1042 N 100.511 1.16574 -1.06058 0
M  V30 1043 C 101.758 1.87047 -0.775873 0
M  V30 1044 C 102.086 1.81562 0.697534 0
M  V30 1045 O 101.341 1.22445 1.52662 0
M  V30 1046 C 101.64 3.36195 -1.21275 0
M  V30 1047 C 101.306 3.6188 -2.68986 0
M  V30 1048 C 99.9678 3.68599 -3.09335 0
M  V30 1049 C 102.32 3.72648 -3.64394 0
M  V30 1050 C 99.6478 3.83584 -4.43937 0
M  V30 1051 C 102 3.89154 -4.98741 0
M  V30 1052 C 100.664 3.94114 -5.3873 0
M  V30 1053 H 99.9338 0.684452 -0.283912 0
M  V30 1054 H 102.581 1.37853 -1.32925 0
M  V30 1055 H 100.886 3.87505 -0.578528 0
M  V30 1056 H 102.583 3.89103 -0.969542 0
M  V30 1057 H 99.1728 3.57281 -2.36744 0
M  V30 1058 H 103.357 3.66769 -3.34356 0
M  V30 1059 H 98.6128 3.85677 -4.74409 0
M  V30 1060 H 102.787 3.96427 -5.72554 0
M  V30 1061 H 100.414 4.05478 -6.43033 0
M  V30 1062 N 101.989 0.842826 1.3317 0
M  V30 1063 C 102.899 0.281444 2.32906 0
M  V30 1064 C 103.915 -0.594587 1.63526 0
M  V30 1065 O 105.091 -0.49777 1.95152 0
M  V30 1066 C 102.156 -0.530929 3.42611 0
M  V30 1067 C 101.217 0.369843 4.27704 0
M  V30 1068 C 100.45 -0.403853 5.3217 0
M  V30 1069 O 100.673 -1.63513 5.46461 0
M  V30 1070 O 99.6069 0.224199 6.01482 0
M  V30 1071 H 103.433 1.10744 2.82789 0
M  V30 1072 H 101.018 0.60545 1.36582 0
M  V30 1073 H 102.9 -0.992437 4.09547 0
M  V30 1074 H 101.575 -1.33392 2.94938 0
M  V30 1075 H 100.482 0.879275 3.6362 0
M  V30 1076 H 101.815 1.13771 4.78871 0
M  V30 1077 N 103.467 -1.45747 0.599634 0
M  V30 1078 C 104.399 -2.28628 -0.161879 0
M  V30 1079 C 105.412 -1.39494 -0.839367 0
M  V30 1080 O 106.601 -1.63941 -0.706089 0
M  V30 1081 C 103.701 -3.15014 -1.24976 0
M  V30 1082 C 102.874 -4.32378 -0.660935 0
M  V30 1083 C 101.933 -5.00033 -1.63869 0
M  V30 1084 O 100.959 -5.57085 -1.1681 0
M  V30 1085 N 102.161 -4.98589 -2.97303 0
M  V30 1086 H 104.926 -2.94624 0.549265 0
M  V30 1087 H 102.487 -1.55847 0.438565 0
M  V30 1088 H 104.479 -3.5714 -1.9035 0
M  V30 1089 H 103.049 -2.5098 -1.86354 0
M  V30 1090 H 102.269 -3.9383 0.170688 0
M  V30 1091 H 103.557 -5.08197 -0.247619 0
M  V30 1092 H 102.955 -4.53514 -3.38145 0
M  V30 1093 H 101.512 -5.44603 -3.58121 0
M  V30 1094 N 104.945 -0.338344 -1.53925 0
M  V30 1095 C 106.175 0.260919 -2.04946 0
M  V30 1096 C 106.583 1.45174 -1.2133 0
M  V30 1097 O 105.926 1.82122 -0.240262 0
M  V30 1098 C 105.988 0.744596 -3.51704 0
M  V30 1099 C 105.652 -0.325883 -4.55837 0
M  V30 1100 C 106.649 -1.16687 -5.06636 0
M  V30 1101 C 104.334 -0.478317 -5.00017 0
M  V30 1102 C 106.328 -2.14588 -6.00192 0
M  V30 1103 C 104.015 -1.46073 -5.93385 0
M  V30 1104 C 105.013 -2.29297 -6.4336 0
M  V30 1105 O 104.701 -3.25867 -7.34892 0
M  V30 1106 H 104.433 0.0551207 -0.673749 0
M  V30 1107 H 106.987 -0.486984 -1.99544 0
M  V30 1108 H 105.217 1.54366 -3.54553 0
M  V30 1109 H 106.906 1.26383 -3.85723 0
M  V30 1110 H 107.672 -1.06016 -4.73271 0
M  V30 1111 H 103.551 0.159613 -4.60724 0
M  V30 1112 H 107.095 -2.79585 -6.39123 0
M  V30 1113 H 102.992 -1.56802 -6.26166 0
M  V30 1114 H 103.76 -3.21278 -7.5281 0
M  V30 1115 N 106.423 1.57458 -0.0668435 0
M  V30 1116 C 107.355 2.09413 0.931601 0
M  V30 1117 C 108.368 1.02522 1.26464 0
M  V30 1118 O 109.557 1.30049 1.22269 0
M  V30 1119 C 106.657 2.53537 2.24882 0
M  V30 1120 C 105.83 3.83944 2.09537 0
M  V30 1121 C 104.889 4.14214 3.2452 0
M  V30 1122 O 103.915 4.83891 2.9973 0
M  V30 1123 N 105.117 3.67367 4.49469 0
M  V30 1124 H 107.882 2.95699 0.488048 0
M  V30 1125 H 105.443 1.61462 0.119009 0
M  V30 1126 H 107.435 2.70853 3.00701 0
M  V30 1127 H 106.005 1.72415 2.60753 0
M  V30 1128 H 105.225 3.76057 1.18215 0
M  V30 1129 H 106.513 4.69312 1.96529 0
M  V30 1130 H 105.911 3.11068 4.72497 0
M  V30 1131 H 104.468 3.89891 5.2233 0
M  V30 1132 N 107.901 -0.206675 1.56239 0
M  V30 1133 C 109.312 -0.772383 1.69974 0
M  V30 1134 C 109.663 -1.84353 0.671436 0
M  V30 1135 O 108.788 -2.15695 -0.174491 0
M  V30 1136 C 109.383 -1.40779 3.08167 0
M  V30 1137 C 107.942 -1.92072 3.23706 0
M  V30 1138 C 107.089 -0.786347 2.65917 0
M  V30 1139 H 110.04 0.0182223 1.5869 0
M  V30 1140 H 110.061 -2.27696 3.04852 0
M  V30 1141 H 109.573 -0.627958 3.82986 0
M  V30 1142 H 107.674 -2.7281 2.53782 0
M  V30 1143 H 107.787 -2.09046 4.31087 0
M  V30 1144 H 106.151 -1.1976 2.24788 0
M  V30 1145 H 106.934 -0.0189416 3.43295 0
M  V30 1146 N 109.379 -1.50304 -0.473955 0
M  V30 1147 C 110.656 -1.51667 -1.23518 0
M  V30 1148 C 111.036 -0.259701 -2.09496 0
M  V30 1149 O 110.384 0.756986 -2.15597 0
M  V30 1150 C 110.594 -2.81082 -2.06868 0
M  V30 1151 C 111.942 -3.31631 -2.65153 0
M  V30 1152 O 112.966 -2.82384 -2.17113 0
M  V30 1153 O 111.825 -4.17471 -3.52675 0
M  V30 1154 H 108.919 -0.60822 -0.560355 0
M  V30 1155 H 111.465 -1.62592 -0.486011 0
M  V30 1156 H 110.237 -3.64041 -1.4349 0
M  V30 1157 H 109.86 -2.73146 -2.88924 0
M  V30 1158 N 110.857 0.726932 -1.39834 0
M  V30 1159 C 111.82 1.82269 -1.38962 0
M  V30 1160 C 112.82 1.58248 -0.285334 0
M  V30 1161 O 114.01 1.65499 -0.54366 0
M  V30 1162 C 111.142 3.20186 -1.17019 0
M  V30 1163 H 112.335 1.84443 -2.36476 0
M  V30 1164 H 109.888 0.931416 -1.25516 0
M  V30 1165 H 110.623 3.23669 -0.202204 0
M  V30 1166 H 110.408 3.3902 -1.96998 0
M  V30 1167 H 111.898 4.00235 -1.1917 0
M  V30 1168 N 112.336 1.25143 0.95797 0
M  V30 1169 C 113.582 1.09855 1.70469 0
M  V30 1170 C 113.915 -0.360187 1.90831 0
M  V30 1171 O 113.19 -1.26568 1.47685 0
M  V30 1172 C 113.473 1.8497 3.08963 0
M  V30 1173 C 113.326 3.38652 2.96032 0
M  V30 1174 C 114.645 1.63016 4.08795 0
M  V30 1175 H 111.764 0.400465 0.618706 0
M  V30 1176 H 114.406 1.53933 1.11376 0
M  V30 1177 H 112.556 1.47505 3.59409 0
M  V30 1178 H 114.228 3.85772 2.52938 0
M  V30 1179 H 112.471 3.66534 2.32025 0
M  V30 1180 H 113.142 3.8642 3.94187 0
M  V30 1181 H 115.618 1.95625 3.67247 0
M  V30 1182 H 114.494 2.18015 5.03747 0
M  V30 1183 H 114.755 0.570692 4.38401 0
M  V30 1184 N 113.814 -1.1601 1.06675 0
M  V30 1185 C 114.747 -2.1947 0.625168 0
M  V30 1186 C 115.725 -1.58699 -0.354041 0
M  V30 1187 O 116.909 -1.86669 -0.262098 0
M  V30 1188 C 114.036 -3.38598 -0.0829593 0
M  V30 1189 C 113.082 -4.1787 0.853611 0
M  V30 1190 S 113.915 -4.81135 2.35094 0
M  V30 1191 C 115.071 -6.03639 1.65441 0
M  V30 1192 H 115.304 -2.56587 1.50168 0
M  V30 1193 H 112.837 -1.26862 0.880078 0
M  V30 1194 H 114.795 -4.07621 -0.485288 0
M  V30 1195 H 113.456 -2.99839 -0.935716 0
M  V30 1196 H 112.649 -5.03078 0.304755 0
M  V30 1197 H 112.251 -3.54361 1.196 0
M  V30 1198 H 114.543 -6.70632 0.962201 0
M  V30 1199 H 115.486 -6.63081 2.48454 0
M  V30 1200 H 115.894 -5.52965 1.13534 0
M  V30 1201 N 115.292 -0.849877 -1.32721 0
M  V30 1202 C 116.242 -0.262892 -2.26479 0
M  V30 1203 C 117.226 0.588493 -1.49752 0
M  V30 1204 O 118.418 0.438659 -1.71478 0
M  V30 1205 C 115.547 0.551818 -3.38836 0
M  V30 1206 C 114.633 -0.311689 -4.22953 0
M  V30 1207 N 115.024 -1.39567 -4.86163 0
M  V30 1208 C 113.322 -0.100611 -4.45887 0
M  V30 1209 C 114.023 -1.92651 -5.48872 0
M  V30 1210 N 112.999 -1.22637 -5.29586 0
M  V30 1211 H 116.801 -1.09166 -2.72873 0
M  V30 1212 H 114.315 -0.695486 -1.46754 0
M  V30 1213 H 116.312 0.988713 -4.05006 0
M  V30 1214 H 114.972 1.37844 -2.93988 0
M  V30 1215 H 115.983 -1.77859 -4.86402 0
M  V30 1216 H 112.66 0.691681 -4.11731 0
M  V30 1217 H 114.05 -2.83487 -6.09167 0
M  V30 1218 N 116.77 1.45427 -0.607355 0
M  V30 1219 C 117.7 2.3329 0.0989352 0
M  V30 1220 C 118.681 1.46816 0.859007 0
M  V30 1221 O 119.866 1.75588 0.829604 0
M  V30 1222 C 116.996 3.29518 1.09705 0
M  V30 1223 C 115.95 4.25626 0.450206 0
M  V30 1224 C 115.276 5.11542 1.55655 0
M  V30 1225 C 116.576 5.18505 -0.628455 0
M  V30 1226 H 118.27 2.92595 -0.634716 0
M  V30 1227 H 115.816 1.40696 -0.306681 0
M  V30 1228 H 117.769 3.89855 1.59971 0
M  V30 1229 H 116.493 2.68372 1.86129 0
M  V30 1230 H 115.152 3.66586 -0.0315886 0
M  V30 1231 H 114.8 4.46765 2.31107 0
M  V30 1232 H 114.5 5.76647 1.12925 0
M  V30 1233 H 116.024 5.74748 2.06148 0
M  V30 1234 H 117.438 5.72916 -0.209877 0
M  V30 1235 H 115.835 5.92085 -0.977489 0
M  V30 1236 H 116.905 4.60948 -1.50514 0
M  V30 1237 N 118.248 0.346503 1.53744 0
M  V30 1238 C 119.211 -0.496439 2.23759 0
M  V30 1239 C 120.211 -1.0252 1.2388 0
M  V30 1240 O 121.401 -0.913974 1.48297 0
M  V30 1241 C 118.533 -1.69187 2.95954 0
M  V30 1242 H 119.726 0.115952 2.99676 0
M  V30 1243 H 117.279 0.0978939 1.55993 0
M  V30 1244 H 118.014 -2.34288 2.24231 0
M  V30 1245 H 117.799 -1.31989 3.69217 0
M  V30 1246 H 119.289 -2.28969 3.49232 0
M  V30 1247 N 119.726 -1.57421 0.075193 0
M  V30 1248 C 120.689 -2.11791 -0.876203 0
M  V30 1249 C 121.689 -1.04268 -1.22412 0
M  V30 1250 O 122.879 -1.30242 -1.15684 0
M  V30 1251 C 120.011 -2.62207 -2.17854 0
M  V30 1252 H 121.204 -2.9716 -0.40444 0
M  V30 1253 H 118.757 -1.55333 -0.173557 0
M  V30 1254 H 119.492 -1.803 -2.6956 0
M  V30 1255 H 119.277 -3.40802 -1.93897 0
M  V30 1256 H 120.767 -3.04335 -2.85955 0
M  V30 1257 N 121.204 0.198386 -1.56346 0
M  V30 1258 C 122.114 1.2664 -1.97483 0
M  V30 1259 C 123.13 1.49989 -0.882002 0
M  V30 1260 O 124.306 1.62668 -1.18748 0
M  V30 1261 C 121.371 2.59141 -2.30319 0
M  V30 1262 C 120.432 2.43892 -3.53292 0
M  V30 1263 C 119.665 3.70074 -3.84553 0
M  V30 1264 O 119.888 4.74101 -3.1715 0
M  V30 1265 O 118.822 3.658 -4.7799 0
M  V30 1266 H 122.648 0.947304 -2.88548 0
M  V30 1267 H 120.233 0.403123 -1.43859 0
M  V30 1268 H 122.115 3.37352 -2.5253 0
M  V30 1269 H 120.79 2.90684 -1.42423 0
M  V30 1270 H 119.697 1.63803 -3.36332 0
M  V30 1271 H 121.03 2.17282 -4.41644 0
M  V30 1272 N 122.682 1.50554 0.465978 0
M  V30 1273 C 123.907 1.65838 1.24549 0
M  V30 1274 C 124.332 0.343486 1.84937 0
M  V30 1275 O 123.69 -0.69324 1.67523 0
M  V30 1276 C 123.738 2.75533 2.32624 0
M  V30 1277 O 122.842 2.37142 3.37398 0
M  V30 1278 H 122.183 0.553893 0.366194 0
M  V30 1279 H 124.713 1.96959 0.553927 0
M  V30 1280 H 124.723 2.98763 2.77857 0
M  V30 1281 H 123.398 3.70962 1.88043 0
M  V30 1282 H 121.975 2.24377 2.97841 0
M  V30 1283 N 124.16 -0.719506 1.40217 0
M  V30 1284 C 125.11 -1.8251 1.36653 0
M  V30 1285 C 126.094 -1.59028 0.244732 0
M  V30 1286 O 127.286 -1.70268 0.483524 0
M  V30 1287 C 124.415 -3.20599 1.22763 0
M  V30 1288 C 123.501 -3.49858 2.39708 0
M  V30 1289 N 123.892 -3.49957 3.6519 0
M  V30 1290 C 122.19 -3.80297 2.33002 0
M  V30 1291 C 122.891 -3.77449 4.42614 0
M  V30 1292 N 121.867 -3.96002 3.72402 0
M  V30 1293 H 125.669 -1.80914 2.31619 0
M  V30 1294 H 123.183 -0.918455 1.33933 0
M  V30 1295 H 125.18 -3.99766 1.18292 0
M  V30 1296 H 123.84 -3.23424 0.287614 0
M  V30 1297 H 124.851 -3.309 3.98404 0
M  V30 1298 H 121.528 -3.90635 1.47346 0
M  V30 1299 H 122.918 -3.83863 5.51451 0
M  V30 1300 N 125.638 -1.25649 -0.95132 0
M  V30 1301 C 126.884 -1.10757 -1.69884 0
M  V30 1302 C 127.217 0.350061 -1.91019 0
M  V30 1303 O 126.492 1.25783 -1.48354 0
M  V30 1304 C 126.775 -1.86606 -3.07978 0
M  V30 1305 C 126.628 -3.40217 -2.94232 0
M  V30 1306 C 127.947 -1.65182 -4.07925 0
M  V30 1307 H 125.066 -0.40374 -0.616574 0
M  V30 1308 H 127.708 -1.54521 -1.10558 0
M  V30 1309 H 125.858 -1.49409 -3.58621 0
M  V30 1310 H 127.53 -3.87108 -2.50889 0
M  V30 1311 H 125.773 -3.67759 -2.30078 0
M  V30 1312 H 126.444 -3.88505 -3.92133 0
M  V30 1313 H 128.92 -1.9757 -3.66204 0
M  V30 1314 H 127.796 -2.20683 -5.02583 0
M  V30 1315 H 128.057 -0.593933 -4.38092 0
M  V30 1316 N 127.117 1.15442 -1.07289 0
M  V30 1317 C 128.394 1.82306 -0.708792 0
M  V30 1318 C 128.774 1.94991 0.808807 0
M  V30 1319 O 128.122 1.50085 1.72298 0
M  V30 1320 C 128.332 3.18695 -1.42247 0
M  V30 1321 C 129.68 3.94341 -1.57417 0
M  V30 1322 O 130.704 3.28247 -1.38319 0
M  V30 1323 O 129.563 5.12839 -1.88834 0
M  V30 1324 H 126.657 0.787628 -0.252132 0
M  V30 1325 H 129.203 1.22559 -1.17377 0
M  V30 1326 H 127.975 3.04557 -2.45684 0
M  V30 1327 H 127.598 3.86128 -0.948223 0
M  V30 1328 N 128.595 0.856903 1.32268 0
M  V30 1329 C 130.011 0.547061 1.49931 0
M  V30 1330 C 130.211 -0.921781 1.7918 0
M  V30 1331 O 129.267 -1.70469 1.8627 0
M  V30 1332 C 130.58 1.43599 2.64196 0
M  V30 1333 C 132.128 1.43665 2.78081 0
M  V30 1334 C 132.603 2.31085 3.95428 0
M  V30 1335 N 134.094 2.28893 4.02694 0
M  V30 1336 C 134.829 2.93262 4.92732 0
M  V30 1337 N 134.325 3.66751 5.87763 0
M  V30 1338 N 136.118 2.82638 4.85873 0
M  V30 1339 H 128.269 1.8075 1.11549 0
M  V30 1340 H 130.532 0.772144 0.549997 0
M  V30 1341 H 130.238 2.48058 2.49319 0
M  V30 1342 H 130.112 1.12502 3.60032 0
M  V30 1343 H 132.499 0.399701 2.92381 0
M  V30 1344 H 132.58 1.7878 1.82952 0
M  V30 1345 H 132.224 3.34849 3.81888 0
M  V30 1346 H 132.154 1.93302 4.89839 0
M  V30 1347 H 134.645 1.75466 3.34694 0
M  V30 1348 H 134.958 4.13027 6.53168 0
M  V30 1349 H 133.303 3.70859 5.87783 0
M  V30 1350 H 136.494 2.24774 4.10602 0
M  V30 1351 H 136.667 3.33084 5.55841 0
M  V30 1352 N 130.073 -1.45103 0.615059 0
M  V30 1353 C 131.298 -2.07064 0.117988 0
M  V30 1354 C 131.723 -1.4554 -1.19163 0
M  V30 1355 O 131.081 -0.550855 -1.72729 0
M  V30 1356 C 131.129 -3.606 -0.000288387 0
M  V30 1357 O 130.233 -3.98847 -1.04856 0
M  V30 1358 H 129.574 -0.659467 0.0774581 0
M  V30 1359 H 132.104 -1.86236 0.847186 0
M  V30 1360 H 132.114 -4.07529 -0.196091 0
M  V30 1361 H 130.789 -4.04765 0.955932 0
M  V30 1362 H 129.366 -3.63577 -0.828619 0
M  V30 1363 N 131.551 -0.354651 -1.53558 0
M  V30 1364 C 132.8 0.239504 -2.00273 0
M  V30 1365 C 133.113 1.50759 -1.24623 0
M  V30 1366 O 134.319 2.17968 -1.61871 0
M  V30 1367 C 132.775 0.477341 -3.5672 0
M  V30 1368 C 132.383 -0.775488 -4.41237 0
M  V30 1369 C 134.127 1.02975 -4.11821 0
M  V30 1370 C 132.034 -0.507838 -5.89216 0
M  V30 1371 H 130.964 0.0932743 -0.748208 0
M  V30 1372 H 133.615 -0.471701 -1.77334 0
M  V30 1373 H 131.997 1.24953 -3.7577 0
M  V30 1374 H 133.171 -1.54963 -4.33962 0
M  V30 1375 H 131.486 -1.25033 -3.97185 0
M  V30 1376 H 134.083 1.24513 -5.2 0
M  V30 1377 H 134.426 1.98862 -3.65731 0
M  V30 1378 H 134.959 0.317994 -3.96527 0
M  V30 1379 H 131.698 -1.43674 -6.39561 0
M  V30 1380 H 131.218 0.228011 -5.99366 0
M  V30 1381 H 132.897 -0.129238 -6.46871 0
M  V30 1382 N 133.029 1.57378 -0.0835403 0
M  V30 1383 C 134.257 1.98263 0.59157 0
M  V30 1384 C 134.672 0.962302 1.62435 0
M  V30 1385 O 134.029 -0.049581 1.82433 0
M  V30 1386 C 134.08 3.39214 1.24965 0
M  V30 1387 O 133.801 4.37339 0.258186 0
M  V30 1388 C 135.302 3.95038 2.01147 0
M  V30 1389 H 132.522 0.651773 0.159477 0
M  V30 1390 H 135.066 2.03878 -0.159415 0
M  V30 1391 H 133.221 3.34649 1.95164 0
M  V30 1392 H 133.635 5.19371 0.731734 0
M  V30 1393 H 135.109 4.95848 2.42567 0
M  V30 1394 H 135.586 3.32222 2.87272 0
M  V30 1395 H 136.192 4.0304 1.35789 0
M  V30 1396 N 134.507 -0.190092 1.56449 0
M  V30 1397 C 135.755 -0.907908 1.80559 0
M  V30 1398 C 136.076 -1.83583 0.657438 0
M  V30 1399 O 135.346 -1.93203 -0.323924 0
M  V30 1400 H 133.926 -0.338247 0.666032 0
M  V30 1401 H 136.588 -0.194403 1.93928 0
M  V30 1402 H 135.684 -1.49604 2.73907 0
M  V30 1403 N 135.985 -1.50799 -0.457987 0
M  V30 1404 C 137.396 -1.55152 -1.0385 0
M  V30 1405 C 137.747 -0.362719 -1.92818 0
M  V30 1406 O 136.872 0.522915 -2.09987 0
M  V30 1407 C 137.467 -2.81173 -1.89017 0
M  V30 1408 C 136.026 -2.88164 -2.42154 0
M  V30 1409 C 135.173 -2.49591 -1.20829 0
M  V30 1410 H 138.124 -1.56874 -0.240068 0
M  V30 1411 H 138.145 -2.63769 -2.74238 0
M  V30 1412 H 137.657 -3.67677 -1.24238 0
M  V30 1413 H 135.758 -2.06042 -3.10447 0
M  V30 1414 H 135.871 -3.91356 -2.76364 0
M  V30 1415 H 134.235 -2.02322 -1.54719 0
M  V30 1416 H 135.018 -3.38418 -0.576927 0
M  V30 1417 N 137.463 0.71206 -1.40597 0
M  V30 1418 C 138.426 1.80785 -1.40888 0
M  V30 1419 C 139.426 1.57937 -0.302103 0
M  V30 1420 O 140.616 1.64913 -0.561182 0
M  V30 1421 C 137.748 3.18927 -1.20409 0
M  V30 1422 H 138.941 1.81924 -2.38419 0
M  V30 1423 H 136.494 0.91805 -1.26497 0
M  V30 1424 H 137.229 3.23436 -0.236522 0
M  V30 1425 H 137.014 3.36911 -2.00582 0
M  V30 1426 H 138.504 3.98949 -1.23408 0
M  V30 1427 N 138.941 1.26152 0.944643 0
M  V30 1428 C 139.904 1.07474 2.0244 0
M  V30 1429 C 140.904 0.0242064 1.60782 0
M  V30 1430 O 142.094 0.267302 1.72137 0
M  V30 1431 C 139.226 0.633956 3.34953 0
M  V30 1432 H 140.419 2.03336 2.20442 0
M  V30 1433 H 137.972 1.087 1.12312 0
M  V30 1434 H 138.707 -0.326811 3.22649 0
M  V30 1435 H 138.492 1.39247 3.66542 0
M  V30 1436 H 139.982 0.52501 4.14287 0
M  V30 1437 N 140.419 -1.14872 1.07899 0
M  V30 1438 C 141.666 -1.85789 0.805532 0
M  V30 1439 C 141.994 -1.82649 -0.668561 0
M  V30 1440 O 141.249 -1.24858 -1.50695 0
M  V30 1441 C 141.548 -3.34223 1.26609 0
M  V30 1442 C 141.214 -3.57555 2.74709 0
M  V30 1443 C 139.876 -3.63631 3.1516 0
M  V30 1444 C 142.228 -3.66803 3.70277 0
M  V30 1445 C 139.556 -3.76473 4.49983 0
M  V30 1446 C 141.908 -3.8117 5.04869 0
M  V30 1447 C 140.572 -3.85494 5.44932 0
M  V30 1448 H 139.842 -0.679849 0.294765 0
M  V30 1449 H 142.489 -1.3572 1.35101 0
M  V30 1450 H 140.794 -3.86536 0.640103 0
M  V30 1451 H 142.491 -3.87511 1.03132 0
M  V30 1452 H 139.081 -3.5347 2.42398 0
M  V30 1453 H 143.265 -3.61404 3.40149 0
M  V30 1454 H 138.521 -3.7808 4.80484 0
M  V30 1455 H 142.695 -3.87268 5.78789 0
M  V30 1456 H 140.322 -3.95197 6.49403 0
M  V30 1457 N 141.898 -0.863906 -1.31812 0
M  V30 1458 C 143.147 -0.46801 -1.96195 0
M  V30 1459 C 143.46 0.983474 -1.69077 0
M  V30 1460 O 144.666 1.48523 -2.27273 0
M  V30 1461 C 143.122 -0.785995 -3.51212 0
M  V30 1462 C 142.73 -2.25383 -3.87178 0
M  V30 1463 C 144.474 -0.458274 -4.22019 0
M  V30 1464 C 142.381 -2.51455 -5.3528 0
M  V30 1465 H 141.311 -0.171283 -0.734287 0
M  V30 1466 H 143.962 -1.05597 -1.50072 0
M  V30 1467 H 142.344 -0.127359 -3.95795 0
M  V30 1468 H 143.518 -2.95502 -3.53575 0
M  V30 1469 H 141.833 -2.54698 -3.2942 0
M  V30 1470 H 144.43 -0.630369 -5.30971 0
M  V30 1471 H 144.773 0.600834 -4.11941 0
M  V30 1472 H 145.306 -1.07319 -3.8305 0
M  V30 1473 H 142.045 -3.56025 -5.50387 0
M  V30 1474 H 141.565 -1.85923 -5.70257 0
M  V30 1475 H 143.244 -2.35874 -6.02472 0
M  V30 1476 N 143.376 1.44774 -0.622745 0
M  V30 1477 C 144.286 2.34433 0.0886031 0
M  V30 1478 C 145.302 1.52131 0.844529 0
M  V30 1479 O 146.478 1.84886 0.798691 0
M  V30 1480 C 143.543 3.29986 1.0635 0
M  V30 1481 C 142.604 4.28195 0.307873 0
M  V30 1482 C 141.837 5.19183 1.23633 0
M  V30 1483 O 142.06 5.13918 2.47476 0
M  V30 1484 O 140.994 5.97515 0.725189 0
M  V30 1485 H 144.82 2.96693 -0.648599 0
M  V30 1486 H 142.405 1.44408 -0.382957 0
M  V30 1487 H 144.287 3.88825 1.6246 0
M  V30 1488 H 142.962 2.70269 1.78146 0
M  V30 1489 H 141.869 3.72927 -0.296064 0
M  V30 1490 H 143.202 4.90808 -0.3699 0
M  V30 1491 N 144.854 0.36279 1.53368 0
M  V30 1492 C 146.082 -0.228613 2.05633 0
M  V30 1493 C 146.497 -1.42676 1.23649 0
M  V30 1494 O 145.854 -1.80394 0.27647 0
M  V30 1495 C 145.905 -0.624845 3.56059 0
M  V30 1496 O 145.626 0.525675 4.34935 0
M  V30 1497 C 147.127 -1.27493 4.24571 0
M  V30 1498 H 144.347 -0.0407183 0.669763 0
M  V30 1499 H 146.891 0.520352 1.97769 0
M  V30 1500 H 145.046 -1.32373 3.64083 0
M  V30 1501 H 145.46 0.205969 5.24095 0
M  V30 1502 H 146.934 -1.50277 5.31151 0
M  V30 1503 H 147.411 -2.23439 3.78116 0
M  V30 1504 H 148.017 -0.617558 4.20792 0
M  V30 1505 N 146.332 -1.57332 0.0918853 0
M  V30 1506 C 147.28 -2.15075 -0.885747 0
M  V30 1507 C 148.274 -1.09277 -1.29441 0
M  V30 1508 O 149.48 -1.27627 -1.26931 0
M  V30 1509 H 145.855 -0.687966 -0.303656 0
M  V30 1510 H 147.826 -2.96047 -0.373995 0
M  V30 1511 C 146.575 -2.74325 -2.13638 0
M  V30 1512 H 145.898 -3.55418 -1.8308 0
M  V30 1513 H 147.338 -3.183 -2.80109 0
M  V30 1514 C 145.797 -1.70062 -2.90827 0
M  V30 1515 O 146.327 -1.13763 -3.85254 0
M  V30 1516 N 144.533 -1.40628 -2.54307 0
M  V30 1517 H 144.08 -1.866 -1.7759 0
M  V30 1518 H 144.038 -0.711043 -3.06254 0
M  V30 1519 N 147.81 0.181792 -1.56548 0
M  V30 1520 C 149.059 0.898348 -1.8059 0
M  V30 1521 C 149.372 1.83862 -0.667379 0
M  V30 1522 O 150.578 2.59678 -0.792446 0
M  V30 1523 C 149.034 1.64791 -3.19956 0
M  V30 1524 C 148.642 0.751789 -4.41647 0
M  V30 1525 C 150.386 2.35331 -3.53298 0
M  V30 1526 C 148.293 1.50098 -5.72035 0
M  V30 1527 H 147.223 0.339194 -0.673397 0
M  V30 1528 H 149.874 0.151413 -1.82874 0
M  V30 1529 H 148.256 2.43921 -3.11959 0
M  V30 1530 H 149.43 -0.0018076 -4.608 0
M  V30 1531 H 147.745 0.156562 -4.16106 0
M  V30 1532 H 150.342 2.91958 -4.47956 0
M  V30 1533 H 150.685 3.10164 -2.77676 0
M  V30 1534 H 151.218 1.63154 -3.62803 0
M  V30 1535 H 147.957 0.795175 -6.50659 0
M  V30 1536 H 147.477 2.22817 -5.56878 0
M  V30 1537 H 149.156 2.05125 -6.13622 0
M  V30 1538 N 149.288 1.51039 0.449983 0
M  V30 1539 C 150.534 1.63322 1.20223 0
M  V30 1540 C 150.867 0.34241 1.91158 0
M  V30 1541 O 150.142 -0.657344 1.83055 0
M  V30 1542 C 150.425 2.82801 2.22925 0
M  V30 1543 C 150.278 4.21823 1.56157 0
M  V30 1544 C 151.597 2.97807 3.24035 0
M  V30 1545 H 148.716 0.594407 0.435718 0
M  V30 1546 H 151.358 1.83489 0.493136 0
M  V30 1547 H 149.508 2.65738 2.834 0
M  V30 1548 H 151.18 4.50526 0.991162 0
M  V30 1549 H 149.423 4.25105 0.864172 0
M  V30 1550 H 150.094 5.01391 2.30891 0
M  V30 1551 H 152.57 3.13497 2.73603 0
M  V30 1552 H 151.446 3.82992 3.93202 0
M  V30 1553 H 151.707 2.09328 3.89402 0
M  V30 1554 N 150.766 -0.704594 1.40972 0
M  V30 1555 C 152.014 -1.46169 1.39568 0
M  V30 1556 C 152.335 -1.95 0.00253745 0
M  V30 1557 O 151.605 -1.71095 -0.954114 0
M  V30 1558 H 150.185 -0.542326 0.513704 0
M  V30 1559 H 152.847 -0.834553 1.76128 0
M  V30 1560 H 151.943 -2.32922 2.07735 0
M  V30 1561 N 152.244 -1.26651 -0.937939 0
M  V30 1562 C 153.472 -1.15173 -1.7188 0
M  V30 1563 C 153.887 0.292668 -1.86518 0
M  V30 1564 O 153.244 1.20014 -1.37488 0
M  V30 1565 C 153.295 -1.81925 -3.12387 0
M  V30 1566 O 153.016 -3.2072 -2.98446 0
M  V30 1567 C 154.517 -1.76442 -4.06673 0
M  V30 1568 H 151.737 -0.400911 -0.538063 0
M  V30 1569 H 154.281 -1.67332 -1.1756 0
M  V30 1570 H 152.436 -1.33696 -3.63599 0
M  V30 1571 H 152.85 -3.53802 -3.872 0
M  V30 1572 H 154.324 -2.27781 -5.02812 0
M  V30 1573 H 154.801 -0.731608 -4.33064 0
M  V30 1574 H 155.407 -2.24238 -3.61382 0
M  V30 1575 N 153.722 1.14298 -1.08507 0
M  V30 1576 C 154.952 1.88945 -0.835663 0
M  V30 1577 C 155.36 1.78894 0.615928 0
M  V30 1578 O 154.703 1.1468 1.43506 0
M  V30 1579 C 154.765 3.39585 -1.17994 0
M  V30 1580 C 154.429 3.7342 -2.63451 0
M  V30 1581 C 155.426 3.73454 -3.61702 0
M  V30 1582 C 153.111 4.03368 -2.99332 0
M  V30 1583 C 155.105 4.02961 -4.93864 0
M  V30 1584 C 152.792 4.32538 -4.31687 0
M  V30 1585 C 153.79 4.32318 -5.28763 0
M  V30 1586 O 153.478 4.6078 -6.58739 0
M  V30 1587 H 153.21 0.605307 -0.300965 0
M  V30 1588 H 155.764 1.45673 -1.44806 0
M  V30 1589 H 153.994 3.83315 -0.51055 0
M  V30 1590 H 155.683 3.9554 -0.911182 0
M  V30 1591 H 156.449 3.50403 -3.35325 0
M  V30 1592 H 152.328 4.02692 -2.24411 0
M  V30 1593 H 155.872 4.02704 -5.69627 0
M  V30 1594 H 151.769 4.55059 -4.57812 0
M  V30 1595 H 152.537 4.78492 -6.64069 0
M  V30 1596 N 155.201 0.870884 1.31352 0
M  V30 1597 C 156.164 0.332243 2.26779 0
M  V30 1598 C 157.164 -0.517302 1.52252 0
M  V30 1599 O 158.354 -0.326477 1.71113 0
M  V30 1600 C 155.486 -0.528066 3.36785 0
M  V30 1601 H 156.679 1.17469 2.75937 0
M  V30 1602 H 154.232 0.64655 1.423 0
M  V30 1603 H 154.967 -1.39167 2.92922 0
M  V30 1604 H 154.752 0.0802582 3.92018 0
M  V30 1605 H 156.242 -0.897179 4.07849 0
M  V30 1606 N 156.679 -1.44442 0.630414 0
M  V30 1607 C 157.609 -2.33418 -0.0618083 0
M  V30 1608 C 158.59 -1.48165 -0.835541 0
M  V30 1609 O 159.775 -1.76886 -0.801564 0
M  V30 1610 C 156.905 -3.31222 -1.04449 0
M  V30 1611 C 155.859 -4.26288 -0.382436 0
M  V30 1612 C 155.185 -5.13954 -1.47497 0
M  V30 1613 C 156.485 -5.1744 0.710865 0
M  V30 1614 H 158.179 -2.91548 0.681184 0
M  V30 1615 H 155.725 -1.40191 0.329026 0
M  V30 1616 H 157.678 -3.92351 -1.53748 0
M  V30 1617 H 156.402 -2.71299 -1.81836 0
M  V30 1618 H 155.061 -3.6649 0.0899054 0
M  V30 1619 H 154.709 -4.50385 -2.2397 0
M  V30 1620 H 154.409 -5.7837 -1.03737 0
M  V30 1621 H 155.933 -5.77955 -1.96979 0
M  V30 1622 H 157.347 -5.72509 0.300996 0
M  V30 1623 H 155.744 -5.90455 1.07156 0
M  V30 1624 H 156.814 -4.58496 1.57829 0
M  V30 1625 N 158.157 -0.370918 -1.53173 0
M  V30 1626 C 159.087 0.464847 -2.28826 0
M  V30 1627 C 160.068 1.07936 -1.31468 0
M  V30 1628 O 161.253 1.0956 -1.60344 0
M  V30 1629 C 158.383 1.60196 -3.08147 0
M  V30 1630 C 157.337 1.11443 -4.13237 0
M  V30 1631 C 156.663 2.3422 -4.80672 0
M  V30 1632 C 157.963 0.195384 -5.21934 0
M  V30 1633 H 159.657 -0.166329 -2.98938 0
M  V30 1634 H 157.203 -0.0814359 -1.4377 0
M  V30 1635 H 159.156 2.19332 -3.59822 0
M  V30 1636 H 157.88 2.26045 -2.35735 0
M  V30 1637 H 156.539 0.545727 -3.62515 0
M  V30 1638 H 156.187 2.98537 -4.04827 0
M  V30 1639 H 155.887 2.02269 -5.51689 0
M  V30 1640 H 157.411 2.94032 -5.35143 0
M  V30 1641 H 158.825 0.694375 -5.69079 0
M  V30 1642 H 157.222 -0.0335027 -6.00091 0
M  V30 1643 H 158.292 -0.760961 -4.78892 0
M  V30 1644 N 159.635 1.57281 -0.100228 0
M  V30 1645 C 160.545 2.17833 0.870965 0
M  V30 1646 C 161.561 1.14921 1.30649 0
M  V30 1647 O 162.737 1.47313 1.37335 0
M  V30 1648 C 159.802 2.75085 2.1102 0
M  V30 1649 C 158.863 3.9297 1.72838 0
M  V30 1650 C 158.096 4.47482 2.90854 0
M  V30 1651 O 158.319 4.00922 4.05731 0
M  V30 1652 O 157.253 5.38433 2.69023 0
M  V30 1653 H 161.079 3.0124 0.38575 0
M  V30 1654 H 158.664 1.48881 0.124397 0
M  V30 1655 H 160.546 3.11656 2.83634 0
M  V30 1656 H 159.221 1.94721 2.58584 0
M  V30 1657 H 158.128 3.61201 0.973883 0
M  V30 1658 H 159.461 4.74713 1.30033 0
M  V30 1659 N 161.113 -0.173488 1.56642 0
M  V30 1660 C 162.359 -0.891784 1.8214 0
M  V30 1661 C 162.692 -1.8199 0.677736 0
M  V30 1662 O 161.967 -1.91842 -0.320446 0
M  V30 1663 C 162.25 -1.68933 3.18015 0
M  V30 1664 C 162.103 -0.784487 4.42906 0
M  V30 1665 C 163.422 -2.65748 3.50808 0
M  V30 1666 H 160.541 -0.322761 0.662567 0
M  V30 1667 H 163.183 -0.158095 1.89341 0
M  V30 1668 H 161.333 -2.31482 3.12007 0
M  V30 1669 H 163.005 -0.172046 4.60979 0
M  V30 1670 H 161.248 -0.0924117 4.33702 0
M  V30 1671 H 161.919 -1.37799 5.34524 0
M  V30 1672 H 164.395 -2.13327 3.57255 0
M  V30 1673 H 163.271 -3.18619 4.4696 0
M  V30 1674 H 163.532 -3.45842 2.75401 0
M  V30 1675 N 162.591 -1.51276 -0.441967 0
M  V30 1676 C 163.554 -1.7167 -1.51862 0
M  V30 1677 C 164.554 -0.586793 -1.49711 0
M  V30 1678 O 165.744 -0.854276 -1.51815 0
M  V30 1679 C 162.876 -1.76889 -2.91416 0
M  V30 1680 H 164.069 -2.67754 -1.35084 0
M  V30 1681 H 161.622 -1.41196 -0.670333 0
M  V30 1682 H 162.357 -0.826026 -3.13604 0
M  V30 1683 H 162.142 -2.59001 -2.94382 0
M  V30 1684 H 163.632 -1.94522 -3.69528 0
M  V30 1685 N 164.069 0.697108 -1.41344 0
M  V30 1686 C 165.485 1.00751 -1.2378 0
M  V30 1687 C 165.685 2.01105 -0.126066 0
M  V30 1688 O 164.741 2.47295 0.51004 0
M  V30 1689 C 166.054 1.53359 -2.58653 0
M  V30 1690 C 167.602 1.6525 -2.65822 0
M  V30 1691 C 168.077 2.2126 -4.01009 0
M  V30 1692 N 169.568 2.28622 -4.02847 0
M  V30 1693 C 170.303 2.72984 -5.04249 0
M  V30 1694 N 169.799 3.16962 -6.16041 0
M  V30 1695 N 171.592 2.72534 -4.91611 0
M  V30 1696 H 163.743 0.0322662 -2.12375 0
M  V30 1697 H 166.006 0.0768853 -0.944877 0
M  V30 1698 H 165.712 0.870773 -3.4075 0
M  V30 1699 H 165.586 2.51597 -2.81032 0
M  V30 1700 H 167.973 2.30644 -1.84086 0
M  V30 1701 H 168.054 0.655614 -2.47256 0
M  V30 1702 H 167.698 1.56482 -4.83193 0
M  V30 1703 H 167.628 3.21698 -4.16915 0
M  V30 1704 H 170.119 1.97585 -3.22131 0
M  V30 1705 H 170.432 3.49434 -6.89287 0
M  V30 1706 H 168.777 3.14875 -6.1958 0
M  V30 1707 H 171.968 2.37525 -4.0336 0
M  V30 1708 H 172.141 3.06789 -5.70775 0
M  V30 1709 N 165.547 1.27147 0.931209 0
M  V30 1710 C 166.494 1.09568 2.03134 0
M  V30 1711 C 167.464 -0.00222433 1.661 0
M  V30 1712 O 168.649 0.159439 1.90133 0
M  V30 1713 C 165.789 0.745231 3.36957 0
M  V30 1714 C 164.902 1.92041 3.86968 0
M  V30 1715 C 164.037 1.51216 5.09222 0
M  V30 1716 C 163.076 2.65504 5.5152 0
M  V30 1717 N 162.213 2.25291 6.64972 0
M  V30 1718 H 167.053 2.03708 2.17502 0
M  V30 1719 H 164.59 1.01411 1.06556 0
M  V30 1720 H 166.548 0.522878 4.1391 0
M  V30 1721 H 165.178 -0.159202 3.22407 0
M  V30 1722 H 164.23 2.25541 3.06326 0
M  V30 1723 H 165.542 2.77787 4.1429 0
M  V30 1724 H 164.696 1.25084 5.93666 0
M  V30 1725 H 163.435 0.625749 4.83669 0
M  V30 1726 H 162.44 2.92354 4.65628 0
M  V30 1727 H 163.665 3.54761 5.7907 0
M  V30 1728 H 161.611 1.39098 6.41083 0
M  V30 1729 H 161.528 3.04577 6.91931 0
M  V30 1730 H 162.796 2.02398 7.52765 0
M  V30 1731 N 167.025 -1.13721 1.09112 0
M  V30 1732 C 168.255 -1.88499 0.845671 0
M  V30 1733 C 168.663 -1.79218 -0.606432 0
M  V30 1734 O 168.006 -1.1544 -1.42896 0
M  V30 1735 C 168.068 -3.38954 1.19793 0
M  V30 1736 C 167.732 -3.72018 2.65428 0
M  V30 1737 C 168.729 -3.7153 3.63677 0
M  V30 1738 C 166.414 -4.01775 3.01467 0
M  V30 1739 C 168.408 -4.00336 4.95994 0
M  V30 1740 C 166.095 -4.30243 4.33975 0
M  V30 1741 C 167.093 -4.29508 5.31048 0
M  V30 1742 O 166.781 -4.5728 6.61173 0
M  V30 1743 H 166.513 -0.603702 0.304171 0
M  V30 1744 H 169.067 -1.44903 1.45576 0
M  V30 1745 H 167.297 -3.83039 0.530871 0
M  V30 1746 H 168.986 -3.95052 0.932146 0
M  V30 1747 H 169.752 -3.4862 3.37179 0
M  V30 1748 H 165.631 -4.01496 2.26544 0
M  V30 1749 H 169.175 -3.99678 5.71755 0
M  V30 1750 H 165.072 -4.52625 4.60219 0
M  V30 1751 H 165.84 -4.74964 6.66597 0
M  V30 1752 N 168.503 -0.877838 -1.30888 0
M  V30 1753 C 169.749 -0.502773 -1.97088 0
M  V30 1754 C 170.104 0.936274 -1.68082 0
M  V30 1755 O 169.397 1.65162 -0.971196 0
M  V30 1756 C 169.591 -0.705748 -3.50363 0
M  V30 1757 C 169.42 -2.16297 -3.94266 0
M  V30 1758 C 168.19 -2.80614 -4.20219 0
M  V30 1759 C 170.388 -3.13606 -4.07622 0
M  V30 1760 N 168.37 -4.17007 -4.50532 0
M  V30 1761 C 169.741 -4.35051 -4.41736 0
M  V30 1762 C 171.796 -3.09491 -3.90026 0
M  V30 1763 C 170.499 -5.52911 -4.60089 0
M  V30 1764 C 172.525 -4.26616 -4.09576 0
M  V30 1765 C 171.887 -5.46825 -4.44029 0
M  V30 1766 H 167.986 -0.233168 -0.746429 0
M  V30 1767 H 170.57 -1.13408 -1.58261 0
M  V30 1768 H 168.741 -0.103976 -3.88261 0
M  V30 1769 H 170.473 -0.298291 -4.03599 0
M  V30 1770 H 167.228 -2.3152 -4.13153 0
M  V30 1771 H 167.652 -4.87426 -4.69834 0
M  V30 1772 H 172.294 -2.17657 -3.62471 0
M  V30 1773 H 170.012 -6.45255 -4.86489 0
M  V30 1774 H 173.598 -4.24894 -3.97438 0
M  V30 1775 H 172.478 -6.35947 -4.58848 0
M  V30 1776 N 169.982 1.44106 -0.638065 0
M  V30 1777 C 171.207 2.0685 -0.150916 0
M  V30 1778 C 171.632 1.47417 1.16833 0
M  V30 1779 O 170.99 0.578264 1.71831 0
M  V30 1780 C 171.038 3.60555 -0.05708 0
M  V30 1781 O 170.142 4.00465 0.984972 0
M  V30 1782 H 169.483 0.658151 -0.0879399 0
M  V30 1783 H 172.013 1.84865 -0.876707 0
M  V30 1784 H 172.023 4.07789 0.131232 0
M  V30 1785 H 170.698 4.03193 -1.02021 0
M  V30 1786 H 169.275 3.64849 0.770672 0
M  V30 1787 N 171.46 0.379036 1.52974 0
M  V30 1788 C 172.423 -0.448865 2.24762 0
M  V30 1789 C 173.423 -0.998689 1.26027 0
M  V30 1790 O 174.613 -0.882313 1.50203 0
M  V30 1791 C 171.745 -1.62872 2.99476 0
M  V30 1792 H 172.938 0.179491 2.99362 0
M  V30 1793 H 170.491 0.13096 1.5575 0
M  V30 1794 H 171.226 -2.29479 2.29151 0
M  V30 1795 H 171.011 -1.24128 3.71934 0
M  V30 1796 H 172.501 -2.2151 3.5401 0
M  V30 1797 N 172.938 -1.57226 0.108567 0
M  V30 1798 C 173.868 -2.17778 -0.84232 0
M  V30 1799 C 174.849 -1.11487 -1.2847 0
M  V30 1800 O 176.034 -1.39681 -1.34918 0
M  V30 1801 C 173.164 -2.76888 -2.09644 0
M  V30 1802 C 172.118 -3.88669 -1.79221 0
M  V30 1803 C 171.444 -4.34541 -3.11574 0
M  V30 1804 C 172.744 -5.11251 -1.06864 0
M  V30 1805 H 174.438 -2.97489 -0.337774 0
M  V30 1806 H 171.984 -1.43097 -0.161025 0
M  V30 1807 H 173.937 -3.17904 -2.76614 0
M  V30 1808 H 172.661 -1.94451 -2.62405 0
M  V30 1809 H 171.32 -3.48213 -1.14644 0
M  V30 1810 H 170.968 -3.48977 -3.62249 0
M  V30 1811 H 170.668 -5.09914 -2.91996 0
M  V30 1812 H 172.192 -4.782 -3.7968 0
M  V30 1813 H 173.606 -5.49352 -1.63968 0
M  V30 1814 H 172.003 -5.9214 -0.974178 0
M  V30 1815 H 173.073 -4.8487 -0.0536168 0
M  V30 1816 N 174.416 0.165178 -1.56732 0
M  V30 1817 C 175.664 0.879068 -1.8198 0
M  V30 1818 C 175.985 1.82514 -0.686561 0
M  V30 1819 O 175.255 1.93694 0.293146 0
M  V30 1820 H 173.835 0.327608 -0.671329 0
M  V30 1821 H 176.497 0.163526 -1.94213 0
M  V30 1822 H 175.593 1.45228 -2.76252 0
M  V30 1823 N 175.894 1.51508 0.433938 0
M  V30 1824 C 176.804 1.75917 1.5521 0
M  V30 1825 C 177.82 0.643545 1.61662 0
M  V30 1826 O 178.996 0.926183 1.7884 0
M  V30 1827 C 176.061 1.88213 2.91164 0
M  V30 1828 C 175.122 3.12074 2.94802 0
M  V30 1829 C 174.355 3.23774 4.24271 0
M  V30 1830 O 174.578 2.4133 5.16833 0
M  V30 1831 O 173.512 4.16774 4.34262 0
M  V30 1832 H 177.338 2.70777 1.37527 0
M  V30 1833 H 174.923 1.36051 0.617293 0
M  V30 1834 H 176.805 1.98267 3.71845 0
M  V30 1835 H 175.48 0.965413 3.08968 0
M  V30 1836 H 174.387 3.07497 2.13065 0
M  V30 1837 H 175.72 4.03446 2.81943 0
M  V30 1838 N 177.372 -0.689602 1.41712 0
M  V30 1839 C 178.649 -1.44457 1.31877 0
M  V30 1840 C 179.029 -2.11039 -0.0508537 0
M  V30 1841 O 178.377 -2.02138 -1.06547 0
M  V30 1842 C 178.587 -2.45913 2.47645 0
M  V30 1843 C 179.935 -3.10991 2.89084 0
M  V30 1844 O 180.959 -2.56238 2.47428 0
M  V30 1845 O 179.818 -4.10174 3.61137 0
M  V30 1846 H 176.912 -0.64362 0.519309 0
M  V30 1847 H 179.458 -0.719576 1.53689 0
M  V30 1848 H 178.23 -1.95409 3.39015 0
M  V30 1849 H 177.853 -3.25913 2.27742 0
M  V30 1850 N 178.85 -1.27639 -0.924453 0
M  V30 1851 C 179.797 -1.10644 -2.0255 0
M  V30 1852 C 180.767 -0.00658438 -1.66099 0
M  V30 1853 O 181.952 -0.16952 -1.90045 0
M  V30 1854 C 179.092 -0.76309 -3.36557 0
M  V30 1855 C 178.205 -1.94091 -3.85944 0
M  V30 1856 C 177.34 -1.53914 -5.08413 0
M  V30 1857 C 176.379 -2.68425 -5.50104 0
M  V30 1858 N 175.516 -2.28815 -6.63768 0
M  V30 1859 H 180.356 -2.04858 -2.16419 0
M  V30 1860 H 177.893 -1.01974 -1.06017 0
M  V30 1861 H 179.851 -0.544822 -4.13627 0
M  V30 1862 H 178.481 0.142102 -3.22487 0
M  V30 1863 H 177.533 -2.27162 -3.05125 0
M  V30 1864 H 178.845 -2.7998 -4.12811 0
M  V30 1865 H 177.999 -1.28231 -5.92994 0
M  V30 1866 H 176.738 -0.651391 -4.8333 0
M  V30 1867 H 175.743 -2.94819 -4.64071 0
M  V30 1868 H 176.968 -3.57826 -5.7718 0
M  V30 1869 H 174.914 -1.42495 -6.40337 0
M  V30 1870 H 174.831 -3.08242 -6.90306 0
M  V30 1871 H 176.099 -2.06387 -7.51681 0
M  V30 1872 N 180.328 1.1314 -1.09713 0
M  V30 1873 C 181.275 2.18642 -0.739196 0
M  V30 1874 C 182.245 1.63706 0.280978 0
M  V30 1875 O 183.43 1.90111 0.161946 0
M  V30 1876 C 180.57 3.44685 -0.169102 0
M  V30 1877 C 179.683 4.13711 -1.24367 0
M  V30 1878 C 178.818 5.27379 -0.636019 0
M  V30 1879 C 177.857 5.88259 -1.69169 0
M  V30 1880 N 176.994 6.93352 -1.10485 0
M  V30 1881 H 181.834 2.48607 -1.64312 0
M  V30 1882 H 179.371 1.22066 -0.820875 0
M  V30 1883 H 181.329 4.16815 0.179256 0
M  V30 1884 H 179.959 3.15161 0.698079 0
M  V30 1885 H 179.011 3.39835 -1.70927 0
M  V30 1886 H 180.323 4.55037 -2.04311 0
M  V30 1887 H 179.477 6.06238 -0.236677 0
M  V30 1888 H 178.216 4.8731 0.194928 0
M  V30 1889 H 177.221 5.08092 -2.10055 0
M  V30 1890 H 178.446 6.30399 -2.52536 0
M  V30 1891 H 176.392 6.55335 -0.295234 0
M  V30 1892 H 176.309 7.33236 -1.84121 0
M  V30 1893 H 177.577 7.76057 -0.73181 0
M  V30 1894 N 181.806 0.884767 1.30421 0
M  V30 1895 C 182.754 0.340869 2.30089 0
M  V30 1896 C 183.748 -0.55201 1.60154 0
M  V30 1897 O 184.954 -0.436467 1.74628 0
M  V30 1898 H 181.329 0.0915739 0.746404 0
M  V30 1899 H 183.3 1.19513 2.73421 0
M  V30 1900 C 182.049 -0.429779 3.45034 0
M  V30 1901 H 181.372 0.248024 3.9903 0
M  V30 1902 H 182.812 -0.775445 4.16849 0
M  V30 1903 C 181.271 -1.62677 2.95022 0
M  V30 1904 O 181.801 -2.72614 2.95033 0
M  V30 1905 N 180.007 -1.46387 2.51036 0
M  V30 1906 H 179.554 -0.569506 2.51226 0
M  V30 1907 H 179.512 -2.26612 2.17932 0
M  V30 1908 N 183.284 -1.43765 0.645699 0
M  V30 1909 C 184.232 -2.32516 -0.0624849 0
M  V30 1910 C 185.226 -1.48183 -0.820855 0
M  V30 1911 O 186.432 -1.64439 -0.732106 0
M  V30 1912 H 182.807 -0.750989 -0.0389864 0
M  V30 1913 H 184.778 -2.89979 0.703892 0
M  V30 1914 C 183.527 -3.32389 -1.02044 0
M  V30 1915 H 182.85 -3.97301 -0.446312 0
M  V30 1916 H 184.29 -3.97138 -1.48517 0
M  V30 1917 C 182.749 -2.62416 -2.11281 0
M  V30 1918 O 183.279 -2.434 -3.19561 0
M  V30 1919 N 181.485 -2.21913 -1.87624 0
M  V30 1920 H 181.032 -2.37578 -0.995703 0
M  V30 1921 H 180.99 -1.75424 -2.6091 0
M  V30 1922 N 184.763 -0.387143 -1.52771 0
M  V30 1923 C 186.01 0.195735 -2.01552 0
M  V30 1924 C 186.338 1.46995 -1.27369 0
M  V30 1925 O 185.593 1.92325 -0.361879 0
M  V30 1926 C 185.892 0.512209 -3.53711 0
M  V30 1927 C 185.558 -0.670202 -4.45891 0
M  V30 1928 C 184.22 -0.994586 -4.70809 0
M  V30 1929 C 186.572 -1.46134 -5.00294 0
M  V30 1930 C 183.9 -2.11169 -5.4738 0
M  V30 1931 C 186.252 -2.56903 -5.78086 0
M  V30 1932 C 184.916 -2.89852 -6.01284 0
M  V30 1933 H 184.186 0.0716246 -0.73753 0
M  V30 1934 H 186.833 -0.524046 -1.8419 0
M  V30 1935 H 185.138 1.31329 -3.69134 0
M  V30 1936 H 186.835 0.975804 -3.88946 0
M  V30 1937 H 183.425 -0.407366 -4.2666 0
M  V30 1938 H 187.609 -1.22397 -4.80971 0
M  V30 1939 H 182.865 -2.3707 -5.63567 0
M  V30 1940 H 187.039 -3.18608 -6.19243 0
M  V30 1941 H 184.666 -3.76533 -6.60399 0
M  V30 1942 N 186.241 1.57166 -0.116904 0
M  V30 1943 C 187.657 1.5779 0.239693 0
M  V30 1944 C 187.857 1.1295 1.66867 0
M  V30 1945 O 186.913 0.81592 2.38954 0
M  V30 1946 C 188.226 3.00699 0.00828202 0
M  V30 1947 C 189.774 3.12912 0.0743438 0
M  V30 1948 C 190.249 4.57817 -0.129348 0
M  V30 1949 N 191.74 4.63139 -0.075247 0
M  V30 1950 C 192.475 5.73023 -0.207788 0
M  V30 1951 N 191.971 6.91665 -0.396382 0
M  V30 1952 N 193.764 5.61906 -0.14751 0
M  V30 1953 H 185.915 1.84615 -1.05029 0
M  V30 1954 H 188.178 0.85311 -0.41341 0
M  V30 1955 H 187.884 3.37784 -0.979531 0
M  V30 1956 H 187.758 3.69848 0.741077 0
M  V30 1957 H 190.145 2.75686 1.05268 0
M  V30 1958 H 190.226 2.4631 -0.690297 0
M  V30 1959 H 189.87 4.95742 -1.10465 0
M  V30 1960 H 189.8 5.22507 0.655253 0
M  V30 1961 H 192.291 3.7784 0.0670898 0
M  V30 1962 H 192.604 7.71255 -0.488437 0
M  V30 1963 H 190.949 6.93654 -0.432329 0
M  V30 1964 H 194.14 4.681 -0.00115036 0
M  V30 1965 H 194.313 6.47501 -0.254247 0
M  V30 1966 N 187.719 -0.156864 1.56817 0
M  V30 1967 C 188.966 -0.871125 1.82805 0
M  V30 1968 C 189.294 -1.81611 0.696262 0
M  V30 1969 O 188.549 -1.93141 -0.315459 0
M  V30 1970 C 188.848 -1.68737 3.1506 0
M  V30 1971 C 188.514 -0.890045 4.42028 0
M  V30 1972 C 187.176 -0.670042 4.76512 0
M  V30 1973 C 189.528 -0.331769 5.20143 0
M  V30 1974 C 186.856 0.119104 5.86579 0
M  V30 1975 C 189.208 0.444365 6.31037 0
M  V30 1976 C 187.872 0.675035 6.64078 0
M  V30 1977 H 187.142 -0.318767 0.668931 0
M  V30 1978 H 189.789 -0.135274 1.91022 0
M  V30 1979 H 188.094 -2.49304 3.0225 0
M  V30 1980 H 189.791 -2.24331 3.3238 0
M  V30 1981 H 186.381 -1.07157 4.14988 0
M  V30 1982 H 190.565 -0.489043 4.93885 0
M  V30 1983 H 185.821 0.307417 6.10627 0
M  V30 1984 H 189.995 0.884139 6.90765 0
M  V30 1985 H 187.622 1.28839 7.49203 0
M  V30 1986 N 189.197 -1.51736 -0.425897 0
M  V30 1987 C 190.147 -1.70258 -1.51645 0
M  V30 1988 C 191.131 -0.556488 -1.5097 0
M  V30 1989 O 192.323 -0.812879 -1.5723 0
M  V30 1990 C 189.452 -1.84143 -2.89735 0
M  V30 1991 C 188.538 -3.04572 -2.95122 0
M  V30 1992 N 188.929 -4.2756 -2.70233 0
M  V30 1993 C 187.227 -3.04061 -3.26286 0
M  V30 1994 C 187.928 -5.08908 -2.81757 0
M  V30 1995 N 186.904 -4.43797 -3.13919 0
M  V30 1996 H 190.706 -2.63004 -1.31172 0
M  V30 1997 H 188.22 -1.4954 -0.633375 0
M  V30 1998 H 190.217 -1.95525 -3.68206 0
M  V30 1999 H 188.877 -0.925857 -3.1122 0
M  V30 2000 H 189.888 -4.56315 -2.44943 0
M  V30 2001 H 186.565 -2.22179 -3.53473 0
M  V30 2002 H 187.955 -6.16843 -2.66372 0
M  V30 2003 N 190.675 0.682077 -1.42076 0
M  V30 2004 C 191.625 1.78823 -1.41444 0
M  V30 2005 C 192.609 1.58323 -0.28681 0
M  V30 2006 O 193.801 1.68926 -0.528498 0
M  V30 2007 C 190.93 3.17232 -1.3122 0
M  V30 2008 C 190.016 3.4338 -2.489 0
M  V30 2009 N 190.407 3.40152 -3.7434 0
M  V30 2010 C 188.705 3.73986 -2.43003 0
M  V30 2011 C 189.406 3.65581 -4.52466 0
M  V30 2012 N 188.382 3.85989 -3.8277 0
M  V30 2013 H 192.184 1.7471 -2.36334 0
M  V30 2014 H 189.698 0.882622 -1.36321 0
M  V30 2015 H 191.695 3.96489 -1.2885 0
M  V30 2016 H 190.355 3.22547 -0.373263 0
M  V30 2017 H 191.366 3.20221 -4.07037 0
M  V30 2018 H 188.043 3.86591 -1.57651 0
M  V30 2019 H 189.433 3.69108 -5.61435 0
M  V30 2020 N 192.153 1.28127 0.917671 0
M  V30 2021 C 193.402 1.14432 1.66097 0
M  V30 2022 C 193.715 -0.307247 1.93172 0
M  V30 2023 O 194.921 -0.565259 2.65551 0
M  V30 2024 C 193.377 2.00015 2.99202 0
M  V30 2025 C 192.985 3.49889 2.79789 0
M  V30 2026 C 194.729 1.94996 3.77064 0
M  V30 2027 C 192.636 4.27636 4.08511 0
M  V30 2028 H 191.566 0.424662 0.62304 0
M  V30 2029 H 194.217 1.52628 1.01868 0
M  V30 2030 H 192.599 1.54672 3.64544 0
M  V30 2031 H 193.773 4.03162 2.23152 0
M  V30 2032 H 192.088 3.56392 2.15345 0
M  V30 2033 H 194.685 2.50354 4.72469 0
M  V30 2034 H 195.028 0.925819 4.05875 0
M  V30 2035 H 195.561 2.38287 3.18534 0
M  V30 2036 H 192.3 5.30615 3.84874 0
M  V30 2037 H 191.82 3.79137 4.64774 0
M  V30 2038 H 193.499 4.37346 4.76799 0
M  V30 2039 N 193.631 -1.12557 1.10312 0
M  V30 2040 C 194.856 -1.88405 0.867085 0
M  V30 2041 C 195.281 -1.79038 -0.576817 0
M  V30 2042 O 194.639 -1.14439 -1.40618 0
M  V30 2043 C 194.687 -3.3563 1.31851 0
M  V30 2044 O 193.791 -4.09565 0.482734 0
M  V30 2045 H 193.132 -0.585455 0.313271 0
M  V30 2046 H 195.662 -1.42352 1.4696 0
M  V30 2047 H 195.672 -3.86469 1.3079 0
M  V30 2048 H 194.347 -3.41765 2.37001 0
M  V30 2049 H 192.924 -3.68695 0.558448 0
M  V30 2050 N 195.109 -0.891671 -1.2995 0
M  V30 2051 C 196.337 -0.52866 -2.00032 0
M  V30 2052 C 196.752 0.884574 -1.66795 0
M  V30 2053 O 196.109 1.5827 -0.908669 0
M  V30 2054 C 196.16 -0.701814 -3.54622 0
M  V30 2055 O 195.881 -2.05942 -3.86678 0
M  V30 2056 C 197.382 -0.342683 -4.41973 0
M  V30 2057 H 194.602 -0.203659 -0.639347 0
M  V30 2058 H 197.146 -1.19881 -1.65677 0
M  V30 2059 H 195.301 -0.0789468 -3.8732 0
M  V30 2060 H 195.715 -2.08291 -4.81368 0
M  V30 2061 H 197.189 -0.514709 -5.49595 0
M  V30 2062 H 197.666 0.71975 -4.33262 0
M  V30 2063 H 198.272 -0.942154 -4.14733 0
M  V30 2064 N 196.587 1.43421 -0.653314 0
M  V30 2065 C 197.864 1.95361 -0.0966581 0
M  V30 2066 C 198.244 1.59461 1.38331 0
M  V30 2067 O 197.592 0.879777 2.10884 0
M  V30 2068 C 197.802 3.47311 -0.342988 0
M  V30 2069 C 199.15 4.23875 -0.24798 0
M  V30 2070 O 200.174 3.55133 -0.275553 0
M  V30 2071 O 199.033 5.4623 -0.171771 0
M  V30 2072 H 196.127 0.826945 0.00956291 0
M  V30 2073 H 198.673 1.5336 -0.726558 0
M  V30 2074 H 197.445 3.66569 -1.36906 0
M  V30 2075 H 197.068 3.9631 0.319975 0
M  V30 2076 N 198.065 0.39524 1.52563 0
M  V30 2077 C 198.975 -0.444232 2.30356 0
M  V30 2078 C 199.991 -1.06615 1.37511 0
M  V30 2079 O 201.167 -1.07067 1.70583 0
M  V30 2080 C 198.232 -1.55315 3.09964 0
M  V30 2081 C 197.293 -0.955734 4.18526 0
M  V30 2082 C 196.526 -2.01181 4.9433 0
M  V30 2083 O 196.749 -3.22781 4.70285 0
M  V30 2084 O 195.683 -1.62579 5.79527 0
M  V30 2085 H 199.509 0.189667 3.03107 0
M  V30 2086 H 197.094 0.1588 1.48554 0
M  V30 2087 H 198.976 -2.19724 3.59582 0
M  V30 2088 H 197.651 -2.17191 2.4002 0
M  V30 2089 H 196.558 -0.274743 3.7309 0
M  V30 2090 H 197.891 -0.381109 4.90722 0
M  V30 2091 N 199.544 -1.57102 0.125237 0
M  V30 2092 C 200.79 -1.95697 -0.532035 0
M  V30 2093 C 201.123 -1.009 -1.6593 0
M  V30 2094 O 200.398 -0.047347 -1.94442 0
M  V30 2095 C 200.681 -3.44181 -1.05884 0
M  V30 2096 C 200.534 -4.49752 0.0654392 0
M  V30 2097 C 201.853 -3.94655 -1.9477 0
M  V30 2098 H 198.972 -0.711571 -0.191925 0
M  V30 2099 H 201.614 -1.88923 0.20206 0
M  V30 2100 H 199.764 -3.50085 -1.68442 0
M  V30 2101 H 201.436 -4.55943 0.700982 0
M  V30 2102 H 199.679 -4.27653 0.727709 0
M  V30 2103 H 200.35 -5.50924 -0.344505 0
M  V30 2104 H 202.826 -3.91094 -1.42074 0
M  V30 2105 H 201.702 -4.99057 -2.28546 0
M  V30 2106 H 201.963 -3.35718 -2.87656 0
M  V30 2107 N 201.022 0.148545 -1.56898 0
M  V30 2108 C 202.252 0.875118 -1.8715 0
M  V30 2109 C 202.66 1.75322 -0.711262 0
M  V30 2110 O 202.003 1.80745 0.328151 0
M  V30 2111 C 202.065 1.7844 -3.12089 0
M  V30 2112 C 201.729 1.08361 -4.43967 0
M  V30 2113 C 202.726 0.438247 -5.1805 0
M  V30 2114 C 200.411 1.07358 -4.90693 0
M  V30 2115 C 202.405 -0.20779 -6.37061 0
M  V30 2116 C 200.092 0.42373 -6.09629 0
M  V30 2117 C 201.09 -0.215829 -6.82659 0
M  V30 2118 O 200.778 -0.855378 -7.99336 0
M  V30 2119 H 200.51 0.258504 -0.624621 0
M  V30 2120 H 203.064 0.14652 -2.04877 0
M  V30 2121 H 201.294 2.55389 -2.90367 0
M  V30 2122 H 202.983 2.38279 -3.286 0
M  V30 2123 H 203.749 0.437817 -4.8302 0
M  V30 2124 H 199.628 1.5608 -4.33774 0
M  V30 2125 H 203.172 -0.70758 -6.94002 0
M  V30 2126 H 199.069 0.421822 -6.4412 0
M  V30 2127 H 199.837 -0.756892 -8.14993 0
M  V30 2128 N 202.5 1.5196 0.417844 0
M  V30 2129 C 203.748 1.65263 1.16329 0
M  V30 2130 C 204.069 0.380634 1.91249 0
M  V30 2131 O 203.339 -0.604214 1.86349 0
M  V30 2132 H 201.919 0.60912 0.432414 0
M  V30 2133 H 204.581 1.88969 0.477162 0
M  V30 2134 H 203.677 2.4896 1.88217 0
M  V30 2135 N 203.978 -0.674533 1.42435 0
M  V30 2136 C 205.255 -1.4305 1.33402 0
M  V30 2137 C 205.635 -2.11081 -0.0284674 0
M  V30 2138 O 204.983 -2.03257 -1.04397 0
M  V30 2139 C 205.193 -2.43272 2.50239 0
M  V30 2140 C 206.541 -3.07907 2.92367 0
M  V30 2141 O 207.565 -2.53599 2.50132 0
M  V30 2142 O 206.424 -4.0632 3.65467 0
M  V30 2143 H 203.518 -0.638076 0.526106 0
M  V30 2144 H 206.064 -0.703235 1.54443 0
M  V30 2145 H 204.836 -1.91803 3.41068 0
M  V30 2146 H 204.459 -3.23479 2.31186 0
M  V30 2147 N 205.456 -1.28612 -0.910864 0
M  V30 2148 C 206.386 -1.15326 -2.03032 0
M  V30 2149 C 207.367 -0.0502924 -1.70026 0
M  V30 2150 O 208.552 -0.227797 -1.92859 0
M  V30 2151 C 205.682 -0.817343 -3.37545 0
M  V30 2152 C 204.636 -1.8754 -3.84724 0
M  V30 2153 C 203.962 -1.39305 -5.16235 0
M  V30 2154 C 205.262 -3.28244 -4.06267 0
M  V30 2155 H 206.956 -2.08975 -2.14406 0
M  V30 2156 H 204.502 -1.00612 -1.03021 0
M  V30 2157 H 206.455 -0.711151 -4.15356 0
M  V30 2158 H 205.179 0.154846 -3.26233 0
M  V30 2159 H 203.838 -1.97079 -3.09121 0
M  V30 2160 H 203.486 -0.409846 -5.01328 0
M  V30 2161 H 203.186 -2.10057 -5.48771 0
M  V30 2162 H 204.71 -1.30014 -5.96598 0
M  V30 2163 H 206.124 -3.21611 -4.74594 0
M  V30 2164 H 204.521 -3.96855 -4.5014 0
M  V30 2165 H 205.591 -3.72048 -3.10979 0
M  V30 2166 N 206.934 1.1197 -1.10907 0
M  V30 2167 C 208.345 1.65114 -0.871446 0
M  V30 2168 C 208.696 1.86885 0.597353 0
M  V30 2169 O 207.821 1.59896 1.45816 0
M  V30 2170 C 208.416 2.99944 -1.5754 0
M  V30 2171 C 206.975 3.50018 -1.38435 0
M  V30 2172 C 206.122 2.24941 -1.62164 0
M  V30 2173 H 209.073 0.956851 -1.2661 0
M  V30 2174 H 209.094 3.66651 -1.01721 0
M  V30 2175 H 208.606 2.84067 -2.64438 0
M  V30 2176 H 206.707 3.71071 -0.337214 0
M  V30 2177 H 206.82 4.29165 -2.12965 0
M  V30 2178 H 205.184 2.3229 -1.04467 0
M  V30 2179 H 205.967 2.11612 -2.70324 0
M  V30 2180 N 208.412 0.89855 1.29475 0
M  V30 2181 C 209.362 0.346767 2.25348 0
M  V30 2182 C 210.346 -0.532509 1.51833 0
M  V30 2183 O 211.538 -0.374714 1.72988 0
M  V30 2184 C 208.667 -0.425681 3.40651 0
M  V30 2185 C 207.753 0.46845 4.21505 0
M  V30 2186 N 208.144 1.57514 4.80648 0
M  V30 2187 C 206.442 0.26603 4.45206 0
M  V30 2188 C 207.143 2.12889 5.41344 0
M  V30 2189 N 206.119 1.42208 5.24669 0
M  V30 2190 H 209.921 1.19219 2.68634 0
M  V30 2191 H 207.435 0.749473 1.44072 0
M  V30 2192 H 209.432 -0.837716 4.08397 0
M  V30 2193 H 208.092 -1.26838 2.98902 0
M  V30 2194 H 209.103 1.95789 4.79465 0
M  V30 2195 H 205.78 -0.538394 4.14014 0
M  V30 2196 H 207.17 3.05901 5.98226 0
M  V30 2197 N 209.89 -1.43072 0.660911 0
M  V30 2198 C 211.301 -1.84932 0.256348 0
M  V30 2199 C 211.652 -1.55325 -1.19868 0
M  V30 2200 O 210.777 -1.00607 -1.91591 0
M  V30 2201 C 211.372 -3.35684 0.458475 0
M  V30 2202 C 209.931 -3.76245 0.108161 0
M  V30 2203 C 209.078 -2.66749 0.757641 0
M  V30 2204 H 212.029 -1.33116 0.864051 0
M  V30 2205 H 212.05 -3.79365 -0.293683 0
M  V30 2206 H 211.562 -3.572 1.51755 0
M  V30 2207 H 209.663 -3.60338 -0.948014 0
M  V30 2208 H 209.776 -4.76058 0.538992 0
M  V30 2209 H 208.14 -2.53989 0.190185 0
M  V30 2210 H 208.923 -2.91092 1.81989 0
M  V30 2211 N 211.368 -0.403325 -1.52352 0
M  V30 2212 C 212.645 0.232611 -1.94212 0
M  V30 2213 C 213.025 1.63133 -1.33981 0
M  V30 2214 O 212.373 2.22659 -0.513344 0
M  V30 2215 C 212.583 0.244811 -3.4814 0
M  V30 2216 C 213.931 0.46698 -4.22024 0
M  V30 2217 O 214.955 0.324419 -3.5472 0
M  V30 2218 O 213.814 0.74747 -5.41364 0
M  V30 2219 H 210.908 0.148223 -0.813609 0
M  V30 2220 H 213.454 -0.458848 -1.63379 0
M  V30 2221 H 212.226 -0.734378 -3.84347 0
M  V30 2222 H 211.849 0.980611 -3.85318 0
M  V30 2223 N 212.846 1.57033 -0.133567 0
M  V30 2224 C 213.756 2.19632 0.824564 0
M  V30 2225 C 214.772 1.17666 1.28182 0
M  V30 2226 O 215.948 1.50193 1.3418 0
M  V30 2227 C 213.013 2.79499 2.05137 0
M  V30 2228 C 212.074 3.96548 1.64464 0
M  V30 2229 C 211.307 4.5355 2.81297 0
M  V30 2230 O 211.53 4.09438 3.97136 0
M  V30 2231 O 210.464 5.44018 2.57542 0
M  V30 2232 H 214.29 3.01991 0.321766 0
M  V30 2233 H 211.875 1.49112 0.0927889 0
M  V30 2234 H 213.757 3.17602 2.7696 0
M  V30 2235 H 212.432 2.00162 2.54395 0
M  V30 2236 H 211.339 3.63186 0.897048 0
M  V30 2237 H 212.672 4.77364 1.19934 0
M  V30 2238 N 214.325 -0.140222 1.56975 0
M  V30 2239 C 215.571 -0.852949 1.83991 0
M  V30 2240 C 215.904 -1.80512 0.716187 0
M  V30 2241 O 215.179 -1.92479 -0.279681 0
M  V30 2242 C 215.462 -1.6215 3.21527 0
M  V30 2243 C 215.315 -0.690363 4.4447 0
M  V30 2244 C 216.634 -2.58247 3.56366 0
M  V30 2245 H 213.753 -0.308634 0.669264 0
M  V30 2246 H 216.395 -0.117898 1.89634 0
M  V30 2247 H 214.545 -2.24812 3.16847 0
M  V30 2248 H 216.217 -0.0742264 4.6124 0
M  V30 2249 H 214.46 -0.000396433 4.338 0
M  V30 2250 H 215.131 -1.2643 5.37326 0
M  V30 2251 H 217.607 -2.05701 3.61699 0
M  V30 2252 H 216.483 -3.09067 4.53617 0
M  V30 2253 H 216.744 -3.39923 2.82674 0
M  V30 2254 N 215.803 -1.52179 -0.40978 0
M  V30 2255 C 216.713 -1.78364 -1.52392 0
M  V30 2256 C 217.729 -0.669183 -1.60617 0
M  V30 2257 O 218.905 -0.954518 -1.77344 0
M  V30 2258 C 215.97 -1.92822 -2.88133 0
M  V30 2259 C 215.031 -3.16725 -2.898 0
M  V30 2260 C 214.264 -3.30483 -4.19067 0
M  V30 2261 O 214.487 -2.49522 -5.12928 0
M  V30 2262 O 213.421 -4.2363 -4.27576 0
M  V30 2263 H 217.247 -2.72931 -1.33201 0
M  V30 2264 H 214.832 -1.37016 -0.59557 0
M  V30 2265 H 216.714 -2.04157 -3.68643 0
M  V30 2266 H 215.389 -1.01444 -3.07393 0
M  V30 2267 H 214.296 -3.10848 -2.08146 0
M  V30 2268 H 215.629 -4.07881 -2.75489 0
M  V30 2269 N 217.281 0.66697 -1.42791 0
M  V30 2270 C 218.229 1.80157 -1.47127 0
M  V30 2271 C 219.223 1.65825 -0.346199 0
M  V30 2272 O 220.429 1.72338 -0.519572 0
M  V30 2273 H 216.804 0.594158 -0.460956 0
M  V30 2274 H 218.775 1.73619 -2.42692 0
M  V30 2275 C 217.524 3.18351 -1.39813 0
M  V30 2276 H 216.847 3.3001 -2.25684 0
M  V30 2277 H 218.287 3.97736 -1.46908 0
M  V30 2278 C 216.746 3.36707 -0.11391 0
M  V30 2279 O 217.276 3.93027 0.830241 0
M  V30 2280 N 215.482 2.90586 -0.0285295 0
M  V30 2281 H 215.029 2.4494 -0.79764 0
M  V30 2282 H 214.987 3.03245 0.830063 0
M  V30 2283 N 218.759 1.29093 0.90403 0
M  V30 2284 C 219.984 1.19809 1.69294 0
M  V30 2285 C 220.409 -0.238481 1.86582 0
M  V30 2286 O 219.767 -1.1723 1.383 0
M  V30 2287 C 219.815 1.91202 3.05736 0
M  V30 2288 O 218.919 1.22611 3.93752 0
M  V30 2289 H 218.26 0.415385 0.518027 0
M  V30 2290 H 220.79 1.70586 1.12967 0
M  V30 2291 H 220.8 1.99487 3.55906 0
M  V30 2292 H 219.475 2.95692 2.92471 0
M  V30 2293 H 218.052 1.22554 3.52186 0
M  V30 2294 N 220.237 -1.11381 1.11499 0
M  V30 2295 C 221.483 -1.83403 0.865512 0
M  V30 2296 C 221.816 -1.84459 -0.607329 0
M  V30 2297 O 221.091 -1.29811 -1.44842 0
M  V30 2298 C 221.374 -3.30552 1.42855 0
M  V30 2299 C 221.227 -3.37886 2.96906 0
M  V30 2300 C 222.546 -4.26643 1.08 0
M  V30 2301 H 219.665 -0.665879 0.31587 0
M  V30 2302 H 222.307 -1.30601 1.37998 0
M  V30 2303 H 220.457 -3.75648 0.990985 0
M  V30 2304 H 222.129 -3.01343 3.49271 0
M  V30 2305 H 220.372 -2.78088 3.32941 0
M  V30 2306 H 221.043 -4.41458 3.31389 0
M  V30 2307 H 223.519 -3.89729 1.45775 0
M  V30 2308 H 222.395 -5.27986 1.50072 0
M  V30 2309 H 222.656 -4.42099 -0.00915037 0
M  V30 2310 N 221.715 -0.905404 -1.28997 0
M  V30 2311 C 222.943 -0.549846 -1.9946 0
M  V30 2312 C 223.358 0.866834 -1.67724 0
M  V30 2313 O 222.715 1.57298 -0.925404 0
M  V30 2314 C 222.766 -0.739387 -3.53858 0
M  V30 2315 O 222.487 -2.10031 -3.84472 0
M  V30 2316 C 223.988 -0.389541 -4.41585 0
M  V30 2317 H 221.208 -0.210429 -0.637151 0
M  V30 2318 H 223.752 -1.21632 -1.64396 0
M  V30 2319 H 221.907 -0.120023 -3.87214 0
M  V30 2320 H 222.321 -2.13385 -4.79132 0
M  V30 2321 H 223.795 -0.572972 -5.49018 0
M  V30 2322 H 224.272 0.673756 -4.34001 0
M  V30 2323 H 224.878 -0.986089 -4.1371 0
M  V30 2324 N 223.193 1.4272 -0.668489 0
M  V30 2325 C 224.123 2.335 -0.000100175 0
M  V30 2326 C 225.104 1.50328 0.795964 0
M  V30 2327 O 226.289 1.78949 0.754385 0
M  V30 2328 C 223.419 3.33874 0.956302 0
M  V30 2329 C 222.373 4.27152 0.269278 0
M  V30 2330 C 221.699 5.17684 1.33818 0
M  V30 2331 C 222.999 5.15373 -0.847805 0
M  V30 2332 H 224.693 2.89639 -0.758244 0
M  V30 2333 H 222.239 1.39269 -0.366079 0
M  V30 2334 H 224.192 3.9629 1.43292 0
M  V30 2335 H 222.916 2.76025 1.74579 0
M  V30 2336 H 221.575 3.66123 -0.187042 0
M  V30 2337 H 221.223 4.56165 2.1195 0
M  V30 2338 H 220.923 5.80918 0.883659 0
M  V30 2339 H 222.447 5.82974 1.81586 0
M  V30 2340 H 223.861 5.7151 -0.452681 0
M  V30 2341 H 222.258 5.87407 -1.22773 0
M  V30 2342 H 223.328 4.5415 -1.69929 0
M  V30 2343 N 224.671 0.411399 1.52136 0
M  V30 2344 C 226.082 -0.0576826 1.86611 0
M  V30 2345 C 226.433 -1.44238 1.33003 0
M  V30 2346 O 225.558 -2.05759 0.670228 0
M  V30 2347 C 226.153 -0.111448 3.38617 0
M  V30 2348 C 224.712 -0.52487 3.72723 0
M  V30 2349 C 223.859 0.299176 2.75681 0
M  V30 2350 H 226.81 0.628368 1.4573 0
M  V30 2351 H 226.831 -0.926252 3.69054 0
M  V30 2352 H 226.343 0.896488 3.77604 0
M  V30 2353 H 224.444 -1.53936 3.39315 0
M  V30 2354 H 224.557 -0.267681 4.78352 0
M  V30 2355 H 222.921 -0.238814 2.53578 0
M  V30 2356 H 223.704 1.3055 3.17508 0
M  V30 2357 N 226.149 -1.5696 0.141893 0
M  V30 2358 C 227.079 -2.19516 -0.795936 0
M  V30 2359 C 228.06 -1.14187 -1.26077 0
M  V30 2360 O 229.245 -1.42511 -1.31925 0
M  V30 2361 C 226.375 -2.81272 -2.03723 0
M  V30 2362 C 225.329 -3.92384 -1.70936 0
M  V30 2363 C 224.655 -4.41052 -3.02287 0
M  V30 2364 C 225.955 -5.13403 -0.959954 0
M  V30 2365 H 227.649 -2.98138 -0.274596 0
M  V30 2366 H 225.195 -1.43406 -0.130636 0
M  V30 2367 H 227.148 -3.237 -2.69808 0
M  V30 2368 H 225.872 -1.99973 -2.58221 0
M  V30 2369 H 224.531 -3.50566 -1.07232 0
M  V30 2370 H 224.179 -3.56582 -3.54765 0
M  V30 2371 H 223.879 -5.15993 -2.81114 0
M  V30 2372 H 225.403 -4.86146 -3.69451 0
M  V30 2373 H 226.817 -5.52706 -1.52279 0
M  V30 2374 H 225.214 -5.94073 -0.848357 0
M  V30 2375 H 226.284 -4.84875 0.0492434 0
M  V30 2376 N 227.627 0.131896 -1.57047 0
M  V30 2377 C 228.874 0.841932 -1.84168 0
M  V30 2378 C 229.202 1.8048 -0.725066 0
M  V30 2379 O 228.457 1.93618 0.284692 0
M  V30 2380 C 228.756 1.63703 -3.17704 0
M  V30 2381 C 228.422 0.81961 -4.43388 0
M  V30 2382 C 227.084 0.594148 -4.77518 0
M  V30 2383 C 229.436 0.248977 -5.20605 0
M  V30 2384 C 226.764 -0.212409 -5.86315 0
M  V30 2385 C 229.116 -0.544701 -6.30251 0
M  V30 2386 C 227.78 -0.780599 -6.6292 0
M  V30 2387 H 227.05 0.308085 -0.673917 0
M  V30 2388 H 229.697 0.104867 -1.91213 0
M  V30 2389 H 228.002 2.44464 -3.06177 0
M  V30 2390 H 229.699 2.19015 -3.35907 0
M  V30 2391 H 226.289 1.00542 -4.16641 0
M  V30 2392 H 230.473 0.410408 -4.946 0
M  V30 2393 H 225.729 -0.404524 -6.1006 0
M  V30 2394 H 229.903 -0.993922 -6.89271 0
M  V30 2395 H 227.53 -1.40742 -7.47058 0
M  V30 2396 N 229.106 1.52395 0.401703 0
M  V30 2397 C 230.334 1.70676 1.16949 0
M  V30 2398 C 230.749 0.419503 1.8408 0
M  V30 2399 O 230.106 -0.605061 1.72178 0
M  V30 2400 C 230.157 2.84753 2.22706 0
M  V30 2401 O 229.878 4.08495 1.58314 0
M  V30 2402 C 231.379 3.14608 3.12309 0
M  V30 2403 H 228.599 0.571787 0.351142 0
M  V30 2404 H 231.143 1.98987 0.471652 0
M  V30 2405 H 229.298 2.58941 2.88147 0
M  V30 2406 H 229.712 4.72117 2.28485 0
M  V30 2407 H 231.186 3.97923 3.82572 0
M  V30 2408 H 231.663 2.28464 3.75101 0
M  V30 2409 H 232.269 3.42212 2.52529 0
M  V30 2410 N 230.584 -0.659388 1.43143 0
M  V30 2411 C 231.494 -1.80167 1.50256 0
M  V30 2412 C 232.51 -1.69571 0.390106 0
M  V30 2413 O 233.686 -1.90849 0.643319 0
M  V30 2414 C 230.751 -3.16409 1.41725 0
M  V30 2415 C 229.812 -3.38848 2.63591 0
M  V30 2416 C 229.045 -4.68591 2.55458 0
M  V30 2417 O 229.268 -5.47532 1.59891 0
M  V30 2418 O 228.202 -4.92614 3.45854 0
M  V30 2419 H 232.028 -1.77121 2.46702 0
M  V30 2420 H 229.613 -0.817092 1.25076 0
M  V30 2421 H 231.495 -3.9768 1.39387 0
M  V30 2422 H 230.17 -3.20059 0.484118 0
M  V30 2423 H 229.077 -2.57366 2.71502 0
M  V30 2424 H 230.41 -3.4004 3.55856 0
M  V30 2425 N 232.062 -1.29571 -0.897171 0
M  V30 2426 C 233.29 -1.20583 -1.68129 0
M  V30 2427 C 233.705 0.233181 -1.87354 0
M  V30 2428 O 233.062 1.15579 -1.41236 0
M  V30 2429 C 233.113 -1.91772 -3.06441 0
M  V30 2430 O 232.834 -3.30053 -2.88091 0
M  V30 2431 C 234.335 -1.89291 -4.00854 0
M  V30 2432 H 231.555 -0.417826 -0.525036 0
M  V30 2433 H 234.099 -1.70987 -1.12177 0
M  V30 2434 H 232.254 -1.45196 -3.59161 0
M  V30 2435 H 232.668 -3.65942 -3.75748 0
M  V30 2436 H 234.142 -2.43662 -4.95311 0
M  V30 2437 H 234.619 -0.869014 -4.30517 0
M  V30 2438 H 235.225 -2.35622 -3.54066 0
M  V30 2439 N 233.54 1.10788 -1.12088 0
M  V30 2440 C 234.768 1.86461 -0.896651 0
M  V30 2441 C 235.183 1.80492 0.553912 0
M  V30 2442 O 234.54 1.19102 1.38278 0
M  V30 2443 C 234.591 3.35006 -1.35843 0
M  V30 2444 O 234.312 3.40866 -2.75213 0
M  V30 2445 C 235.813 4.27565 -1.1706 0
M  V30 2446 H 233.033 0.589425 -0.320654 0
M  V30 2447 H 235.577 1.40076 -1.48993 0
M  V30 2448 H 233.732 3.7887 -0.808458 0
M  V30 2449 H 234.146 4.33411 -2.9539 0
M  V30 2450 H 235.62 5.30007 -1.54263 0
M  V30 2451 H 236.097 4.3906 -0.110814 0
M  V30 2452 H 236.703 3.89501 -1.70789 0
M  V30 2453 N 235.018 0.912232 1.28515 0
M  V30 2454 C 235.981 0.404223 2.25607 0
M  V30 2455 C 236.981 -0.468602 1.53821 0
M  V30 2456 O 238.171 -0.271873 1.72065 0
M  V30 2457 C 235.303 -0.420653 3.38295 0
M  V30 2458 H 236.496 1.26188 2.7206 0
M  V30 2459 H 234.049 0.691495 1.40171 0
M  V30 2460 H 234.784 -1.29777 2.97201 0
M  V30 2461 H 234.569 0.204935 3.91564 0
M  V30 2462 H 236.059 -0.766971 4.10496 0
M  V30 2463 N 236.496 -1.42363 0.676048 0
M  V30 2464 C 237.726 -2.05561 0.206967 0
M  V30 2465 C 238.134 -1.50887 -1.14148 0
M  V30 2466 O 237.477 -0.643933 -1.72044 0
M  V30 2467 C 237.539 -3.5944 0.0659508 0
M  V30 2468 C 237.203 -4.36812 1.34331 0
M  V30 2469 C 238.2 -4.67383 2.27704 0
M  V30 2470 C 235.885 -4.76429 1.59125 0
M  V30 2471 C 237.879 -5.36509 3.44147 0
M  V30 2472 C 235.566 -5.45294 2.75857 0
M  V30 2473 C 236.564 -5.75259 3.68193 0
M  V30 2474 O 236.252 -6.42712 4.82883 0
M  V30 2475 H 235.984 -0.668872 0.0979084 0
M  V30 2476 H 238.538 -1.83467 0.923531 0
M  V30 2477 H 236.768 -3.80197 -0.706204 0
M  V30 2478 H 238.457 -4.0427 -0.363418 0
M  V30 2479 H 239.223 -4.37275 2.09799 0
M  V30 2480 H 235.102 -4.52498 0.881258 0
M  V30 2481 H 238.646 -5.59814 4.16238 0
M  V30 2482 H 234.543 -5.7482 2.93688 0
M  V30 2483 H 235.311 -6.61204 4.82444 0
M  V30 2484 N 237.974 -0.419461 -1.51915 0
M  V30 2485 C 238.937 0.389116 -2.25873 0
M  V30 2486 C 239.937 0.964924 -1.28631 0
M  V30 2487 O 241.127 0.842179 -1.52489 0
M  V30 2488 C 238.259 1.54874 -3.03689 0
M  V30 2489 H 239.452 -0.258799 -2.98781 0
M  V30 2490 H 237.005 -0.172209 -1.55348 0
M  V30 2491 H 237.74 2.23323 -2.35154 0
M  V30 2492 H 237.525 1.14223 -3.75094 0
M  V30 2493 H 239.015 2.12046 -3.59759 0
M  V30 2494 N 239.452 1.56882 -0.150215 0
M  V30 2495 C 240.863 1.82995 0.370076 0
M  V30 2496 C 241.214 1.06907 1.64515 0
M  V30 2497 O 240.339 0.315369 2.1409 0
M  V30 2498 C 240.934 3.31942 0.678208 0
M  V30 2499 C 239.493 3.58625 1.14301 0
M  V30 2500 C 238.64 2.76792 0.167778 0
M  V30 2501 H 241.591 1.54209 -0.374858 0
M  V30 2502 H 241.612 3.48272 1.53254 0
M  V30 2503 H 241.124 3.87294 -0.249991 0
M  V30 2504 H 239.225 3.08664 2.08704 0
M  V30 2505 H 239.338 4.67073 1.06676 0
M  V30 2506 H 237.702 2.45972 0.661037 0
M  V30 2507 H 238.485 3.34916 -0.754069 0
M  V30 2508 N 240.93 -0.123565 1.57115 0
M  V30 2509 C 242.155 -0.850398 1.89164 0
M  V30 2510 C 242.58 -1.7286 0.741688 0
M  V30 2511 O 241.938 -1.78665 -0.307958 0
M  V30 2512 C 241.986 -1.66353 3.19936 0
M  V30 2513 O 241.09 -2.77004 3.0552 0
M  V30 2514 H 240.431 -0.235454 0.620852 0
M  V30 2515 H 242.961 -0.107335 2.04318 0
M  V30 2516 H 242.971 -2.05372 3.52543 0
M  V30 2517 H 241.646 -1.01881 4.03228 0
M  V30 2518 H 240.223 -2.41221 2.84371 0
M  V30 2519 N 242.408 -1.52605 -0.393616 0
M  V30 2520 C 243.633 -1.71592 -1.16495 0
M  V30 2521 C 244.058 -0.43133 -1.83088 0
M  V30 2522 O 243.416 0.612523 -1.7064 0
M  V30 2523 C 243.464 -2.86318 -2.19213 0
M  V30 2524 O 242.568 -2.52969 -3.257 0
M  V30 2525 H 241.909 -0.570734 -0.33935 0
M  V30 2526 H 244.439 -1.99377 -0.459324 0
M  V30 2527 H 244.449 -3.1168 -2.63286 0
M  V30 2528 H 243.124 -3.79511 -1.7013 0
M  V30 2529 H 241.701 -2.38332 -2.86797 0
M  V30 2530 N 243.887 0.651787 -1.4349 0
M  V30 2531 C 245.298 1.233 -1.40193 0
M  V30 2532 C 245.649 1.9591 -0.106727 0
M  V30 2533 O 244.774 2.01316 0.793773 0
M  V30 2534 C 245.369 2.24257 -2.53957 0
M  V30 2535 C 243.928 2.77852 -2.5392 0
M  V30 2536 C 243.075 1.52517 -2.3159 0
M  V30 2537 H 246.026 0.443717 -1.52371 0
M  V30 2538 H 246.047 3.0646 -2.25528 0
M  V30 2539 H 245.559 1.71382 -3.4821 0
M  V30 2540 H 243.66 3.34786 -1.63551 0
M  V30 2541 H 243.773 3.25299 -3.51735 0
M  V30 2542 H 242.137 1.79915 -1.80285 0
M  V30 2543 H 242.92 1.01574 -3.27929 0
M  V30 2544 N 245.365 1.30045 0.890287 0
M  V30 2545 C 246.595 1.21296 1.67245 0
M  V30 2546 C 247.003 -0.227471 1.87828 0
M  V30 2547 O 246.346 -1.16296 1.422 0
M  V30 2548 C 246.408 1.86519 3.07329 0
M  V30 2549 C 246.072 3.35837 3.09939 0
M  V30 2550 C 247.069 4.31915 2.89389 0
M  V30 2551 C 244.754 3.77196 3.31706 0
M  V30 2552 C 246.748 5.67325 2.90552 0
M  V30 2553 C 244.435 5.12725 3.32499 0
M  V30 2554 C 245.433 6.076 3.11947 0
M  V30 2555 O 245.121 7.40655 3.12547 0
M  V30 2556 H 244.853 0.4211 0.528821 0
M  V30 2557 H 247.407 1.72111 1.12103 0
M  V30 2558 H 245.637 1.30228 3.64112 0
M  V30 2559 H 247.326 1.71963 3.67673 0
M  V30 2560 H 248.092 4.01294 2.72375 0
M  V30 2561 H 243.971 3.03796 3.4674 0
M  V30 2562 H 247.515 6.41354 2.74429 0
M  V30 2563 H 243.412 5.42988 3.49047 0
M  V30 2564 H 244.18 7.49577 3.28749 0
M  V30 2565 N 246.843 -1.10192 1.12674 0
M  V30 2566 C 248.068 -1.86523 0.906853 0
M  V30 2567 C 248.493 -1.80221 -0.538711 0
M  V30 2568 O 247.851 -1.17396 -1.38158 0
M  V30 2569 C 247.899 -3.32758 1.3894 0
M  V30 2570 O 247.003 -4.08449 0.5695 0
M  V30 2571 H 246.344 -0.578678 0.325619 0
M  V30 2572 H 248.874 -1.39203 1.49946 0
M  V30 2573 H 248.884 -3.83608 1.38958 0
M  V30 2574 H 247.559 -3.36661 2.44197 0
M  V30 2575 H 246.136 -3.67427 0.636528 0
M  V30 2576 N 248.321 -0.919034 -1.28029 0
M  V30 2577 C 249.284 -0.416182 -2.2539 0
M  V30 2578 C 250.284 0.460438 -1.54067 0
M  V30 2579 O 251.474 0.262744 -1.72207 0
M  V30 2580 C 248.606 0.402707 -3.38513 0
M  V30 2581 H 249.799 -1.27629 -2.71387 0
M  V30 2582 H 247.352 -0.698919 -1.39803 0
M  V30 2583 H 248.087 1.282 -2.97885 0
M  V30 2584 H 247.872 -0.225698 -3.9145 0
M  V30 2585 H 249.362 0.745191 -4.10897 0
M  V30 2586 N 249.799 1.42003 -0.683588 0
M  V30 2587 C 251.024 2.06265 -0.216647 0
M  V30 2588 C 251.449 1.51059 1.12083 0
M  V30 2589 O 250.807 0.632638 1.69904 0
M  V30 2590 C 250.855 3.60191 -0.171759 0
M  V30 2591 O 249.959 4.03396 0.857069 0
M  V30 2592 H 249.3 0.65502 -0.108834 0
M  V30 2593 H 251.83 1.81982 -0.935077 0
M  V30 2594 H 251.84 4.08 0.0014303 0
M  V30 2595 H 250.515 3.99743 -1.14796 0
M  V30 2596 H 249.092 3.67117 0.654208 0
M  V30 2597 N 251.277 0.427512 1.51691 0
M  V30 2598 C 252.224 -0.388867 2.275 0
M  V30 2599 C 253.194 -1.02532 1.30677 0
M  V30 2600 O 254.379 -1.0461 1.59566 0
M  V30 2601 C 251.519 -1.48954 3.11298 0
M  V30 2602 C 250.632 -0.872194 4.23104 0
M  V30 2603 C 249.767 -1.94709 4.94228 0
M  V30 2604 C 248.806 -1.30766 5.97969 0
M  V30 2605 N 247.943 -2.32349 6.62539 0
M  V30 2606 H 252.783 0.263997 2.96828 0
M  V30 2607 H 250.32 0.142033 1.46413 0
M  V30 2608 H 252.278 -2.13887 3.58201 0
M  V30 2609 H 250.908 -2.11217 2.44105 0
M  V30 2610 H 249.96 -0.111419 3.80237 0
M  V30 2611 H 251.272 -0.365264 4.97461 0
M  V30 2612 H 250.426 -2.67327 5.44629 0
M  V30 2613 H 249.165 -2.48773 4.1948 0
M  V30 2614 H 248.17 -0.566902 5.4687 0
M  V30 2615 H 249.395 -0.774483 6.74669 0
M  V30 2616 H 247.341 -2.85511 5.90609 0
M  V30 2617 H 247.258 -1.8652 7.3263 0
M  V30 2618 H 248.526 -3.04481 7.17574 0
M  V30 2619 N 252.755 -1.56801 0.158532 0
M  V30 2620 C 253.718 -2.16138 -0.762705 0
M  V30 2621 C 254.718 -1.1061 -1.16713 0
M  V30 2622 O 255.908 -1.36191 -1.08617 0
M  V30 2623 C 253.04 -2.73386 -2.03649 0
M  V30 2624 H 254.233 -2.98886 -0.246354 0
M  V30 2625 H 251.786 -1.56035 -0.0909744 0
M  V30 2626 H 252.521 -1.94335 -2.59623 0
M  V30 2627 H 252.306 -3.50601 -1.75559 0
M  V30 2628 H 253.796 -3.19065 -2.6942 0
M  V30 2629 N 254.233 0.115231 -1.57178 0
M  V30 2630 C 255.458 0.840354 -1.89612 0
M  V30 2631 C 255.883 1.72464 -0.750845 0
M  V30 2632 O 255.241 1.78826 0.298478 0
M  V30 2633 C 255.289 1.64654 -3.20814 0
M  V30 2634 O 254.393 2.7538 -3.06985 0
M  V30 2635 H 253.734 0.232158 -0.622092 0
M  V30 2636 H 256.264 0.0964977 -2.04372 0
M  V30 2637 H 256.274 2.03499 -3.53627 0
M  V30 2638 H 254.949 0.997416 -4.03763 0
M  V30 2639 H 253.526 2.3971 -2.85646 0
M  V30 2640 N 255.711 1.52812 0.385517 0
M  V30 2641 C 256.936 1.72207 1.15583 0
M  V30 2642 C 257.361 0.441034 1.82857 0
M  V30 2643 O 256.719 -0.603465 1.70962 0
M  V30 2644 C 256.767 2.87476 2.17692 0
M  V30 2645 O 255.871 2.54693 3.24354 0
M  V30 2646 H 255.212 0.572526 0.336319 0
M  V30 2647 H 257.742 1.99618 0.448744 0
M  V30 2648 H 257.752 3.13072 2.6163 0
M  V30 2649 H 256.427 3.80408 1.68115 0
M  V30 2650 H 255.004 2.3985 2.85529 0
M  V30 2651 N 257.189 -0.644168 1.43834 0
M  V30 2652 C 258.466 -1.40188 1.36406 0
M  V30 2653 C 258.846 -2.11094 0.0163124 0
M  V30 2654 O 258.194 -2.05426 -1.00062 0
M  V30 2655 C 258.404 -2.3791 2.55343 0
M  V30 2656 C 259.752 -3.01637 2.98832 0
M  V30 2657 O 260.776 -2.48237 2.55455 0
M  V30 2658 O 259.635 -3.98477 3.74003 0
M  V30 2659 H 256.729 -0.626773 0.539523 0
M  V30 2660 H 259.275 -0.670317 1.559 0
M  V30 2661 H 258.047 -1.84525 3.4506 0
M  V30 2662 H 257.67 -3.18503 2.37995 0
M  V30 2663 N 258.668 -1.30515 -0.883378 0
M  V30 2664 C 259.618 -1.13641 -1.9766 0
M  V30 2665 C 260.602 -0.0511314 -1.60819 0
M  V30 2666 O 261.794 -0.274623 -1.74857 0
M  V30 2667 C 258.923 -0.831976 -3.33066 0
M  V30 2668 C 258.009 -1.95759 -3.76217 0
M  V30 2669 N 258.4 -3.20313 -3.9145 0
M  V30 2670 C 256.698 -1.85431 -4.05625 0
M  V30 2671 C 257.399 -3.93856 -4.2808 0
M  V30 2672 N 256.375 -3.21919 -4.38029 0
M  V30 2673 H 260.177 -2.08106 -2.07531 0
M  V30 2674 H 257.691 -1.21877 -1.0733 0
M  V30 2675 H 259.688 -0.692102 -4.11115 0
M  V30 2676 H 258.348 0.104588 -3.24532 0
M  V30 2677 H 259.359 -3.55583 -3.76538 0
M  V30 2678 H 256.036 -0.991531 -4.05555 0
M  V30 2679 H 257.426 -5.01125 -4.47575 0
M  V30 2680 N 260.146 1.09593 -1.13257 0
M  V30 2681 C 261.076 2.18214 -0.830946 0
M  V30 2682 C 262.057 1.68812 0.208966 0
M  V30 2683 O 263.242 1.9408 0.0682666 0
M  V30 2684 C 260.372 3.46051 -0.294296 0
M  V30 2685 C 259.326 4.08778 -1.26826 0
M  V30 2686 C 258.652 5.31419 -0.591449 0
M  V30 2687 C 259.952 4.51476 -2.62615 0
M  V30 2688 H 261.646 2.43703 -1.73923 0
M  V30 2689 H 259.192 1.17128 -0.837675 0
M  V30 2690 H 261.145 4.2134 -0.0709606 0
M  V30 2691 H 259.869 3.20079 0.649366 0
M  V30 2692 H 258.528 3.35505 -1.47756 0
M  V30 2693 H 258.176 5.01727 0.357633 0
M  V30 2694 H 257.876 5.74341 -1.24123 0
M  V30 2695 H 259.4 6.09433 -0.377355 0
M  V30 2696 H 260.814 5.17999 -2.45663 0
M  V30 2697 H 259.211 5.05277 -3.23752 0
M  V30 2698 H 260.281 3.63962 -3.20406 0
M  V30 2699 N 261.624 0.925811 1.2754 0
M  V30 2700 C 262.87 0.566092 1.94739 0
M  V30 2701 C 263.203 -0.890057 1.72603 0
M  V30 2702 O 262.478 -1.63467 1.05399 0
M  V30 2703 C 262.761 0.89054 3.48915 0
M  V30 2704 C 262.614 2.4003 3.80402 0
M  V30 2705 C 263.933 0.395101 4.38323 0
M  V30 2706 H 261.052 0.20714 0.707292 0
M  V30 2707 H 263.694 1.15725 1.50691 0
M  V30 2708 H 261.844 0.387452 3.86563 0
M  V30 2709 H 263.516 2.97494 3.52555 0
M  V30 2710 H 261.759 2.85028 3.2702 0
M  V30 2711 H 262.43 2.57785 4.8811 0
M  V30 2712 H 264.906 0.826241 4.07814 0
M  V30 2713 H 263.782 0.651086 5.45025 0
M  V30 2714 H 264.043 -0.704798 4.36446 0
M  V30 2715 N 263.102 -1.41638 0.69111 0
M  V30 2716 C 264.518 -1.55435 0.362224 0
M  V30 2717 C 264.718 -1.66754 -1.13117 0
M  V30 2718 O 263.774 -1.64348 -1.91692 0
M  V30 2719 C 265.087 -2.79588 1.10684 0
M  V30 2720 C 266.635 -2.9338 1.09075 0
M  V30 2721 C 267.11 -4.20414 1.81703 0
M  V30 2722 N 268.601 -4.27362 1.7865 0
M  V30 2723 C 269.336 -5.24507 2.31689 0
M  V30 2724 N 268.832 -6.27708 2.93179 0
M  V30 2725 N 270.625 -5.16416 2.2197 0
M  V30 2726 H 262.776 -1.32536 1.65976 0
M  V30 2727 H 265.039 -0.639115 0.700168 0
M  V30 2728 H 264.745 -2.77419 2.16175 0
M  V30 2729 H 264.619 -3.70973 0.682545 0
M  V30 2730 H 267.006 -2.95067 0.0441238 0
M  V30 2731 H 267.087 -2.0318 1.55407 0
M  V30 2732 H 266.731 -4.19488 2.86343 0
M  V30 2733 H 266.661 -5.09578 1.32808 0
M  V30 2734 H 269.152 -3.53415 1.33815 0
M  V30 2735 H 269.465 -6.98217 3.31229 0
M  V30 2736 H 267.81 -6.28223 2.97255 0
M  V30 2737 H 271.001 -4.34716 1.73607 0
M  V30 2738 H 271.174 -5.91958 2.63609 0
M  V30 2739 N 264.58 -0.43555 -1.51462 0
M  V30 2740 C 265.543 0.365137 -2.26273 0
M  V30 2741 C 266.543 0.951227 -1.29647 0
M  V30 2742 O 267.733 0.825958 -1.53374 0
M  V30 2743 C 264.865 1.51645 -3.05314 0
M  V30 2744 H 266.058 -0.290474 -2.9849 0
M  V30 2745 H 263.611 -0.188676 -1.55157 0
M  V30 2746 H 264.346 2.20816 -2.3751 0
M  V30 2747 H 264.131 1.10238 -3.76284 0
M  V30 2748 H 265.621 2.08218 -3.61987 0
M  V30 2749 N 266.058 1.56714 -0.166846 0
M  V30 2750 C 267.304 1.97813 0.473473 0
M  V30 2751 C 267.659 1.05095 1.61161 0
M  V30 2752 O 266.952 0.0897541 1.9139 0
M  V30 2753 C 267.146 3.42889 1.00806 0
M  V30 2754 C 266.975 4.49635 -0.0767392 0
M  V30 2755 C 265.745 5.02566 -0.524894 0
M  V30 2756 C 267.943 5.06793 -0.875504 0
M  V30 2757 N 265.925 5.9294 -1.59047 0
M  V30 2758 C 267.296 5.93565 -1.79111 0
M  V30 2759 C 269.351 4.89306 -0.921083 0
M  V30 2760 C 268.054 6.64721 -2.74843 0
M  V30 2761 C 270.08 5.61179 -1.86633 0
M  V30 2762 C 269.442 6.47675 -2.76942 0
M  V30 2763 H 265.541 0.769093 0.141489 0
M  V30 2764 H 268.125 1.92874 -0.266031 0
M  V30 2765 H 266.296 3.48382 1.7171 0
M  V30 2766 H 268.028 3.71008 1.61664 0
M  V30 2767 H 264.783 4.73439 -0.123432 0
M  V30 2768 H 265.207 6.42831 -2.12361 0
M  V30 2769 H 269.849 4.22136 -0.23692 0
M  V30 2770 H 267.567 7.31107 -3.44249 0
M  V30 2771 H 271.153 5.49636 -1.90764 0
M  V30 2772 H 270.033 7.02313 -3.48893 0
M  V30 2773 N 267.536 -0.106894 1.57237 0
M  V30 2774 C 268.952 -0.46078 1.52804 0
M  V30 2775 C 269.152 -1.81184 0.881746 0
M  V30 2776 O 268.208 -2.48102 0.469224 0
M  V30 2777 C 269.521 -0.434127 2.9755 0
M  V30 2778 C 271.069 -0.516821 3.08704 0
M  V30 2779 C 271.544 -0.520436 4.55033 0
M  V30 2780 N 273.035 -0.58153 4.59535 0
M  V30 2781 C 273.77 -0.605973 5.70189 0
M  V30 2782 N 273.266 -0.587331 6.90306 0
M  V30 2783 N 275.059 -0.649895 5.5833 0
M  V30 2784 H 267.21 0.778203 1.9763 0
M  V30 2785 H 269.473 0.288403 0.903066 0
M  V30 2786 H 269.179 0.491197 3.48253 0
M  V30 2787 H 269.053 -1.25748 3.55622 0
M  V30 2788 H 271.44 -1.43256 2.57995 0
M  V30 2789 H 271.521 0.334449 2.53604 0
M  V30 2790 H 271.165 0.391313 5.0639 0
M  V30 2791 H 271.095 -1.38876 5.07958 0
M  V30 2792 H 273.586 -0.60161 3.73081 0
M  V30 2793 H 273.899 -0.60894 7.70397 0
M  V30 2794 H 272.244 -0.554564 6.92784 0
M  V30 2795 H 275.435 -0.661907 4.63397 0
M  V30 2796 H 275.608 -0.665476 6.44574 0
M  V30 2797 N 269.014 -1.53014 -0.377408 0
M  V30 2798 C 270.43 -1.42523 -0.718281 0
M  V30 2799 C 270.63 -0.55487 -1.9371 0
M  V30 2800 O 269.686 -0.0327593 -2.52479 0
M  V30 2801 C 270.999 -2.85546 -0.942539 0
M  V30 2802 C 272.547 -2.95101 -1.04329 0
M  V30 2803 C 273.022 -4.3916 -1.3001 0
M  V30 2804 N 274.513 -4.42536 -1.36806 0
M  V30 2805 C 275.248 -5.51097 -1.58364 0
M  V30 2806 N 274.744 -6.69724 -1.77317 0
M  V30 2807 N 276.537 -5.38657 -1.60638 0
M  V30 2808 H 268.688 -2.08116 0.424426 0
M  V30 2809 H 270.951 -0.939352 0.127759 0
M  V30 2810 H 270.657 -3.51499 -0.118929 0
M  V30 2811 H 270.531 -3.28493 -1.85397 0
M  V30 2812 H 272.918 -2.29309 -1.85745 0
M  V30 2813 H 272.999 -2.55566 -0.109505 0
M  V30 2814 H 272.643 -5.05521 -0.490991 0
M  V30 2815 H 272.573 -4.76258 -2.24691 0
M  V30 2816 H 275.064 -3.57039 -1.23821 0
M  V30 2817 H 275.377 -7.48233 -1.93306 0
M  V30 2818 H 273.722 -6.72732 -1.74518 0
M  V30 2819 H 276.913 -4.44948 -1.45391 0
M  V30 2820 H 277.086 -6.2333 -1.77098 0
M  V30 2821 N 270.492 0.636531 -1.44174 0
M  V30 2822 C 271.72 1.42353 -1.50144 0
M  V30 2823 C 272.135 1.88389 -0.124575 0
M  V30 2824 O 271.492 1.6051 0.868489 0
M  V30 2825 C 271.543 2.64744 -2.46156 0
M  V30 2826 O 271.264 2.20629 -3.7849 0
M  V30 2827 C 272.765 3.57929 -2.61537 0
M  V30 2828 H 269.985 0.436752 -0.5094 0
M  V30 2829 H 272.529 0.778933 -1.89084 0
M  V30 2830 H 270.684 3.25307 -2.10366 0
M  V30 2831 H 271.098 2.99938 -4.30276 0
M  V30 2832 H 272.572 4.40428 -3.32757 0
M  V30 2833 H 273.049 4.06382 -1.66585 0
M  V30 2834 H 273.655 3.03238 -2.98206 0
M  V30 2835 N 271.97 1.30982 0.876444 0
M  V30 2836 C 273.2 1.23063 1.65949 0
M  V30 2837 C 273.608 -0.207537 1.88058 0
M  V30 2838 O 272.951 -1.14781 1.43426 0
M  V30 2839 C 273.013 1.89768 3.05333 0
M  V30 2840 C 272.677 3.39106 3.0636 0
M  V30 2841 C 273.674 4.3496 2.84791 0
M  V30 2842 C 271.359 3.80693 3.27686 0
M  V30 2843 C 273.353 5.70375 2.84519 0
M  V30 2844 C 271.04 5.16223 3.27043 0
M  V30 2845 C 272.038 6.10875 3.05485 0
M  V30 2846 O 271.726 7.43928 3.04674 0
M  V30 2847 H 271.458 0.426685 0.524324 0
M  V30 2848 H 274.012 1.7329 1.10271 0
M  V30 2849 H 272.242 1.34082 3.6271 0
M  V30 2850 H 273.931 1.75853 3.65829 0
M  V30 2851 H 274.697 4.0416 2.68103 0
M  V30 2852 H 270.576 3.07457 3.43499 0
M  V30 2853 H 274.12 6.44228 2.67611 0
M  V30 2854 H 270.017 5.4666 3.43269 0
M  V30 2855 H 270.785 7.53022 3.2078 0
M  V30 2856 N 273.449 -1.08991 1.13837 0
M  V30 2857 C 274.697 -1.80899 0.901098 0
M  V30 2858 C 275.018 -1.86356 -0.574134 0
M  V30 2859 O 274.288 -1.35235 -1.41733 0
M  V30 2860 H 272.868 -0.669966 0.330386 0
M  V30 2861 H 275.53 -1.318 1.43578 0
M  V30 2862 H 274.626 -2.83929 1.29578 0
M  V30 2863 N 274.927 -0.932562 -1.27047 0
M  V30 2864 C 275.857 -0.452902 -2.29066 0
M  V30 2865 C 276.838 0.489338 -1.62909 0
M  V30 2866 O 278.023 0.393046 -1.90181 0
M  V30 2867 C 275.153 0.290698 -3.46081 0
M  V30 2868 C 274.107 -0.564168 -4.24265 0
M  V30 2869 C 273.433 0.308886 -5.33807 0
M  V30 2870 C 274.733 -1.83112 -4.89149 0
M  V30 2871 H 276.427 -1.30552 -2.69437 0
M  V30 2872 H 273.973 -0.629201 -1.29526 0
M  V30 2873 H 275.926 0.637233 -4.16554 0
M  V30 2874 H 274.65 1.17738 -3.0464 0
M  V30 2875 H 273.309 -0.893477 -3.55545 0
M  V30 2876 H 272.957 1.19467 -4.88607 0
M  V30 2877 H 272.657 -0.259633 -5.87026 0
M  V30 2878 H 274.181 0.650884 -6.07121 0
M  V30 2879 H 275.595 -1.55236 -5.51883 0
M  V30 2880 H 273.992 -2.34353 -5.52448 0
M  V30 2881 H 275.062 -2.54772 -4.12576 0
M  V30 2882 N 276.405 1.4127 -0.698611 0
M  V30 2883 C 277.816 1.84187 -0.305289 0
M  V30 2884 C 278.167 1.58449 1.15708 0
M  V30 2885 O 277.292 1.05651 1.88856 0
M  V30 2886 C 277.887 3.3435 -0.547314 0
M  V30 2887 C 276.446 3.75826 -0.207878 0
M  V30 2888 C 275.593 2.64647 -0.828099 0
M  V30 2889 H 278.544 1.30778 -0.89904 0
M  V30 2890 H 278.565 3.8001 0.192998 0
M  V30 2891 H 278.077 3.53051 -1.61172 0
M  V30 2892 H 276.178 3.62725 0.852143 0
M  V30 2893 H 276.291 4.74462 -0.665021 0
M  V30 2894 H 274.655 2.53395 -0.257458 0
M  V30 2895 H 275.438 2.86165 -1.89643 0
M  V30 2896 N 277.883 0.443576 1.51229 0
M  V30 2897 C 279.111 -0.11929 2.06556 0
M  V30 2898 C 279.526 -1.35921 1.31038 0
M  V30 2899 O 278.883 -1.78675 0.371704 0
M  V30 2900 C 278.934 -0.435228 3.5887 0
M  V30 2901 O 278.655 0.755486 4.31537 0
M  V30 2902 C 280.156 -1.04808 4.30732 0
M  V30 2903 H 277.376 -0.0051584 0.67098 0
M  V30 2904 H 279.92 0.624453 1.94733 0
M  V30 2905 H 278.075 -1.12887 3.70588 0
M  V30 2906 H 278.489 0.483491 5.22267 0
M  V30 2907 H 279.963 -1.2191 5.3837 0
M  V30 2908 H 280.44 -2.03081 3.89429 0
M  V30 2909 H 281.046 -0.393637 4.23474 0
M  V30 2910 N 279.361 -1.56624 0.175154 0
M  V30 2911 C 280.61 -1.96173 -0.468921 0
M  V30 2912 C 280.923 -1.06401 -1.64128 0
M  V30 2913 O 282.129 -1.35648 -2.35185 0
M  V30 2914 C 280.585 -3.48833 -0.885633 0
M  V30 2915 C 280.193 -4.47237 0.261343 0
M  V30 2916 C 281.937 -3.97194 -1.49791 0
M  V30 2917 C 279.844 -5.9114 -0.175214 0
M  V30 2918 H 278.774 -0.732455 -0.178958 0
M  V30 2919 H 281.425 -1.81591 0.263997 0
M  V30 2920 H 279.807 -3.58848 -1.67464 0
M  V30 2921 H 280.981 -4.4894 1.03871 0
M  V30 2922 H 279.296 -4.08956 0.783827 0
M  V30 2923 H 281.893 -5.02167 -1.83665 0
M  V30 2924 H 282.236 -3.40351 -2.39722 0
M  V30 2925 H 282.769 -3.90212 -0.773267 0
M  V30 2926 H 279.508 -6.51865 0.689414 0
M  V30 2927 H 279.028 -5.92735 -0.91786 0
M  V30 2928 H 280.707 -6.44044 -0.617792 0
M  V30 2929 N 280.839 0.0985539 -1.57292 0
M  V30 2930 C 282.085 0.803867 -1.86188 0
M  V30 2931 C 282.418 1.78549 -0.763794 0
M  V30 2932 O 281.693 1.93153 0.22855 0
M  V30 2933 C 281.976 1.53568 -3.25713 0
M  V30 2934 C 281.829 0.572277 -4.46145 0
M  V30 2935 C 283.148 2.48708 -3.63087 0
M  V30 2936 H 280.267 0.290781 -0.677211 0
M  V30 2937 H 282.909 0.0675783 -1.8988 0
M  V30 2938 H 281.059 2.16332 -3.22696 0
M  V30 2939 H 282.731 -0.0480894 -4.61275 0
M  V30 2940 H 280.974 -0.114618 -4.33649 0
M  V30 2941 H 281.645 1.12139 -5.40489 0
M  V30 2942 H 284.121 1.96039 -3.67026 0
M  V30 2943 H 282.997 2.96932 -4.61652 0
M  V30 2944 H 283.258 3.32309 -2.91588 0
M  V30 2945 N 282.317 1.53212 0.369288 0
M  V30 2946 C 283.545 1.73119 1.13303 0
M  V30 2947 C 283.96 0.458455 1.83149 0
M  V30 2948 O 283.317 -0.568403 1.73423 0
M  V30 2949 C 283.368 2.89413 2.16616 0
M  V30 2950 O 283.089 4.11761 1.49614 0
M  V30 2951 C 284.59 3.21161 3.05566 0
M  V30 2952 H 281.81 0.579107 0.338934 0
M  V30 2953 H 284.354 1.99942 0.429338 0
M  V30 2954 H 282.509 2.64994 2.82589 0
M  V30 2955 H 282.923 4.76858 2.18419 0
M  V30 2956 H 284.397 4.05949 3.74045 0
M  V30 2957 H 284.874 2.36369 3.70171 0
M  V30 2958 H 285.48 3.47492 2.45213 0
M  V30 2959 N 283.795 -0.628877 1.44509 0
M  V30 2960 C 284.743 -1.76193 1.51852 0
M  V30 2961 C 285.737 -1.64849 0.390042 0
M  V30 2962 O 286.943 -1.709 0.565082 0
M  V30 2963 H 283.318 -0.581728 0.476547 0
M  V30 2964 H 285.289 -1.67123 2.47209 0
M  V30 2965 C 284.038 -3.14533 1.48204 0
M  V30 2966 H 283.361 -3.23911 2.34354 0
M  V30 2967 H 284.801 -3.93701 1.57402 0
M  V30 2968 C 283.26 -3.36287 0.203142 0
M  V30 2969 O 283.79 -3.9509 -0.725745 0
M  V30 2970 N 281.996 -2.90408 0.105563 0
M  V30 2971 H 281.543 -2.42739 0.862301 0
M  V30 2972 H 281.501 -3.05339 -0.749371 0
M  V30 2973 N 285.273 -1.31445 -0.869486 0
M  V30 2974 C 286.513 -1.22458 -1.63656 0
M  V30 2975 C 286.877 0.213846 -1.90805 0
M  V30 2976 O 288.078 0.427212 -2.65383 0
M  V30 2977 C 286.349 -2.04564 -2.93067 0
M  V30 2978 S 287.908 -2.12445 -3.83944 0
M  V30 2979 H 284.726 -0.436145 -0.561514 0
M  V30 2980 H 287.328 -1.66114 -1.03085 0
M  V30 2981 H 286.032 -3.0816 -2.71045 0
M  V30 2982 H 285.563 -1.6163 -3.58663 0
M  V30 2983 H 287.578 -1.26312 -4.79854 0
M  V30 2984 N 286.751 1.08385 -1.14413 0
M  V30 2985 C 287.976 1.85057 -0.936413 0
M  V30 2986 C 288.401 1.81055 0.509971 0
M  V30 2987 O 287.759 1.1958 1.36273 0
M  V30 2988 C 287.807 3.30505 -1.44217 0
M  V30 2989 O 286.911 4.07491 -0.634409 0
M  V30 2990 H 286.252 0.573425 -0.334784 0
M  V30 2991 H 288.782 1.36799 -1.52142 0
M  V30 2992 H 288.792 3.81348 -1.45043 0
M  V30 2993 H 287.467 3.32734 -2.49522 0
M  V30 2994 H 286.044 3.66368 -0.694902 0
M  V30 2995 N 288.23 0.939286 1.26551 0
M  V30 2996 C 289.178 0.43815 2.28436 0
M  V30 2997 C 290.172 -0.483587 1.62351 0
M  V30 2998 O 291.378 -0.362009 1.76322 0
M  V30 2999 H 287.753 0.123149 0.741848 0
M  V30 3000 H 289.724 1.31002 2.68106 0
M  V30 3001 C 288.473 -0.283052 3.46546 0
M  V30 3002 H 287.796 0.417043 3.97619 0
M  V30 3003 H 289.236 -0.597948 4.19763 0
M  V30 3004 C 287.695 -1.50018 3.01656 0
M  V30 3005 O 288.225 -2.59855 3.0633 0
M  V30 3006 N 286.431 -1.35608 2.57019 0
M  V30 3007 H 285.978 -0.46244 2.53415 0
M  V30 3008 H 285.936 -2.17165 2.27347 0
M  V30 3009 N 289.708 -1.40897 0.706093 0
M  V30 3010 C 290.656 -2.32572 0.0361893 0
M  V30 3011 C 291.65 -1.51532 -0.757266 0
M  V30 3012 O 292.856 -1.67396 -0.661703 0
M  V30 3013 H 289.231 -0.751966 -0.00709935 0
M  V30 3014 H 291.202 -2.86733 0.826249 0
M  V30 3015 C 289.951 -3.36418 -0.87854 0
M  V30 3016 H 289.274 -3.98836 -0.277401 0
M  V30 3017 H 290.714 -4.0308 -1.3154 0
M  V30 3018 C 289.173 -2.71141 -1.99961 0
M  V30 3019 O 289.703 -2.56735 -3.0895 0
M  V30 3020 N 287.909 -2.29671 -1.78043 0
M  V30 3021 H 287.456 -2.41588 -0.894042 0
M  V30 3022 H 287.414 -1.86332 -2.53235 0
M  V30 3023 N 291.186 -0.45159 -1.50991 0
M  V30 3024 C 292.416 0.108177 -2.06317 0
M  V30 3025 C 292.824 1.35774 -1.31765 0
M  V30 3026 O 292.167 1.79838 -0.374694 0
M  V30 3027 C 292.229 0.481659 -3.56259 0
M  V30 3028 C 291.893 -0.663114 -4.52163 0
M  V30 3029 C 292.89 -1.53947 -4.96585 0
M  V30 3030 C 290.575 -0.8479 -4.95092 0
M  V30 3031 C 292.569 -2.58518 -5.82621 0
M  V30 3032 C 290.256 -1.89686 -5.80915 0
M  V30 3033 C 291.254 -2.76388 -6.24579 0
M  V30 3034 O 290.942 -3.79482 -7.08695 0
M  V30 3035 H 290.674 0.00499183 -0.675982 0
M  V30 3036 H 293.228 -0.633659 -1.95381 0
M  V30 3037 H 291.458 1.27641 -3.65027 0
M  V30 3038 H 293.147 0.974233 -3.94035 0
M  V30 3039 H 293.913 -1.4083 -4.64103 0
M  V30 3040 H 289.792 -0.18258 -4.60638 0
M  V30 3041 H 293.336 -3.26224 -6.16623 0
M  V30 3042 H 289.233 -2.02817 -6.12809 0
M  V30 3043 H 290.001 -3.76234 -7.26905 0
M  V30 3044 N 292.664 1.56529 -0.183458 0
M  V30 3045 C 293.912 1.96855 0.457452 0
M  V30 3046 C 294.233 1.07104 1.62953 0
M  V30 3047 O 293.503 0.139887 1.954 0
M  V30 3048 H 292.083 0.72693 0.171992 0
M  V30 3049 H 294.745 1.93056 -0.267476 0
M  V30 3050 H 293.841 3.01423 0.809368 0
M  V30 3051 N 294.142 -0.090211 1.57342 0
M  V30 3052 C 295.553 -0.644173 1.75235 0
M  V30 3053 C 295.904 -1.78865 0.806335 0
M  V30 3054 O 295.029 -2.16395 -0.0140128 0
M  V30 3055 C 295.624 -1.17532 3.1776 0
M  V30 3056 C 294.183 -1.67531 3.37061 0
M  V30 3057 C 293.33 -0.58693 2.71017 0
M  V30 3058 H 296.281 0.135884 1.58117 0
M  V30 3059 H 296.302 -2.04455 3.20902 0
M  V30 3060 H 295.814 -0.342138 3.86589 0
M  V30 3061 H 293.915 -2.53234 2.73319 0
M  V30 3062 H 294.028 -1.76493 4.45406 0
M  V30 3063 H 292.392 -1.02756 2.33052 0
M  V30 3064 H 293.175 0.235758 3.4249 0
M  V30 3065 N 295.62 -1.53406 -0.361157 0
M  V30 3066 C 296.85 -1.73465 -1.1222 0
M  V30 3067 C 297.258 -0.465486 -1.83384 0
M  V30 3068 O 296.601 0.571611 -1.7458 0
M  V30 3069 C 296.663 -2.84834 -2.19339 0
M  V30 3070 C 296.327 -4.25038 -1.67903 0
M  V30 3071 C 297.324 -5.07231 -1.14074 0
M  V30 3072 C 295.009 -4.71464 -1.73282 0
M  V30 3073 C 297.003 -6.33942 -0.663068 0
M  V30 3074 C 294.69 -5.98153 -1.25127 0
M  V30 3075 C 295.688 -6.79223 -0.717296 0
M  V30 3076 O 295.376 -8.03533 -0.242865 0
M  V30 3077 H 295.108 -0.583526 -0.341283 0
M  V30 3078 H 297.662 -2.00964 -0.424591 0
M  V30 3079 H 295.892 -2.5282 -2.92607 0
M  V30 3080 H 297.581 -2.9303 -2.80871 0
M  V30 3081 H 298.347 -4.72534 -1.09254 0
M  V30 3082 H 294.226 -4.08432 -2.13786 0
M  V30 3083 H 297.77 -6.97167 -0.245612 0
M  V30 3084 H 293.667 -6.32347 -1.29642 0
M  V30 3085 H 294.435 -8.177 -0.361786 0
M  V30 3086 N 297.098 0.621204 -1.44841 0
M  V30 3087 C 298.048 1.72663 -1.48901 0
M  V30 3088 C 299.032 1.56964 -0.353702 0
M  V30 3089 O 300.224 1.66532 -0.599669 0
M  V30 3090 C 297.353 3.11381 -1.44557 0
M  V30 3091 C 296.439 3.32514 -2.6324 0
M  V30 3092 N 296.83 3.23969 -3.8843 0
M  V30 3093 C 295.128 3.63343 -2.58647 0
M  V30 3094 C 295.829 3.46062 -4.67564 0
M  V30 3095 N 294.805 3.69407 -3.98797 0
M  V30 3096 H 298.607 1.64529 -2.43531 0
M  V30 3097 H 296.121 0.82401 -1.39942 0
M  V30 3098 H 298.118 3.90667 -1.4555 0
M  V30 3099 H 296.778 3.20674 -0.509731 0
M  V30 3100 H 297.789 3.02669 -4.20252 0
M  V30 3101 H 294.466 3.79556 -1.73906 0
M  V30 3102 H 295.856 3.44963 -5.76585 0
M  V30 3103 N 298.576 1.31904 0.862503 0
M  V30 3104 C 299.823 1.22017 1.61611 0
M  V30 3105 C 300.151 -0.21991 1.93253 0
M  V30 3106 O 299.406 -1.17076 1.56817 0
M  V30 3107 C 299.705 2.01713 2.95037 0
M  V30 3108 C 299.371 3.51145 2.82857 0
M  V30 3109 C 298.033 3.91889 2.79243 0
M  V30 3110 C 300.385 4.46204 2.69353 0
M  V30 3111 C 297.713 5.25947 2.59993 0
M  V30 3112 C 300.065 5.80397 2.5164 0
M  V30 3113 C 298.729 6.20352 2.46413 0
M  V30 3114 H 297.999 0.44649 0.591378 0
M  V30 3115 H 300.646 1.63248 1.00111 0
M  V30 3116 H 298.951 1.53185 3.60613 0
M  V30 3117 H 300.648 1.91437 3.52353 0
M  V30 3118 H 297.238 3.1878 2.86491 0
M  V30 3119 H 301.422 4.15652 2.71196 0
M  V30 3120 H 296.678 5.5597 2.54376 0
M  V30 3121 H 300.852 6.53676 2.40169 0
M  V30 3122 H 298.479 7.24172 2.31256 0
M  V30 3123 N 300.054 -1.07777 1.14986 0
M  V30 3124 C 301.465 -1.61766 0.932127 0
M  V30 3125 C 301.816 -1.88974 -0.527581 0
M  V30 3126 O 300.941 -1.65198 -1.39781 0
M  V30 3127 C 301.536 -2.93891 1.68563 0
M  V30 3128 C 300.095 -3.44639 1.5133 0
M  V30 3129 C 299.242 -2.18767 1.704 0
M  V30 3130 H 302.193 -0.909201 1.30074 0
M  V30 3131 H 302.214 -3.62623 1.15259 0
M  V30 3132 H 301.726 -2.74057 2.74799 0
M  V30 3133 H 299.827 -3.69564 0.474702 0
M  V30 3134 H 299.94 -4.20966 2.28746 0
M  V30 3135 H 298.304 -2.28253 1.13016 0
M  V30 3136 H 299.087 -2.01433 2.77992 0
M  V30 3137 N 301.532 -0.945985 -1.26051 0
M  V30 3138 C 302.442 -0.465633 -2.29933 0
M  V30 3139 C 303.458 0.462761 -1.67733 0
M  V30 3140 O 304.634 0.341118 -1.9849 0
M  V30 3141 C 301.699 0.256994 -3.45746 0
M  V30 3142 C 300.76 -0.708549 -4.23412 0
M  V30 3143 C 299.993 -0.0203135 -5.33696 0
M  V30 3144 O 300.216 1.19571 -5.57726 0
M  V30 3145 O 299.15 -0.701459 -5.97799 0
M  V30 3146 H 302.976 -1.32866 -2.73094 0
M  V30 3147 H 300.561 -0.712071 -1.31339 0
M  V30 3148 H 302.443 0.663852 -4.16138 0
M  V30 3149 H 301.118 1.09533 -3.04605 0
M  V30 3150 H 300.025 -1.16545 -3.55483 0
M  V30 3151 H 301.358 -1.51465 -4.68315 0
M  V30 3152 N 303.011 1.40521 -0.713556 0
M  V30 3153 C 303.958 2.30723 -0.059684 0
M  V30 3154 C 304.928 1.48079 0.752448 0
M  V30 3155 O 306.113 1.76823 0.71681 0
M  V30 3156 C 303.253 3.34274 0.857594 0
M  V30 3157 C 302.366 4.31986 0.0351536 0
M  V30 3158 C 301.501 5.22605 0.951724 0
M  V30 3159 C 300.54 6.11976 0.123253 0
M  V30 3160 N 299.677 6.9502 0.99459 0
M  V30 3161 H 304.517 2.86074 -0.834596 0
M  V30 3162 H 302.054 1.40879 -0.42326 0
M  V30 3163 H 304.012 3.92879 1.40364 0
M  V30 3164 H 302.642 2.8043 1.59871 0
M  V30 3165 H 301.694 3.7518 -0.628052 0
M  V30 3166 H 303.006 4.95101 -0.606347 0
M  V30 3167 H 302.16 5.86131 1.56638 0
M  V30 3168 H 300.899 4.59759 1.62705 0
M  V30 3169 H 299.904 5.47482 -0.50435 0
M  V30 3170 H 301.129 6.76881 -0.548539 0
M  V30 3171 H 299.075 6.34764 1.6556 0
M  V30 3172 H 298.992 7.54892 0.40908 0
M  V30 3173 H 300.26 7.62997 1.59549 0
M  V30 3174 N 304.489 0.459591 1.5075 0
M  V30 3175 C 305.419 -0.330644 2.31147 0
M  V30 3176 C 306.4 -1.00087 1.37538 0
M  V30 3177 O 307.585 -1.00025 1.66459 0
M  V30 3178 C 304.715 -1.41958 3.16962 0
M  V30 3179 C 303.669 -0.871608 4.19031 0
M  V30 3180 C 302.995 -2.05797 4.9351 0
M  V30 3181 C 304.295 0.109251 5.22186 0
M  V30 3182 H 305.989 0.340336 2.97459 0
M  V30 3183 H 303.535 0.165119 1.4305 0
M  V30 3184 H 305.488 -1.9798 3.71997 0
M  V30 3185 H 304.212 -2.11917 2.48513 0
M  V30 3186 H 302.871 -0.333442 3.6508 0
M  V30 3187 H 302.519 -2.74427 4.21544 0
M  V30 3188 H 302.219 -1.6976 5.62544 0
M  V30 3189 H 303.743 -2.62331 5.51375 0
M  V30 3190 H 305.157 -0.361405 5.7216 0
M  V30 3191 H 303.554 0.383316 5.98875 0
M  V30 3192 H 304.624 1.03887 4.73641 0
M  V30 3193 N 305.967 -1.56429 0.191757 0
M  V30 3194 C 307.216 -1.9666 -0.448088 0
M  V30 3195 C 307.529 -1.08136 -1.62991 0
M  V30 3196 O 308.735 -1.38135 -2.33733 0
M  V30 3197 C 307.191 -3.49753 -0.848585 0
M  V30 3198 C 306.799 -4.46935 0.308764 0
M  V30 3199 C 308.543 -3.9876 -1.4557 0
M  V30 3200 C 306.45 -5.91293 -0.112506 0
M  V30 3201 H 305.38 -0.734312 -0.171179 0
M  V30 3202 H 308.031 -1.81301 0.283242 0
M  V30 3203 H 306.413 -3.60604 -1.63649 0
M  V30 3204 H 307.587 -4.47813 1.08627 0
M  V30 3205 H 305.902 -4.08102 0.827158 0
M  V30 3206 H 308.499 -5.04086 -1.78328 0
M  V30 3207 H 308.842 -3.42875 -2.36099 0
M  V30 3208 H 309.375 -3.9101 -0.731836 0
M  V30 3209 H 306.114 -6.51097 0.758514 0
M  V30 3210 H 305.634 -5.93676 -0.854941 0
M  V30 3211 H 307.313 -6.44663 -0.549448 0
M  V30 3212 N 307.445 0.0818655 -1.57387 0
M  V30 3213 C 308.856 0.634871 -1.75574 0
M  V30 3214 C 309.207 1.78435 -0.815809 0
M  V30 3215 O 308.332 2.164 0.0025366 0
M  V30 3216 C 308.927 1.15845 -3.18379 0
M  V30 3217 C 307.486 1.65741 -3.37945 0
M  V30 3218 C 306.633 0.572549 -2.71325 0
M  V30 3219 H 309.584 -0.144268 -1.58043 0
M  V30 3220 H 309.605 2.02751 -3.21982 0
M  V30 3221 H 309.117 0.321631 -3.86765 0
M  V30 3222 H 307.218 2.51781 -2.74658 0
M  V30 3223 H 307.331 1.74129 -4.46336 0
M  V30 3224 H 305.695 1.01518 -2.33594 0
M  V30 3225 H 306.478 -0.253918 -3.4236 0
M  V30 3226 N 308.923 1.53595 0.353017 0
M  V30 3227 C 309.853 1.83902 1.43883 0
M  V30 3228 C 310.834 0.693421 1.55324 0
M  V30 3229 O 312.019 0.944452 1.69687 0
M  V30 3230 C 309.149 2.04016 2.8106 0
M  V30 3231 C 308.103 3.19814 2.84434 0
M  V30 3232 C 307.429 3.25244 4.24406 0
M  V30 3233 C 308.729 4.58133 2.50822 0
M  V30 3234 H 310.423 2.74835 1.1877 0
M  V30 3235 H 307.969 1.32242 0.569917 0
M  V30 3236 H 309.922 2.238 3.57059 0
M  V30 3237 H 308.646 1.09804 3.07588 0
M  V30 3238 H 307.305 2.9987 2.10887 0
M  V30 3239 H 306.953 2.28646 4.48029 0
M  V30 3240 H 306.653 4.03054 4.27576 0
M  V30 3241 H 308.177 3.47228 5.0226 0
M  V30 3242 H 309.591 4.77995 3.16534 0
M  V30 3243 H 307.988 5.38276 2.6529 0
M  V30 3244 H 309.058 4.62387 1.46034 0
M  V30 3245 N 310.401 -0.613514 1.45168 0
M  V30 3246 C 311.647 -1.37471 1.49096 0
M  V30 3247 C 311.98 -1.93765 0.129901 0
M  V30 3248 O 311.255 -1.74707 -0.854858 0
M  V30 3249 C 311.538 -2.52701 2.56542 0
M  V30 3250 C 311.391 -2.01643 4.0207 0
M  V30 3251 C 312.71 -3.54849 2.60327 0
M  V30 3252 H 309.829 -0.498502 0.54283 0
M  V30 3253 H 312.471 -0.692125 1.76945 0
M  V30 3254 H 310.621 -3.10931 2.32926 0
M  V30 3255 H 312.293 -1.48108 4.36877 0
M  V30 3256 H 310.536 -1.32688 4.13009 0
M  V30 3257 H 311.207 -2.84681 4.72928 0
M  V30 3258 H 313.683 -3.0645 2.81474 0
M  V30 3259 H 312.559 -4.32973 3.37381 0
M  V30 3260 H 312.82 -4.10079 1.6519 0
M  V30 3261 N 311.879 -1.3236 -0.855495 0
M  V30 3262 C 313.128 -1.22226 -1.60448 0
M  V30 3263 C 313.441 0.214733 -1.94418 0
M  V30 3264 O 314.647 0.437917 -2.67945 0
M  V30 3265 C 313.103 -2.14063 -2.89318 0
M  V30 3266 C 312.711 -3.62839 -2.62777 0
M  V30 3267 C 314.455 -2.12764 -3.67331 0
M  V30 3268 C 312.362 -4.4664 -3.87643 0
M  V30 3269 H 311.292 -0.453904 -0.602069 0
M  V30 3270 H 313.943 -1.57314 -0.944698 0
M  V30 3271 H 312.325 -1.71889 -3.5675 0
M  V30 3272 H 313.499 -4.1335 -2.03662 0
M  V30 3273 H 311.814 -3.66261 -1.98096 0
M  V30 3274 H 314.411 -2.72611 -4.59987 0
M  V30 3275 H 314.754 -1.11841 -4.00995 0
M  V30 3276 H 315.287 -2.53214 -3.06802 0
M  V30 3277 H 312.026 -5.48373 -3.5912 0
M  V30 3278 H 311.546 -4.0088 -4.46156 0
M  V30 3279 H 313.225 -4.59597 -4.55389 0
M  V30 3280 N 313.357 1.07166 -1.15556 0
M  V30 3281 C 314.287 2.16403 -0.877046 0
M  V30 3282 C 315.268 1.69217 0.173111 0
M  V30 3283 O 316.453 1.94181 0.027084 0
M  V30 3284 C 313.583 3.45349 -0.367632 0
M  V30 3285 C 312.537 4.05995 -1.35468 0
M  V30 3286 C 311.863 5.30045 -0.704038 0
M  V30 3287 C 313.163 4.45804 -2.72132 0
M  V30 3288 H 314.857 2.39959 -1.79053 0
M  V30 3289 H 312.403 1.15325 -0.862331 0
M  V30 3290 H 314.356 4.21095 -0.160317 0
M  V30 3291 H 313.08 3.21385 0.581326 0
M  V30 3292 H 311.739 3.32296 -1.54839 0
M  V30 3293 H 311.387 5.02373 0.251128 0
M  V30 3294 H 311.087 5.71579 -1.36277 0
M  V30 3295 H 312.611 6.08495 -0.50654 0
M  V30 3296 H 314.025 5.12671 -2.56595 0
M  V30 3297 H 312.422 4.98296 -3.34397 0
M  V30 3298 H 313.492 3.57083 -3.28054 0
M  V30 3299 N 314.835 0.952656 1.25548 0
M  V30 3300 C 315.783 0.462354 2.27958 0
M  V30 3301 C 316.777 -0.46634 1.62855 0
M  V30 3302 O 317.983 -0.343287 1.76696 0
M  V30 3303 H 314.358 0.13101 0.7405 0
M  V30 3304 H 316.329 1.33839 2.66702 0
M  V30 3305 C 315.078 -0.24628 3.46827 0
M  V30 3306 H 314.401 0.459192 3.97154 0
M  V30 3307 H 315.841 -0.553393 4.20373 0
M  V30 3308 C 314.3 -1.4681 3.0323 0
M  V30 3309 O 314.83 -2.56591 3.09069 0
M  V30 3310 N 313.036 -1.32874 2.58443 0
M  V30 3311 H 312.583 -0.435536 2.53891 0
M  V30 3312 H 312.541 -2.14742 2.29637 0
M  V30 3313 N 316.313 -1.40141 0.720998 0
M  V30 3314 C 317.276 -2.29058 0.0805834 0
M  V30 3315 C 318.276 -1.45632 -0.681758 0
M  V30 3316 O 319.466 -1.6648 -0.512856 0
M  V30 3317 C 316.598 -3.28925 -0.895593 0
M  V30 3318 H 317.791 -2.87191 0.863793 0
M  V30 3319 H 315.344 -1.48553 0.485975 0
M  V30 3320 H 316.079 -2.75822 -1.70566 0
M  V30 3321 H 315.864 -3.90519 -0.351766 0
M  V30 3322 H 317.354 -3.95494 -1.34069 0
M  V30 3323 N 317.792 -0.46758 -1.50504 0
M  V30 3324 C 318.722 0.318381 -2.31319 0
M  V30 3325 C 319.703 0.993564 -1.38066 0
M  V30 3326 O 320.888 0.991411 -1.66987 0
M  V30 3327 C 318.018 1.40275 -3.17711 0
M  V30 3328 C 316.972 0.849373 -4.19487 0
M  V30 3329 C 316.298 2.03177 -4.94594 0
M  V30 3330 C 317.598 -0.136942 -5.2212 0
M  V30 3331 H 319.292 -0.356106 -2.97275 0
M  V30 3332 H 316.838 -0.172703 -1.42961 0
M  V30 3333 H 318.791 1.96004 -3.73042 0
M  V30 3334 H 317.515 2.10596 -2.49634 0
M  V30 3335 H 316.174 0.314076 -3.65252 0
M  V30 3336 H 315.822 2.72187 -4.22993 0
M  V30 3337 H 315.522 1.66774 -5.63436 0
M  V30 3338 H 317.046 2.59403 -5.52759 0
M  V30 3339 H 318.46 0.331056 -5.72343 0
M  V30 3340 H 316.857 -0.41507 -5.98663 0
M  V30 3341 H 317.927 -1.06398 -4.73083 0
M  V30 3342 N 319.27 1.56325 -0.20005 0
M  V30 3343 C 320.18 2.22931 0.730668 0
M  V30 3344 C 321.196 1.22997 1.23076 0
M  V30 3345 O 322.372 1.55748 1.27689 0
M  V30 3346 C 319.437 2.87948 1.93098 0
M  V30 3347 C 318.498 4.03166 1.47497 0
M  V30 3348 C 317.731 4.65073 2.61807 0
M  V30 3349 O 317.954 4.25913 3.79413 0
M  V30 3350 O 316.888 5.54452 2.34237 0
M  V30 3351 H 320.714 3.03084 0.193391 0
M  V30 3352 H 318.299 1.49371 0.0294621 0
M  V30 3353 H 320.181 3.29063 2.6324 0
M  V30 3354 H 318.856 2.10771 2.45677 0
M  V30 3355 H 317.763 3.66664 0.742201 0
M  V30 3356 H 319.096 4.82022 0.995796 0
M  V30 3357 N 320.748 -0.0735177 1.57428 0
M  V30 3358 C 321.996 -0.771472 1.86796 0
M  V30 3359 C 322.317 -1.78201 0.791804 0
M  V30 3360 O 321.587 -1.95074 -0.179718 0
M  V30 3361 H 320.167 -0.28791 0.689287 0
M  V30 3362 H 322.829 -0.0500161 1.94836 0
M  V30 3363 H 321.925 -1.28874 2.8425 0
M  V30 3364 N 322.226 -1.5378 -0.344866 0
M  V30 3365 C 323.173 -1.81676 -1.42346 0
M  V30 3366 C 324.143 -0.662376 -1.52321 0
M  V30 3367 O 325.328 -0.906675 -1.67881 0
M  V30 3368 C 322.468 -2.03087 -2.79015 0
M  V30 3369 C 321.581 -3.30799 -2.77842 0
M  V30 3370 C 320.716 -3.42285 -4.0622 0
M  V30 3371 C 319.755 -4.6395 -3.9927 0
M  V30 3372 N 318.892 -4.72477 -5.19336 0
M  V30 3373 H 323.732 -2.73703 -1.17858 0
M  V30 3374 H 321.269 -1.35568 -0.570949 0
M  V30 3375 H 323.227 -2.1349 -3.58438 0
M  V30 3376 H 321.857 -1.14375 -3.01858 0
M  V30 3377 H 320.909 -3.29244 -1.90533 0
M  V30 3378 H 322.221 -4.20314 -2.68584 0
M  V30 3379 H 321.375 -3.52113 -4.94066 0
M  V30 3380 H 320.114 -2.50823 -4.18258 0
M  V30 3381 H 319.119 -4.54201 -3.09809 0
M  V30 3382 H 320.344 -5.56775 -3.88817 0
M  V30 3383 H 318.29 -3.83924 -5.3192 0
M  V30 3384 H 318.207 -5.55927 -5.12329 0
M  V30 3385 H 319.475 -4.86613 -6.08957 0
M  V30 3386 N 323.704 0.605807 -1.45491 0
M  V30 3387 C 325.115 1.18777 -1.44045 0
M  V30 3388 C 325.466 1.95471 -0.169001 0
M  V30 3389 O 324.591 2.0374 0.729324 0
M  V30 3390 C 325.186 2.16064 -2.60963 0
M  V30 3391 C 323.745 2.69633 -2.62631 0
M  V30 3392 C 322.892 1.45072 -2.36325 0
M  V30 3393 H 325.843 0.395017 -1.53705 0
M  V30 3394 H 325.864 2.9913 -2.35163 0
M  V30 3395 H 325.376 1.60217 -3.53486 0
M  V30 3396 H 323.477 3.29414 -1.74119 0
M  V30 3397 H 323.59 3.13944 -3.61906 0
M  V30 3398 H 321.954 1.74089 -1.85917 0
M  V30 3399 H 322.737 0.910899 -3.30995 0
M  V30 3400 N 325.182 1.32811 0.848464 0
M  V30 3401 C 326.112 1.24882 1.97299 0
M  V30 3402 C 327.093 0.131357 1.69592 0
M  V30 3403 O 328.278 0.319553 1.91553 0
M  V30 3404 C 325.408 0.97746 3.33261 0
M  V30 3405 C 324.362 2.05682 3.75338 0
M  V30 3406 C 323.688 1.63777 5.09 0
M  V30 3407 C 324.988 3.47254 3.90144 0
M  V30 3408 H 326.682 2.18966 2.04191 0
M  V30 3409 H 324.228 1.05413 0.981029 0
M  V30 3410 H 326.181 0.908513 4.1149 0
M  V30 3411 H 324.905 0.000980011 3.266 0
M  V30 3412 H 323.564 2.11603 2.99366 0
M  V30 3413 H 323.212 0.648569 4.98801 0
M  V30 3414 H 322.912 2.36 5.38124 0
M  V30 3415 H 324.436 1.5833 5.89715 0
M  V30 3416 H 325.85 3.43888 4.58709 0
M  V30 3417 H 324.247 4.1788 4.30693 0
M  V30 3418 H 325.317 3.86462 2.92874 0
M  V30 3419 N 326.66 -1.06551 1.16123 0
M  V30 3420 C 328.071 -1.60768 0.949232 0
M  V30 3421 C 328.422 -1.89523 -0.507508 0
M  V30 3422 O 327.547 -1.66671 -1.38021 0
M  V30 3423 C 328.142 -2.92086 1.71671 0
M  V30 3424 C 326.701 -3.43015 1.54977 0
M  V30 3425 C 325.848 -2.16947 1.72711 0
M  V30 3426 H 328.799 -0.895354 1.31031 0
M  V30 3427 H 328.82 -3.6138 1.19099 0
M  V30 3428 H 328.332 -2.71127 2.7769 0
M  V30 3429 H 326.433 -3.69039 0.513873 0
M  V30 3430 H 326.546 -4.18516 2.33198 0
M  V30 3431 H 324.91 -2.27041 1.15431 0
M  V30 3432 H 325.693 -1.98473 2.80113 0
M  V30 3433 N 328.138 -0.959301 -1.25041 0
M  V30 3434 C 329.387 -0.612254 -1.92183 0
M  V30 3435 C 329.7 0.855347 -1.75907 0
M  V30 3436 O 330.906 1.31256 -2.37664 0
M  V30 3437 C 329.362 -1.04435 -3.44414 0
M  V30 3438 C 328.97 -2.53482 -3.69393 0
M  V30 3439 C 330.714 -0.770055 -4.17457 0
M  V30 3440 C 328.621 -2.90468 -5.15153 0
M  V30 3441 H 327.551 -0.225279 -0.719559 0
M  V30 3442 H 330.202 -1.16438 -1.41825 0
M  V30 3443 H 328.584 -0.4206 -3.9376 0
M  V30 3444 H 329.758 -3.20916 -3.30681 0
M  V30 3445 H 328.073 -2.78432 -3.0962 0
M  V30 3446 H 330.67 -1.02249 -5.24832 0
M  V30 3447 H 331.013 0.293611 -4.15263 0
M  V30 3448 H 331.546 -1.35437 -3.74034 0
M  V30 3449 H 328.285 -3.95871 -5.22462 0
M  V30 3450 H 327.805 -2.27711 -5.54894 0
M  V30 3451 H 329.484 -2.79914 -5.83315 0
M  V30 3452 N 329.616 1.39756 -0.72842 0
M  V30 3453 C 330.846 2.04651 -0.283117 0
M  V30 3454 C 331.254 1.5502 1.08469 0
M  V30 3455 O 330.597 0.707343 1.69536 0
M  V30 3456 C 330.659 3.58947 -0.199309 0
M  V30 3457 C 330.323 4.31525 -1.5045 0
M  V30 3458 C 331.32 4.5861 -2.44894 0
M  V30 3459 C 329.005 4.70195 -1.76698 0
M  V30 3460 C 330.999 5.23366 -3.63822 0
M  V30 3461 C 328.686 5.3468 -2.95906 0
M  V30 3462 C 329.684 5.61198 -3.89289 0
M  V30 3463 O 329.372 6.24347 -5.06404 0
M  V30 3464 H 329.104 0.664777 -0.122666 0
M  V30 3465 H 331.658 1.79913 -0.990987 0
M  V30 3466 H 329.888 3.82556 0.56461 0
M  V30 3467 H 331.577 4.0534 0.213125 0
M  V30 3468 H 332.343 4.29187 -2.25883 0
M  V30 3469 H 328.222 4.48916 -1.04859 0
M  V30 3470 H 331.766 5.4398 -4.36728 0
M  V30 3471 H 327.663 5.63524 -3.14819 0
M  V30 3472 H 328.431 6.42842 -5.06652 0
M  V30 3473 N 331.094 0.475555 1.50254 0
M  V30 3474 C 332.342 -0.077738 2.0195 0
M  V30 3475 C 332.663 -1.39813 1.35931 0
M  V30 3476 O 331.933 -1.89249 0.506123 0
M  V30 3477 H 330.513 -0.031719 0.746326 0
M  V30 3478 H 333.175 0.626995 1.84539 0
M  V30 3479 H 332.271 -0.225995 3.11281 0
M  V30 3480 N 332.573 -1.56217 0.208337 0
M  V30 3481 C 333.52 -2.19699 -0.707192 0
M  V30 3482 C 334.49 -1.14836 -1.20008 0
M  V30 3483 O 335.675 -1.4314 -1.26157 0
M  V30 3484 C 332.815 -2.87061 -1.91546 0
M  V30 3485 C 331.928 -4.06483 -1.46271 0
M  V30 3486 C 331.063 -4.61665 -2.62752 0
M  V30 3487 C 330.102 -5.73417 -2.14147 0
M  V30 3488 N 329.239 -6.22948 -3.23853 0
M  V30 3489 H 334.079 -2.97575 -0.159111 0
M  V30 3490 H 331.616 -1.46948 -0.0667874 0
M  V30 3491 H 333.574 -3.24294 -2.62468 0
M  V30 3492 H 332.204 -2.11725 -2.43664 0
M  V30 3493 H 331.256 -3.74825 -0.648886 0
M  V30 3494 H 332.568 -4.87271 -1.06622 0
M  V30 3495 H 331.722 -5.01272 -3.41776 0
M  V30 3496 H 330.461 -3.80013 -3.05682 0
M  V30 3497 H 329.466 -5.33326 -1.33581 0
M  V30 3498 H 330.691 -6.56897 -1.72232 0
M  V30 3499 H 328.637 -5.44213 -3.6629 0
M  V30 3500 H 328.554 -6.98823 -2.88414 0
M  V30 3501 H 329.822 -6.6721 -4.03052 0
M  V30 3502 N 334.051 0.0651679 -1.57465 0
M  V30 3503 C 335.299 0.761555 -1.87202 0
M  V30 3504 C 335.62 1.77778 -0.801243 0
M  V30 3505 O 334.89 1.95166 0.16937 0
M  V30 3506 H 333.47 0.284251 -0.690804 0
M  V30 3507 H 336.132 0.0396827 -1.9486 0
M  V30 3508 H 335.228 1.27365 -2.84929 0
M  V30 3509 N 335.529 1.53961 0.336706 0
M  V30 3510 C 336.806 1.62171 1.09361 0
M  V30 3511 C 337.186 0.447263 2.06307 0
M  V30 3512 O 336.534 -0.559802 2.21537 0
M  V30 3513 C 336.744 2.98565 1.80721 0
M  V30 3514 C 338.092 3.54157 2.34218 0
M  V30 3515 O 339.116 3.00784 1.90807 0
M  V30 3516 O 337.975 4.47528 3.13657 0
M  V30 3517 H 335.069 0.6562 0.503319 0
M  V30 3518 H 337.615 1.66307 0.33765 0
M  V30 3519 H 336.387 3.75482 1.10132 0
M  V30 3520 H 336.01 2.9805 2.63158 0
M  V30 3521 N 337.007 -0.598083 1.45811 0
M  V30 3522 C 337.939 -1.72231 1.51225 0
M  V30 3523 C 338.952 -1.57757 0.402059 0
M  V30 3524 O 340.141 -1.65464 0.669624 0
M  V30 3525 C 337.241 -3.10331 1.3619 0
M  V30 3526 C 336.414 -3.50955 2.61054 0
M  V30 3527 C 335.473 -4.68055 2.40439 0
M  V30 3528 O 334.499 -4.74691 3.14097 0
M  V30 3529 N 335.701 -5.61941 1.45612 0
M  V30 3530 H 338.466 -1.68046 2.48154 0
M  V30 3531 H 336.027 -0.783637 1.41671 0
M  V30 3532 H 338.019 -3.86439 1.20195 0
M  V30 3533 H 336.589 -3.0897 0.475015 0
M  V30 3534 H 335.809 -2.64711 2.92099 0
M  V30 3535 H 337.097 -3.74858 3.44034 0
M  V30 3536 H 336.495 -5.59301 0.848431 0
M  V30 3537 H 335.052 -6.37542 1.35585 0
M  V30 3538 N 338.485 -1.33259 -0.841409 0
M  V30 3539 C 339.734 -1.23921 -1.59143 0
M  V30 3540 C 340.047 0.1941 -1.94635 0
M  V30 3541 O 341.253 0.409474 -2.68394 0
M  V30 3542 C 339.709 -2.17119 -2.87032 0
M  V30 3543 C 339.317 -3.65606 -2.58914 0
M  V30 3544 C 341.061 -2.16648 -3.65053 0
M  V30 3545 C 338.968 -4.50726 -3.82884 0
M  V30 3546 H 337.898 -0.460264 -0.597221 0
M  V30 3547 H 340.549 -1.58307 -0.927959 0
M  V30 3548 H 338.931 -1.75663 -3.54906 0
M  V30 3549 H 340.105 -4.15487 -1.99267 0
M  V30 3550 H 338.42 -3.68341 -1.942 0
M  V30 3551 H 341.017 -2.77474 -4.57069 0
M  V30 3552 H 341.36 -1.16088 -3.99787 0
M  V30 3553 H 341.893 -2.56453 -3.041 0
M  V30 3554 H 338.632 -5.52151 -3.53283 0
M  V30 3555 H 338.152 -4.0559 -4.41879 0
M  V30 3556 H 339.831 -4.64401 -4.50489 0
M  V30 3557 N 339.963 1.05934 -1.16686 0
M  V30 3558 C 341.379 1.30938 -0.912542 0
M  V30 3559 C 341.579 1.96803 0.432533 0
M  V30 3560 O 340.635 2.23693 1.17123 0
M  V30 3561 C 341.948 2.18649 -2.06429 0
M  V30 3562 C 343.496 2.32055 -2.10047 0
M  V30 3563 C 343.971 3.23122 -3.24586 0
M  V30 3564 N 345.462 3.30706 -3.24327 0
M  V30 3565 C 346.197 4.01273 -4.09594 0
M  V30 3566 N 345.693 4.74332 -5.04956 0
M  V30 3567 N 347.486 3.97361 -3.97569 0
M  V30 3568 H 339.637 0.615777 -2.03278 0
M  V30 3569 H 341.9 0.334077 -0.887185 0
M  V30 3570 H 341.606 1.77534 -3.03603 0
M  V30 3571 H 341.48 3.19252 -2.00894 0
M  V30 3572 H 343.867 2.72415 -1.13464 0
M  V30 3573 H 343.948 1.31107 -2.19647 0
M  V30 3574 H 343.592 2.83477 -4.2143 0
M  V30 3575 H 343.522 4.24057 -3.12223 0
M  V30 3576 H 346.013 2.78644 -2.55276 0
M  V30 3577 H 346.326 5.25716 -5.6643 0
M  V30 3578 H 344.671 4.733 -5.08933 0
M  V30 3579 H 347.862 3.39405 -3.22369 0
M  V30 3580 H 348.035 4.52089 -4.64241 0
M  V30 3581 N 341.441 0.965919 1.2453 0
M  V30 3582 C 342.718 0.543777 1.87889 0
M  V30 3583 C 343.098 -0.97909 1.87021 0
M  V30 3584 O 342.446 -1.84969 1.3416 0
M  V30 3585 C 342.656 1.13327 3.30088 0
M  V30 3586 C 344.004 1.21707 4.06783 0
M  V30 3587 O 345.028 1.08566 3.39252 0
M  V30 3588 O 343.887 1.42456 5.27606 0
M  V30 3589 H 340.981 0.181054 0.806938 0
M  V30 3590 H 343.527 1.06007 1.32516 0
M  V30 3591 H 342.299 2.17612 3.25209 0
M  V30 3592 H 341.922 0.600911 3.93033 0
M  V30 3593 N 342.919 -1.39368 0.735821 0
M  V30 3594 C 344.165 -2.01272 0.293439 0
M  V30 3595 C 344.52 -1.57344 -1.10728 0
M  V30 3596 O 343.813 -0.792744 -1.74431 0
M  V30 3597 C 344.007 -3.5583 0.334651 0
M  V30 3598 C 343.836 -4.14764 1.73784 0
M  V30 3599 C 342.606 -4.47315 2.35026 0
M  V30 3600 C 344.804 -4.38246 2.69157 0
M  V30 3601 N 342.786 -4.91756 3.6749 0
M  V30 3602 C 344.157 -4.849 3.86357 0
M  V30 3603 C 346.212 -4.20315 2.66908 0
M  V30 3604 C 344.915 -5.15505 5.01645 0
M  V30 3605 C 346.941 -4.52033 3.8134 0
M  V30 3606 C 346.303 -4.98895 4.97276 0
M  V30 3607 H 342.402 -0.766756 0.153652 0
M  V30 3608 H 344.986 -1.69276 0.961967 0
M  V30 3609 H 343.157 -3.87212 -0.303527 0
M  V30 3610 H 344.889 -4.04503 -0.126358 0
M  V30 3611 H 341.644 -4.35143 1.86943 0
M  V30 3612 H 342.068 -5.18333 4.35499 0
M  V30 3613 H 346.71 -3.83287 1.78468 0
M  V30 3614 H 344.428 -5.51437 5.90713 0
M  V30 3615 H 348.014 -4.39781 3.80899 0
M  V30 3616 H 346.894 -5.22973 5.84353 0
M  V30 3617 N 344.397 -0.483516 -1.5 0
M  V30 3618 C 345.327 0.293829 -2.31644 0
M  V30 3619 C 346.308 0.978864 -1.39112 0
M  V30 3620 O 347.493 0.973644 -1.68029 0
M  V30 3621 C 344.623 1.36897 -3.19181 0
M  V30 3622 C 343.577 0.804833 -4.20365 0
M  V30 3623 C 342.903 1.9792 -4.96721 0
M  V30 3624 C 344.203 -0.192313 -5.21946 0
M  V30 3625 H 345.897 -0.387616 -2.9688 0
M  V30 3626 H 343.443 -0.187856 -1.42769 0
M  V30 3627 H 345.396 1.92037 -3.751 0
M  V30 3628 H 344.12 2.07936 -2.51853 0
M  V30 3629 H 342.779 0.275319 -3.65565 0
M  V30 3630 H 342.427 2.67686 -4.25856 0
M  V30 3631 H 342.127 1.60789 -5.65173 0
M  V30 3632 H 343.651 2.53526 -5.55479 0
M  V30 3633 H 345.065 0.270333 -5.72662 0
M  V30 3634 H 343.462 -0.478543 -5.98189 0
M  V30 3635 H 344.532 -1.11409 -4.71928 0
M  V30 3636 N 345.875 1.56104 -0.216619 0
M  V30 3637 C 347.105 2.02269 0.420802 0
M  V30 3638 C 347.513 1.09575 1.5424 0
M  V30 3639 O 346.856 0.0967308 1.83445 0
M  V30 3640 C 346.918 3.44784 1.01806 0
M  V30 3641 C 346.582 4.56988 0.0325154 0
M  V30 3642 C 347.579 5.14225 -0.766055 0
M  V30 3643 C 345.264 5.02228 -0.0848092 0
M  V30 3644 C 347.258 6.15169 -1.6687 0
M  V30 3645 C 344.945 6.03011 -0.990994 0
M  V30 3646 C 345.943 6.59357 -1.78149 0
M  V30 3647 O 345.631 7.58179 -2.67245 0
M  V30 3648 H 345.363 0.667353 0.107776 0
M  V30 3649 H 347.917 2.02747 -0.329034 0
M  V30 3650 H 346.147 3.41359 1.81689 0
M  V30 3651 H 347.836 3.74626 1.56237 0
M  V30 3652 H 348.602 4.80126 -0.685836 0
M  V30 3653 H 344.481 4.58054 0.520349 0
M  V30 3654 H 348.025 6.59076 -2.28615 0
M  V30 3655 H 343.922 6.36532 -1.07225 0
M  V30 3656 H 344.69 7.75682 -2.61265 0
M  V30 3657 N 347.353 -0.0568162 1.57498 0
M  V30 3658 C 348.599 -0.75422 1.88253 0
M  V30 3659 C 348.932 -1.76461 0.810865 0
M  V30 3660 O 348.207 -1.93691 -0.177259 0
M  V30 3661 C 348.49 -1.44878 3.2967 0
M  V30 3662 C 348.343 -0.453789 4.47505 0
M  V30 3663 C 349.662 -2.38994 3.69554 0
M  V30 3664 H 346.781 -0.272724 0.684683 0
M  V30 3665 H 349.423 -0.0172113 1.89992 0
M  V30 3666 H 347.573 -2.077 3.28318 0
M  V30 3667 H 349.245 0.170371 4.60985 0
M  V30 3668 H 347.488 0.229552 4.33192 0
M  V30 3669 H 348.159 -0.977699 5.43273 0
M  V30 3670 H 350.635 -1.86239 3.72095 0
M  V30 3671 H 349.511 -2.84587 4.69363 0
M  V30 3672 H 349.772 -3.24461 3.00296 0
M  V30 3673 N 348.832 -1.54138 -0.328536 0
M  V30 3674 C 349.742 -1.86192 -1.42723 0
M  V30 3675 C 350.758 -0.753382 -1.56844 0
M  V30 3676 O 351.934 -1.04718 -1.72035 0
M  V30 3677 C 348.999 -2.07824 -2.77507 0
M  V30 3678 C 348.06 -3.31641 -2.72603 0
M  V30 3679 C 347.293 -3.52232 -4.00959 0
M  V30 3680 O 347.516 -2.7636 -4.9898 0
M  V30 3681 O 346.45 -4.45699 -4.0452 0
M  V30 3682 H 350.276 -2.79608 -1.18547 0
M  V30 3683 H 347.861 -1.3998 -0.522104 0
M  V30 3684 H 349.743 -2.23411 -3.57303 0
M  V30 3685 H 348.418 -1.17596 -3.01584 0
M  V30 3686 H 347.325 -3.21444 -1.91376 0
M  V30 3687 H 348.658 -4.2191 -2.53481 0
M  V30 3688 N 350.31 0.590341 -1.46126 0
M  V30 3689 C 351.587 1.35029 -1.41515 0
M  V30 3690 C 351.967 2.10888 -0.0946472 0
M  V30 3691 O 351.315 2.08998 0.923693 0
M  V30 3692 C 351.525 2.28269 -2.63997 0
M  V30 3693 C 352.873 2.90338 -3.09821 0
M  V30 3694 O 353.897 2.38585 -2.64492 0
M  V30 3695 O 352.756 3.84321 -3.88535 0
M  V30 3696 H 349.85 0.606317 -0.562413 0
M  V30 3697 H 352.396 0.611994 -1.58281 0
M  V30 3698 H 351.168 1.71591 -3.51671 0
M  V30 3699 H 350.791 3.0945 -2.49652 0
M  V30 3700 N 351.788 1.33704 0.83433 0
M  V30 3701 C 352.738 1.20899 1.93306 0
M  V30 3702 C 353.722 0.110783 1.60518 0
M  V30 3703 O 354.914 0.339331 1.73717 0
M  V30 3704 C 352.043 0.955018 3.29749 0
M  V30 3705 C 351.129 2.09587 3.68692 0
M  V30 3706 N 351.52 3.34621 3.79292 0
M  V30 3707 C 349.818 2.00358 3.98463 0
M  V30 3708 C 350.519 4.09472 4.13167 0
M  V30 3709 N 349.495 3.37954 4.25779 0
M  V30 3710 H 353.297 2.15665 1.99664 0
M  V30 3711 H 350.811 1.25777 1.02732 0
M  V30 3712 H 352.808 0.844208 4.08263 0
M  V30 3713 H 351.468 0.0159317 3.24696 0
M  V30 3714 H 352.479 3.69313 3.63082 0
M  V30 3715 H 349.156 1.14137 4.01596 0
M  V30 3716 H 350.546 5.17391 4.28668 0
M  V30 3717 N 353.266 -1.05314 1.17247 0
M  V30 3718 C 354.229 -2.112 0.890357 0
M  V30 3719 C 355.229 -1.60359 -0.118943 0
M  V30 3720 O 356.419 -1.73833 0.113086 0
M  V30 3721 C 353.551 -3.39266 0.333422 0
M  V30 3722 H 354.744 -2.37659 1.82916 0
M  V30 3723 H 352.297 -1.21538 0.982758 0
M  V30 3724 H 353.032 -3.18462 -0.612587 0
M  V30 3725 H 352.817 -3.77477 1.06082 0
M  V30 3726 H 354.307 -4.17315 0.154322 0
M  V30 3727 N 354.744 -0.972509 -1.24016 0
M  V30 3728 C 356.16 -0.679827 -1.44397 0
M  V30 3729 C 356.36 0.756716 -1.86751 0
M  V30 3730 O 355.416 1.53007 -2.00861 0
M  V30 3731 C 356.729 -1.66803 -2.50195 0
M  V30 3732 C 358.277 -1.68119 -2.64017 0
M  V30 3733 C 358.752 -2.65748 -3.73017 0
M  V30 3734 N 360.243 -2.64219 -3.8045 0
M  V30 3735 C 360.978 -3.36433 -4.64328 0
M  V30 3736 N 360.474 -4.1818 -5.52356 0
M  V30 3737 N 362.267 -3.25235 -4.58453 0
M  V30 3738 H 354.418 -1.90059 -0.948228 0
M  V30 3739 H 356.681 -0.818527 -0.478245 0
M  V30 3740 H 356.387 -2.69498 -2.25973 0
M  V30 3741 H 356.261 -1.4446 -3.48441 0
M  V30 3742 H 358.648 -0.661319 -2.87594 0
M  V30 3743 H 358.729 -1.94525 -1.66113 0
M  V30 3744 H 358.373 -3.67872 -3.50189 0
M  V30 3745 H 358.303 -2.36619 -4.70446 0
M  V30 3746 H 360.794 -2.04887 -3.17537 0
M  V30 3747 H 361.107 -4.70157 -6.13329 0
M  V30 3748 H 359.452 -4.22273 -5.52006 0
M  V30 3749 H 362.643 -2.60829 -3.88698 0
M  V30 3750 H 362.816 -3.81776 -5.23594 0
M  V30 3751 N 356.222 1.38976 -0.743202 0
M  V30 3752 C 357.185 2.28901 -0.117014 0
M  V30 3753 C 358.185 1.46698 0.658503 0
M  V30 3754 O 359.375 1.67274 0.486305 0
M  V30 3755 C 356.507 3.30309 0.84315 0
M  V30 3756 H 357.7 2.8578 -0.909373 0
M  V30 3757 H 355.253 1.47761 -0.509547 0
M  V30 3758 H 355.988 2.785 1.66157 0
M  V30 3759 H 355.773 3.91029 0.289594 0
M  V30 3760 H 357.263 3.97577 1.2776 0
M  V30 3761 N 357.7 0.491464 1.49741 0
M  V30 3762 C 358.63 -0.28154 2.31796 0
M  V30 3763 C 359.611 -0.971473 1.3963 0
M  V30 3764 O 360.796 -0.964719 1.68543 0
M  V30 3765 C 357.926 -1.35203 3.19902 0
M  V30 3766 C 356.88 -0.782529 4.20786 0
M  V30 3767 C 356.206 -1.95283 4.97764 0
M  V30 3768 C 357.506 0.21999 5.21837 0
M  V30 3769 H 359.2 0.403355 2.96671 0
M  V30 3770 H 356.746 0.195425 1.42668 0
M  V30 3771 H 358.699 -1.90045 3.76113 0
M  V30 3772 H 357.423 -2.06598 2.52953 0
M  V30 3773 H 356.082 -0.255928 3.65706 0
M  V30 3774 H 355.73 -2.65423 4.2727 0
M  V30 3775 H 355.43 -1.57789 5.66018 0
M  V30 3776 H 356.954 -2.50577 5.56816 0
M  V30 3777 H 358.368 -0.23996 5.72798 0
M  V30 3778 H 356.765 0.51026 5.97927 0
M  V30 3779 H 357.835 1.13911 4.7133 0
M  V30 3780 N 359.178 -1.55987 0.224894 0
M  V30 3781 C 360.128 -2.17076 -0.697296 0
M  V30 3782 C 361.112 -1.12006 -1.15514 0
M  V30 3783 O 362.304 -1.37985 -1.10857 0
M  V30 3784 C 359.433 -2.85679 -1.90374 0
M  V30 3785 C 358.519 -3.97977 -1.46543 0
M  V30 3786 N 358.91 -5.00359 -0.739909 0
M  V30 3787 C 357.208 -4.10128 -1.75245 0
M  V30 3788 C 357.909 -5.79407 -0.515939 0
M  V30 3789 N 356.885 -5.32892 -1.07364 0
M  V30 3790 H 360.687 -2.93592 -0.134594 0
M  V30 3791 H 358.201 -1.62379 0.0262885 0
M  V30 3792 H 360.198 -3.27857 -2.57518 0
M  V30 3793 H 358.858 -2.1066 -2.47088 0
M  V30 3794 H 359.869 -5.16412 -0.392253 0
M  V30 3795 H 356.546 -3.46263 -2.33255 0
M  V30 3796 H 357.936 -6.71872 0.0617349 0
M  V30 3797 N 360.656 0.0484629 -1.57525 0
M  V30 3798 C 361.589 1.08755 -2.00618 0
M  V30 3799 C 362.567 1.36272 -0.887058 0
M  V30 3800 O 363.751 1.49255 -1.15131 0
M  V30 3801 C 360.878 2.42675 -2.36277 0
M  V30 3802 C 359.924 2.31142 -3.58435 0
M  V30 3803 S 360.757 1.68326 -5.08357 0
M  V30 3804 C 361.913 3.03776 -5.47239 0
M  V30 3805 H 362.146 0.720415 -2.88439 0
M  V30 3806 H 359.679 0.257801 -1.52233 0
M  V30 3807 H 361.637 3.19699 -2.57494 0
M  V30 3808 H 360.298 2.76541 -1.48942 0
M  V30 3809 H 359.491 3.29957 -3.80978 0
M  V30 3810 H 359.093 1.62258 -3.36969 0
M  V30 3811 H 361.385 4.00106 -5.46737 0
M  V30 3812 H 362.328 2.85988 -6.47778 0
M  V30 3813 H 362.736 3.05456 -4.74718 0
M  V30 3814 N 362.134 1.5431 0.320358 0
M  V30 3815 C 363.38 1.72924 1.05949 0
M  V30 3816 C 363.713 0.503185 1.87568 0
M  V30 3817 O 362.988 -0.499839 1.87968 0
M  V30 3818 C 363.271 3.00676 1.98156 0
M  V30 3819 C 363.124 4.3354 1.19845 0
M  V30 3820 C 364.443 3.24198 2.9763 0
M  V30 3821 H 361.562 0.629195 0.383774 0
M  V30 3822 H 364.204 1.87008 0.335854 0
M  V30 3823 H 362.354 2.888 2.59859 0
M  V30 3824 H 364.026 4.57305 0.605773 0
M  V30 3825 H 362.269 4.309 0.500784 0
M  V30 3826 H 362.94 5.19156 1.87567 0
M  V30 3827 H 365.416 3.35557 2.4605 0
M  V30 3828 H 364.292 4.14938 3.59329 0
M  V30 3829 H 364.553 2.41577 3.7026 0
M  V30 3830 N 363.613 -0.582584 1.46437 0
M  V30 3831 C 364.859 -1.34278 1.51978 0
M  V30 3832 C 365.192 -1.93446 0.170973 0
M  V30 3833 O 364.467 -1.76481 -0.817608 0
M  V30 3834 C 364.75 -2.47203 2.61845 0
M  V30 3835 C 364.603 -1.93069 4.06257 0
M  V30 3836 C 365.922 -3.49247 2.67795 0
M  V30 3837 H 363.041 -0.486876 0.553282 0
M  V30 3838 H 365.683 -0.654437 1.78374 0
M  V30 3839 H 363.833 -3.0592 2.39469 0
M  V30 3840 H 365.505 -1.38808 4.3992 0
M  V30 3841 H 363.748 -1.23898 4.1573 0
M  V30 3842 H 364.419 -2.74586 4.7886 0
M  V30 3843 H 366.895 -3.00411 2.8791 0
M  V30 3844 H 365.771 -4.25719 3.46489 0
M  V30 3845 H 366.032 -4.06482 1.73852 0
M  V30 3846 N 365.091 -1.34144 -0.827227 0
M  V30 3847 C 366.319 -1.29325 -1.61501 0
M  V30 3848 C 366.734 0.13354 -1.88327 0
M  V30 3849 O 366.091 1.0793 -1.47164 0
M  V30 3850 C 366.142 -2.07746 -2.95844 0
M  V30 3851 O 365.863 -3.4486 -2.70191 0
M  V30 3852 C 367.364 -2.10273 -3.90256 0
M  V30 3853 H 364.584 -0.445069 -0.50215 0
M  V30 3854 H 367.128 -1.76693 -1.02955 0
M  V30 3855 H 365.283 -1.6403 -3.5096 0
M  V30 3856 H 365.697 -3.85345 -3.55822 0
M  V30 3857 H 367.171 -2.69575 -4.81698 0
M  V30 3858 H 367.648 -1.096 -4.25305 0
M  V30 3859 H 368.254 -2.54059 -3.41078 0
M  V30 3860 N 366.569 1.04691 -1.17803 0
M  V30 3861 C 367.479 2.16057 -0.914151 0
M  V30 3862 C 368.495 1.73589 0.119503 0
M  V30 3863 O 369.671 2.01308 -0.0609468 0
M  V30 3864 C 366.736 3.4394 -0.436603 0
M  V30 3865 C 365.797 4.00825 -1.53746 0
M  V30 3866 C 365.03 5.22604 -1.0826 0
M  V30 3867 O 365.253 5.70367 0.0612244 0
M  V30 3868 O 364.187 5.7186 -1.87775 0
M  V30 3869 H 368.013 2.41169 -1.84584 0
M  V30 3870 H 365.598 1.1453 -0.959334 0
M  V30 3871 H 367.48 4.21024 -0.178057 0
M  V30 3872 H 366.155 3.20316 0.466869 0
M  V30 3873 H 365.062 3.25158 -1.84995 0
M  V30 3874 H 366.395 4.28778 -2.41683 0
M  V30 3875 N 368.047 0.979072 1.23499 0
M  V30 3876 C 369.295 0.645941 1.91499 0
M  V30 3877 C 369.616 -0.822948 1.76784 0
M  V30 3878 O 368.886 -1.58854 1.14639 0
M  V30 3879 H 367.466 0.235919 0.708767 0
M  V30 3880 H 370.128 1.2426 1.50152 0
M  V30 3881 H 369.224 0.896411 2.9895 0
M  V30 3882 N 369.525 -1.3858 0.750561 0
M  V30 3883 C 370.472 -2.30483 0.120835 0
M  V30 3884 C 371.442 -1.50022 -0.712923 0
M  V30 3885 O 372.627 -1.78662 -0.669676 0
M  V30 3886 C 369.767 -3.36431 -0.768666 0
M  V30 3887 C 368.88 -4.31927 0.0793922 0
M  V30 3888 C 368.015 -5.24944 -0.81283 0
M  V30 3889 C 367.054 -6.12088 0.0390447 0
M  V30 3890 N 366.191 -6.97412 -0.809969 0
M  V30 3891 H 371.031 -2.83761 0.91015 0
M  V30 3892 H 368.568 -1.39707 0.460463 0
M  V30 3893 H 370.526 -3.96462 -1.29898 0
M  V30 3894 H 369.156 -2.8457 -1.5238 0
M  V30 3895 H 368.208 -3.73382 0.727303 0
M  V30 3896 H 369.52 -4.93319 0.737401 0
M  V30 3897 H 368.674 -5.90078 -1.41042 0
M  V30 3898 H 367.413 -4.63911 -1.50458 0
M  V30 3899 H 366.418 -5.45952 0.649328 0
M  V30 3900 H 367.643 -6.75189 0.727809 0
M  V30 3901 H 365.589 -6.38931 -1.48672 0
M  V30 3902 H 365.506 -7.55712 -0.208789 0
M  V30 3903 H 366.774 -7.66959 -1.39263 0
M  V30 3904 N 371.003 -0.499398 -1.49478 0
M  V30 3905 C 371.966 0.268838 -2.27618 0
M  V30 3906 C 372.966 0.895383 -1.33565 0
M  V30 3907 O 374.156 0.760164 -1.56739 0
M  V30 3908 C 371.288 1.38559 -3.11471 0
M  V30 3909 H 372.481 -0.416812 -2.96989 0
M  V30 3910 H 370.034 -0.254313 -1.54217 0
M  V30 3911 H 370.769 2.10544 -2.46661 0
M  V30 3912 H 370.554 0.941797 -3.80621 0
M  V30 3913 H 372.044 1.92678 -3.70493 0
M  V30 3914 N 372.481 1.55866 -0.233164 0
M  V30 3915 C 373.729 1.9821 0.394593 0
M  V30 3916 C 374.05 1.12234 1.59463 0
M  V30 3917 O 373.32 0.201981 1.94856 0
M  V30 3918 H 371.9 0.732034 0.148778 0
M  V30 3919 H 374.562 1.92107 -0.32876 0
M  V30 3920 H 373.658 3.03845 0.713063 0
M  V30 3921 N 373.959 -0.0401083 1.57549 0
M  V30 3922 C 374.869 -1.06133 2.0922 0
M  V30 3923 C 375.885 -1.40356 1.0284 0
M  V30 3924 O 377.061 -1.49897 1.34509 0
M  V30 3925 C 374.126 -2.34658 2.55218 0
M  V30 3926 C 373.187 -2.07117 3.76033 0
M  V30 3927 C 372.42 -3.29514 4.19829 0
M  V30 3928 O 372.643 -4.39794 3.63232 0
M  V30 3929 O 371.577 -3.15863 5.12362 0
M  V30 3930 H 375.403 -0.652244 2.96613 0
M  V30 3931 H 372.988 -0.256368 1.47184 0
M  V30 3932 H 374.87 -3.10239 2.85184 0
M  V30 3933 H 373.545 -2.74883 1.70941 0
M  V30 3934 H 372.452 -1.29139 3.51104 0
M  V30 3935 H 373.785 -1.71754 4.61261 0
M  V30 3936 N 375.437 -1.54477 -0.31217 0
M  V30 3937 C 376.665 -1.77205 -1.068 0
M  V30 3938 C 377.08 -0.526114 -1.81321 0
M  V30 3939 O 376.437 0.503647 -1.75413 0
M  V30 3940 C 376.488 -2.97253 -2.05725 0
M  V30 3941 O 376.209 -4.1703 -1.34228 0
M  V30 3942 C 377.71 -3.32281 -2.93435 0
M  V30 3943 H 374.93 -0.591287 -0.317208 0
M  V30 3944 H 377.474 -2.01398 -0.354834 0
M  V30 3945 H 375.629 -2.753 -2.72559 0
M  V30 3946 H 376.043 -4.84636 -2.00571 0
M  V30 3947 H 377.517 -4.19551 -3.58721 0
M  V30 3948 H 377.994 -2.49945 -3.61143 0
M  V30 3949 H 378.6 -3.56353 -2.32147 0
M  V30 3950 N 376.915 0.57481 -1.46744 0
M  V30 3951 C 378.145 1.35659 -1.55821 0
M  V30 3952 C 378.553 1.88129 -0.201036 0
M  V30 3953 O 377.896 1.64723 0.813134 0
M  V30 3954 C 377.958 2.57473 -2.50894 0
M  V30 3955 C 377.622 2.26415 -3.9697 0
M  V30 3956 C 378.619 1.84771 -4.85958 0
M  V30 3957 C 376.304 2.38316 -4.42166 0
M  V30 3958 C 378.298 1.55434 -6.18158 0
M  V30 3959 C 375.985 2.08591 -5.74398 0
M  V30 3960 C 376.983 1.67216 -6.62214 0
M  V30 3961 O 376.671 1.37859 -7.91991 0
M  V30 3962 H 376.403 0.420496 -0.529301 0
M  V30 3963 H 378.957 0.704967 -1.92923 0
M  V30 3964 H 377.187 3.25468 -2.08824 0
M  V30 3965 H 378.876 3.19546 -2.50291 0
M  V30 3966 H 379.642 1.75085 -4.52295 0
M  V30 3967 H 375.521 2.69483 -3.74032 0
M  V30 3968 H 379.065 1.23065 -6.86659 0
M  V30 3969 H 374.962 2.17905 -6.07608 0
M  V30 3970 H 375.73 1.51638 -8.04331 0
M  V30 3971 N 378.394 1.34581 0.820102 0
M  V30 3972 C 379.342 1.26401 1.95258 0
M  V30 3973 C 380.336 0.161553 1.68628 0
M  V30 3974 O 381.542 0.326703 1.7701 0
M  V30 3975 H 377.917 0.392749 0.64129 0
M  V30 3976 H 379.888 2.22105 1.99279 0
M  V30 3977 C 378.637 1.03919 3.31807 0
M  V30 3978 H 377.96 1.87984 3.52848 0
M  V30 3979 H 379.4 1.02232 4.11491 0
M  V30 3980 C 377.859 -0.257433 3.35915 0
M  V30 3981 O 378.389 -1.25784 3.81499 0
M  V30 3982 N 376.595 -0.291524 2.89134 0
M  V30 3983 H 376.142 0.523161 2.52232 0
M  V30 3984 H 376.1 -1.15883 2.92264 0
M  V30 3985 N 379.872 -1.04064 1.18357 0
M  V30 3986 C 381.121 -1.76662 0.973313 0
M  V30 3987 C 381.434 -1.89154 -0.497991 0
M  V30 3988 O 382.64 -2.58606 -0.826762 0
M  V30 3989 C 381.096 -3.17624 1.69242 0
M  V30 3990 C 380.704 -3.13225 3.20303 0
M  V30 3991 C 382.448 -3.946 1.56497 0
M  V30 3992 C 380.355 -4.49046 3.84853 0
M  V30 3993 H 379.285 -0.662214 0.36054 0
M  V30 3994 H 381.936 -1.16553 1.41731 0
M  V30 3995 H 380.318 -3.78129 1.1762 0
M  V30 3996 H 381.492 -2.62172 3.78949 0
M  V30 3997 H 379.807 -2.49749 3.33189 0
M  V30 3998 H 382.404 -4.95042 2.02084 0
M  V30 3999 H 382.747 -4.13074 0.517243 0
M  V30 4000 H 383.28 -3.4067 2.05399 0
M  V30 4001 H 380.019 -4.35777 4.89672 0
M  V30 4002 H 379.539 -5.00203 3.30994 0
M  V30 4003 H 381.218 -5.17961 3.87718 0
M  V30 4004 N 381.35 -0.985608 -1.22978 0
M  V30 4005 C 382.598 -0.656087 -1.91154 0
M  V30 4006 C 382.919 0.813561 -1.77218 0
M  V30 4007 O 382.189 1.58244 -1.1548 0
M  V30 4008 H 380.769 -0.239674 -0.707506 0
M  V30 4009 H 383.431 -1.25054 -1.49491 0
M  V30 4010 H 382.527 -0.912253 -2.9847 0
M  V30 4011 N 382.828 1.3818 -0.7579 0
M  V30 4012 C 384.076 1.99624 -0.315361 0
M  V30 4013 C 384.397 1.60464 1.10799 0
M  V30 4014 O 383.667 0.863507 1.75842 0
M  V30 4015 H 382.247 0.73831 -0.113611 0
M  V30 4016 H 384.909 1.68878 -0.972952 0
M  V30 4017 H 384.005 3.09754 -0.381931 0
M  V30 4018 N 384.306 0.507319 1.49211 0
M  V30 4019 C 385.256 -0.287112 2.26185 0
M  V30 4020 C 386.24 -0.929983 1.31302 0
M  V30 4021 O 387.432 -0.836538 1.55984 0
M  V30 4022 C 384.561 -1.34718 3.15763 0
M  V30 4023 C 383.647 -0.710235 4.18111 0
M  V30 4024 N 384.038 0.190836 5.0544 0
M  V30 4025 C 382.336 -0.97009 4.35322 0
M  V30 4026 C 383.037 0.55606 5.79036 0
M  V30 4027 N 382.013 -0.0775232 5.43545 0
M  V30 4028 H 385.815 0.406445 2.91076 0
M  V30 4029 H 383.329 0.323814 1.59139 0
M  V30 4030 H 385.326 -1.92982 3.69545 0
M  V30 4031 H 383.986 -2.04235 2.52424 0
M  V30 4032 H 384.997 0.562047 5.14841 0
M  V30 4033 H 381.674 -1.65753 3.83187 0
M  V30 4034 H 383.064 1.2936 6.5933 0
M  V30 4035 N 385.784 -1.5574 0.241426 0
M  V30 4036 C 386.732 -2.22538 -0.676718 0
M  V30 4037 C 387.726 -1.21117 -1.18436 0
M  V30 4038 O 388.932 -1.39144 -1.14188 0
M  V30 4039 H 385.307 -0.713776 -0.236701 0
M  V30 4040 H 387.278 -2.98264 -0.0901187 0
M  V30 4041 C 386.027 -2.93439 -1.86518 0
M  V30 4042 H 385.35 -3.7125 -1.4837 0
M  V30 4043 H 386.79 -3.43549 -2.48495 0
M  V30 4044 C 385.249 -1.97008 -2.73294 0
M  V30 4045 O 385.779 -1.49965 -3.72657 0
M  V30 4046 N 383.985 -1.64227 -2.39745 0
M  V30 4047 H 383.532 -2.02677 -1.58996 0
M  V30 4048 H 383.49 -0.999708 -2.98083 0
M  V30 4049 N 387.262 0.0317525 -1.57568 0
M  V30 4050 C 388.172 1.05021 -2.0978 0
M  V30 4051 C 389.188 1.39809 -1.03583 0
M  V30 4052 O 390.364 1.49182 -1.35302 0
M  V30 4053 C 387.429 2.33301 -2.56459 0
M  V30 4054 C 386.49 2.0512 -3.77127 0
M  V30 4055 C 385.723 3.27283 -4.2157 0
M  V30 4056 O 385.946 4.37861 -3.65559 0
M  V30 4057 O 384.88 3.13141 -5.14029 0
M  V30 4058 H 388.706 0.636505 -2.96955 0
M  V30 4059 H 386.291 0.248559 -1.47318 0
M  V30 4060 H 388.173 3.08722 -2.86825 0
M  V30 4061 H 386.848 2.73973 -1.72397 0
M  V30 4062 H 385.755 1.27276 -3.51784 0
M  V30 4063 H 387.088 1.69305 -4.62165 0
M  V30 4064 N 388.74 1.54641 0.303973 0
M  V30 4065 C 389.687 1.85386 1.37479 0
M  V30 4066 C 390.657 0.702528 1.50512 0
M  V30 4067 O 391.842 0.950867 1.65418 0
M  V30 4068 C 388.982 2.10413 2.73533 0
M  V30 4069 C 388.095 3.38049 2.68974 0
M  V30 4070 C 387.23 3.52934 3.97002 0
M  V30 4071 C 386.269 4.74373 3.86829 0
M  V30 4072 N 385.406 4.8608 5.06627 0
M  V30 4073 H 390.246 2.76732 1.1056 0
M  V30 4074 H 387.783 1.37034 0.534805 0
M  V30 4075 H 389.741 2.22919 3.52652 0
M  V30 4076 H 388.371 1.22338 2.98719 0
M  V30 4077 H 387.423 3.3418 1.81736 0
M  V30 4078 H 388.735 4.27288 2.57346 0
M  V30 4079 H 387.889 3.65088 4.84557 0
M  V30 4080 H 386.628 2.61824 4.1146 0
M  V30 4081 H 385.633 4.62255 2.97658 0
M  V30 4082 H 386.858 5.66888 3.73918 0
M  V30 4083 H 384.804 3.97891 5.21554 0
M  V30 4084 H 384.721 5.69315 4.9741 0
M  V30 4085 H 385.989 5.02587 5.95841 0
M  V30 4086 N 390.218 -0.567019 1.47046 0
M  V30 4087 C 391.165 -1.67489 1.58796 0
M  V30 4088 C 392.135 -1.60399 0.43144 0
M  V30 4089 O 393.32 -1.79378 0.650233 0
M  V30 4090 C 390.46 -3.05821 1.59899 0
M  V30 4091 C 389.573 -3.2342 2.86397 0
M  V30 4092 C 388.708 -4.52093 2.789 0
M  V30 4093 C 387.747 -4.6309 4.00267 0
M  V30 4094 N 386.884 -5.83106 3.91064 0
M  V30 4095 H 391.724 -1.56785 2.53422 0
M  V30 4096 H 389.261 -0.763896 1.2571 0
M  V30 4097 H 391.219 -3.8591 1.58522 0
M  V30 4098 H 389.849 -3.15384 0.687929 0
M  V30 4099 H 388.901 -2.3683 2.97684 0
M  V30 4100 H 390.213 -3.27412 3.76301 0
M  V30 4101 H 389.367 -5.4043 2.75718 0
M  V30 4102 H 388.106 -4.50565 1.86662 0
M  V30 4103 H 387.111 -3.73168 4.03765 0
M  V30 4104 H 388.336 -4.66386 4.93621 0
M  V30 4105 H 386.282 -5.82546 3.01623 0
M  V30 4106 H 386.199 -5.88434 4.74638 0
M  V30 4107 H 387.467 -6.73831 3.91882 0
M  V30 4108 N 391.696 -1.35014 -0.812953 0
M  V30 4109 C 392.644 -1.27435 -1.94585 0
M  V30 4110 C 393.638 -0.170494 -1.6854 0
M  V30 4111 O 394.844 -0.336085 -1.76835 0
M  V30 4112 H 391.219 -0.396144 -0.639198 0
M  V30 4113 H 393.19 -2.23158 -1.98098 0
M  V30 4114 C 391.939 -1.05677 -3.31252 0
M  V30 4115 H 391.262 -1.89853 -3.51846 0
M  V30 4116 H 392.702 -1.04413 -4.10943 0
M  V30 4117 C 391.161 0.239615 -3.36047 0
M  V30 4118 O 391.691 1.23759 -3.8216 0
M  V30 4119 N 389.897 0.276186 -2.89285 0
M  V30 4120 H 389.444 -0.53653 -2.51951 0
M  V30 4121 H 389.402 1.14332 -2.92875 0
M  V30 4122 N 393.175 1.03435 -1.18907 0
M  V30 4123 C 394.105 2.13503 -0.945448 0
M  V30 4124 C 395.086 1.69682 0.119189 0
M  V30 4125 O 396.271 1.94169 -0.034707 0
M  V30 4126 C 393.401 3.44004 -0.477316 0
M  V30 4127 C 392.355 4.0148 -1.48316 0
M  V30 4128 C 391.681 5.27537 -0.872311 0
M  V30 4129 C 392.981 4.36921 -2.86177 0
M  V30 4130 H 394.675 2.34141 -1.86597 0
M  V30 4131 H 392.221 1.12523 -0.898584 0
M  V30 4132 H 394.174 4.20372 -0.294204 0
M  V30 4133 H 392.898 3.23072 0.478786 0
M  V30 4134 H 391.557 3.27201 -1.65332 0
M  V30 4135 H 391.205 5.02917 0.0911752 0
M  V30 4136 H 390.905 5.66954 -1.54393 0
M  V30 4137 H 392.429 6.06576 -0.699871 0
M  V30 4138 H 393.843 5.04248 -2.72776 0
M  V30 4139 H 392.24 4.87405 -3.50081 0
M  V30 4140 H 393.31 3.46466 -3.39248 0
M  V30 4141 N 394.653 0.992116 1.22453 0
M  V30 4142 C 395.93 0.583508 1.86694 0
M  V30 4143 C 396.31 -0.9392 1.89056 0
M  V30 4144 O 395.658 -1.82081 1.38053 0
M  V30 4145 C 395.868 1.20304 3.2761 0
M  V30 4146 C 397.216 1.30308 4.0411 0
M  V30 4147 O 398.24 1.15737 3.36873 0
M  V30 4148 O 397.099 1.53615 5.24466 0
M  V30 4149 H 394.193 0.198129 0.802916 0
M  V30 4150 H 396.739 1.08794 1.30238 0
M  V30 4151 H 395.511 2.24461 3.2052 0
M  V30 4152 H 395.134 0.684144 3.9167 0
M  V30 4153 N 396.131 -1.37776 0.765217 0
M  V30 4154 C 397.377 -2.00145 0.327072 0
M  V30 4155 C 397.71 -1.60607 -1.09175 0
M  V30 4156 O 396.985 -0.849127 -1.74986 0
M  V30 4157 C 397.268 -3.57109 0.46319 0
M  V30 4158 C 397.121 -4.06576 1.92395 0
M  V30 4159 C 398.44 -4.39888 -0.136473 0
M  V30 4160 H 395.559 -0.727113 0.120316 0
M  V30 4161 H 398.201 -1.63549 0.967039 0
M  V30 4162 H 396.351 -3.88414 -0.0816358 0
M  V30 4163 H 398.023 -3.85864 2.52798 0
M  V30 4164 H 396.266 -3.59011 2.43503 0
M  V30 4165 H 396.937 -5.15639 1.97028 0
M  V30 4166 H 399.413 -4.14803 0.328317 0
M  V30 4167 H 398.289 -5.48899 -0.0110582 0
M  V30 4168 H 398.55 -4.24758 -1.22608 0
M  V30 4169 N 397.609 -0.515225 -1.4894 0
M  V30 4170 C 398.855 0.0242508 -2.02785 0
M  V30 4171 C 399.188 1.35323 -1.39289 0
M  V30 4172 O 398.463 1.87041 -0.533469 0
M  V30 4173 C 398.746 0.16184 -3.59736 0
M  V30 4174 C 398.599 -1.19127 -4.33738 0
M  V30 4175 C 399.918 0.895719 -4.30888 0
M  V30 4176 H 397.037 0.00733914 -0.736963 0
M  V30 4177 H 399.679 -0.669395 -1.77818 0
M  V30 4178 H 397.829 0.752624 -3.8114 0
M  V30 4179 H 399.501 -1.82202 -4.23792 0
M  V30 4180 H 397.744 -1.77695 -3.95736 0
M  V30 4181 H 398.415 -1.04815 -5.41957 0
M  V30 4182 H 400.891 0.394528 -4.14225 0
M  V30 4183 H 399.767 0.960859 -5.40425 0
M  V30 4184 H 400.028 1.9427 -3.97129 0
M  V30 4185 N 399.087 1.5561 -0.249682 0
M  V30 4186 C 400.334 1.99011 0.374287 0
M  V30 4187 C 400.662 1.13785 1.57744 0
M  V30 4188 O 399.917 0.189326 1.94782 0
M  V30 4189 C 400.216 3.4775 0.824887 0
M  V30 4190 C 399.882 4.50086 -0.270819 0
M  V30 4191 C 398.544 4.77791 -0.571746 0
M  V30 4192 C 400.896 5.11312 -1.01041 0
M  V30 4193 C 398.224 5.63997 -1.61629 0
M  V30 4194 C 400.576 5.98651 -2.0445 0
M  V30 4195 C 399.24 6.24688 -2.35204 0
M  V30 4196 H 398.51 0.728233 0.136961 0
M  V30 4197 H 401.157 1.88122 -0.358087 0
M  V30 4198 H 399.462 3.55985 1.63651 0
M  V30 4199 H 401.159 3.78721 1.31799 0
M  V30 4200 H 397.749 4.28592 -0.026136 0
M  V30 4201 H 401.933 4.89953 -0.791177 0
M  V30 4202 H 397.189 5.82425 -1.85988 0
M  V30 4203 H 401.363 6.45135 -2.62248 0
M  V30 4204 H 398.99 6.91281 -3.16282 0
M  V30 4205 N 400.565 -0.0233959 1.57583 0
M  V30 4206 C 401.793 -0.724682 1.93794 0
M  V30 4207 C 402.208 -1.68588 0.849912 0
M  V30 4208 O 401.565 -1.81676 -0.173204 0
M  V30 4209 C 401.616 -1.47684 3.29957 0
M  V30 4210 O 401.337 -0.554222 4.3458 0
M  V30 4211 C 402.838 -2.27477 3.80485 0
M  V30 4212 H 400.058 -0.203317 0.639455 0
M  V30 4213 H 402.602 0.0207653 2.04489 0
M  V30 4214 H 400.757 -2.17412 3.20641 0
M  V30 4215 H 401.171 -1.08232 5.13212 0
M  V30 4216 H 402.645 -2.7564 4.78254 0
M  V30 4217 H 403.122 -3.09144 3.11972 0
M  V30 4218 H 403.728 -1.62813 3.92902 0
M  V30 4219 N 402.043 -1.548 -0.295768 0
M  V30 4220 C 403.292 -1.73538 -1.02798 0
M  V30 4221 C 403.605 -0.531159 -1.8825 0
M  V30 4222 O 404.811 -0.600458 -2.64777 0
M  V30 4223 C 403.267 -3.07051 -1.87744 0
M  V30 4224 C 402.875 -4.34968 -1.07269 0
M  V30 4225 C 404.619 -3.35146 -2.60533 0
M  V30 4226 C 402.526 -5.5953 -1.91521 0
M  V30 4227 H 401.456 -0.646794 -0.387522 0
M  V30 4228 H 404.107 -1.81278 -0.284718 0
M  V30 4229 H 402.489 -2.93289 -2.66078 0
M  V30 4230 H 403.663 -4.5958 -0.335117 0
M  V30 4231 H 401.978 -4.13847 -0.460384 0
M  V30 4232 H 404.575 -4.2541 -3.23929 0
M  V30 4233 H 404.918 -2.54255 -3.29636 0
M  V30 4234 H 405.451 -3.49902 -1.89244 0
M  V30 4235 H 402.19 -6.43103 -1.26878 0
M  V30 4236 H 401.71 -5.39096 -2.62937 0
M  V30 4237 H 403.389 -5.96982 -2.49442 0
M  V30 4238 N 403.521 0.559213 -1.47345 0
M  V30 4239 C 404.761 1.32728 -1.55444 0
M  V30 4240 C 405.125 1.90838 -0.210895 0
M  V30 4241 O 406.326 2.68282 -0.166719 0
M  V30 4242 C 404.597 2.4092 -2.63993 0
M  V30 4243 S 406.156 3.2784 -2.91661 0
M  V30 4244 H 402.974 0.451883 -0.548929 0
M  V30 4245 H 405.576 0.640404 -1.84714 0
M  V30 4246 H 404.28 1.9666 -3.60212 0
M  V30 4247 H 403.811 3.14351 -2.36531 0
M  V30 4248 H 405.826 4.40341 -2.28722 0
M  V30 4249 N 404.999 1.35443 0.805782 0
M  V30 4250 C 406.276 1.19325 1.54987 0
M  V30 4251 C 406.656 -0.227294 2.09873 0
M  V30 4252 O 406.004 -1.2309 1.92512 0
M  V30 4253 C 406.214 2.26196 2.65775 0
M  V30 4254 C 407.562 2.62043 3.34094 0
M  V30 4255 O 408.586 2.25115 2.76046 0
M  V30 4256 O 407.445 3.25542 4.38958 0
M  V30 4257 H 404.539 0.463623 0.684823 0
M  V30 4258 H 407.085 1.47127 0.845674 0
M  V30 4259 H 405.857 3.21471 2.23096 0
M  V30 4260 H 405.48 1.99667 3.43829 0
M  V30 4261 N 406.477 -1.02803 1.19454 0
M  V30 4262 C 407.407 -2.12999 0.956758 0
M  V30 4263 C 408.388 -1.69743 -0.110188 0
M  V30 4264 O 409.573 -1.94148 0.0450038 0
M  V30 4265 C 406.703 -3.43746 0.495553 0
M  V30 4266 C 405.657 -4.00688 1.50443 0
M  V30 4267 C 404.983 -5.27067 0.900275 0
M  V30 4268 C 406.283 -4.35397 2.8849 0
M  V30 4269 H 407.977 -2.33148 1.87836 0
M  V30 4270 H 405.523 -1.12045 0.904539 0
M  V30 4271 H 407.476 -4.2021 0.316493 0
M  V30 4272 H 406.2 -3.23321 -0.461646 0
M  V30 4273 H 404.859 -3.2632 1.67065 0
M  V30 4274 H 404.507 -5.02959 -0.064503 0
M  V30 4275 H 404.207 -5.66127 1.57397 0
M  V30 4276 H 405.731 -6.06196 0.73203 0
M  V30 4277 H 407.145 -5.02795 2.75446 0
M  V30 4278 H 405.542 -4.85541 3.52661 0
M  V30 4279 H 406.612 -3.44662 3.41081 0
M  V30 4280 N 407.956 -0.998596 -1.21925 0
M  V30 4281 C 408.886 -0.573688 -2.26343 0
M  V30 4282 C 409.867 0.402296 -1.65274 0
M  V30 4283 O 411.052 0.291683 -1.91997 0
M  V30 4284 C 408.182 0.106839 -3.47136 0
M  V30 4285 C 407.136 -0.788269 -4.20678 0
M  V30 4286 C 406.462 0.0254927 -5.34694 0
M  V30 4287 C 407.762 -2.08784 -4.78755 0
M  V30 4288 H 409.456 -1.44651 -2.62138 0
M  V30 4289 H 407.002 -0.696975 -1.26009 0
M  V30 4290 H 408.955 0.415531 -4.19346 0
M  V30 4291 H 407.679 1.01424 -3.10452 0
M  V30 4292 H 406.338 -1.08069 -3.50309 0
M  V30 4293 H 405.986 0.933989 -4.94253 0
M  V30 4294 H 405.686 -0.570437 -5.84825 0
M  V30 4295 H 407.21 0.328147 -6.09718 0
M  V30 4296 H 408.624 -1.84272 -5.42878 0
M  V30 4297 H 407.021 -2.63307 -5.39249 0
M  V30 4298 H 408.091 -2.76284 -3.98491 0
M  V30 4299 N 409.434 1.37368 -0.772513 0
M  V30 4300 C 410.711 1.93839 -0.26188 0
M  V30 4301 C 411.091 1.7061 1.24319 0
M  V30 4302 O 410.439 1.05534 2.02669 0
M  V30 4303 C 410.649 3.43154 -0.636102 0
M  V30 4304 C 411.997 4.20249 -0.606324 0
M  V30 4305 O 413.021 3.5152 -0.575538 0
M  V30 4306 O 411.88 5.42809 -0.634086 0
M  V30 4307 H 408.974 0.82478 -0.0605555 0
M  V30 4308 H 411.52 1.4665 -0.853917 0
M  V30 4309 H 410.292 3.53647 -1.6748 0
M  V30 4310 H 409.915 3.97596 -0.0170516 0
M  V30 4311 N 410.912 0.523116 1.48665 0
M  V30 4312 C 411.822 -0.247406 2.33292 0
M  V30 4313 C 412.838 -0.945769 1.46052 0
M  V30 4314 O 414.014 -0.922253 1.79043 0
M  V30 4315 C 411.079 -1.28487 3.22012 0
M  V30 4316 C 410.14 -0.597592 4.2512 0
M  V30 4317 C 409.373 -1.58563 5.09601 0
M  V30 4318 O 409.596 -2.81763 4.95949 0
M  V30 4319 O 408.53 -1.12879 5.91221 0
M  V30 4320 H 412.356 0.445869 3.00409 0
M  V30 4321 H 409.941 0.284128 1.46673 0
M  V30 4322 H 411.823 -1.88459 3.7691 0
M  V30 4323 H 410.498 -1.96068 2.57564 0
M  V30 4324 H 409.405 0.0424407 3.74076 0
M  V30 4325 H 410.738 0.0361517 4.92187 0
M  V30 4326 N 412.39 -1.55475 0.257931 0
M  V30 4327 C 413.639 -1.98383 -0.364275 0
M  V30 4328 C 413.952 -1.14952 -1.58258 0
M  V30 4329 O 415.158 -1.47924 -2.27664 0
M  V30 4330 C 413.614 -3.53037 -0.699479 0
M  V30 4331 C 413.222 -4.45223 0.498046 0
M  V30 4332 C 414.966 -4.04575 -1.28526 0
M  V30 4333 C 412.873 -5.91238 0.138383 0
M  V30 4334 H 411.803 -0.740911 -0.13988 0
M  V30 4335 H 414.454 -1.79936 0.359883 0
M  V30 4336 H 412.836 -3.6722 -1.48207 0
M  V30 4337 H 414.01 -4.42803 1.27522 0
M  V30 4338 H 412.325 -4.04226 0.999503 0
M  V30 4339 H 414.922 -5.11196 -1.56788 0
M  V30 4340 H 415.265 -3.5258 -2.21344 0
M  V30 4341 H 415.798 -3.93762 -0.565337 0
M  V30 4342 H 412.537 -6.47294 1.03398 0
M  V30 4343 H 412.057 -5.96768 -0.602374 0
M  V30 4344 H 413.736 -6.46413 -0.27553 0
M  V30 4345 N 413.868 0.0150385 -1.57593 0
M  V30 4346 C 415.114 0.704043 -1.90187 0
M  V30 4347 C 415.447 1.74249 -0.857366 0
M  V30 4348 O 414.722 1.94092 0.125843 0
M  V30 4349 C 415.005 1.36087 -3.33395 0
M  V30 4350 C 414.858 0.334981 -4.48551 0
M  V30 4351 C 416.177 2.29112 -3.7576 0
M  V30 4352 H 413.296 0.254475 -0.691673 0
M  V30 4353 H 415.938 -0.0331678 -1.89971 0
M  V30 4354 H 414.088 1.98922 -3.3371 0
M  V30 4355 H 415.76 -0.292534 -4.60372 0
M  V30 4356 H 414.003 -0.344325 -4.32431 0
M  V30 4357 H 414.674 0.833316 -5.45674 0
M  V30 4358 H 417.15 1.76308 -3.76902 0
M  V30 4359 H 416.026 2.72043 -4.76743 0
M  V30 4360 H 416.287 3.16385 -3.08793 0
M  V30 4361 N 415.346 1.54954 0.287554 0
M  V30 4362 C 416.757 1.65732 0.859634 0
M  V30 4363 C 417.108 0.574767 1.87592 0
M  V30 4364 O 416.233 -0.286299 2.14498 0
M  V30 4365 C 416.828 3.00438 1.56597 0
M  V30 4366 C 415.387 3.13292 2.08627 0
M  V30 4367 C 414.534 2.61473 0.923416 0
M  V30 4368 H 417.485 1.5857 0.0642338 0
M  V30 4369 H 417.506 2.92613 2.43224 0
M  V30 4370 H 417.018 3.79207 0.826053 0
M  V30 4371 H 415.119 2.39268 2.85625 0
M  V30 4372 H 415.232 4.19647 2.31157 0
M  V30 4373 H 413.596 2.18264 1.31275 0
M  V30 4374 H 414.379 3.42733 0.197241 0
M  V30 4375 N 416.824 -0.551391 1.4764 0
M  V30 4376 C 417.771 -1.65796 1.60563 0
M  V30 4377 C 418.741 -1.59932 0.448428 0
M  V30 4378 O 419.926 -1.78679 0.669222 0
M  V30 4379 C 417.066 -3.04108 1.63133 0
M  V30 4380 C 416.179 -3.20365 2.89811 0
M  V30 4381 C 415.314 -4.49109 2.8368 0
M  V30 4382 C 414.353 -4.58819 4.05156 0
M  V30 4383 N 413.49 -5.78926 3.97227 0
M  V30 4384 H 418.33 -1.54088 2.5507 0
M  V30 4385 H 415.867 -0.75052 1.26513 0
M  V30 4386 H 417.825 -3.84207 1.62606 0
M  V30 4387 H 416.455 -3.14637 0.721341 0
M  V30 4388 H 415.507 -2.33659 3.00179 0
M  V30 4389 H 416.819 -3.23402 3.79753 0
M  V30 4390 H 415.973 -5.37475 2.81434 0
M  V30 4391 H 414.712 -4.4856 1.91431 0
M  V30 4392 H 413.717 -3.68864 4.077 0
M  V30 4393 H 414.942 -4.61124 4.98539 0
M  V30 4394 H 412.888 -5.79314 3.07785 0
M  V30 4395 H 412.805 -5.83367 4.80853 0
M  V30 4396 H 414.073 -6.69637 3.99007 0
M  V30 4397 N 418.302 -1.35869 -0.798587 0
M  V30 4398 C 419.265 -1.29307 -1.89242 0
M  V30 4399 C 420.265 -0.202747 -1.59517 0
M  V30 4400 O 421.455 -0.456957 -1.681 0
M  V30 4401 C 418.587 -1.00229 -3.25833 0
M  V30 4402 H 419.78 -2.26576 -1.96478 0
M  V30 4403 H 417.333 -1.20509 -0.995358 0
M  V30 4404 H 418.068 -0.033801 -3.24282 0
M  V30 4405 H 417.853 -1.79121 -3.48795 0
M  V30 4406 H 419.343 -0.98219 -4.05885 0
M  V30 4407 N 419.78 1.02168 -1.19998 0
M  V30 4408 C 421.008 1.79296 -1.03249 0
M  V30 4409 C 421.423 1.84103 0.418502 0
M  V30 4410 O 420.78 1.29031 1.29063 0
M  V30 4411 C 420.831 3.24007 -1.60319 0
M  V30 4412 O 420.552 3.19512 -2.99739 0
M  V30 4413 C 422.053 4.17704 -1.48453 0
M  V30 4414 H 419.273 0.564016 -0.363493 0
M  V30 4415 H 421.817 1.28639 -1.58973 0
M  V30 4416 H 419.972 3.7183 -1.08727 0
M  V30 4417 H 420.386 4.10306 -3.26725 0
M  V30 4418 H 421.86 5.17104 -1.93153 0
M  V30 4419 H 422.337 4.37029 -0.436193 0
M  V30 4420 H 422.943 3.7576 -1.99211 0
M  V30 4421 N 421.258 1.00505 1.21394 0
M  V30 4422 C 422.483 0.706367 1.95001 0
M  V30 4423 C 422.908 -0.72463 1.73582 0
M  V30 4424 O 422.266 -1.49702 1.0227 0
M  V30 4425 C 422.314 1.03299 3.45487 0
M  V30 4426 O 421.418 0.138275 4.12168 0
M  V30 4427 H 420.759 0.263175 0.609619 0
M  V30 4428 H 423.289 1.34531 1.54151 0
M  V30 4429 H 423.299 0.979872 3.96059 0
M  V30 4430 H 421.974 2.07567 3.60401 0
M  V30 4431 H 420.551 0.247928 3.72075 0
M  V30 4432 N 422.737 -1.36956 0.779787 0
M  V30 4433 C 423.967 -2.03459 0.358877 0
M  V30 4434 C 424.375 -1.58939 -1.02641 0
M  V30 4435 O 423.718 -0.769777 -1.66794 0
M  V30 4436 C 423.78 -3.5796 0.332393 0
M  V30 4437 C 423.444 -4.25644 1.66362 0
M  V30 4438 C 424.441 -4.49205 2.61746 0
M  V30 4439 C 422.126 -4.63313 1.94027 0
M  V30 4440 C 424.12 -5.09503 3.82996 0
M  V30 4441 C 421.807 -5.2333 3.15546 0
M  V30 4442 C 422.805 -5.46363 4.0985 0
M  V30 4443 O 422.493 -6.05122 5.29228 0
M  V30 4444 H 422.225 -0.659767 0.147254 0
M  V30 4445 H 424.779 -1.76111 1.05708 0
M  V30 4446 H 423.009 -3.84388 -0.422237 0
M  V30 4447 H 424.698 -4.05852 -0.0625389 0
M  V30 4448 H 425.464 -4.20508 2.41657 0
M  V30 4449 H 421.343 -4.44715 1.21448 0
M  V30 4450 H 424.887 -5.27397 4.56617 0
M  V30 4451 H 420.784 -5.51451 3.35517 0
M  V30 4452 H 421.552 -6.23595 5.30161 0
M  V30 4453 N 424.215 -0.530993 -1.48385 0
M  V30 4454 C 425.631 -0.188919 -1.58478 0
M  V30 4455 C 425.831 1.30786 -1.53288 0
M  V30 4456 O 424.887 2.08619 -1.42248 0
M  V30 4457 C 426.2 -0.792343 -2.90073 0
M  V30 4458 C 427.748 -0.76117 -3.03604 0
M  V30 4459 C 428.223 -1.34319 -4.37861 0
M  V30 4460 N 429.714 -1.3052 -4.44431 0
M  V30 4461 C 430.449 -1.72543 -5.46824 0
M  V30 4462 N 429.945 -2.22299 -6.56167 0
M  V30 4463 N 431.738 -1.63773 -5.37712 0
M  V30 4464 H 423.889 -1.50377 -1.50002 0
M  V30 4465 H 426.152 -0.625559 -0.712306 0
M  V30 4466 H 425.858 -1.84323 -2.99529 0
M  V30 4467 H 425.732 -0.270026 -3.76232 0
M  V30 4468 H 428.119 0.280957 -2.93759 0
M  V30 4469 H 428.2 -1.32097 -2.19053 0
M  V30 4470 H 427.844 -2.38425 -4.4846 0
M  V30 4471 H 427.774 -0.759064 -5.21101 0
M  V30 4472 H 430.265 -0.940973 -3.65997 0
M  V30 4473 H 430.578 -2.52356 -7.30436 0
M  V30 4474 H 428.923 -2.26293 -6.57127 0
M  V30 4475 H 432.114 -1.24698 -4.51185 0
M  V30 4476 H 432.287 -1.96844 -6.17379 0
M  V30 4477 N 425.693 1.55336 -0.266172 0
M  V30 4478 C 426.603 2.2583 0.635458 0
M  V30 4479 C 427.619 1.28106 1.17749 0
M  V30 4480 O 428.795 1.61024 1.20968 0
M  V30 4481 C 425.86 2.95879 1.80712 0
M  V30 4482 C 424.921 4.09059 1.30265 0
M  V30 4483 C 424.154 4.75759 2.41846 0
M  V30 4484 O 424.377 4.41622 3.61007 0
M  V30 4485 O 423.311 5.63888 2.1051 0
M  V30 4486 H 427.137 3.03631 0.0646693 0
M  V30 4487 H 424.722 1.49361 -0.0339177 0
M  V30 4488 H 426.604 3.39932 2.49047 0
M  V30 4489 H 425.279 2.21002 2.36516 0
M  V30 4490 H 424.186 3.69482 0.586019 0
M  V30 4491 H 425.519 4.85811 0.790458 0
M  V30 4492 N 427.171 -0.0066808 1.57599 0
M  V30 4493 C 428.103 -1.02827 2.04839 0
M  V30 4494 C 429.116 -1.31108 0.965113 0
M  V30 4495 O 430.305 -1.28202 1.24203 0
M  V30 4496 C 427.405 -2.36464 2.42771 0
M  V30 4497 C 426.578 -2.27219 3.73751 0
M  V30 4498 C 425.637 -3.43489 3.98625 0
M  V30 4499 O 424.663 -3.21976 4.69382 0
M  V30 4500 N 425.865 -4.66116 3.46 0
M  V30 4501 H 428.63 -0.625455 2.93101 0
M  V30 4502 H 426.191 -0.194198 1.60731 0
M  V30 4503 H 428.183 -3.13008 2.56531 0
M  V30 4504 H 426.753 -2.68512 1.60063 0
M  V30 4505 H 425.973 -1.35629 3.70133 0
M  V30 4506 H 427.261 -2.18208 4.59633 0
M  V30 4507 H 426.659 -4.86493 2.88688 0
M  V30 4508 H 425.216 -5.39949 3.65101 0
M  V30 4509 N 428.649 -1.55105 -0.279332 0
M  V30 4510 C 429.898 -1.74618 -1.00952 0
M  V30 4511 C 430.211 -0.551096 -1.87676 0
M  V30 4512 O 431.417 -0.628507 -2.64125 0
M  V30 4513 C 429.873 -3.09025 -1.84476 0
M  V30 4514 C 429.481 -4.36081 -1.0265 0
M  V30 4515 C 431.225 -3.37891 -2.56963 0
M  V30 4516 C 429.132 -5.6153 -1.85576 0
M  V30 4517 H 428.062 -0.650868 -0.38064 0
M  V30 4518 H 430.713 -1.81569 -0.265475 0
M  V30 4519 H 429.095 -2.96095 -2.62952 0
M  V30 4520 H 430.269 -4.59909 -0.286354 0
M  V30 4521 H 428.584 -4.14312 -0.416464 0
M  V30 4522 H 431.181 -4.28822 -3.19399 0
M  V30 4523 H 431.524 -2.57737 -3.26921 0
M  V30 4524 H 432.057 -3.5189 -1.85522 0
M  V30 4525 H 428.796 -6.44413 -1.2005 0
M  V30 4526 H 428.316 -5.41854 -2.57204 0
M  V30 4527 H 429.995 -5.99594 -2.43096 0
M  V30 4528 N 430.127 0.543554 -1.4793 0
M  V30 4529 C 431.355 1.32516 -1.58894 0
M  V30 4530 C 431.77 1.87215 -0.244131 0
M  V30 4531 O 431.127 1.65709 0.764652 0
M  V30 4532 C 431.178 2.48554 -2.62494 0
M  V30 4533 O 430.899 1.96112 -3.91755 0
M  V30 4534 C 432.4 3.40572 -2.8377 0
M  V30 4535 H 429.62 0.403472 -0.536145 0
M  V30 4536 H 432.164 0.657106 -1.93655 0
M  V30 4537 H 430.319 3.1127 -2.30629 0
M  V30 4538 H 430.733 2.71967 -4.4848 0
M  V30 4539 H 432.207 4.18375 -3.60093 0
M  V30 4540 H 432.684 3.94965 -1.92092 0
M  V30 4541 H 433.29 2.8366 -3.16887 0
M  V30 4542 N 431.605 1.3629 0.791371 0
M  V30 4543 C 432.835 1.33368 1.57786 0
M  V30 4544 C 433.243 -0.0875188 1.88997 0
M  V30 4545 O 432.586 -1.05427 1.50435 0
M  V30 4546 C 432.648 2.08802 2.92646 0
M  V30 4547 C 432.312 3.57903 2.84174 0
M  V30 4548 C 433.309 4.52191 2.56553 0
M  V30 4549 C 430.994 4.00762 3.02812 0
M  V30 4550 C 432.988 5.87315 2.47669 0
M  V30 4551 C 430.675 5.35977 2.93551 0
M  V30 4552 C 431.673 6.29066 2.66017 0
M  V30 4553 O 431.361 7.61798 2.56746 0
M  V30 4554 H 431.093 0.459166 0.496128 0
M  V30 4555 H 433.647 1.79952 0.990269 0
M  V30 4556 H 431.877 1.56878 3.53449 0
M  V30 4557 H 433.566 1.98762 3.53904 0
M  V30 4558 H 434.332 4.20393 2.41858 0
M  V30 4559 H 430.211 3.2868 3.2325 0
M  V30 4560 H 433.755 6.59943 2.26099 0
M  V30 4561 H 429.652 5.67384 3.07808 0
M  V30 4562 H 430.42 7.71898 2.72242 0
M  V30 4563 N 433.083 -1.0153 1.20538 0
M  V30 4564 C 434.329 -1.75408 1.01783 0
M  V30 4565 C 434.662 -1.88943 -0.448814 0
M  V30 4566 O 433.937 -1.4162 -1.33319 0
M  V30 4567 C 434.22 -3.17255 1.70356 0
M  V30 4568 C 434.073 -3.11508 3.24473 0
M  V30 4569 C 435.392 -4.15955 1.43769 0
M  V30 4570 H 432.511 -0.636713 0.371167 0
M  V30 4571 H 435.153 -1.18436 1.4857 0
M  V30 4572 H 433.303 -3.65898 1.30578 0
M  V30 4573 H 434.975 -2.70658 3.73553 0
M  V30 4574 H 433.218 -2.4887 3.55311 0
M  V30 4575 H 433.889 -4.11784 3.67611 0
M  V30 4576 H 436.365 -3.75973 1.7828 0
M  V30 4577 H 435.241 -5.13368 1.94279 0
M  V30 4578 H 435.502 -4.40586 0.365564 0
M  V30 4579 N 434.561 -1.01147 -1.20859 0
M  V30 4580 C 435.524 -0.582224 -2.21682 0
M  V30 4581 C 436.524 0.344887 -1.57058 0
M  V30 4582 O 437.714 0.134281 -1.73682 0
M  V30 4583 C 434.846 0.150496 -3.40568 0
M  V30 4584 H 436.039 -1.47408 -2.61172 0
M  V30 4585 H 433.592 -0.800695 -1.34233 0
M  V30 4586 H 434.327 1.0575 -3.06574 0
M  V30 4587 H 434.112 -0.515444 -3.88697 0
M  V30 4588 H 435.602 0.438344 -4.15293 0
M  V30 4589 N 436.039 1.36541 -0.78704 0
M  V30 4590 C 437.316 1.9355 -0.282424 0
M  V30 4591 C 437.696 1.71919 1.22503 0
M  V30 4592 O 437.044 1.07677 2.01539 0
M  V30 4593 C 437.254 3.4246 -0.672462 0
M  V30 4594 C 438.602 4.19582 -0.650863 0
M  V30 4595 O 439.626 3.50889 -0.612789 0
M  V30 4596 O 438.485 5.42106 -0.691623 0
M  V30 4597 H 435.579 0.824091 -0.0693 0
M  V30 4598 H 438.125 1.45736 -0.869423 0
M  V30 4599 H 436.897 3.51851 -1.71221 0
M  V30 4600 H 436.52 3.97556 -0.0592211 0
M  V30 4601 N 437.518 0.538854 1.48102 0
M  V30 4602 C 438.934 0.19732 1.58376 0
M  V30 4603 C 439.134 -1.29971 1.5398 0
M  V30 4604 O 438.19 -2.07861 1.43352 0
M  V30 4605 C 439.503 0.807716 2.89649 0
M  V30 4606 C 441.051 0.77726 3.03196 0
M  V30 4607 C 441.526 1.36639 4.37143 0
M  V30 4608 N 443.017 1.32875 4.43732 0
M  V30 4609 C 443.752 1.7544 5.45901 0
M  V30 4610 N 443.248 2.25776 6.54979 0
M  V30 4611 N 445.041 1.66623 5.36836 0
M  V30 4612 H 437.192 1.5117 1.49202 0
M  V30 4613 H 439.455 0.629327 0.708979 0
M  V30 4614 H 439.161 1.85909 2.98548 0
M  V30 4615 H 439.035 0.289975 3.76084 0
M  V30 4616 H 441.422 -0.265374 2.93904 0
M  V30 4617 H 441.503 1.33256 2.18349 0
M  V30 4618 H 441.147 2.408 4.47189 0
M  V30 4619 H 441.077 0.786689 5.20691 0
M  V30 4620 H 443.568 0.96037 3.65493 0
M  V30 4621 H 443.881 2.56226 7.29087 0
M  V30 4622 H 442.226 2.29775 6.55918 0
M  V30 4623 H 445.417 1.27089 4.50517 0
M  V30 4624 H 445.59 2.00115 6.16326 0
M  V30 4625 N 438.996 -1.55193 0.274407 0
M  V30 4626 C 440.407 -1.85358 -0.223488 0
M  V30 4627 C 440.758 -1.19642 -1.555 0
M  V30 4628 O 439.883 -0.484498 -2.10907 0
M  V30 4629 C 440.478 -3.36282 -0.412285 0
M  V30 4630 C 439.037 -3.66574 -0.854413 0
M  V30 4631 C 438.184 -2.7725 0.0527056 0
M  V30 4632 H 441.135 -1.50743 0.496215 0
M  V30 4633 H 441.156 -3.59349 -1.25094 0
M  V30 4634 H 440.668 -3.84083 0.556965 0
M  V30 4635 H 438.769 -3.24273 -1.83516 0
M  V30 4636 H 438.882 -4.74073 -0.692226 0
M  V30 4637 H 437.246 -2.50447 -0.463484 0
M  V30 4638 H 438.029 -3.27865 1.01783 0
M  V30 4639 N 440.474 -0.00167713 -1.576 0
M  V30 4640 C 441.722 0.681471 -1.90264 0
M  V30 4641 C 442.043 1.7422 -0.875924 0
M  V30 4642 O 441.313 1.95709 0.0864412 0
M  V30 4643 H 439.893 0.254696 -0.702239 0
M  V30 4644 H 442.555 -0.0429996 -1.94853 0
M  V30 4645 H 441.651 1.15166 -2.90075 0
M  V30 4646 N 441.952 1.55251 0.271103 0
M  V30 4647 C 442.902 1.84649 1.33749 0
M  V30 4648 C 443.886 0.705529 1.44607 0
M  V30 4649 O 445.078 0.966916 1.48256 0
M  V30 4650 C 442.207 2.12354 2.69742 0
M  V30 4651 C 441.293 3.32714 2.62988 0
M  V30 4652 N 441.684 4.52575 2.25853 0
M  V30 4653 C 439.982 3.35341 2.94045 0
M  V30 4654 C 440.683 5.34669 2.29136 0
M  V30 4655 N 439.659 4.73123 2.67685 0
M  V30 4656 H 443.461 2.74865 1.0405 0
M  V30 4657 H 440.975 1.55152 0.479738 0
M  V30 4658 H 442.972 2.31572 3.4667 0
M  V30 4659 H 441.632 1.23422 3.00328 0
M  V30 4660 H 442.643 4.78639 1.978 0
M  V30 4661 H 439.32 2.56608 3.2933 0
M  V30 4662 H 440.71 6.40509 2.02971 0
M  V30 4663 N 443.43 -0.535701 1.48216 0
M  V30 4664 C 444.707 -1.29683 1.46429 0
M  V30 4665 C 445.087 -2.10391 0.172852 0
M  V30 4666 O 444.435 -2.12282 -0.845488 0
M  V30 4667 C 444.645 -2.18313 2.72287 0
M  V30 4668 C 445.993 -2.78639 3.20383 0
M  V30 4669 O 447.017 -2.28604 2.73164 0
M  V30 4670 O 445.876 -3.69636 4.02531 0
M  V30 4671 H 442.97 -0.585026 0.584529 0
M  V30 4672 H 445.516 -0.552827 1.60443 0
M  V30 4673 H 444.288 -1.58421 3.57797 0
M  V30 4674 H 443.911 -2.99971 2.60966 0
M  V30 4675 N 444.908 -1.36708 -0.784132 0
M  V30 4676 C 446.324 -1.17237 -1.08294 0
M  V30 4677 C 446.524 -5.93947e-05 -2.015 0
M  V30 4678 O 445.58 0.663686 -2.43622 0
M  V30 4679 C 446.893 -2.48557 -1.69233 0
M  V30 4680 C 448.441 -2.54968 -1.8155 0
M  V30 4681 C 448.916 -3.86388 -2.45904 0
M  V30 4682 N 450.407 -3.87762 -2.53367 0
M  V30 4683 C 451.142 -4.86191 -3.03983 0
M  V30 4684 N 450.638 -5.95015 -3.54866 0
M  V30 4685 N 452.431 -4.73606 -3.02743 0
M  V30 4686 H 444.582 -2.11758 -0.16501 0
M  V30 4687 H 446.845 -0.93822 -0.135822 0
M  V30 4688 H 446.551 -3.34638 -1.08215 0
M  V30 4689 H 446.425 -2.64748 -2.68679 0
M  V30 4690 H 448.812 -1.69302 -2.41704 0
M  V30 4691 H 448.893 -2.42672 -0.80895 0
M  V30 4692 H 448.537 -4.72462 -1.86392 0
M  V30 4693 H 448.467 -3.95982 -3.4714 0
M  V30 4694 H 450.958 -3.09145 -2.17343 0
M  V30 4695 H 451.271 -6.66086 -3.91854 0
M  V30 4696 H 449.616 -5.98676 -3.53003 0
M  V30 4697 H 452.807 -3.87717 -2.62284 0
M  V30 4698 H 452.98 -5.50473 -3.41881 0
M  V30 4699 N 446.386 1.0089 -1.21074 0
M  V30 4700 C 447.802 1.2695 -0.967257 0
M  V30 4701 C 448.002 1.9846 0.348673 0
M  V30 4702 O 447.058 2.28459 1.0753 0
M  V30 4703 C 448.371 2.09697 -2.15517 0
M  V30 4704 C 449.919 2.22937 -2.197 0
M  V30 4705 C 450.394 3.09064 -3.37999 0
M  V30 4706 N 451.885 3.16653 -3.38061 0
M  V30 4707 C 452.62 3.8354 -4.26245 0
M  V30 4708 N 452.116 4.52488 -5.2462 0
M  V30 4709 N 453.909 3.80141 -4.14064 0
M  V30 4710 H 446.06 0.529005 -2.05707 0
M  V30 4711 H 448.323 0.296148 -0.900556 0
M  V30 4712 H 448.029 1.64497 -3.10859 0
M  V30 4713 H 447.903 3.10444 -2.14253 0
M  V30 4714 H 450.29 2.67357 -1.24916 0
M  V30 4715 H 450.371 1.21673 -2.2501 0
M  V30 4716 H 450.015 2.65347 -4.33074 0
M  V30 4717 H 449.945 4.10433 -3.29928 0
M  V30 4718 H 452.436 2.67566 -2.66865 0
M  V30 4719 H 452.749 5.01219 -5.88217 0
M  V30 4720 H 451.094 4.51288 -5.28549 0
M  V30 4721 H 454.285 3.25427 -3.36474 0
M  V30 4722 H 454.458 4.31992 -4.82998 0
M  V30 4723 N 447.864 1.01787 1.20321 0
M  V30 4724 C 449.094 0.72614 1.93419 0
M  V30 4725 C 449.502 -0.717317 1.75075 0
M  V30 4726 O 448.845 -1.49836 1.06278 0
M  V30 4727 C 448.907 0.983621 3.45782 0
M  V30 4728 C 448.571 2.41645 3.87888 0
M  V30 4729 C 449.568 3.39732 3.93545 0
M  V30 4730 C 447.253 2.75752 4.19841 0
M  V30 4731 C 449.247 4.69988 4.30569 0
M  V30 4732 C 446.934 4.06221 4.56539 0
M  V30 4733 C 447.932 5.0315 4.61876 0
M  V30 4734 O 447.62 6.31284 4.97731 0
M  V30 4735 H 447.352 0.265824 0.621541 0
M  V30 4736 H 449.906 1.3623 1.53722 0
M  V30 4737 H 448.136 0.290301 3.85609 0
M  V30 4738 H 449.825 0.683279 4.00108 0
M  V30 4739 H 450.591 3.14718 3.69022 0
M  V30 4740 H 446.47 2.00993 4.14877 0
M  V30 4741 H 450.014 5.45642 4.3465 0
M  V30 4742 H 445.911 4.31013 4.80518 0
M  V30 4743 H 446.679 6.35591 5.15719 0
M  V30 4744 N 449.342 -1.36122 0.79427 0
M  V30 4745 C 450.305 -2.28309 0.201889 0
M  V30 4746 C 451.305 -1.49041 -0.603603 0
M  V30 4747 O 452.495 -1.68964 -0.423888 0
M  V30 4748 C 449.627 -3.3321 -0.719978 0
M  V30 4749 H 450.82 -2.82208 1.01481 0
M  V30 4750 H 448.373 -1.45768 0.564037 0
M  V30 4751 H 449.108 -2.84475 -1.55706 0
M  V30 4752 H 448.893 -3.91835 -0.144266 0
M  V30 4753 H 450.383 -4.02044 -1.12916 0
M  V30 4754 N 450.82 -0.546701 -1.47814 0
M  V30 4755 C 452.069 -0.0166497 -2.01693 0
M  V30 4756 C 452.382 1.33721 -1.42752 0
M  V30 4757 O 453.588 1.95658 -1.8823 0
M  V30 4758 C 452.044 0.0206769 -3.59894 0
M  V30 4759 C 451.652 -1.3293 -4.27824 0
M  V30 4760 C 453.396 0.498674 -4.21561 0
M  V30 4761 C 451.303 -1.25165 -5.78003 0
M  V30 4762 H 450.233 -0.0024541 -0.753996 0
M  V30 4763 H 452.884 -0.692984 -1.69912 0
M  V30 4764 H 451.266 0.76244 -3.88591 0
M  V30 4765 H 452.44 -2.08795 -4.10781 0
M  V30 4766 H 450.755 -1.74438 -3.78101 0
M  V30 4767 H 453.352 0.575 -5.31599 0
M  V30 4768 H 453.695 1.5083 -3.88016 0
M  V30 4769 H 454.228 -0.18791 -3.97356 0
M  V30 4770 H 450.967 -2.23695 -6.1615 0
M  V30 4771 H 450.487 -0.53464 -5.97412 0
M  V30 4772 H 452.166 -0.949299 -6.39998 0
M  V30 4773 N 452.299 1.55045 -0.282633 0
M  V30 4774 C 453.576 1.9179 0.384166 0
M  V30 4775 C 453.956 1.20778 1.73136 0
M  V30 4776 O 453.304 0.33719 2.25998 0
M  V30 4777 C 453.514 3.45149 0.517014 0
M  V30 4778 C 454.862 4.17064 0.796427 0
M  V30 4779 O 455.886 3.51084 0.601535 0
M  V30 4780 O 454.745 5.33837 1.16962 0
M  V30 4781 H 451.839 0.799483 0.211558 0
M  V30 4782 H 454.385 1.66474 -0.32934 0
M  V30 4783 H 453.157 3.88922 -0.430772 0
M  V30 4784 H 452.78 3.76443 1.2797 0
M  V30 4785 N 453.777 0.010035 1.57597 0
M  V30 4786 C 454.74 -0.963029 2.07986 0
M  V30 4787 C 455.74 -1.26619 0.991173 0
M  V30 4788 O 456.93 -1.2097 1.25347 0
M  V30 4789 C 454.062 -2.2851 2.52974 0
M  V30 4790 H 455.255 -0.526971 2.95234 0
M  V30 4791 H 452.808 -0.237639 1.54483 0
M  V30 4792 H 453.543 -2.76784 1.69 0
M  V30 4793 H 453.328 -2.07824 3.32493 0
M  V30 4794 H 454.818 -2.98294 2.9225 0
M  V30 4795 N 455.255 -1.55392 -0.262866 0
M  V30 4796 C 456.503 -1.76127 -0.991147 0
M  V30 4797 C 456.824 -0.571083 -1.8645 0
M  V30 4798 O 456.094 0.413698 -1.91482 0
M  V30 4799 H 454.674 -0.649528 -0.368948 0
M  V30 4800 H 457.336 -1.9281 -0.284655 0
M  V30 4801 H 456.432 -2.6663 -1.62219 0
M  V30 4802 N 456.733 0.527833 -1.48498 0
M  V30 4803 C 457.68 1.6322 -1.6318 0
M  V30 4804 C 458.65 1.59199 -0.473815 0
M  V30 4805 O 459.835 1.77591 -0.697563 0
M  V30 4806 C 456.975 3.01474 -1.67951 0
M  V30 4807 C 456.088 3.15713 -2.94871 0
M  V30 4808 C 455.223 4.44539 -2.90789 0
M  V30 4809 C 454.262 4.52315 -4.12404 0
M  V30 4810 N 453.399 5.72533 -4.06387 0
M  V30 4811 H 458.239 1.50011 -2.57489 0
M  V30 4812 H 455.776 0.730298 -1.27691 0
M  V30 4813 H 457.734 3.81572 -1.68698 0
M  V30 4814 H 456.364 3.1345 -0.771306 0
M  V30 4815 H 455.416 2.28854 -3.03859 0
M  V30 4816 H 456.728 3.1732 -3.8485 0
M  V30 4817 H 455.882 5.3293 -2.89949 0
M  V30 4818 H 454.621 4.45457 -1.98542 0
M  V30 4819 H 453.626 3.62331 -4.13517 0
M  V30 4820 H 454.851 4.53134 -5.05812 0
M  V30 4821 H 452.797 5.74344 -3.16962 0
M  V30 4822 H 452.714 5.75643 -4.90073 0
M  V30 4823 H 453.982 6.63204 -4.0961 0
M  V30 4824 N 458.211 1.37122 0.776871 0
M  V30 4825 C 459.46 1.31373 1.53049 0
M  V30 4826 C 459.773 -0.101016 1.95339 0
M  V30 4827 O 460.979 -0.280953 2.70042 0
M  V30 4828 C 459.435 2.30567 2.76346 0
M  V30 4829 C 459.043 3.77543 2.41175 0
M  V30 4830 C 460.787 2.33818 3.54301 0
M  V30 4831 C 458.694 4.68481 3.60943 0
M  V30 4832 H 457.624 0.488234 0.574581 0
M  V30 4833 H 460.275 1.62554 0.851372 0
M  V30 4834 H 458.657 1.92396 3.46121 0
M  V30 4835 H 459.831 4.24521 1.79216 0
M  V30 4836 H 458.146 3.77187 1.76405 0
M  V30 4837 H 460.743 2.98965 4.4331 0
M  V30 4838 H 461.086 1.3503 3.93793 0
M  V30 4839 H 461.619 2.7067 2.91518 0
M  V30 4840 H 458.358 5.68378 3.26537 0
M  V30 4841 H 457.878 4.2621 4.22025 0
M  V30 4842 H 459.557 4.85366 4.27819 0
M  V30 4843 N 459.689 -1.00246 1.21608 0
M  V30 4844 C 460.914 -1.78167 1.06167 0
M  V30 4845 C 461.339 -1.84138 -0.384035 0
M  V30 4846 O 460.697 -1.28683 -1.27712 0
M  V30 4847 C 460.745 -3.19786 1.66642 0
M  V30 4848 O 459.849 -4.02153 0.913613 0
M  V30 4849 H 459.19 -0.549 0.37349 0
M  V30 4850 H 461.72 -1.25994 1.61204 0
M  V30 4851 H 461.73 -3.70451 1.70969 0
M  V30 4852 H 460.405 -3.14754 2.7185 0
M  V30 4853 H 458.982 -3.60711 0.945635 0
M  V30 4854 N 461.167 -1.02423 -1.1978 0
M  V30 4855 C 462.583 -0.740459 -1.41384 0
M  V30 4856 C 462.783 0.676827 -1.89793 0
M  V30 4857 O 461.839 1.4435 -2.0717 0
M  V30 4858 C 463.152 -1.77264 -2.42895 0
M  V30 4859 C 464.7 -1.79165 -2.56649 0
M  V30 4860 C 465.175 -2.8133 -3.6141 0
M  V30 4861 N 466.666 -2.80118 -3.68901 0
M  V30 4862 C 467.401 -3.55824 -4.49641 0
M  V30 4863 N 466.897 -4.41231 -5.34123 0
M  V30 4864 N 468.69 -3.44387 -4.44246 0
M  V30 4865 H 460.841 -1.9391 -0.866764 0
M  V30 4866 H 463.104 -0.838074 -0.443098 0
M  V30 4867 H 462.81 -2.7884 -2.14339 0
M  V30 4868 H 462.684 -1.59108 -3.42001 0
M  V30 4869 H 465.071 -0.782702 -2.84531 0
M  V30 4870 H 465.152 -2.01396 -1.57713 0
M  V30 4871 H 464.796 -3.82394 -3.34271 0
M  V30 4872 H 464.726 -2.56359 -4.59986 0
M  V30 4873 H 467.217 -2.1817 -3.08562 0
M  V30 4874 H 467.53 -4.95747 -5.92836 0
M  V30 4875 H 465.875 -4.45306 -5.33599 0
M  V30 4876 H 469.066 -2.7708 -3.77285 0
M  V30 4877 H 469.239 -4.0364 -5.06931 0
M  V30 4878 N 462.645 1.35699 -0.801477 0
M  V30 4879 C 463.555 2.33661 -0.209691 0
M  V30 4880 C 464.571 1.6162 0.644591 0
M  V30 4881 O 465.747 1.93529 0.557545 0
M  V30 4882 C 462.812 3.40816 0.636033 0
M  V30 4883 C 461.873 4.28639 -0.238147 0
M  V30 4884 C 461.106 5.30676 0.567307 0
M  V30 4885 O 461.329 5.41174 1.8024 0
M  V30 4886 O 460.263 6.01887 -0.0391336 0
M  V30 4887 H 464.089 2.8606 -1.01996 0
M  V30 4888 H 461.674 1.38379 -0.563164 0
M  V30 4889 H 463.556 4.06301 1.11791 0
M  V30 4890 H 462.231 2.90696 1.42399 0
M  V30 4891 H 461.138 3.66152 -0.767044 0
M  V30 4892 H 462.471 4.82143 -0.989915 0
M  V30 4893 N 464.123 0.554532 1.47522 0
M  V30 4894 C 465.053 -0.182974 2.32782 0
M  V30 4895 C 466.034 -0.911377 1.43624 0
M  V30 4896 O 467.219 -0.892366 1.72483 0
M  V30 4897 C 464.349 -1.21513 3.25349 0
M  V30 4898 C 463.303 -0.603355 4.23726 0
M  V30 4899 C 462.629 -1.73995 5.05598 0
M  V30 4900 C 463.929 0.441121 5.20434 0
M  V30 4901 H 465.623 0.52882 2.94693 0
M  V30 4902 H 463.169 0.255759 1.41711 0
M  V30 4903 H 465.122 -1.73922 3.83835 0
M  V30 4904 H 463.846 -1.95683 2.61487 0
M  V30 4905 H 462.505 -0.10059 3.66462 0
M  V30 4906 H 462.153 -2.47063 4.38143 0
M  V30 4907 H 461.853 -1.3364 5.72201 0
M  V30 4908 H 463.377 -2.26735 5.66942 0
M  V30 4909 H 464.791 0.00319931 5.733 0
M  V30 4910 H 463.188 0.763402 5.95224 0
M  V30 4911 H 464.258 1.33799 4.66075 0
M  V30 4912 N 465.601 -1.54893 0.290851 0
M  V30 4913 C 466.849 -1.99538 -0.320756 0
M  V30 4914 C 467.17 -1.18075 -1.55188 0
M  V30 4915 O 466.44 -0.274162 -1.93972 0
M  V30 4916 H 465.02 -0.737052 -0.121507 0
M  V30 4917 H 467.682 -1.90755 0.399832 0
M  V30 4918 H 466.778 -3.06282 -0.599802 0
M  V30 4919 N 467.08 -0.0183926 -1.57589 0
M  V30 4920 C 468.326 0.657813 -1.92469 0
M  V30 4921 C 468.681 1.70349 -0.894375 0
M  V30 4922 O 467.974 1.91384 0.0910389 0
M  V30 4923 C 468.168 1.32676 -3.31861 0
M  V30 4924 C 467.997 0.347403 -4.48356 0
M  V30 4925 C 466.767 -0.0488653 -5.05276 0
M  V30 4926 C 468.965 -0.393931 -5.12789 0
M  V30 4927 N 466.947 -1.02451 -6.05291 0
M  V30 4928 C 468.318 -1.22367 -6.07804 0
M  V30 4929 C 470.373 -0.455789 -4.95809 0
M  V30 4930 C 469.076 -2.10966 -6.87667 0
M  V30 4931 C 471.102 -1.32908 -5.76272 0
M  V30 4932 C 470.464 -2.14662 -6.70894 0
M  V30 4933 H 466.563 0.21335 -0.752334 0
M  V30 4934 H 469.147 -0.0830547 -1.94523 0
M  V30 4935 H 467.318 2.03782 -3.30647 0
M  V30 4936 H 469.05 1.95913 -3.54119 0
M  V30 4937 H 465.805 0.323356 -4.72495 0
M  V30 4938 H 466.229 -1.50826 -6.59985 0
M  V30 4939 H 470.871 0.162017 -4.22489 0
M  V30 4940 H 468.589 -2.73807 -7.603 0
M  V30 4941 H 472.175 -1.38109 -5.6517 0
M  V30 4942 H 471.055 -2.81143 -7.32071 0
M  V30 4943 N 468.558 1.5553 0.254621 0
M  V30 4944 C 469.505 1.89666 1.31512 0
M  V30 4945 C 470.475 0.750057 1.482 0
M  V30 4946 O 471.66 1.00301 1.62309 0
M  V30 4947 C 468.8 2.19009 2.667 0
M  V30 4948 C 467.913 3.46435 2.58083 0
M  V30 4949 C 467.048 3.65386 3.85573 0
M  V30 4950 C 466.087 4.8644 3.71541 0
M  V30 4951 N 465.224 5.01952 4.90906 0
M  V30 4952 H 470.064 2.80109 1.017 0
M  V30 4953 H 467.601 1.38666 0.490938 0
M  V30 4954 H 469.559 2.34025 3.45381 0
M  V30 4955 H 468.189 1.31779 2.94676 0
M  V30 4956 H 467.241 3.39792 1.71013 0
M  V30 4957 H 468.553 4.35258 2.43622 0
M  V30 4958 H 467.707 3.80319 4.72697 0
M  V30 4959 H 466.446 2.74781 4.02922 0
M  V30 4960 H 465.451 4.71491 2.82801 0
M  V30 4961 H 466.676 5.78497 3.55694 0
M  V30 4962 H 464.622 4.14283 5.08631 0
M  V30 4963 H 464.539 5.84851 4.79046 0
M  V30 4964 H 465.807 5.21289 5.7955 0
M  V30 4965 N 470.036 -0.519951 1.48776 0
M  V30 4966 C 471.447 -1.10177 1.50725 0
M  V30 4967 C 471.798 -1.94153 0.282678 0
M  V30 4968 O 470.923 -2.07645 -0.609298 0
M  V30 4969 C 471.518 -2.00482 2.73116 0
M  V30 4970 C 470.077 -2.53862 2.77905 0
M  V30 4971 C 469.224 -1.31047 2.44381 0
M  V30 4972 H 472.175 -0.30473 1.55747 0
M  V30 4973 H 472.196 -2.8491 2.52203 0
M  V30 4974 H 471.708 -1.39335 3.62225 0
M  V30 4975 H 469.809 -3.18702 1.93029 0
M  V30 4976 H 469.922 -2.9231 3.79594 0
M  V30 4977 H 468.286 -1.62953 1.95751 0
M  V30 4978 H 469.069 -0.71637 3.35743 0
M  V30 4979 N 471.514 -1.37532 -0.769588 0
M  V30 4980 C 472.444 -1.36172 -1.89682 0
M  V30 4981 C 473.425 -0.23001 -1.68538 0
M  V30 4982 O 474.61 -0.43069 -1.89364 0
M  V30 4983 C 471.74 -1.1701 -3.26995 0
M  V30 4984 C 470.694 -2.27216 -3.62708 0
M  V30 4985 C 470.02 -1.93174 -4.98586 0
M  V30 4986 C 471.32 -3.6941 -3.69234 0
M  V30 4987 H 473.014 -2.30499 -1.91078 0
M  V30 4988 H 470.56 -1.10953 -0.917902 0
M  V30 4989 H 472.513 -1.14688 -4.05493 0
M  V30 4990 H 471.237 -0.191395 -3.26039 0
M  V30 4991 H 469.896 -2.28697 -2.86519 0
M  V30 4992 H 469.544 -0.938281 -4.94171 0
M  V30 4993 H 469.244 -2.66973 -5.23449 0
M  V30 4994 H 470.768 -1.92443 -5.79481 0
M  V30 4995 H 472.182 -3.70047 -4.37879 0
M  V30 4996 H 470.579 -4.4228 -4.05597 0
M  V30 4997 H 471.649 -4.0288 -2.69844 0
M  V30 4998 N 472.992 0.995999 -1.22138 0
M  V30 4999 C 473.902 2.11985 -1.00496 0
M  V30 5000 C 474.918 1.7394 0.0457701 0
M  V30 5001 O 476.094 2.00868 -0.146273 0
M  V30 5002 C 473.159 3.41779 -0.582086 0
M  V30 5003 C 472.22 3.93943 -1.70608 0
M  V30 5004 C 471.453 5.17542 -1.30328 0
M  V30 5005 O 471.676 5.70114 -0.180743 0
M  V30 5006 O 470.61 5.63382 -2.11861 0
M  V30 5007 H 474.436 2.33123 -1.94647 0
M  V30 5008 H 472.021 1.10358 -1.00705 0
M  V30 5009 H 473.903 4.1989 -0.356467 0
M  V30 5010 H 472.578 3.22007 0.330592 0
M  V30 5011 H 471.485 3.17019 -1.98619 0
M  V30 5012 H 472.818 4.18141 -2.59651 0
M  V30 5013 N 474.47 1.03057 1.19235 0
M  V30 5014 C 475.698 0.747697 1.92917 0
M  V30 5015 C 476.113 -0.69372 1.75593 0
M  V30 5016 O 475.47 -1.47191 1.07894 0
M  V30 5017 C 475.521 1.09159 3.44625 0
M  V30 5018 O 475.242 2.47641 3.61394 0
M  V30 5019 C 476.743 0.831763 4.35427 0
M  V30 5020 H 473.963 0.273453 0.612751 0
M  V30 5021 H 476.507 1.37552 1.51327 0
M  V30 5022 H 474.662 0.508919 3.84043 0
M  V30 5023 H 475.076 2.60499 4.55237 0
M  V30 5024 H 476.55 1.12233 5.4047 0
M  V30 5025 H 477.027 -0.233769 4.38577 0
M  V30 5026 H 477.633 1.39725 4.01693 0
M  V30 5027 N 475.948 -1.35272 0.808662 0
M  V30 5028 C 477.195 -1.98709 0.390003 0
M  V30 5029 C 477.523 -1.64148 -1.04335 0
M  V30 5030 O 476.778 -0.897797 -1.73891 0
M  V30 5031 C 477.077 -3.53556 0.522798 0
M  V30 5032 C 476.743 -4.0799 1.91977 0
M  V30 5033 C 475.405 -4.22568 2.30195 0
M  V30 5034 C 477.757 -4.37442 2.83361 0
M  V30 5035 C 475.085 -4.63918 3.59162 0
M  V30 5036 C 477.437 -4.80232 4.11776 0
M  V30 5037 C 476.101 -4.93016 4.49991 0
M  V30 5038 H 475.371 -0.727127 0.142712 0
M  V30 5039 H 478.018 -1.6145 1.02985 0
M  V30 5040 H 476.323 -3.91287 -0.200494 0
M  V30 5041 H 478.02 -4.00598 0.179608 0
M  V30 5042 H 474.61 -3.97096 1.61284 0
M  V30 5043 H 478.794 -4.25731 2.55083 0
M  V30 5044 H 474.05 -4.72005 3.88615 0
M  V30 5045 H 478.224 -5.01982 4.82687 0
M  V30 5046 H 475.851 -5.24814 5.49976 0
M  V30 5047 N 477.426 -0.562348 -1.47226 0
M  V30 5048 C 478.336 0.185466 -2.33866 0
M  V30 5049 C 479.352 0.906713 -1.48508 0
M  V30 5050 O 480.528 0.874458 -1.81425 0
M  V30 5051 C 477.593 1.19904 -3.25306 0
M  V30 5052 C 476.654 0.484669 -4.26555 0
M  V30 5053 C 475.887 1.44996 -5.13626 0
M  V30 5054 O 476.11 2.68515 -5.03245 0
M  V30 5055 O 475.044 0.971642 -5.94006 0
M  V30 5056 H 478.87 -0.525361 -2.99121 0
M  V30 5057 H 476.455 -0.322916 -1.45868 0
M  V30 5058 H 478.337 1.78399 -3.81774 0
M  V30 5059 H 477.012 1.8917 -2.62672 0
M  V30 5060 H 475.919 -0.141605 -3.73832 0
M  V30 5061 H 477.252 -0.166634 -4.91918 0
M  V30 5062 N 478.904 1.54736 -0.299062 0
M  V30 5063 C 480.129 2.04975 0.316254 0
M  V30 5064 C 480.554 1.17501 1.46885 0
M  V30 5065 O 479.912 0.178678 1.80417 0
M  V30 5066 C 479.96 3.52672 0.751997 0
M  V30 5067 O 479.064 3.68226 1.85697 0
M  V30 5068 H 478.405 0.661126 0.0617175 0
M  V30 5069 H 480.935 1.99805 -0.440341 0
M  V30 5070 H 480.945 3.94488 1.04133 0
M  V30 5071 H 479.62 4.158 -0.0911482 0
M  V30 5072 H 478.197 3.38316 1.56834 0
M  V30 5073 N 480.382 0.0267497 1.57577 0
M  V30 5074 C 481.63 -0.651116 1.91324 0
M  V30 5075 C 481.951 -1.72804 0.90353 0
M  V30 5076 O 481.221 -1.95822 -0.0552946 0
M  V30 5077 H 479.801 -0.243491 0.706202 0
M  V30 5078 H 482.463 0.0739935 1.94759 0
M  V30 5079 H 481.559 -1.10536 2.9187 0
M  V30 5080 N 481.861 -1.55662 -0.24637 0
M  V30 5081 C 483.11 -1.7672 -0.972254 0
M  V30 5082 C 483.423 -0.59078 -1.86465 0
M  V30 5083 O 484.629 -0.684391 -2.62732 0
M  V30 5084 C 483.085 -3.12869 -1.7788 0
M  V30 5085 C 482.693 -4.38161 -0.933768 0
M  V30 5086 C 484.437 -3.43265 -2.49738 0
M  V30 5087 C 482.344 -5.6534 -1.73623 0
M  V30 5088 H 481.274 -0.658795 -0.366749 0
M  V30 5089 H 483.925 -1.82092 -0.226902 0
M  V30 5090 H 482.307 -3.01606 -2.56612 0
M  V30 5091 H 483.481 -4.60413 -0.188736 0
M  V30 5092 H 481.796 -4.15102 -0.328488 0
M  V30 5093 H 484.393 -4.35501 -3.10231 0
M  V30 5094 H 484.736 -2.64614 -3.2138 0
M  V30 5095 H 485.269 -3.55746 -1.78016 0
M  V30 5096 H 482.008 -6.46814 -1.06354 0
M  V30 5097 H 481.528 -5.47188 -2.45653 0
M  V30 5098 H 483.207 -6.04616 -2.30323 0
M  V30 5099 N 483.339 0.512053 -1.4905 0
M  V30 5100 C 484.755 0.84224 -1.35567 0
M  V30 5101 C 484.955 1.97878 -0.380319 0
M  V30 5102 O 484.011 2.51769 0.19201 0
M  V30 5103 C 485.324 1.19286 -2.76028 0
M  V30 5104 C 486.872 1.30171 -2.84648 0
M  V30 5105 C 487.347 1.68568 -4.25851 0
M  V30 5106 N 488.838 1.75638 -4.28609 0
M  V30 5107 C 489.573 2.06769 -5.34821 0
M  V30 5108 N 489.069 2.36201 -6.51292 0
M  V30 5109 N 490.862 2.07927 -5.22229 0
M  V30 5110 H 483.013 -0.237574 -2.11067 0
M  V30 5111 H 485.276 -0.0436747 -0.946993 0
M  V30 5112 H 484.982 0.431199 -3.49047 0
M  V30 5113 H 484.856 2.13889 -3.10695 0
M  V30 5114 H 487.243 2.05411 -2.11873 0
M  V30 5115 H 487.324 0.336457 -2.53578 0
M  V30 5116 H 486.968 0.938824 -4.99148 0
M  V30 5117 H 486.898 2.66174 -4.54377 0
M  V30 5118 H 489.389 1.55097 -3.44606 0
M  V30 5119 H 489.702 2.59112 -7.28066 0
M  V30 5120 H 488.047 2.33681 -6.54536 0
M  V30 5121 H 491.238 1.84403 -4.30248 0
M  V30 5122 H 491.411 2.31856 -6.05101 0
M  V30 5123 N 484.817 1.37938 0.762283 0
M  V30 5124 C 485.764 1.34467 1.87583 0
M  V30 5125 C 486.734 0.208633 1.64785 0
M  V30 5126 O 487.919 0.399494 1.86571 0
M  V30 5127 C 485.059 1.16692 3.24772 0
M  V30 5128 C 484.172 2.39608 3.59461 0
M  V30 5129 C 483.307 2.14631 4.85908 0
M  V30 5130 C 482.346 3.33364 5.13357 0
M  V30 5131 N 481.483 3.07877 6.30996 0
M  V30 5132 H 486.323 2.29669 1.89885 0
M  V30 5133 H 483.86 1.14116 0.928219 0
M  V30 5134 H 485.818 1.04405 4.03925 0
M  V30 5135 H 484.448 0.251333 3.2182 0
M  V30 5136 H 483.5 2.626 2.75219 0
M  V30 5137 H 484.812 3.28128 3.75678 0
M  V30 5138 H 483.966 1.99429 5.72986 0
M  V30 5139 H 482.705 1.23463 4.71814 0
M  V30 5140 H 481.71 3.49094 4.24751 0
M  V30 5141 H 482.935 4.25395 5.29354 0
M  V30 5142 H 480.881 2.19348 6.18241 0
M  V30 5143 H 480.798 3.89944 6.47673 0
M  V30 5144 H 482.066 2.96313 7.20985 0
M  V30 5145 N 486.295 -0.989507 1.22664 0
M  V30 5146 C 487.523 -1.76496 1.07967 0
M  V30 5147 C 487.938 -1.85148 -0.369543 0
M  V30 5148 O 487.295 -1.32408 -1.25596 0
M  V30 5149 C 487.346 -3.19642 1.68853 0
M  V30 5150 O 487.067 -3.11453 3.08105 0
M  V30 5151 C 488.568 -4.13621 1.59475 0
M  V30 5152 H 485.788 -0.55418 0.378319 0
M  V30 5153 H 488.332 -1.24378 1.62328 0
M  V30 5154 H 486.487 -3.68816 1.18547 0
M  V30 5155 H 486.901 -4.01499 3.37489 0
M  V30 5156 H 488.375 -5.11801 2.06795 0
M  V30 5157 H 488.852 -4.35718 0.55191 0
M  V30 5158 H 489.458 -3.70346 2.09103 0
M  V30 5159 N 487.773 -1.03688 -1.18687 0
M  V30 5160 C 489.019 -0.739123 -1.88851 0
M  V30 5161 C 489.352 0.731042 -1.79915 0
M  V30 5162 O 488.627 1.53313 -1.19688 0
M  V30 5163 C 488.91 -1.20106 -3.3948 0
M  V30 5164 C 488.763 -2.73304 -3.57246 0
M  V30 5165 C 490.082 -0.788134 -4.32986 0
M  V30 5166 H 487.201 -0.269978 -0.68577 0
M  V30 5167 H 489.843 -1.28822 -1.3966 0
M  V30 5168 H 487.993 -0.733915 -3.81505 0
M  V30 5169 H 489.665 -3.28027 -3.24339 0
M  V30 5170 H 487.908 -3.13313 -3.00029 0
M  V30 5171 H 488.579 -3.00684 -4.62918 0
M  V30 5172 H 491.055 -1.19005 -3.98719 0
M  V30 5173 H 489.931 -1.13915 -5.36949 0
M  V30 5174 H 490.192 0.308988 -4.41019 0
M  V30 5175 N 489.251 1.34841 -0.815825 0
M  V30 5176 C 490.161 2.33425 -0.234462 0
M  V30 5177 C 491.177 1.62295 0.627413 0
M  V30 5178 O 492.353 1.94109 0.536987 0
M  V30 5179 C 489.418 3.41471 0.599849 0
M  V30 5180 C 488.479 4.28362 -0.283596 0
M  V30 5181 C 487.712 5.31248 0.51099 0
M  V30 5182 O 487.935 5.43056 1.7449 0
M  V30 5183 O 486.869 6.01812 -0.10297 0
M  V30 5184 H 490.695 2.84962 -1.05024 0
M  V30 5185 H 488.28 1.37774 -0.577809 0
M  V30 5186 H 490.162 4.07464 1.07475 0
M  V30 5187 H 488.837 2.9219 1.39308 0
M  V30 5188 H 487.744 3.65318 -0.805836 0
M  V30 5189 H 489.077 4.81066 -1.041 0
M  V30 5190 N 490.729 0.570148 1.46925 0
M  V30 5191 C 491.975 0.0593124 2.03314 0
M  V30 5192 C 492.33 -1.28139 1.43521 0
M  V30 5193 O 491.623 -1.82411 0.586245 0
M  V30 5194 C 491.817 -0.0780336 3.57315 0
M  V30 5195 C 491.646 1.2478 4.32042 0
M  V30 5196 C 490.416 1.81859 4.7144 0
M  V30 5197 C 492.614 2.16808 4.66368 0
M  V30 5198 N 490.596 3.08313 5.30864 0
M  V30 5199 C 491.967 3.27845 5.2623 0
M  V30 5200 C 494.022 2.16643 4.48297 0
M  V30 5201 C 492.725 4.38832 5.69929 0
M  V30 5202 C 494.751 3.26652 4.93004 0
M  V30 5203 C 494.113 4.36408 5.52926 0
M  V30 5204 H 490.212 0.0641804 0.779362 0
M  V30 5205 H 492.796 0.760285 1.79242 0
M  V30 5206 H 490.967 -0.748151 3.81126 0
M  V30 5207 H 492.699 -0.59211 4.00345 0
M  V30 5208 H 489.454 1.35502 4.53802 0
M  V30 5209 H 489.878 3.72802 5.65108 0
M  V30 5210 H 494.52 1.33065 4.01315 0
M  V30 5211 H 492.238 5.23162 6.15896 0
M  V30 5212 H 495.824 3.27627 4.80782 0
M  V30 5213 H 494.704 5.20127 5.86888 0
M  V30 5214 N 492.207 -1.54576 0.307264 0
M  V30 5215 C 493.437 -2.04378 -0.302158 0
M  V30 5216 C 493.845 -1.18381 -1.47589 0
M  V30 5217 O 493.188 -0.20352 -1.82569 0
M  V30 5218 C 493.25 -3.50133 -0.815305 0
M  V30 5219 C 492.914 -4.56401 0.233977 0
M  V30 5220 C 493.911 -5.08884 1.06456 0
M  V30 5221 C 491.596 -5.0088 0.377478 0
M  V30 5222 C 493.59 -6.04394 2.02452 0
M  V30 5223 C 491.277 -5.96208 1.34088 0
M  V30 5224 C 492.275 -6.47849 2.16288 0
M  V30 5225 O 491.963 -7.41308 3.10994 0
M  V30 5226 H 491.695 -0.672502 -0.0686839 0
M  V30 5227 H 494.249 -2.00484 0.446682 0
M  V30 5228 H 492.479 -3.51371 -1.61478 0
M  V30 5229 H 494.168 -3.83098 -1.34129 0
M  V30 5230 H 494.934 -4.75311 0.964596 0
M  V30 5231 H 490.813 -4.60309 -0.252405 0
M  V30 5232 H 494.357 -6.44626 2.66652 0
M  V30 5233 H 490.254 -6.29198 1.44154 0
M  V30 5234 H 491.022 -7.5913 3.06045 0
M  V30 5235 N 493.685 -0.035106 -1.57561 0
M  V30 5236 C 494.615 0.942993 -2.13612 0
M  V30 5237 C 495.596 1.33531 -1.05373 0
M  V30 5238 O 496.781 1.41287 -1.33235 0
M  V30 5239 C 493.911 2.22332 -2.66807 0
M  V30 5240 C 492.865 1.97156 -3.79886 0
M  V30 5241 C 492.191 3.31506 -4.19533 0
M  V30 5242 C 493.491 1.30596 -5.05709 0
M  V30 5243 H 495.185 0.476179 -2.95589 0
M  V30 5244 H 492.731 0.227602 -1.4219 0
M  V30 5245 H 494.684 2.91142 -3.04654 0
M  V30 5246 H 493.408 2.7119 -1.81999 0
M  V30 5247 H 492.067 1.30763 -3.42486 0
M  V30 5248 H 491.715 3.78134 -3.31698 0
M  V30 5249 H 491.415 3.15465 -4.95738 0
M  V30 5250 H 492.939 4.01574 -4.59968 0
M  V30 5251 H 494.353 1.89416 -5.41105 0
M  V30 5252 H 492.75 1.24934 -5.86951 0
M  V30 5253 H 493.82 0.279742 -4.84092 0
M  V30 5254 N 495.163 1.55791 0.238111 0
M  V30 5255 C 496.126 1.90239 1.27835 0
M  V30 5256 C 497.126 0.779552 1.4064 0
M  V30 5257 O 498.316 1.04747 1.3919 0
M  V30 5258 C 495.448 2.13859 2.65475 0
M  V30 5259 H 496.641 2.83262 0.985034 0
M  V30 5260 H 494.194 1.48818 0.477799 0
M  V30 5261 H 494.929 1.23334 2.99932 0
M  V30 5262 H 494.714 2.95643 2.57561 0
M  V30 5263 H 496.204 2.41664 3.40571 0
M  V30 5264 N 496.642 -0.504142 1.49319 0
M  V30 5265 C 497.59 -1.62689 1.66238 0
M  V30 5266 C 498.584 -1.6095 0.528349 0
M  V30 5267 O 499.79 -1.65496 0.707887 0
M  V30 5268 H 496.165 -0.539247 0.524134 0
M  V30 5269 H 498.136 -1.45571 2.60484 0
M  V30 5270 C 496.885 -3.00841 1.74328 0
M  V30 5271 H 496.208 -3.02884 2.60963 0
M  V30 5272 H 497.648 -3.78945 1.90202 0
M  V30 5273 C 496.107 -3.33355 0.487416 0
M  V30 5274 O 496.637 -3.99819 -0.388294 0
M  V30 5275 N 494.843 -2.88469 0.351306 0
M  V30 5276 H 494.39 -2.34557 1.06492 0
M  V30 5277 H 494.348 -3.10591 -0.487899 0
M  V30 5278 N 498.12 -1.38341 -0.754957 0
M  V30 5279 C 499.348 -1.37704 -1.54419 0
M  V30 5280 C 499.763 0.0335243 -1.8877 0
M  V30 5281 O 499.12 0.999773 -1.52679 0
M  V30 5282 C 499.171 -2.23136 -2.84416 0
M  V30 5283 O 498.892 -3.58697 -2.51531 0
M  V30 5284 C 500.393 -2.30664 -3.78562 0
M  V30 5285 H 497.613 -0.471061 -0.477852 0
M  V30 5286 H 500.157 -1.81902 -0.934446 0
M  V30 5287 H 498.312 -1.82403 -3.41772 0
M  V30 5288 H 498.726 -4.03665 -3.34896 0
M  V30 5289 H 500.2 -2.9473 -4.66732 0
M  V30 5290 H 500.677 -1.3199 -4.18898 0
M  V30 5291 H 501.283 -2.71781 -3.27131 0
M  V30 5292 N 499.598 0.982988 -1.23187 0
M  V30 5293 C 500.53 2.07729 -0.968572 0
M  V30 5294 C 501.543 1.62702 0.0564821 0
M  V30 5295 O 502.732 1.77603 -0.178733 0
M  V30 5296 C 499.832 3.36071 -0.436974 0
M  V30 5297 C 499.005 4.10081 -1.52159 0
M  V30 5298 C 498.064 5.16701 -0.99532 0
M  V30 5299 O 497.09 5.43727 -1.68373 0
M  V30 5300 N 498.292 5.80226 0.178192 0
M  V30 5301 H 501.057 2.30894 -1.9107 0
M  V30 5302 H 498.618 1.14949 -1.1401 0
M  V30 5303 H 500.61 4.04639 -0.0700051 0
M  V30 5304 H 499.18 3.09893 0.410509 0
M  V30 5305 H 498.4 3.36004 -2.06144 0
M  V30 5306 H 499.688 4.56295 -2.25105 0
M  V30 5307 H 499.086 5.60651 0.754096 0
M  V30 5308 H 497.643 6.49982 0.486449 0
M  V30 5309 N 501.076 1.04316 1.18135 0
M  V30 5310 C 502.322 0.758899 1.88712 0
M  V30 5311 C 502.677 -0.705863 1.78984 0
M  V30 5312 O 501.97 -1.50874 1.18101 0
M  V30 5313 C 502.164 1.16271 3.37958 0
M  V30 5314 C 501.993 2.66518 3.62213 0
M  V30 5315 C 500.763 3.33702 3.79436 0
M  V30 5316 C 502.961 3.64739 3.62588 0
M  V30 5317 N 500.943 4.72904 3.91452 0
M  V30 5318 C 502.314 4.89627 3.80348 0
M  V30 5319 C 504.369 3.58333 3.4569 0
M  V30 5320 C 503.072 6.08879 3.8296 0
M  V30 5321 C 505.098 4.77016 3.49586 0
M  V30 5322 C 504.46 6.00724 3.67845 0
M  V30 5323 H 500.559 0.329795 0.709055 0
M  V30 5324 H 503.143 1.33334 1.4188 0
M  V30 5325 H 501.314 0.616319 3.83479 0
M  V30 5326 H 503.046 0.829205 3.96114 0
M  V30 5327 H 499.801 2.84105 3.78921 0
M  V30 5328 H 500.225 5.45258 4.01277 0
M  V30 5329 H 504.867 2.63663 3.30517 0
M  V30 5330 H 502.585 7.03903 3.96921 0
M  V30 5331 H 506.171 4.73703 3.37782 0
M  V30 5332 H 505.051 6.91022 3.70753 0
M  V30 5333 N 502.554 -1.34406 0.822964 0
M  V30 5334 C 503.8 -1.98578 0.411666 0
M  V30 5335 C 504.133 -1.65093 -1.02264 0
M  V30 5336 O 503.408 -0.92258 -1.71227 0
M  V30 5337 C 503.691 -3.54823 0.614235 0
M  V30 5338 C 503.544 -3.9805 2.09466 0
M  V30 5339 C 504.863 -4.40071 0.050221 0
M  V30 5340 H 501.982 -0.721355 0.151047 0
M  V30 5341 H 504.624 -1.59301 1.03554 0
M  V30 5342 H 502.774 -3.88411 0.0831774 0
M  V30 5343 H 504.446 -3.74795 2.68936 0
M  V30 5344 H 502.689 -3.4836 2.5851 0
M  V30 5345 H 503.36 -5.06819 2.18721 0
M  V30 5346 H 505.836 -4.13037 0.503953 0
M  V30 5347 H 504.712 -5.48452 0.221759 0
M  V30 5348 H 504.973 -4.29576 -1.04482 0
M  V30 5349 N 504.032 -0.577932 -1.46621 0
M  V30 5350 C 504.98 0.170882 -2.31971 0
M  V30 5351 C 505.974 0.889086 -1.44193 0
M  V30 5352 O 507.18 0.808017 -1.60845 0
M  V30 5353 H 503.555 0.0739763 -0.748353 0
M  V30 5354 H 505.526 -0.567856 -2.92947 0
M  V30 5355 C 504.275 1.17438 -3.27267 0
M  V30 5356 H 503.598 0.63116 -3.94787 0
M  V30 5357 H 505.038 1.66882 -3.89778 0
M  V30 5358 C 503.497 2.23292 -2.52274 0
M  V30 5359 O 504.027 3.30567 -2.28229 0
M  V30 5360 N 502.233 1.97772 -2.12919 0
M  V30 5361 H 501.78 1.10545 -2.32675 0
M  V30 5362 H 501.738 2.68809 -1.63062 0
M  V30 5363 N 505.51 1.54411 -0.315457 0
M  V30 5364 C 506.458 2.25514 0.569771 0
M  V30 5365 C 507.452 1.2663 1.12522 0
M  V30 5366 O 508.658 1.44434 1.07419 0
M  V30 5367 H 505.033 0.724257 0.202376 0
M  V30 5368 H 507.004 2.98354 -0.0522895 0
M  V30 5369 C 505.753 3.02004 1.72305 0
M  V30 5370 H 505.076 3.77906 1.30488 0
M  V30 5371 H 506.516 3.55014 2.31821 0
M  V30 5372 C 504.975 2.09822 2.63583 0
M  V30 5373 O 505.505 1.67574 3.65078 0
M  V30 5374 N 503.711 1.75478 2.31637 0
M  V30 5375 H 503.258 2.10032 1.49145 0
M  V30 5376 H 503.216 1.14079 2.92973 0
M  V30 5377 N 506.988 0.0434614 1.5754 0
M  V30 5378 C 508.234 -0.632971 1.92669 0
M  V30 5379 C 508.567 -1.70947 0.921446 0
M  V30 5380 O 507.842 -1.94426 -0.0537202 0
M  V30 5381 C 508.125 -1.23619 3.38216 0
M  V30 5382 C 507.978 -0.168274 4.49485 0
M  V30 5383 C 509.297 -2.15008 3.84005 0
M  V30 5384 H 506.416 -0.228629 0.700641 0
M  V30 5385 H 509.058 0.103651 1.89717 0
M  V30 5386 H 507.208 -1.864 3.40863 0
M  V30 5387 H 508.88 0.463196 4.58969 0
M  V30 5388 H 507.123 0.504581 4.30855 0
M  V30 5389 H 507.794 -0.630218 5.48391 0
M  V30 5390 H 510.27 -1.62198 3.83185 0
M  V30 5391 H 509.146 -2.54161 4.86511 0
M  V30 5392 H 509.407 -3.04707 3.20322 0
M  V30 5393 N 508.466 -1.55915 -0.229846 0
M  V30 5394 C 509.413 -1.91734 -1.28478 0
M  V30 5395 C 510.383 -0.773539 -1.46988 0
M  V30 5396 O 511.568 -1.02871 -1.60693 0
M  V30 5397 C 508.708 -2.23224 -2.63182 0
M  V30 5398 C 507.821 -3.50497 -2.52539 0
M  V30 5399 C 506.956 -3.71474 -3.79711 0
M  V30 5400 C 505.995 -4.92289 -3.63755 0
M  V30 5401 N 505.132 -5.09698 -4.82858 0
M  V30 5402 H 509.972 -2.81692 -0.972308 0
M  V30 5403 H 507.509 -1.39429 -0.468815 0
M  V30 5404 H 509.467 -2.3949 -3.41614 0
M  V30 5405 H 508.097 -1.36451 -2.92542 0
M  V30 5406 H 507.149 -3.4247 -1.65585 0
M  V30 5407 H 508.461 -4.39079 -2.36666 0
M  V30 5408 H 507.615 -3.87791 -4.66586 0
M  V30 5409 H 506.354 -2.81157 -3.985 0
M  V30 5410 H 505.359 -4.7593 -2.75264 0
M  V30 5411 H 506.584 -5.84083 -3.46445 0
M  V30 5412 H 504.53 -4.22322 -5.01976 0
M  V30 5413 H 504.447 -5.92399 -4.69681 0
M  V30 5414 H 505.715 -5.30443 -5.71183 0
M  V30 5415 N 509.944 0.496216 -1.49584 0
M  V30 5416 C 511.169 1.27865 -1.63295 0
M  V30 5417 C 511.594 1.85592 -0.306156 0
M  V30 5418 O 510.952 1.66092 0.726851 0
M  V30 5419 C 511 2.38128 -2.7079 0
M  V30 5420 O 510.104 3.42108 -2.30296 0
M  V30 5421 H 509.445 0.377279 -0.546403 0
M  V30 5422 H 511.975 0.593497 -1.95803 0
M  V30 5423 H 511.985 2.8382 -2.93104 0
M  V30 5424 H 510.66 1.95479 -3.67098 0
M  V30 5425 H 509.237 3.02301 -2.18331 0
M  V30 5426 N 511.423 1.38739 0.74761 0
M  V30 5427 C 512.671 1.35007 1.50391 0
M  V30 5428 C 512.992 -0.0574274 1.94915 0
M  V30 5429 O 512.262 -1.00628 1.6808 0
M  V30 5430 H 510.842 0.496784 0.557866 0
M  V30 5431 H 513.504 1.73479 0.888319 0
M  V30 5432 H 512.6 2.00474 2.392 0
M  V30 5433 N 512.901 -0.976442 1.23707 0
M  V30 5434 C 513.864 -2.0511 1.02287 0
M  V30 5435 C 514.864 -1.60791 -0.0167195 0
M  V30 5436 O 516.054 -1.72761 0.223408 0
M  V30 5437 C 513.186 -3.36458 0.548507 0
M  V30 5438 H 514.379 -2.25545 1.9766 0
M  V30 5439 H 511.932 -1.15042 1.05806 0
M  V30 5440 H 512.667 -3.21713 -0.408818 0
M  V30 5441 H 512.452 -3.69967 1.29874 0
M  V30 5442 H 513.942 -4.15489 0.419406 0
M  V30 5443 N 514.379 -1.04941 -1.1758 0
M  V30 5444 C 515.609 -0.777166 -1.91425 0
M  V30 5445 C 516.017 0.670647 -1.76915 0
M  V30 5446 O 515.36 1.46965 -1.10213 0
M  V30 5447 C 515.422 -1.07495 -3.43052 0
M  V30 5448 C 515.086 -2.51844 -3.81345 0
M  V30 5449 C 516.083 -3.50047 -3.844 0
M  V30 5450 C 513.768 -2.86787 -4.12382 0
M  V30 5451 C 515.762 -4.81239 -4.17957 0
M  V30 5452 C 513.449 -4.18182 -4.45608 0
M  V30 5453 C 514.447 -5.15219 -4.48373 0
M  V30 5454 O 514.135 -6.44258 -4.80819 0
M  V30 5455 H 513.867 -0.282209 -0.614275 0
M  V30 5456 H 516.421 -1.40258 -1.50056 0
M  V30 5457 H 514.651 -0.392437 -3.84704 0
M  V30 5458 H 516.34 -0.78912 -3.98155 0
M  V30 5459 H 517.106 -3.24391 -3.60548 0
M  V30 5460 H 512.985 -2.11922 -4.09402 0
M  V30 5461 H 516.529 -5.56974 -4.2003 0
M  V30 5462 H 512.426 -4.43602 -4.68922 0
M  V30 5463 H 513.194 -6.49041 -4.98686 0
M  V30 5464 N 515.857 1.33968 -0.830081 0
M  V30 5465 C 516.789 2.28194 -0.21448 0
M  V30 5466 C 517.802 1.5135 0.599752 0
M  V30 5467 O 518.991 1.73286 0.42826 0
M  V30 5468 C 516.091 3.31221 0.717356 0
M  V30 5469 C 515.264 4.37365 -0.055613 0
M  V30 5470 C 514.323 5.2011 0.798231 0
M  V30 5471 O 513.349 5.68691 0.240616 0
M  V30 5472 N 514.551 5.40523 2.11695 0
M  V30 5473 H 517.316 2.81662 -1.02405 0
M  V30 5474 H 514.877 1.46568 -0.687713 0
M  V30 5475 H 516.869 3.83477 1.29334 0
M  V30 5476 H 515.439 2.78095 1.42765 0
M  V30 5477 H 514.659 3.85727 -0.812936 0
M  V30 5478 H 515.947 5.05397 -0.587444 0
M  V30 5479 H 515.345 5.0274 2.59363 0
M  V30 5480 H 513.902 5.95871 2.64162 0
M  V30 5481 N 517.335 0.585699 1.46312 0
M  V30 5482 C 518.56 0.0762461 2.0726 0
M  V30 5483 C 518.985 -1.22071 1.43109 0
M  V30 5484 O 518.343 -1.73804 0.515942 0
M  V30 5485 C 518.391 -0.0729404 3.60526 0
M  V30 5486 O 517.495 -1.1287 3.96654 0
M  V30 5487 H 516.836 0.0641558 0.660893 0
M  V30 5488 H 519.366 0.809492 1.87905 0
M  V30 5489 H 519.376 -0.278158 4.07051 0
M  V30 5490 H 518.051 0.874188 4.06609 0
M  V30 5491 H 516.628 -0.901703 3.61834 0
M  V30 5492 N 518.813 -1.54241 0.323641 0
M  V30 5493 C 520.059 -2.01572 -0.272089 0
M  V30 5494 C 520.414 -1.20774 -1.49771 0
M  V30 5495 O 519.707 -0.281821 -1.89516 0
M  V30 5496 C 519.901 -3.5129 -0.658031 0
M  V30 5497 C 519.73 -4.46582 0.528645 0
M  V30 5498 C 518.5 -4.94737 1.02777 0
M  V30 5499 C 520.698 -4.95416 1.38086 0
M  V30 5500 N 518.68 -5.73933 2.17885 0
M  V30 5501 C 520.051 -5.72537 2.3791 0
M  V30 5502 C 522.106 -4.77559 1.40861 0
M  V30 5503 C 520.809 -6.33702 3.40314 0
M  V30 5504 C 522.835 -5.39559 2.42136 0
M  V30 5505 C 522.197 -6.16532 3.40688 0
M  V30 5506 H 518.296 -0.779425 -0.0634072 0
M  V30 5507 H 520.88 -1.8922 0.458697 0
M  V30 5508 H 519.051 -3.63888 -1.35795 0
M  V30 5509 H 520.783 -3.85388 -1.23524 0
M  V30 5510 H 517.538 -4.69796 0.599046 0
M  V30 5511 H 517.962 -6.18209 2.75947 0
M  V30 5512 H 522.604 -4.17611 0.660352 0
M  V30 5513 H 520.322 -6.9277 4.16047 0
M  V30 5514 H 523.908 -5.27659 2.45086 0
M  V30 5515 H 522.788 -6.63655 4.1777 0
M  V30 5516 N 520.291 -0.0518155 -1.57515 0
M  V30 5517 C 521.54 0.621286 -1.91893 0
M  V30 5518 C 521.853 1.71966 -0.932052 0
M  V30 5519 O 523.059 2.45096 -1.16791 0
M  V30 5520 C 521.515 1.15641 -3.40816 0
M  V30 5521 C 521.123 0.0901146 -4.47909 0
M  V30 5522 C 522.867 1.80472 -3.84227 0
M  V30 5523 C 520.774 0.638154 -5.87947 0
M  V30 5524 H 519.704 0.235835 -0.716169 0
M  V30 5525 H 522.355 -0.120809 -1.83102 0
M  V30 5526 H 520.737 1.95084 -3.44613 0
M  V30 5527 H 521.911 -0.683525 -4.55702 0
M  V30 5528 H 520.226 -0.460774 -4.13843 0
M  V30 5529 H 522.823 2.22471 -4.86221 0
M  V30 5530 H 523.166 2.65669 -3.20508 0
M  V30 5531 H 523.699 1.07683 -3.82948 0
M  V30 5532 H 520.438 -0.176202 -6.55263 0
M  V30 5533 H 519.958 1.37976 -5.83714 0
M  V30 5534 H 521.637 1.12085 -6.37217 0
M  V30 5535 N 521.769 1.56035 0.221574 0
M  V30 5536 C 522.679 1.95581 1.29558 0
M  V30 5537 C 523.695 0.859639 1.51282 0
M  V30 5538 O 524.871 1.16321 1.64413 0
M  V30 5539 C 521.936 2.26447 2.62531 0
M  V30 5540 C 520.997 3.49632 2.4911 0
M  V30 5541 C 520.23 3.79017 3.75742 0
M  V30 5542 O 520.453 3.10077 4.78757 0
M  V30 5543 O 519.387 4.72507 3.72855 0
M  V30 5544 H 523.213 2.8711 0.990035 0
M  V30 5545 H 520.798 1.43244 0.424434 0
M  V30 5546 H 522.68 2.47494 3.41064 0
M  V30 5547 H 521.355 1.38092 2.92766 0
M  V30 5548 H 520.262 3.33864 1.68777 0
M  V30 5549 H 521.595 4.3837 2.23814 0
M  V30 5550 N 523.247 -0.488276 1.49845 0
M  V30 5551 C 524.179 -1.60539 1.63584 0
M  V30 5552 C 525.192 -1.5434 0.517972 0
M  V30 5553 O 526.381 -1.60041 0.790516 0
M  V30 5554 C 523.481 -2.99374 1.58835 0
M  V30 5555 C 522.654 -3.30624 2.86368 0
M  V30 5556 C 521.713 -4.4893 2.74496 0
M  V30 5557 O 520.739 -4.50085 3.48443 0
M  V30 5558 N 521.941 -5.49591 1.86894 0
M  V30 5559 H 524.706 -1.49176 2.59936 0
M  V30 5560 H 522.267 -0.67639 1.47094 0
M  V30 5561 H 524.259 -3.76459 1.48529 0
M  V30 5562 H 522.829 -3.04595 0.702892 0
M  V30 5563 H 522.049 -2.42314 3.1093 0
M  V30 5564 H 523.337 -3.48305 3.70892 0
M  V30 5565 H 522.735 -5.51467 1.26097 0
M  V30 5566 H 521.292 -6.25728 1.82503 0
M  V30 5567 N 524.725 -1.39134 -0.740242 0
M  V30 5568 C 525.673 -1.3757 -1.87556 0
M  V30 5569 C 526.667 -0.259593 -1.67399 0
M  V30 5570 O 527.873 -0.429349 -1.74804 0
M  V30 5571 H 524.248 -0.42947 -0.6173 0
M  V30 5572 H 526.219 -2.33345 -1.85991 0
M  V30 5573 C 524.968 -1.23087 -3.25184 0
M  V30 5574 H 524.291 -2.08237 -3.41288 0
M  V30 5575 H 525.731 -1.26049 -4.0483 0
M  V30 5576 C 524.19 0.0611471 -3.36845 0
M  V30 5577 O 524.72 1.03328 -3.88183 0
M  V30 5578 N 522.926 0.122454 -2.90342 0
M  V30 5579 H 522.473 -0.669329 -2.48752 0
M  V30 5580 H 522.431 0.986463 -2.98523 0
M  V30 5581 N 526.204 0.969867 -1.24223 0
M  V30 5582 C 527.434 1.74502 -1.106 0
M  V30 5583 C 527.842 1.86038 0.344483 0
M  V30 5584 O 527.185 1.3465 1.24961 0
M  V30 5585 C 527.247 3.18391 -1.66935 0
M  V30 5586 C 526.911 3.30334 -3.15798 0
M  V30 5587 C 527.908 3.15832 -4.12973 0
M  V30 5588 C 525.593 3.54644 -3.55715 0
M  V30 5589 C 527.587 3.25461 -5.48045 0
M  V30 5590 C 525.274 3.63912 -4.90929 0
M  V30 5591 C 526.272 3.49332 -5.86904 0
M  V30 5592 O 525.96 3.58251 -7.1966 0
M  V30 5593 H 525.692 0.554119 -0.387206 0
M  V30 5594 H 528.246 1.22646 -1.64764 0
M  V30 5595 H 526.476 3.71543 -1.07203 0
M  V30 5596 H 528.165 3.77707 -1.48634 0
M  V30 5597 H 528.931 2.96937 -3.83476 0
M  V30 5598 H 524.81 3.65059 -2.81519 0
M  V30 5599 H 528.354 3.13998 -6.22937 0
M  V30 5600 H 524.251 3.82319 -5.20098 0
M  V30 5601 H 525.019 3.7498 -7.27552 0
M  V30 5602 N 527.682 1.05563 1.17022 0
M  V30 5603 C 528.592 0.670758 2.24807 0
M  V30 5604 C 529.608 -0.309865 1.71219 0
M  V30 5605 O 530.784 -0.161025 2.00755 0
M  V30 5606 C 527.849 0.055337 3.46656 0
M  V30 5607 C 526.91 1.08688 4.15314 0
M  V30 5608 C 526.143 0.500736 5.31346 0
M  V30 5609 O 526.366 -0.688718 5.66227 0
M  V30 5610 O 525.3 1.23683 5.89055 0
M  V30 5611 H 529.126 1.56914 2.60023 0
M  V30 5612 H 526.711 0.827428 1.24395 0
M  V30 5613 H 528.593 -0.286492 4.20425 0
M  V30 5614 H 527.268 -0.816638 3.13229 0
M  V30 5615 H 526.175 1.48077 3.43546 0
M  V30 5616 H 527.508 1.93014 4.52777 0
M  V30 5617 N 529.16 -1.33526 0.837174 0
M  V30 5618 C 530.408 -1.97446 0.431211 0
M  V30 5619 C 530.729 -1.6665 -1.01255 0
M  V30 5620 O 529.999 -0.964559 -1.70508 0
M  V30 5621 H 528.579 -0.73043 0.156463 0
M  V30 5622 H 531.241 -1.62918 1.06976 0
M  V30 5623 H 530.337 -3.07001 0.561877 0
M  V30 5624 N 530.638 -0.59345 -1.46 0
M  V30 5625 C 532.054 -0.255965 -1.57534 0
M  V30 5626 C 532.254 1.24167 -1.58697 0
M  V30 5627 O 531.31 2.02398 -1.50968 0
M  V30 5628 C 532.623 -0.91466 -2.86451 0
M  V30 5629 C 534.171 -0.889253 -3.00102 0
M  V30 5630 C 534.646 -1.52769 -4.3177 0
M  V30 5631 N 536.137 -1.49253 -4.38495 0
M  V30 5632 C 536.872 -1.9558 -5.39014 0
M  V30 5633 N 536.368 -2.49929 -6.46148 0
M  V30 5634 N 538.161 -1.86432 -5.30282 0
M  V30 5635 H 530.312 -1.56604 -1.43489 0
M  V30 5636 H 532.575 -0.655207 -0.685133 0
M  V30 5637 H 532.281 -1.96861 -2.91442 0
M  V30 5638 H 532.155 -0.429356 -3.74748 0
M  V30 5639 H 534.542 0.156111 -2.94687 0
M  V30 5640 H 534.623 -1.41268 -2.13253 0
M  V30 5641 H 534.267 -2.57231 -4.37944 0
M  V30 5642 H 534.197 -0.979398 -5.17412 0
M  V30 5643 H 536.688 -1.09536 -3.61677 0
M  V30 5644 H 537.001 -2.83109 -7.19075 0
M  V30 5645 H 535.346 -2.53961 -6.46938 0
M  V30 5646 H 538.537 -1.43722 -4.4549 0
M  V30 5647 H 538.71 -2.22852 -6.08474 0
M  V30 5648 N 532.116 1.54067 -0.331816 0
M  V30 5649 C 533.048 2.22139 0.564538 0
M  V30 5650 C 534.061 1.22408 1.07332 0
M  V30 5651 O 535.25 1.4883 0.985481 0
M  V30 5652 C 532.35 2.87876 1.78831 0
M  V30 5653 C 531.523 4.13817 1.41682 0
M  V30 5654 C 530.582 4.63072 2.49901 0
M  V30 5655 O 529.608 5.27562 2.13699 0
M  V30 5656 N 530.81 4.38001 3.80967 0
M  V30 5657 H 533.575 2.99694 -0.0183736 0
M  V30 5658 H 531.136 1.61153 -0.155396 0
M  V30 5659 H 533.128 3.17747 2.50637 0
M  V30 5660 H 531.698 2.13977 2.27887 0
M  V30 5661 H 530.918 3.9062 0.530044 0
M  V30 5662 H 532.206 4.95762 1.14443 0
M  V30 5663 H 531.604 3.864 4.13173 0
M  V30 5664 H 530.161 4.72507 4.48977 0
M  V30 5665 O 533.633 0.19963 1.60261 0
M  V30 5666 H 534.324 -0.384961 1.89836 0
M  V30 END ATOM
M  V30 BEGIN BOND
M  V30 END BOND
M  V30 END CTAB
M  END
$$$$
