drugbank_target|P26397 CDP-glucose 4,6-dehydratase (DB02059; DB03069)
 OpenBabel12092119583D

  0  0  0     0  0            999 V3000
M  V30 BEGIN CTAB
M  V30 COUNTS 5707 5787 0 0 0
M  V30 BEGIN ATOM
M  V30 1 H -0.908 1.98254 -0.117106 0
M  V30 2 N 0 1.576 0 0
M  V30 3 C 0.933 2.03868 1.02534 0
M  V30 4 C 1.911 0.928543 1.3348 0
M  V30 5 O 3.095 1.19667 1.45644 0
M  V30 6 C 0.222 2.43627 2.35294 0
M  V30 7 C -0.732 3.65373 2.2001 0
M  V30 8 S 0.101 5.13292 1.52614 0
M  V30 9 C 1.257 5.56322 2.86805 0
M  V30 10 H 1.49 2.90518 0.631377 0
M  V30 11 H -0.977 1.52953 0.210867 0
M  V30 12 H 0.981 2.67203 3.11629 0
M  V30 13 H -0.358 1.57376 2.7183 0
M  V30 14 H -1.165 3.90944 3.18086 0
M  V30 15 H -1.563 3.418 1.51819 0
M  V30 16 H 0.729 5.58782 3.83104 0
M  V30 17 H 1.672 6.56266 2.65933 0
M  V30 18 H 2.08 4.83886 2.90714 0
M  V30 19 N 1.4781 -0.272755 1.55222 0
M  V30 20 C 2.7271 -1.00211 1.75045 0
M  V30 21 C 3.0401 -1.87441 0.559046 0
M  V30 22 O 4.2461 -2.63856 0.639698 0
M  V30 23 C 2.7021 -1.83165 3.09804 0
M  V30 24 C 2.3101 -1.008 4.36513 0
M  V30 25 C 4.0541 -2.55529 3.38977 0
M  V30 26 C 1.9611 -1.83194 5.62311 0
M  V30 27 H 0.8911 -0.377878 0.652476 0
M  V30 28 H 3.5421 -0.257776 1.8168 0
M  V30 29 H 1.9241 -2.61694 2.97207 0
M  V30 30 H 3.0981 -0.266855 4.60027 0
M  V30 31 H 1.4131 -0.398897 4.14485 0
M  V30 32 H 4.0101 -3.17578 4.30172 0
M  V30 33 H 4.3531 -3.25825 2.59121 0
M  V30 34 H 4.8861 -1.84029 3.52673 0
M  V30 35 H 1.6251 -1.17318 6.44916 0
M  V30 36 H 1.1451 -2.54905 5.4294 0
M  V30 37 H 2.8241 -2.40552 6.00619 0
M  V30 38 N 2.9562 -1.48159 -0.537278 0
M  V30 39 C 4.2332 -1.46291 -1.29839 0
M  V30 40 C 4.6132 -0.170613 -2.10409 0
M  V30 41 O 3.9612 0.847746 -2.12192 0
M  V30 42 C 4.1712 -2.72055 -2.18603 0
M  V30 43 C 5.5192 -3.20087 -2.7898 0
M  V30 44 O 6.5432 -2.72921 -2.28894 0
M  V30 45 O 5.4022 -4.02138 -3.70064 0
M  V30 46 H 2.4962 -0.583906 -0.585647 0
M  V30 47 H 5.0422 -1.60384 -0.554534 0
M  V30 48 H 3.8142 -3.57628 -1.58801 0
M  V30 49 H 3.4372 -2.60646 -3.00249 0
M  V30 50 N 4.4343 0.785586 -1.36625 0
M  V30 51 C 5.3813 1.89838 -1.31264 0
M  V30 52 C 6.3513 1.65115 -0.180633 0
M  V30 53 O 7.5363 1.87222 -0.36777 0
M  V30 54 C 4.6763 3.26706 -1.11163 0
M  V30 55 C 3.7893 3.63476 -2.33472 0
M  V30 56 C 2.9243 4.89481 -2.06353 0
M  V30 57 C 1.9633 5.18941 -3.24602 0
M  V30 58 N 1.1003 6.36131 -2.97123 0
M  V30 59 H 5.9403 1.93756 -2.26413 0
M  V30 60 H 3.4773 0.947454 -1.12524 0
M  V30 61 H 5.4353 4.05639 -0.975337 0
M  V30 62 H 4.0653 3.222 -0.196674 0
M  V30 63 H 3.1173 2.79636 -2.57891 0
M  V30 64 H 4.4293 3.81193 -3.21704 0
M  V30 65 H 3.5833 5.76288 -1.89675 0
M  V30 66 H 2.3223 4.73841 -1.15437 0
M  V30 67 H 1.3273 4.30615 -3.41834 0
M  V30 68 H 2.5523 5.36498 -4.16349 0
M  V30 69 H 0.4983 6.21875 -2.08823 0
M  V30 70 H 0.4153 6.54198 -3.78894 0
M  V30 71 H 1.6833 7.2591 -2.84033 0
M  V30 72 N 5.9124 1.20967 1.01018 0
M  V30 73 C 6.8604 0.961223 2.1181 0
M  V30 74 C 7.8544 -0.0897034 1.69162 0
M  V30 75 O 9.0604 0.0612271 1.79896 0
M  V30 76 H 5.4354 0.29355 0.692338 0
M  V30 77 H 7.4064 1.90178 2.29946 0
M  V30 78 C 6.1554 0.536854 3.4353 0
M  V30 79 H 5.4784 1.33713 3.76777 0
M  V30 80 H 6.9184 0.402286 4.22087 0
M  V30 81 C 5.3774 -0.751574 3.2841 0
M  V30 82 O 5.9074 -1.80841 3.58691 0
M  V30 83 N 4.1134 -0.716079 2.81639 0
M  V30 84 H 3.6604 0.144236 2.57196 0
M  V30 85 H 3.6184 -1.57847 2.71904 0
M  V30 86 N 7.3905 -1.2043 1.01659 0
M  V30 87 C 8.6375 -1.89797 0.705917 0
M  V30 88 C 8.9655 -1.78848 -0.764439 0
M  V30 89 O 8.2205 -1.16694 -1.57102 0
M  V30 90 C 8.5195 -3.40464 1.08714 0
M  V30 91 C 8.1855 -3.71614 2.5537 0
M  V30 92 C 6.8475 -3.79826 2.95441 0
M  V30 93 C 9.1995 -3.85915 3.50313 0
M  V30 94 C 6.5275 -3.99797 4.29394 0
M  V30 95 C 8.8795 -4.07396 4.83954 0
M  V30 96 C 7.5435 -4.13837 5.23732 0
M  V30 97 H 6.8135 -0.694518 0.258313 0
M  V30 98 H 9.4605 -1.42691 1.27717 0
M  V30 99 H 7.7655 -3.89385 0.434309 0
M  V30 100 H 9.4625 -3.92433 0.824461 0
M  V30 101 H 6.0525 -3.65822 2.23321 0
M  V30 102 H 10.2365 -3.78926 3.20513 0
M  V30 103 H 5.4925 -4.03018 4.59768 0
M  V30 104 H 9.6665 -4.17404 5.57447 0
M  V30 105 H 7.2935 -4.29064 6.27541 0
M  V30 106 N 8.8686 -0.792821 -1.36206 0
M  V30 107 C 10.1146 -0.376415 -1.99887 0
M  V30 108 C 10.4696 1.04127 -1.61788 0
M  V30 109 O 9.7626 1.71004 -0.864193 0
M  V30 110 C 9.9566 -0.481501 -3.54142 0
M  V30 111 C 9.7856 -1.90786 -4.07223 0
M  V30 112 C 8.5556 -2.53322 -4.37214 0
M  V30 113 C 10.7536 -2.87048 -4.26741 0
M  V30 114 N 8.7356 -3.8751 -4.7614 0
M  V30 115 C 10.1066 -4.06077 -4.6851 0
M  V30 116 C 12.1616 -2.8406 -4.08918 0
M  V30 117 C 10.8646 -5.22532 -4.94321 0
M  V30 118 C 12.8906 -3.99705 -4.35878 0
M  V30 119 C 12.2526 -5.1748 -4.77906 0
M  V30 120 H 8.3516 -0.185226 -0.759747 0
M  V30 121 H 10.9356 -1.03114 -1.65153 0
M  V30 122 H 9.1066 0.143154 -3.88136 0
M  V30 123 H 10.8386 -0.0410128 -4.04679 0
M  V30 124 H 7.5936 -2.04777 -4.2704 0
M  V30 125 H 8.0176 -4.5656 -4.99882 0
M  V30 126 H 12.6596 -1.94165 -3.75579 0
M  V30 127 H 10.3776 -6.1301 -5.2654 0
M  V30 128 H 13.9636 -3.98758 -4.23655 0
M  V30 129 H 12.8436 -6.05478 -4.98363 0
M  V30 130 N 10.3467 1.47872 -0.545128 0
M  V30 131 C 11.2787 2.27869 0.246621 0
M  V30 132 C 12.2917 1.36282 0.890561 0
M  V30 133 O 13.4807 1.61207 0.766449 0
M  V30 134 C 10.5807 3.10159 1.36582 0
M  V30 135 C 9.7537 4.29627 0.820954 0
M  V30 136 C 8.8127 4.93607 1.82314 0
M  V30 137 O 7.8387 5.52366 1.37406 0
M  V30 138 N 9.0407 4.87211 3.15603 0
M  V30 139 H 11.8057 2.96459 -0.439539 0
M  V30 140 H 9.3667 1.57367 -0.380421 0
M  V30 141 H 11.3587 3.49829 2.03474 0
M  V30 142 H 9.9287 2.43891 1.9554 0
M  V30 143 H 9.1487 3.94192 -0.0244032 0
M  V30 144 H 10.4367 5.06928 0.436063 0
M  V30 145 H 9.8347 4.40651 3.54744 0
M  V30 146 H 8.3917 5.30937 3.78087 0
M  V30 147 N 11.8248 0.280983 1.55075 0
M  V30 148 C 13.0728 -0.333455 1.9933 0
M  V30 149 C 13.3938 -1.55937 1.17085 0
M  V30 150 O 12.6638 -1.94143 0.261805 0
M  V30 151 H 11.2438 -0.126197 0.736263 0
M  V30 152 H 13.9058 0.387678 1.91005 0
M  V30 153 H 13.0018 -0.619292 3.05894 0
M  V30 154 N 13.3029 -1.57598 0.00835791 0
M  V30 155 C 14.2499 -2.08945 -0.980346 0
M  V30 156 C 15.2199 -0.986738 -1.33614 0
M  V30 157 O 16.4049 -1.25968 -1.43306 0
M  V30 158 C 13.5449 -2.60425 -2.26435 0
M  V30 159 C 12.6579 -3.84628 -1.96685 0
M  V30 160 C 11.7929 -4.24579 -3.19228 0
M  V30 161 C 10.8319 -5.41596 -2.85202 0
M  V30 162 N 9.9689 -5.768 -4.00307 0
M  V30 163 H 14.8089 -2.93148 -0.535551 0
M  V30 164 H 12.3459 -1.44912 -0.252776 0
M  V30 165 H 14.3039 -2.88354 -3.01509 0
M  V30 166 H 12.9339 -1.79083 -2.68568 0
M  V30 167 H 11.9859 -3.63556 -1.11942 0
M  V30 168 H 13.2979 -4.69796 -1.67611 0
M  V30 169 H 12.4519 -4.53834 -4.02641 0
M  V30 170 H 11.1909 -3.38137 -3.51447 0
M  V30 171 H 10.1959 -5.12056 -2.00198 0
M  V30 172 H 11.4209 -6.29721 -2.54222 0
M  V30 173 H 9.3669 -4.93316 -4.32407 0
M  V30 174 H 9.2839 -6.5656 -3.74786 0
M  V30 175 H 10.5519 -6.10652 -4.84484 0
M  V30 176 N 14.781 0.264519 -1.55364 0
M  V30 177 C 16.197 0.61215 -1.47394 0
M  V30 178 C 16.397 1.89134 -0.695018 0
M  V30 179 O 15.453 2.51563 -0.217275 0
M  V30 180 C 16.766 0.731235 -2.91674 0
M  V30 181 C 18.314 0.82473 -3.01939 0
M  V30 182 C 18.789 0.975522 -4.4749 0
M  V30 183 N 20.28 1.04083 -4.51354 0
M  V30 184 C 21.015 1.17646 -5.61201 0
M  V30 185 N 20.511 1.27874 -6.80896 0
M  V30 186 N 22.304 1.20823 -5.48961 0
M  V30 187 H 14.455 -0.575456 -2.04456 0
M  V30 188 H 16.718 -0.196099 -0.927496 0
M  V30 189 H 16.424 -0.138392 -3.51428 0
M  V30 190 H 16.298 1.60883 -3.41169 0
M  V30 191 H 18.685 1.68482 -2.42276 0
M  V30 192 H 18.766 -0.0776479 -2.55682 0
M  V30 193 H 18.41 0.120058 -5.07758 0
M  V30 194 H 18.34 1.89268 -4.91412 0
M  V30 195 H 20.831 0.973846 -3.65136 0
M  V30 196 H 21.144 1.38081 -7.60364 0
M  V30 197 H 19.489 1.24863 -6.83692 0
M  V30 198 H 22.68 1.12469 -4.54388 0
M  V30 199 H 22.853 1.31049 -6.3461 0
M  V30 200 N 16.2591 1.48442 0.529413 0
M  V30 201 C 17.5051 1.5672 1.28711 0
M  V30 202 C 17.8381 0.2406 1.92704 0
M  V30 203 O 17.1131 -0.753454 1.79313 0
M  V30 204 C 17.3961 2.70587 2.37603 0
M  V30 205 C 17.2491 4.12953 1.78297 0
M  V30 206 C 18.5681 2.80212 3.39366 0
M  V30 207 H 15.6871 0.570474 0.466613 0
M  V30 208 H 18.3291 1.80617 0.589706 0
M  V30 209 H 16.4791 2.50342 2.97088 0
M  V30 210 H 18.1511 4.44639 1.22858 0
M  V30 211 H 16.3941 4.19927 1.0883 0
M  V30 212 H 17.0651 4.88448 2.57144 0
M  V30 213 H 19.5411 2.98553 2.89836 0
M  V30 214 H 18.4171 3.61611 4.12951 0
M  V30 215 H 18.6781 1.88393 3.99951 0
M  V30 216 N 17.7372 -0.778329 1.37039 0
M  V30 217 C 18.9842 -1.53665 1.31884 0
M  V30 218 C 19.3122 -1.9425 -0.0986303 0
M  V30 219 O 18.5672 -1.63832 -1.07041 0
M  V30 220 C 18.8662 -2.81845 2.19768 0
M  V30 221 C 18.5322 -2.60345 3.68146 0
M  V30 222 C 17.1942 -2.5419 4.08584 0
M  V30 223 C 19.5462 -2.40923 4.62175 0
M  V30 224 C 16.8742 -2.26594 5.41177 0
M  V30 225 C 19.2262 -2.14852 5.94997 0
M  V30 226 C 17.8902 -2.07137 6.34547 0
M  V30 227 H 17.1602 -0.562299 0.482598 0
M  V30 228 H 19.8072 -0.897069 1.69189 0
M  V30 229 H 18.1122 -3.50328 1.75436 0
M  V30 230 H 19.8092 -3.39692 2.13097 0
M  V30 231 H 16.3992 -2.65996 3.36072 0
M  V30 232 H 20.5832 -2.44673 4.31797 0
M  V30 233 H 15.8392 -2.19111 5.70789 0
M  V30 234 H 20.0132 -1.98822 6.67415 0
M  V30 235 H 17.6402 -1.85518 7.37216 0
M  V30 236 N 19.2153 -1.21501 -1.00376 0
M  V30 237 C 20.4613 -1.03452 -1.74429 0
M  V30 238 C 20.7943 0.430764 -1.89362 0
M  V30 239 O 20.0693 1.31962 -1.42886 0
M  V30 240 C 20.3523 -1.73375 -3.15615 0
M  V30 241 C 20.2053 -3.27431 -3.08397 0
M  V30 242 C 21.5243 -1.47732 -4.14564 0
M  V30 243 H 18.6433 -0.377226 -0.633143 0
M  V30 244 H 21.2853 -1.49693 -1.17013 0
M  V30 245 H 19.4353 -1.34064 -3.64636 0
M  V30 246 H 21.1073 -3.76119 -2.67081 0
M  V30 247 H 19.3503 -3.5767 -2.45468 0
M  V30 248 H 20.0213 -3.71524 -4.08258 0
M  V30 249 H 22.4973 -1.8186 -3.74254 0
M  V30 250 H 21.3733 -1.99169 -5.11491 0
M  V30 251 H 21.6343 -0.407589 -4.40217 0
M  V30 252 N 20.6934 1.19889 -1.02296 0
M  V30 253 C 21.9214 1.9339 -0.735399 0
M  V30 254 C 22.3364 1.75148 0.704887 0
M  V30 255 O 21.6934 1.06954 1.47875 0
M  V30 256 C 21.7444 3.45313 -1.06962 0
M  V30 257 O 21.4654 3.62964 -2.45334 0
M  V30 258 C 22.9664 4.35948 -0.804021 0
M  V30 259 H 20.1864 0.61448 -0.269546 0
M  V30 260 H 22.7304 1.522 -1.36585 0
M  V30 261 H 20.8854 3.84359 -0.484455 0
M  V30 262 H 21.2994 4.56886 -2.57595 0
M  V30 263 H 22.7734 5.41174 -1.0879 0
M  V30 264 H 23.2504 4.3842 0.261691 0
M  V30 265 H 23.8564 4.02574 -1.37164 0
M  V30 266 N 22.1715 0.800033 1.35784 0
M  V30 267 C 23.4195 0.376597 1.9856 0
M  V30 268 C 23.7405 -1.05812 1.63795 0
M  V30 269 O 23.0105 -1.73103 0.917171 0
M  V30 270 H 21.5905 0.136261 0.734467 0
M  V30 271 H 24.2525 1.02442 1.65806 0
M  V30 272 H 23.3485 0.477002 3.08433 0
M  V30 273 N 23.6496 -1.47581 0.552962 0
M  V30 274 C 24.5996 -2.26961 -0.217423 0
M  V30 275 C 25.5836 -1.34099 -0.889168 0
M  V30 276 O 26.7756 -1.58483 -0.788176 0
M  V30 277 C 23.9046 -3.19756 -1.24944 0
M  V30 278 C 22.9906 -4.20097 -0.581327 0
M  V30 279 N 23.3816 -5.04614 0.346171 0
M  V30 280 C 21.6796 -4.38099 -0.835767 0
M  V30 281 C 22.3806 -5.77052 0.733854 0
M  V30 282 N 21.3566 -5.43526 0.0896567 0
M  V30 283 H 25.1586 -2.89688 0.495761 0
M  V30 284 H 22.6726 -1.58068 0.372597 0
M  V30 285 H 24.6696 -3.75305 -1.81527 0
M  V30 286 H 23.3296 -2.58585 -1.96376 0
M  V30 287 H 24.3406 -5.12869 0.720098 0
M  V30 288 H 21.0176 -3.88102 -1.53892 0
M  V30 289 H 22.4076 -6.5504 1.49574 0
M  V30 290 N 25.1277 -0.289203 -1.54924 0
M  V30 291 C 26.3557 0.326463 -2.04308 0
M  V30 292 C 26.7707 1.48413 -1.16701 0
M  V30 293 O 26.1277 1.81507 -0.190087 0
M  V30 294 C 26.1787 0.794014 -3.52672 0
M  V30 295 O 25.8997 -0.317564 -4.36948 0
M  V30 296 C 27.4007 1.47605 -4.18004 0
M  V30 297 H 24.6207 0.0726272 -0.667058 0
M  V30 298 H 27.1647 -0.425401 -2.00026 0
M  V30 299 H 25.3197 1.49593 -3.57352 0
M  V30 300 H 25.7337 0.0443186 -5.24481 0
M  V30 301 H 27.2077 1.75447 -5.23376 0
M  V30 302 H 27.6847 2.41224 -3.67025 0
M  V30 303 H 28.2907 0.81762 -4.17367 0
M  V30 304 N 26.6058 1.57591 -0.0167156 0
M  V30 305 C 27.8538 1.90906 0.663285 0
M  V30 306 C 28.1748 0.892509 1.73376 0
M  V30 307 O 27.4448 -0.0677623 1.95783 0
M  V30 308 H 26.0248 0.704637 0.247983 0
M  V30 309 H 28.6868 1.94803 -0.0615909 0
M  V30 310 H 27.7828 2.9116 1.12393 0
M  V30 311 N 28.0839 -0.256276 1.55502 0
M  V30 312 C 29.3309 -0.985619 1.76895 0
M  V30 313 C 29.6589 -1.85671 0.579355 0
M  V30 314 O 28.9139 -1.90744 -0.437651 0
M  V30 315 C 29.2129 -1.88432 3.03691 0
M  V30 316 C 28.8789 -1.16936 4.35473 0
M  V30 317 C 27.5409 -0.97173 4.71286 0
M  V30 318 C 29.8929 -0.661889 5.1698 0
M  V30 319 C 27.2209 -0.254179 5.86149 0
M  V30 320 C 29.5729 0.042149 6.32586 0
M  V30 321 C 28.2369 0.25134 6.67027 0
M  V30 322 H 27.5069 -0.360663 0.647304 0
M  V30 323 H 30.1539 -0.256483 1.89775 0
M  V30 324 H 28.4589 -2.68021 2.85783 0
M  V30 325 H 30.1559 -2.45015 3.1744 0
M  V30 326 H 26.7459 -1.33332 4.07333 0
M  V30 327 H 30.9299 -0.802145 4.89775 0
M  V30 328 H 26.1859 -0.0815408 6.11346 0
M  V30 329 H 30.3599 0.443049 6.94989 0
M  V30 330 H 27.9869 0.809314 7.5588 0
M  V30 331 N 29.562 -1.4872 -0.521534 0
M  V30 332 C 30.509 -1.63871 -1.62527 0
M  V30 333 C 31.479 -0.480559 -1.58996 0
M  V30 334 O 32.664 -0.705085 -1.77294 0
M  V30 335 C 29.804 -1.69227 -3.00759 0
M  V30 336 C 28.917 -2.96207 -3.14461 0
M  V30 337 C 28.052 -2.92671 -4.43303 0
M  V30 338 C 27.091 -4.14318 -4.50563 0
M  V30 339 N 26.228 -4.0881 -5.70805 0
M  V30 340 H 31.068 -2.58123 -1.48918 0
M  V30 341 H 28.605 -1.28 -0.724878 0
M  V30 342 H 30.563 -1.70314 -3.80853 0
M  V30 343 H 29.193 -0.784586 -3.1312 0
M  V30 344 H 28.245 -3.04826 -2.27564 0
M  V30 345 H 29.557 -3.86192 -3.15686 0
M  V30 346 H 28.711 -2.92206 -5.31696 0
M  V30 347 H 27.45 -2.00429 -4.44612 0
M  V30 348 H 26.455 -4.15049 -3.60575 0
M  V30 349 H 27.68 -5.07729 -4.50986 0
M  V30 350 H 25.626 -3.19394 -5.72995 0
M  V30 351 H 25.543 -4.92509 -5.7356 0
M  V30 352 H 26.811 -4.12418 -6.61462 0
M  V30 353 N 31.0401 0.771051 -1.3745 0
M  V30 354 C 32.2881 1.52661 -1.32435 0
M  V30 355 C 32.6091 1.9479 0.0905024 0
M  V30 356 O 31.8791 1.66348 1.03466 0
M  V30 357 H 30.4591 0.566218 -0.487244 0
M  V30 358 H 33.1211 0.917636 -1.71946 0
M  V30 359 H 32.2171 2.42568 -1.96385 0
M  V30 360 N 32.5182 1.22032 0.997298 0
M  V30 361 C 33.7432 1.06921 1.77715 0
M  V30 362 C 34.1682 -0.376226 1.84299 0
M  V30 363 O 33.5262 -1.27165 1.29223 0
M  V30 364 C 33.5742 1.67996 3.19076 0
M  V30 365 O 32.6782 0.930653 4.01762 0
M  V30 366 H 32.0192 0.375814 0.547412 0
M  V30 367 H 34.5492 1.61737 1.25309 0
M  V30 368 H 34.5592 1.72538 3.69723 0
M  V30 369 H 33.2342 2.73182 3.13599 0
M  V30 370 H 31.8112 0.960917 3.60307 0
M  V30 371 N 33.9963 -1.19345 1.0293 0
M  V30 372 C 35.2423 -1.89585 0.736824 0
M  V30 373 C 35.5973 -1.78148 -0.726703 0
M  V30 374 O 34.8903 -1.16332 -1.52242 0
M  V30 375 C 35.0843 -3.39292 1.12319 0
M  V30 376 C 34.9133 -3.65298 2.62273 0
M  V30 377 C 33.6833 -3.83304 3.29251 0
M  V30 378 C 35.8813 -3.6682 3.60482 0
M  V30 379 N 33.8633 -3.96944 4.68304 0
M  V30 380 C 35.2343 -3.86037 4.85155 0
M  V30 381 C 37.2893 -3.49848 3.54275 0
M  V30 382 C 35.9923 -3.9004 6.04369 0
M  V30 383 C 38.0183 -3.55129 4.72903 0
M  V30 384 C 37.3803 -3.74831 5.9639 0
M  V30 385 H 33.4793 -0.712856 0.321497 0
M  V30 386 H 36.0633 -1.43427 1.31669 0
M  V30 387 H 34.2343 -3.84172 0.571524 0
M  V30 388 H 35.9663 -3.97055 0.78292 0
M  V30 389 H 32.7213 -3.82211 2.79663 0
M  V30 390 H 33.1453 -4.07613 5.40538 0
M  V30 391 H 37.7873 -3.33572 2.59788 0
M  V30 392 H 35.5053 -4.05108 6.99223 0
M  V30 393 H 39.0913 -3.43287 4.69729 0
M  V30 394 H 37.9713 -3.78792 6.86649 0
M  V30 395 N 35.4744 -0.807222 -1.35358 0
M  V30 396 C 36.4044 -0.232509 -2.3234 0
M  V30 397 C 37.3854 0.642386 -1.57504 0
M  V30 398 O 38.5704 0.572526 -1.85569 0
M  V30 399 C 35.7004 0.619238 -3.41735 0
M  V30 400 C 34.6544 -0.157215 -4.27711 0
M  V30 401 C 33.9804 0.816273 -5.28433 0
M  V30 402 C 35.2804 -1.35656 -5.04376 0
M  V30 403 H 36.9744 -1.04276 -2.80654 0
M  V30 404 H 34.5204 -0.50288 -1.34934 0
M  V30 405 H 36.4734 1.03137 -4.08584 0
M  V30 406 H 35.1974 1.46239 -2.92031 0
M  V30 407 H 33.8564 -0.550525 -3.62443 0
M  V30 408 H 33.5044 1.65494 -4.74996 0
M  V30 409 H 33.2044 0.301067 -5.86828 0
M  V30 410 H 34.7284 1.22659 -5.98153 0
M  V30 411 H 36.1424 -1.01927 -5.64166 0
M  V30 412 H 34.5394 -1.8063 -5.7227 0
M  V30 413 H 35.6094 -2.14288 -4.34981 0
M  V30 414 N 36.9525 1.47285 -0.560781 0
M  V30 415 C 38.1775 2.07359 -0.0410566 0
M  V30 416 C 38.6025 1.41017 1.24483 0
M  V30 417 O 37.9605 0.486368 1.74654 0
M  V30 418 C 38.0085 3.6035 0.134123 0
M  V30 419 O 37.1125 3.94681 1.19587 0
M  V30 420 H 36.4535 0.661887 -0.0529291 0
M  V30 421 H 38.9835 1.89252 -0.777482 0
M  V30 422 H 38.9935 4.0652 0.347207 0
M  V30 423 H 37.6685 4.08034 -0.805047 0
M  V30 424 H 36.2455 3.60251 0.962987 0
M  V30 425 N 38.4306 0.297415 1.54768 0
M  V30 426 C 39.3606 -0.573494 2.26348 0
M  V30 427 C 40.3416 -1.14085 1.26169 0
M  V30 428 O 41.5266 -1.17086 1.54934 0
M  V30 429 C 38.6566 -1.74716 3.00153 0
M  V30 430 C 37.6106 -1.31032 4.07449 0
M  V30 431 C 36.9366 -2.56887 4.68949 0
M  V30 432 C 38.2366 -0.444183 5.20408 0
M  V30 433 H 39.9306 0.0235131 2.99391 0
M  V30 434 H 37.4766 0.0127488 1.43994 0
M  V30 435 H 39.4296 -2.3625 3.48947 0
M  V30 436 H 38.1536 -2.37035 2.24682 0
M  V30 437 H 36.8126 -0.718066 3.59499 0
M  V30 438 H 36.4606 -3.17512 3.90122 0
M  V30 439 H 36.1606 -2.2836 5.41411 0
M  V30 440 H 37.6846 -3.19229 5.20505 0
M  V30 441 H 39.0986 -0.9651 5.65118 0
M  V30 442 H 37.4956 -0.252846 5.99567 0
M  V30 443 H 38.5656 0.531609 4.81977 0
M  V30 444 N 39.9087 -1.5758 0.0250728 0
M  V30 445 C 41.1547 -1.92746 -0.649648 0
M  V30 446 C 41.5097 -0.901588 -1.69968 0
M  V30 447 O 40.8027 0.0829251 -1.9142 0
M  V30 448 C 40.9967 -3.32421 -1.31268 0
M  V30 449 C 40.8257 -4.48499 -0.328394 0
M  V30 450 C 39.5957 -5.05251 0.070284 0
M  V30 451 C 41.7937 -5.12618 0.415665 0
M  V30 452 N 39.7757 -6.04851 1.05016 0
M  V30 453 C 41.1467 -6.0728 1.24943 0
M  V30 454 C 43.2017 -4.95612 0.476803 0
M  V30 455 C 41.9047 -6.86766 2.1388 0
M  V30 456 C 43.9307 -5.75703 1.3535 0
M  V30 457 C 43.2927 -6.69978 2.17504 0
M  V30 458 H 39.3917 -0.753231 -0.210159 0
M  V30 459 H 41.9757 -1.94486 0.0912999 0
M  V30 460 H 40.1467 -3.31508 -2.02379 0
M  V30 461 H 41.8787 -3.54946 -1.94411 0
M  V30 462 H 38.6337 -4.72628 -0.303323 0
M  V30 463 H 39.0577 -6.5934 1.53622 0
M  V30 464 H 43.6997 -4.22554 -0.144105 0
M  V30 465 H 41.4177 -7.59132 2.77027 0
M  V30 466 H 45.0037 -5.64579 1.40504 0
M  V30 467 H 43.8837 -7.30873 2.84244 0
M  V30 468 N 41.3868 0.248026 -1.55636 0
M  V30 469 C 42.3168 1.31079 -1.93237 0
M  V30 470 C 43.2978 1.50264 -0.797174 0
M  V30 471 O 44.4828 1.62891 -1.05737 0
M  V30 472 C 41.6128 2.66575 -2.22609 0
M  V30 473 C 40.5668 2.62087 -3.3837 0
M  V30 474 C 39.8928 4.01369 -3.53281 0
M  V30 475 C 41.1928 2.19171 -4.7409 0
M  V30 476 H 42.8868 0.998556 -2.82257 0
M  V30 477 H 40.4328 0.47891 -1.35803 0
M  V30 478 H 42.3858 3.41057 -2.47503 0
M  V30 479 H 41.1098 2.99432 -1.30414 0
M  V30 480 H 39.7688 1.90063 -3.13483 0
M  V30 481 H 39.4168 4.31489 -2.58508 0
M  V30 482 H 39.1168 3.99254 -4.31127 0
M  V30 483 H 40.6408 4.77552 -3.80495 0
M  V30 484 H 42.0548 2.83384 -4.98363 0
M  V30 485 H 40.4518 2.2817 -5.5503 0
M  V30 486 H 41.5218 1.14336 -4.71227 0
M  V30 487 N 42.8649 1.48995 0.513639 0
M  V30 488 C 44.0929 1.61531 1.29288 0
M  V30 489 C 44.5079 0.281801 1.86685 0
M  V30 490 O 43.8649 -0.731111 1.67215 0
M  V30 491 C 43.9159 2.67449 2.43215 0
M  V30 492 O 43.6369 3.95626 1.88179 0
M  V30 493 C 45.1379 2.90575 3.34785 0
M  V30 494 H 42.3579 0.544165 0.392588 0
M  V30 495 H 44.9019 1.9494 0.617956 0
M  V30 496 H 43.0569 2.36853 3.0656 0
M  V30 497 H 43.4709 4.53868 2.62876 0
M  V30 498 H 44.9449 3.68449 4.11035 0
M  V30 499 H 45.4219 2.00011 3.91015 0
M  V30 500 H 46.0279 3.22538 2.77218 0
M  V30 501 N 44.343 -0.763751 1.37857 0
M  V30 502 C 45.253 -1.90817 1.36478 0
M  V30 503 C 46.269 -1.71997 0.263248 0
M  V30 504 O 47.445 -1.95095 0.499979 0
M  V30 505 C 44.51 -3.2605 1.17864 0
M  V30 506 C 43.571 -3.57467 2.3773 0
M  V30 507 C 42.804 -4.86249 2.19995 0
M  V30 508 O 43.027 -5.57884 1.18836 0
M  V30 509 O 41.961 -5.16911 3.08361 0
M  V30 510 H 45.787 -1.94933 2.32884 0
M  V30 511 H 43.372 -0.907619 1.1867 0
M  V30 512 H 45.254 -4.06924 1.09504 0
M  V30 513 H 43.929 -3.22769 0.245372 0
M  V30 514 H 42.836 -2.76796 2.51664 0
M  V30 515 H 44.169 -3.655 3.29652 0
M  V30 516 N 45.8211 -1.22559 -0.990812 0
M  V30 517 C 46.7541 -0.940773 -2.07905 0
M  V30 518 C 47.7321 0.117082 -1.62178 0
M  V30 519 O 48.9161 -0.0149506 -1.88494 0
M  V30 520 C 46.0431 -0.415321 -3.36144 0
M  V30 521 C 45.0891 -1.45818 -4.00799 0
M  V30 522 S 45.9221 -3.03219 -4.41382 0
M  V30 523 C 47.0781 -2.52317 -5.72789 0
M  V30 524 H 47.3111 -1.8623 -2.31745 0
M  V30 525 H 44.8441 -1.05688 -1.12558 0
M  V30 526 H 46.8021 -0.118747 -4.10328 0
M  V30 527 H 45.4631 0.485121 -3.10331 0
M  V30 528 H 44.6561 -1.04044 -4.93144 0
M  V30 529 H 44.2581 -1.70356 -3.32949 0
M  V30 530 H 46.5501 -1.93688 -6.49224 0
M  V30 531 H 47.4931 -3.43161 -6.19392 0
M  V30 532 H 47.9011 -1.93529 -5.30289 0
M  V30 533 N 47.2992 1.18797 -1.03562 0
M  V30 534 C 48.5472 1.88278 -0.734569 0
M  V30 535 C 48.8682 1.8043 0.739586 0
M  V30 536 O 48.1382 1.21925 1.53333 0
M  V30 537 H 46.7182 0.696991 -0.268725 0
M  V30 538 H 49.3802 1.44192 -1.31129 0
M  V30 539 H 48.4762 2.94443 -1.03489 0
M  V30 540 N 48.7773 0.814389 1.34928 0
M  V30 541 C 49.7403 0.235759 2.27984 0
M  V30 542 C 50.7403 -0.581412 1.49921 0
M  V30 543 O 51.9303 -0.398758 1.69575 0
M  V30 544 C 49.0623 -0.670433 3.34242 0
M  V30 545 H 50.2553 1.05659 2.80671 0
M  V30 546 H 47.8083 0.585614 1.44915 0
M  V30 547 H 48.5433 -1.51466 2.86755 0
M  V30 548 H 48.3283 -0.0860822 3.92005 0
M  V30 549 H 49.8183 -1.06935 4.03676 0
M  V30 550 N 50.2554 -1.46986 0.568584 0
M  V30 551 C 51.5044 -2.01646 0.0465894 0
M  V30 552 C 51.8174 -1.44721 -1.31587 0
M  V30 553 O 53.0234 -1.91113 -1.92842 0
M  V30 554 C 51.4794 -3.59885 0.032752 0
M  V30 555 C 51.0874 -4.25804 1.39266 0
M  V30 556 C 52.8314 -4.22255 -0.436038 0
M  V30 557 C 50.7384 -5.76081 1.33732 0
M  V30 558 H 49.6684 -0.753876 0.013647 0
M  V30 559 H 52.3194 -1.68864 0.718131 0
M  V30 560 H 50.7014 -3.8968 -0.704669 0
M  V30 561 H 51.8754 -4.07637 2.1487 0
M  V30 562 H 50.1904 -3.7547 1.80032 0
M  V30 563 H 52.7874 -5.32394 -0.49602 0
M  V30 564 H 53.1304 -3.90212 -1.45053 0
M  V30 565 H 53.6634 -3.97033 0.246877 0
M  V30 566 H 50.4024 -6.12761 2.32817 0
M  V30 567 H 49.9224 -5.96553 0.623267 0
M  V30 568 H 51.6014 -6.38518 1.0442 0
M  V30 569 N 51.7335 -0.305618 -1.54608 0
M  V30 570 C 52.9795 0.302746 -2.00528 0
M  V30 571 C 53.3125 1.53184 -1.19367 0
M  V30 572 O 52.5875 1.92598 -0.271321 0
M  V30 573 C 52.8705 0.654756 -3.54097 0
M  V30 574 C 52.7235 -0.583793 -4.45995 0
M  V30 575 C 54.0425 1.47947 -4.14487 0
M  V30 576 H 51.1615 0.108564 -0.72896 0
M  V30 577 H 53.8035 -0.418634 -1.85331 0
M  V30 578 H 51.9535 1.26935 -3.67178 0
M  V30 579 H 53.6255 -1.22224 -4.44814 0
M  V30 580 H 51.8685 -1.21615 -4.16404 0
M  V30 581 H 52.5395 -0.293287 -5.5122 0
M  V30 582 H 55.0155 0.96013 -4.04871 0
M  V30 583 H 53.8915 1.69454 -5.22088 0
M  V30 584 H 54.1525 2.47011 -3.66658 0
M  V30 585 N 53.2116 1.57565 -0.0334293 0
M  V30 586 C 54.1586 2.10478 0.946981 0
M  V30 587 C 55.1286 1.00787 1.32027 0
M  V30 588 O 56.3136 1.28232 1.41284 0
M  V30 589 C 53.4536 2.63994 2.22263 0
M  V30 590 C 52.5666 3.87709 1.90541 0
M  V30 591 C 51.7016 4.29604 3.12433 0
M  V30 592 C 50.7406 5.46065 2.76549 0
M  V30 593 N 49.8776 5.83096 3.9108 0
M  V30 594 H 54.7176 2.93963 0.488846 0
M  V30 595 H 52.2546 1.45296 0.22969 0
M  V30 596 H 54.2126 2.93114 2.96884 0
M  V30 597 H 52.8426 1.83333 2.65685 0
M  V30 598 H 51.8946 3.65291 1.06144 0
M  V30 599 H 53.2066 4.72403 1.60116 0
M  V30 600 H 52.3606 4.60182 3.9537 0
M  V30 601 H 51.0996 3.43685 3.46023 0
M  V30 602 H 50.1046 5.15176 1.92026 0
M  V30 603 H 51.3296 6.33685 2.44171 0
M  V30 604 H 49.2756 5.00132 4.24504 0
M  V30 605 H 49.1926 6.6244 3.64293 0
M  V30 606 H 50.4606 6.18282 4.74708 0
M  V30 607 N 54.6897 -0.239769 1.55765 0
M  V30 608 C 55.9377 -0.964892 1.77579 0
M  V30 609 C 56.2587 -1.85582 0.598699 0
M  V30 610 O 55.5287 -1.92075 -0.385226 0
M  V30 611 H 54.1087 -0.359265 0.654933 0
M  V30 612 H 56.7707 -0.256001 1.93211 0
M  V30 613 H 55.8667 -1.58243 2.69009 0
M  V30 614 N 56.1678 -1.49265 -0.50573 0
M  V30 615 C 57.3978 -1.61979 -1.28243 0
M  V30 616 C 57.8058 -0.288576 -1.86986 0
M  V30 617 O 57.1488 0.735408 -1.68337 0
M  V30 618 C 57.2108 -2.62632 -2.45489 0
M  V30 619 C 56.8748 -4.071 -2.07651 0
M  V30 620 C 57.8718 -4.94049 -1.61901 0
M  V30 621 C 55.5568 -4.52801 -2.17431 0
M  V30 622 C 57.5508 -6.24736 -1.26428 0
M  V30 623 C 55.2378 -5.83503 -1.8157 0
M  V30 624 C 56.2358 -6.69294 -1.36142 0
M  V30 625 O 55.9238 -7.9756 -1.00764 0
M  V30 626 H 55.6558 -0.54834 -0.395347 0
M  V30 627 H 58.2098 -1.96002 -0.614204 0
M  V30 628 H 56.4398 -2.2378 -3.15372 0
M  V30 629 H 58.1288 -2.64925 -3.07522 0
M  V30 630 H 58.8948 -4.5997 -1.53795 0
M  V30 631 H 54.7738 -3.86196 -2.51742 0
M  V30 632 H 58.3178 -6.91652 -0.908992 0
M  V30 633 H 54.2148 -6.17112 -1.89324 0
M  V30 634 H 54.9828 -8.10529 -1.13952 0
M  V30 635 N 57.6459 0.756429 -1.3826 0
M  V30 636 C 58.6089 1.85176 -1.35065 0
M  V30 637 C 59.6089 1.58818 -0.251703 0
M  V30 638 O 60.7989 1.66615 -0.508433 0
M  V30 639 C 57.9309 3.22596 -1.10201 0
M  V30 640 H 59.1239 1.89417 -2.3251 0
M  V30 641 H 56.6769 0.95783 -1.23512 0
M  V30 642 H 57.4119 3.24025 -0.133504 0
M  V30 643 H 57.1969 3.43122 -1.89762 0
M  V30 644 H 58.6869 4.02673 -1.10654 0
M  V30 645 N 59.124 1.23083 0.984299 0
M  V30 646 C 60.054 1.03292 2.09411 0
M  V30 647 C 61.035 -0.048923 1.7003 0
M  V30 648 O 62.22 0.114967 1.93859 0
M  V30 649 C 59.35 0.619155 3.41736 0
M  V30 650 C 58.304 1.64791 3.95004 0
M  V30 651 C 57.63 1.0897 5.23478 0
M  V30 652 C 58.93 3.03999 4.24714 0
M  V30 653 H 60.624 1.96119 2.26225 0
M  V30 654 H 58.17 0.944344 1.08711 0
M  V30 655 H 60.123 0.467777 4.18796 0
M  V30 656 H 58.847 -0.344786 3.24775 0
M  V30 657 H 57.506 1.78721 3.20085 0
M  V30 658 H 57.154 0.11686 5.02864 0
M  V30 659 H 56.854 1.77704 5.60085 0
M  V30 660 H 58.378 0.950093 6.03163 0
M  V30 661 H 59.792 2.93393 4.92538 0
M  V30 662 H 58.189 3.69936 4.72512 0
M  V30 663 H 59.259 3.53285 3.32142 0
M  V30 664 N 60.6021 -1.18246 1.0419 0
M  V30 665 C 61.8791 -1.84121 0.660208 0
M  V30 666 C 62.2591 -1.92778 -0.860221 0
M  V30 667 O 61.6071 -1.45464 -1.76217 0
M  V30 668 C 61.8171 -3.22355 1.33747 0
M  V30 669 C 63.1651 -3.98376 1.46906 0
M  V30 670 O 64.1891 -3.31799 1.29568 0
M  V30 671 O 63.0481 -5.17665 1.75171 0
M  V30 672 H 60.1421 -0.794036 0.231161 0
M  V30 673 H 62.6881 -1.25628 1.14087 0
M  V30 674 H 61.4601 -3.10964 2.37522 0
M  V30 675 H 61.0831 -3.88506 0.845515 0
M  V30 676 N 62.0802 -0.821533 -1.34494 0
M  V30 677 C 63.0432 -0.247847 -2.27856 0
M  V30 678 C 64.0432 0.573453 -1.50227 0
M  V30 679 O 65.2332 0.389759 -1.69784 0
M  V30 680 C 62.3652 0.652698 -3.34593 0
M  V30 681 H 63.5582 -1.07146 -2.80107 0
M  V30 682 H 61.1112 -0.593291 -1.44602 0
M  V30 683 H 61.8462 1.49943 -2.87555 0
M  V30 684 H 61.6312 0.065292 -3.92046 0
M  V30 685 H 63.1212 1.04793 -4.04238 0
M  V30 686 N 63.5583 1.46682 -0.576371 0
M  V30 687 C 64.9693 1.86112 -0.148091 0
M  V30 688 C 65.3203 1.48073 1.2872 0
M  V30 689 O 64.4453 0.892656 1.97131 0
M  V30 690 C 65.0403 3.37786 -0.261982 0
M  V30 691 C 63.5993 3.76235 0.111384 0
M  V30 692 C 62.7463 2.70713 -0.60083 0
M  V30 693 H 65.6973 1.37927 -0.78497 0
M  V30 694 H 65.7183 3.77007 0.514364 0
M  V30 695 H 65.2303 3.6544 -1.30671 0
M  V30 696 H 63.3313 3.54198 1.15649 0
M  V30 697 H 63.4443 4.78391 -0.26052 0
M  V30 698 H 61.8083 2.54666 -0.0417783 0
M  V30 699 H 62.5913 3.01208 -1.64708 0
M  V30 700 N 65.0364 0.313813 1.54444 0
M  V30 701 C 66.2644 -0.293918 2.04802 0
M  V30 702 C 66.6794 -1.46537 1.19047 0
M  V30 703 O 66.0364 -1.81182 0.218939 0
M  V30 704 C 66.0874 -0.737806 3.53891 0
M  V30 705 O 65.8084 0.387038 4.36387 0
M  V30 706 C 67.3094 -1.40936 4.203 0
M  V30 707 H 64.5294 -0.0620057 0.668129 0
M  V30 708 H 67.0734 0.457169 1.99324 0
M  V30 709 H 65.2284 -1.43889 3.59687 0
M  V30 710 H 65.6424 0.0391274 5.24485 0
M  V30 711 H 67.1164 -1.67099 5.26101 0
M  V30 712 H 67.5934 -2.35355 3.70816 0
M  V30 713 H 68.1994 -0.751117 4.18615 0
M  V30 714 N 66.5145 -1.57545 0.0417849 0
M  V30 715 C 67.7605 -1.92601 -0.635021 0
M  V30 716 C 68.0935 -0.919627 -1.71045 0
M  V30 717 O 67.3685 0.0557892 -1.9442 0
M  V30 718 C 67.6515 -3.38085 -1.23979 0
M  V30 719 C 67.5045 -4.49467 -0.173057 0
M  V30 720 C 68.8235 -3.83776 -2.15416 0
M  V30 721 H 65.9425 -0.700397 -0.229374 0
M  V30 722 H 68.5845 -1.89728 0.101633 0
M  V30 723 H 66.7345 -3.40664 -1.86762 0
M  V30 724 H 68.4065 -4.59018 0.458312 0
M  V30 725 H 66.6495 -4.30909 0.499996 0
M  V30 726 H 67.3205 -5.48323 -0.636054 0
M  V30 727 H 69.7965 -3.83013 -1.62605 0
M  V30 728 H 68.6725 -4.8624 -2.54679 0
M  V30 729 H 68.9335 -3.19998 -3.05047 0
M  V30 730 N 67.9926 0.231505 -1.5589 0
M  V30 731 C 69.4036 0.799327 -1.68724 0
M  V30 732 C 69.7546 1.85398 -0.642022 0
M  V30 733 O 68.8796 2.1539 0.208784 0
M  V30 734 C 69.4746 1.45664 -3.05888 0
M  V30 735 C 68.0336 1.97197 -3.20609 0
M  V30 736 C 67.1806 0.828552 -2.64632 0
M  V30 737 H 70.1316 0.00702616 -1.58698 0
M  V30 738 H 70.1526 2.32517 -3.01191 0
M  V30 739 H 69.6646 0.688808 -3.81939 0
M  V30 740 H 67.7656 2.76813 -2.4941 0
M  V30 741 H 67.8786 2.15878 -4.27707 0
M  V30 742 H 66.2426 1.23321 -2.22854 0
M  V30 743 H 67.0256 0.0735544 -3.43221 0
M  V30 744 N 69.4707 1.49531 0.497807 0
M  V30 745 C 70.6957 1.63159 1.28039 0
M  V30 746 C 71.1207 0.30418 1.85624 0
M  V30 747 O 70.4787 -0.728618 1.66015 0
M  V30 748 C 70.5267 2.70537 2.38416 0
M  V30 749 O 69.6307 2.29931 3.42353 0
M  V30 750 H 68.9717 0.546001 0.377861 0
M  V30 751 H 71.5017 1.9574 0.59558 0
M  V30 752 H 71.5117 2.92802 2.84132 0
M  V30 753 H 70.1867 3.6689 1.95869 0
M  V30 754 H 68.7637 2.18009 3.02533 0
M  V30 755 N 70.9488 -0.749086 1.3866 0
M  V30 756 C 71.8788 -1.8764 1.38973 0
M  V30 757 C 72.8598 -1.68178 0.255004 0
M  V30 758 O 74.0448 -1.88704 0.458754 0
M  V30 759 C 71.1748 -3.25222 1.21851 0
M  V30 760 C 70.1288 -3.59295 2.32575 0
M  V30 761 C 69.4548 -4.95663 2.00555 0
M  V30 762 C 70.7548 -3.63709 3.7485 0
M  V30 763 H 72.4488 -1.87635 2.3331 0
M  V30 764 H 69.9948 -0.901329 1.12303 0
M  V30 765 H 71.9478 -4.03746 1.20695 0
M  V30 766 H 70.6718 -3.25719 0.239775 0
M  V30 767 H 69.3308 -2.83093 2.32925 0
M  V30 768 H 68.9788 -4.92724 1.01154 0
M  V30 769 H 68.6788 -5.19429 2.74714 0
M  V30 770 H 70.2028 -5.7656 2.01024 0
M  V30 771 H 71.6168 -4.32338 3.76506 0
M  V30 772 H 70.0138 -3.98986 4.48252 0
M  V30 773 H 71.0838 -2.63834 4.06841 0
M  V30 774 N 72.4269 -1.23603 -0.977757 0
M  V30 775 C 73.6739 -1.06971 -1.71941 0
M  V30 776 C 74.0019 0.393009 -1.90488 0
M  V30 777 O 73.2569 1.30719 -1.4564 0
M  V30 778 C 73.5559 -1.7433 -3.11999 0
M  V30 779 C 73.2219 -3.24252 -3.13323 0
M  V30 780 C 71.8839 -3.65156 -3.13392 0
M  V30 781 C 74.2359 -4.20141 -3.08433 0
M  V30 782 C 71.5639 -5.00403 -3.0629 0
M  V30 783 C 73.9159 -5.55384 -3.02873 0
M  V30 784 C 72.5799 -5.95647 -3.01265 0
M  V30 785 H 71.8499 -0.391433 -0.629175 0
M  V30 786 H 74.4969 -1.53572 -1.14403 0
M  V30 787 H 72.8019 -1.20096 -3.7294 0
M  V30 788 H 74.4989 -1.58936 -3.68158 0
M  V30 789 H 71.0889 -2.91692 -3.14029 0
M  V30 790 H 75.2729 -3.89547 -3.07517 0
M  V30 791 H 70.5289 -5.3081 -3.03399 0
M  V30 792 H 74.7029 -6.29398 -2.98046 0
M  V30 793 H 72.3299 -7.0041 -2.95516 0
M  V30 794 N 73.905 1.17692 -1.04816 0
M  V30 795 C 74.815 2.25229 -0.65643 0
M  V30 796 C 75.831 1.71018 0.320761 0
M  V30 797 O 77.007 2.00649 0.173805 0
M  V30 798 C 74.072 3.46684 -0.0332629 0
M  V30 799 C 73.133 4.15997 -1.06042 0
M  V30 800 C 72.366 5.31654 -0.466893 0
M  V30 801 O 72.589 5.65777 0.724758 0
M  V30 802 O 71.523 5.89831 -1.1993 0
M  V30 803 H 75.349 2.61016 -1.55255 0
M  V30 804 H 72.934 1.24919 -0.81949 0
M  V30 805 H 74.816 4.20234 0.313256 0
M  V30 806 H 73.491 3.12703 0.836566 0
M  V30 807 H 72.398 3.44482 -1.45886 0
M  V30 808 H 73.731 4.53996 -1.90127 0
M  V30 809 N 75.3831 0.828654 1.34056 0
M  V30 810 C 76.6321 0.415828 1.97367 0
M  V30 811 C 76.9451 -1.02796 1.6641 0
M  V30 812 O 78.1511 -1.54497 2.23255 0
M  V30 813 C 76.6071 0.692601 3.53173 0
M  V30 814 C 76.2151 2.15038 3.93017 0
M  V30 815 C 77.9591 0.346222 4.23086 0
M  V30 816 C 75.8661 2.37174 5.41758 0
M  V30 817 H 74.7961 0.151755 0.738571 0
M  V30 818 H 77.4471 1.01581 1.52819 0
M  V30 819 H 75.8291 0.0223764 3.95994 0
M  V30 820 H 77.0031 2.86024 3.61285 0
M  V30 821 H 75.3181 2.45875 3.36057 0
M  V30 822 H 77.9151 0.48937 5.32456 0
M  V30 823 H 78.2581 -0.709842 4.10204 0
M  V30 824 H 78.7911 0.971258 3.85761 0
M  V30 825 H 75.5301 3.41308 5.59633 0
M  V30 826 H 75.0501 1.70738 5.74986 0
M  V30 827 H 76.7291 2.19818 6.08514 0
M  V30 828 N 76.8612 -1.46375 0.584142 0
M  V30 829 C 78.1072 -2.02678 0.0703716 0
M  V30 830 C 78.4402 -1.4545 -1.28678 0
M  V30 831 O 77.7152 -0.62014 -1.84349 0
M  V30 832 C 77.9982 -3.60099 0.00614674 0
M  V30 833 C 77.8512 -4.27709 1.3923 0
M  V30 834 C 79.1702 -4.34598 -0.693742 0
M  V30 835 H 76.2892 -0.736504 0.027047 0
M  V30 836 H 78.9312 -1.74501 0.751615 0
M  V30 837 H 77.0812 -3.84236 -0.574009 0
M  V30 838 H 78.7532 -4.14832 2.01773 0
M  V30 839 H 76.9962 -3.87016 1.95962 0
M  V30 840 H 77.6672 -5.36478 1.29982 0
M  V30 841 H 80.1432 -4.15615 -0.200869 0
M  V30 842 H 79.0192 -5.44318 -0.707714 0
M  V30 843 H 79.2802 -4.05759 -1.75533 0
M  V30 844 N 78.3393 -0.321999 -1.54275 0
M  V30 845 C 79.7553 0.0306999 -1.5957 0
M  V30 846 C 79.9553 1.50614 -1.33857 0
M  V30 847 O 79.0113 2.2619 -1.12223 0
M  V30 848 C 80.3243 -0.386122 -2.98211 0
M  V30 849 C 81.8723 -0.336647 -3.11184 0
M  V30 850 C 82.3473 -0.728607 -4.52167 0
M  V30 851 N 83.8383 -0.681952 -4.58152 0
M  V30 852 C 84.5733 -0.957449 -5.6535 0
M  V30 853 N 84.0693 -1.3 -6.80494 0
M  V30 854 N 85.8623 -0.883113 -5.55119 0
M  V30 855 H 78.0133 -1.28332 -1.69247 0
M  V30 856 H 80.2763 -0.521716 -0.791528 0
M  V30 857 H 79.9823 -1.41404 -3.22022 0
M  V30 858 H 79.8563 0.249662 -3.76373 0
M  V30 859 H 82.2433 0.682058 -2.8711 0
M  V30 860 H 82.3243 -1.00734 -2.3513 0
M  V30 861 H 81.9683 -1.74522 -4.76974 0
M  V30 862 H 81.8983 -0.0356152 -5.26588 0
M  V30 863 H 84.3893 -0.428985 -3.75457 0
M  V30 864 H 84.7023 -1.49563 -7.58189 0
M  V30 865 H 83.0473 -1.33824 -6.81994 0
M  V30 866 H 86.2383 -0.615001 -4.64042 0
M  V30 867 H 86.4113 -1.10118 -6.38575 0
M  V30 868 N 79.8174 1.5752 -0.0501392 0
M  V30 869 C 80.7474 2.14502 0.922566 0
M  V30 870 C 81.7284 1.06642 1.3252 0
M  V30 871 O 82.9134 1.34577 1.4001 0
M  V30 872 C 80.0434 2.68916 2.19776 0
M  V30 873 C 78.9974 3.8175 1.93523 0
M  V30 874 C 78.3234 4.22677 3.27487 0
M  V30 875 C 79.6234 5.06932 1.25765 0
M  V30 876 H 81.3174 2.9603 0.447952 0
M  V30 877 H 78.8634 1.42401 0.214024 0
M  V30 878 H 80.8164 3.07419 2.88222 0
M  V30 879 H 79.5404 1.84578 2.69441 0
M  V30 880 H 78.1994 3.43718 1.27489 0
M  V30 881 H 77.8474 3.35291 3.74952 0
M  V30 882 H 77.5474 4.98725 3.1072 0
M  V30 883 H 79.0714 4.63779 3.97166 0
M  V30 884 H 80.4854 5.42888 1.84244 0
M  V30 885 H 78.8824 5.88116 1.19328 0
M  V30 886 H 79.9524 4.84337 0.233536 0
M  V30 887 N 81.2955 -0.223234 1.56011 0
M  V30 888 C 82.2435 -1.29627 1.93131 0
M  V30 889 C 83.2375 -1.48608 0.813146 0
M  V30 890 O 84.4435 -1.49802 0.997966 0
M  V30 891 H 80.8185 -0.434563 0.613726 0
M  V30 892 H 82.7895 -0.955995 2.82672 0
M  V30 893 C 81.5385 -2.63983 2.26292 0
M  V30 894 H 80.8615 -2.50185 3.11846 0
M  V30 895 H 82.3015 -3.3788 2.56151 0
M  V30 896 C 80.7605 -3.18866 1.08747 0
M  V30 897 O 81.2905 -4.00192 0.347727 0
M  V30 898 N 79.4965 -2.77217 0.871743 0
M  V30 899 H 79.0435 -2.1119 1.47501 0
M  V30 900 H 79.0015 -3.1428 0.0869905 0
M  V30 901 N 82.7736 -1.49793 -0.48987 0
M  V30 902 C 84.0506 -1.50348 -1.25119 0
M  V30 903 C 84.4306 -0.237466 -2.0976 0
M  V30 904 O 83.7786 0.77981 -2.14782 0
M  V30 905 C 83.9886 -2.78872 -2.09837 0
M  V30 906 C 85.3366 -3.288 -2.68655 0
M  V30 907 O 86.3606 -2.80065 -2.20096 0
M  V30 908 O 85.2196 -4.13707 -3.57083 0
M  V30 909 H 82.3136 -0.602242 -0.566775 0
M  V30 910 H 84.8596 -1.62067 -0.503229 0
M  V30 911 H 83.6316 -3.62499 -1.47343 0
M  V30 912 H 83.2546 -2.70066 -2.91805 0
M  V30 913 N 84.2517 0.741722 -1.39055 0
M  V30 914 C 85.1817 1.869 -1.39966 0
M  V30 915 C 86.1627 1.6804 -0.26392 0
M  V30 916 O 87.3477 1.88458 -0.468755 0
M  V30 917 C 84.4777 3.24572 -1.23574 0
M  V30 918 C 83.4317 3.58056 -2.34477 0
M  V30 919 C 82.7577 4.94593 -2.0318 0
M  V30 920 C 84.0577 3.61716 -3.76774 0
M  V30 921 H 85.7517 1.86395 -2.34302 0
M  V30 922 H 83.2977 0.895361 -1.1278 0
M  V30 923 H 85.2507 4.031 -1.22834 0
M  V30 924 H 83.9747 3.25587 -0.257045 0
M  V30 925 H 82.6337 2.81854 -2.34423 0
M  V30 926 H 82.2817 4.92181 -1.03765 0
M  V30 927 H 81.9817 5.17964 -2.77465 0
M  V30 928 H 83.5057 5.75486 -2.04079 0
M  V30 929 H 84.9197 4.30335 -3.78794 0
M  V30 930 H 83.3167 3.96603 -4.50362 0
M  V30 931 H 84.3867 2.61672 -4.08235 0
M  V30 932 N 85.7298 1.2412 0.971189 0
M  V30 933 C 86.6628 0.97373 2.06382 0
M  V30 934 C 87.6408 -0.0912662 1.62344 0
M  V30 935 O 88.8248 0.0449365 1.88446 0
M  V30 936 C 85.9518 0.468746 3.35441 0
M  V30 937 C 84.9978 1.52176 3.98428 0
M  V30 938 S 85.8308 3.10203 4.36503 0
M  V30 939 C 86.9868 2.61398 5.68702 0
M  V30 940 H 87.2198 1.89893 2.28753 0
M  V30 941 H 84.7528 1.07466 1.10862 0
M  V30 942 H 86.7108 0.184012 4.10087 0
M  V30 943 H 85.3718 -0.435688 3.11064 0
M  V30 944 H 84.5648 1.11876 4.91426 0
M  V30 945 H 84.1668 1.75632 3.30196 0
M  V30 946 H 86.4588 2.03992 6.4606 0
M  V30 947 H 87.4018 3.52972 6.13854 0
M  V30 948 H 87.8098 2.01941 5.27143 0
M  V30 949 N 87.2079 -1.17134 1.05439 0
M  V30 950 C 88.1179 -2.24878 0.668365 0
M  V30 951 C 89.1339 -1.71186 -0.311687 0
M  V30 952 O 90.3099 -2.00738 -0.163161 0
M  V30 953 C 87.3749 -3.46662 0.051648 0
M  V30 954 C 86.4359 -4.15429 1.08246 0
M  V30 955 C 85.6689 -5.31399 0.495082 0
M  V30 956 O 85.8919 -5.66153 -0.694743 0
M  V30 957 O 84.8259 -5.89187 1.23056 0
M  V30 958 H 88.6519 -2.60189 1.56637 0
M  V30 959 H 86.2369 -1.24482 0.826104 0
M  V30 960 H 88.1189 -4.20394 -0.290966 0
M  V30 961 H 86.7939 -3.13142 -0.819971 0
M  V30 962 H 85.7009 -3.43704 1.47711 0
M  V30 963 H 87.0339 -4.52982 1.92532 0
M  V30 964 N 88.686 -0.835752 -1.33615 0
M  V30 965 C 89.911 -0.442389 -2.02627 0
M  V30 966 C 90.336 0.947735 -1.62479 0
M  V30 967 O 89.694 1.61907 -0.815826 0
M  V30 968 C 89.742 -0.567216 -3.56111 0
M  V30 969 O 88.846 0.407799 -4.10379 0
M  V30 970 H 88.187 -0.180278 -0.639059 0
M  V30 971 H 90.717 -1.12972 -1.70583 0
M  V30 972 H 90.727 -0.447708 -4.05536 0
M  V30 973 H 89.402 -1.58103 -3.84677 0
M  V30 974 H 87.979 0.246107 -3.72087 0
M  V30 975 N 90.1641 1.46063 -0.591896 0
M  V30 976 C 91.1141 2.27458 0.157172 0
M  V30 977 C 92.0981 1.3641 0.853301 0
M  V30 978 O 93.2901 1.60517 0.74588 0
M  V30 979 C 90.4191 3.22956 1.16423 0
M  V30 980 C 89.5051 4.2149 0.469742 0
M  V30 981 N 89.8961 5.03519 -0.479839 0
M  V30 982 C 88.1941 4.40161 0.719319 0
M  V30 983 C 88.8951 5.74904 -0.886591 0
M  V30 984 N 87.8711 5.43097 -0.233731 0
M  V30 985 H 91.6731 2.88272 -0.572392 0
M  V30 986 H 89.1871 1.57024 -0.414375 0
M  V30 987 H 91.1841 3.79986 1.71513 0
M  V30 988 H 89.8441 2.63701 1.89451 0
M  V30 989 H 90.8551 5.1078 -0.855823 0
M  V30 990 H 87.5321 3.92046 1.43548 0
M  V30 991 H 88.9221 6.50844 -1.66888 0
M  V30 992 N 91.6422 0.330177 1.54103 0
M  V30 993 C 92.8912 -0.271336 1.99867 0
M  V30 994 C 93.2042 -1.52723 1.22209 0
M  V30 995 O 94.4102 -2.20515 1.58383 0
M  V30 996 C 92.8662 -0.534032 3.55916 0
M  V30 997 C 92.4742 0.705193 4.42415 0
M  V30 998 C 94.2182 -1.09514 4.1013 0
M  V30 999 C 92.1252 0.414035 5.89949 0
M  V30 1000 H 91.0552 -0.105166 0.74663 0
M  V30 1001 H 93.7062 0.443429 1.78062 0
M  V30 1002 H 92.0882 -1.30915 3.73734 0
M  V30 1003 H 93.2622 1.4804 4.36372 0
M  V30 1004 H 91.5772 1.18698 3.99124 0
M  V30 1005 H 94.1742 -1.3277 5.17954 0
M  V30 1006 H 94.5172 -2.04656 3.62521 0
M  V30 1007 H 95.0502 -0.381038 3.95971 0
M  V30 1008 H 91.7892 1.33481 6.41766 0
M  V30 1009 H 91.3092 -0.323336 5.98928 0
M  V30 1010 H 92.9882 0.0263105 6.46995 0
M  V30 1011 N 93.1203 -1.57491 0.0584922 0
M  V30 1012 C 94.3683 -1.92597 -0.612436 0
M  V30 1013 C 94.6893 -0.938162 -1.70949 0
M  V30 1014 O 93.9593 0.0158301 -1.95894 0
M  V30 1015 H 92.5393 -0.710964 -0.229214 0
M  V30 1016 H 95.2013 -1.94571 0.113218 0
M  V30 1017 H 94.2973 -2.94038 -1.04633 0
M  V30 1018 N 94.5984 0.214957 -1.56127 0
M  V30 1019 C 95.8754 0.963093 -1.70247 0
M  V30 1020 C 96.2554 2.02166 -0.60764 0
M  V30 1021 O 95.6034 2.25244 0.384385 0
M  V30 1022 C 95.8134 1.56756 -3.11815 0
M  V30 1023 C 97.1614 2.0573 -3.7143 0
M  V30 1024 O 98.1854 1.66637 -3.14818 0
M  V30 1025 O 97.0444 2.77603 -4.70743 0
M  V30 1026 H 94.1384 0.450321 -0.693643 0
M  V30 1027 H 96.6844 0.206219 -1.68442 0
M  V30 1028 H 95.4564 0.803533 -3.82961 0
M  V30 1029 H 95.0794 2.3898 -3.17765 0
M  V30 1030 N 96.0765 1.50051 0.48192 0
M  V30 1031 C 97.3255 1.59741 1.23149 0
M  V30 1032 C 97.6385 0.298163 1.93314 0
M  V30 1033 O 98.8445 0.273835 2.70116 0
M  V30 1034 C 97.3005 2.81926 2.23708 0
M  V30 1035 C 96.9085 4.18685 1.59396 0
M  V30 1036 C 98.6525 3.00956 2.99375 0
M  V30 1037 C 96.5595 5.3207 2.58178 0
M  V30 1038 H 95.4895 0.594838 0.46334 0
M  V30 1039 H 98.1405 1.76467 0.503169 0
M  V30 1040 H 96.5225 2.58736 2.99786 0
M  V30 1041 H 97.6965 4.52088 0.891811 0
M  V30 1042 H 96.0115 4.05171 0.960503 0
M  V30 1043 H 98.6085 3.82836 3.73283 0
M  V30 1044 H 98.9515 2.12258 3.58123 0
M  V30 1045 H 99.4845 3.24277 2.30411 0
M  V30 1046 H 96.2235 6.22888 2.04184 0
M  V30 1047 H 95.7435 5.03098 3.26577 0
M  V30 1048 H 97.4225 5.62196 3.20225 0
M  V30 1049 N 97.5546 -0.734337 1.39446 0
M  V30 1050 C 98.9706 -1.03997 1.21065 0
M  V30 1051 C 99.1706 -2.01369 0.0727019 0
M  V30 1052 O 98.2266 -2.45856 -0.575426 0
M  V30 1053 C 99.5396 -1.60163 2.54496 0
M  V30 1054 C 101.088 -1.7224 2.61347 0
M  V30 1055 C 101.563 -2.31814 3.95002 0
M  V30 1056 N 103.054 -2.39223 3.96644 0
M  V30 1057 C 103.789 -2.86258 4.96834 0
M  V30 1058 N 103.285 -3.33184 6.07421 0
M  V30 1059 N 105.078 -2.85473 4.84213 0
M  V30 1060 H 97.2286 -0.0885624 2.12215 0
M  V30 1061 H 99.4916 -0.10191 0.942506 0
M  V30 1062 H 99.1976 -0.960811 3.38321 0
M  V30 1063 H 99.0716 -2.5896 2.74262 0
M  V30 1064 H 101.459 -2.35443 1.77906 0
M  V30 1065 H 101.54 -0.720939 2.4543 0
M  V30 1066 H 101.184 -1.69238 4.78875 0
M  V30 1067 H 101.114 -3.32638 4.08239 0
M  V30 1068 H 103.605 -2.06057 3.16779 0
M  V30 1069 H 103.918 -3.67586 6.7978 0
M  V30 1070 H 102.263 -3.31191 6.11013 0
M  V30 1071 H 105.454 -2.48136 3.96921 0
M  V30 1072 H 105.627 -3.21814 5.62441 0
M  V30 1073 N 99.0327 -1.24633 -0.964593 0
M  V30 1074 C 100.31 -0.995809 -1.68354 0
M  V30 1075 C 100.69 0.480964 -2.05548 0
M  V30 1076 O 100.038 1.45599 -1.76105 0
M  V30 1077 C 100.248 -1.92177 -2.91323 0
M  V30 1078 C 101.596 -2.19446 -3.63495 0
M  V30 1079 O 102.62 -1.89855 -3.01386 0
M  V30 1080 O 101.479 -2.69714 -4.75307 0
M  V30 1081 H 98.5727 -0.376854 -0.736146 0
M  V30 1082 H 101.119 -1.35745 -1.0184 0
M  V30 1083 H 99.8907 -2.91938 -2.60553 0
M  V30 1084 H 99.5137 -1.56349 -3.65569 0
M  V30 1085 N 100.511 1.16574 -1.06058 0
M  V30 1086 C 101.758 1.87047 -0.775873 0
M  V30 1087 C 102.086 1.81562 0.697534 0
M  V30 1088 O 101.341 1.22445 1.52662 0
M  V30 1089 C 101.64 3.36195 -1.21275 0
M  V30 1090 C 101.306 3.6188 -2.68986 0
M  V30 1091 C 99.9678 3.68599 -3.09335 0
M  V30 1092 C 102.32 3.72648 -3.64394 0
M  V30 1093 C 99.6478 3.83584 -4.43937 0
M  V30 1094 C 102 3.89154 -4.98741 0
M  V30 1095 C 100.664 3.94114 -5.3873 0
M  V30 1096 H 99.9338 0.684452 -0.283912 0
M  V30 1097 H 102.581 1.37853 -1.32925 0
M  V30 1098 H 100.886 3.87505 -0.578528 0
M  V30 1099 H 102.583 3.89103 -0.969542 0
M  V30 1100 H 99.1728 3.57281 -2.36744 0
M  V30 1101 H 103.357 3.66769 -3.34356 0
M  V30 1102 H 98.6128 3.85677 -4.74409 0
M  V30 1103 H 102.787 3.96427 -5.72554 0
M  V30 1104 H 100.414 4.05478 -6.43033 0
M  V30 1105 N 101.989 0.842826 1.3317 0
M  V30 1106 C 102.899 0.281444 2.32906 0
M  V30 1107 C 103.915 -0.594587 1.63526 0
M  V30 1108 O 105.091 -0.49777 1.95152 0
M  V30 1109 C 102.156 -0.530929 3.42611 0
M  V30 1110 C 101.217 0.369843 4.27704 0
M  V30 1111 C 100.45 -0.403853 5.3217 0
M  V30 1112 O 100.673 -1.63513 5.46461 0
M  V30 1113 O 99.6069 0.224199 6.01482 0
M  V30 1114 H 103.433 1.10744 2.82789 0
M  V30 1115 H 101.018 0.60545 1.36582 0
M  V30 1116 H 102.9 -0.992437 4.09547 0
M  V30 1117 H 101.575 -1.33392 2.94938 0
M  V30 1118 H 100.482 0.879275 3.6362 0
M  V30 1119 H 101.815 1.13771 4.78871 0
M  V30 1120 N 103.467 -1.45747 0.599634 0
M  V30 1121 C 104.414 -2.30467 -0.123849 0
M  V30 1122 C 105.384 -1.41632 -0.86774 0
M  V30 1123 O 106.569 -1.70568 -0.855056 0
M  V30 1124 C 103.709 -3.26402 -1.12051 0
M  V30 1125 C 102.822 -4.3034 -0.37832 0
M  V30 1126 C 101.957 -5.13389 -1.364 0
M  V30 1127 C 100.996 -6.09061 -0.609171 0
M  V30 1128 N 100.133 -6.84918 -1.54374 0
M  V30 1129 H 104.973 -2.91802 0.604627 0
M  V30 1130 H 102.51 -1.43797 0.309972 0
M  V30 1131 H 104.468 -3.80482 -1.7114 0
M  V30 1132 H 103.098 -2.66839 -1.8165 0
M  V30 1133 H 102.15 -3.78984 0.327929 0
M  V30 1134 H 103.462 -4.98354 0.210997 0
M  V30 1135 H 102.616 -5.7183 -2.02719 0
M  V30 1136 H 101.355 -4.45376 -1.98725 0
M  V30 1137 H 100.36 -5.49758 0.0676979 0
M  V30 1138 H 101.585 -6.79099 0.00891991 0
M  V30 1139 H 99.531 -6.19601 -2.15478 0
M  V30 1140 H 99.448 -7.49254 -1.00766 0
M  V30 1141 H 100.716 -7.47906 -2.19676 0
M  V30 1142 N 104.945 -0.338344 -1.53925 0
M  V30 1143 C 105.875 0.51328 -2.27789 0
M  V30 1144 C 106.856 1.107 -1.29149 0
M  V30 1145 O 108.041 1.12937 -1.57984 0
M  V30 1146 C 105.171 1.66697 -3.04679 0
M  V30 1147 C 104.125 1.20183 -4.1078 0
M  V30 1148 C 103.451 2.44363 -4.75595 0
M  V30 1149 C 104.751 0.30605 -5.21403 0
M  V30 1150 H 106.445 -0.102883 -2.99223 0
M  V30 1151 H 103.991 -0.0509219 -1.4391 0
M  V30 1152 H 105.944 2.26915 -3.55088 0
M  V30 1153 H 104.668 2.30995 -2.30887 0
M  V30 1154 H 103.327 0.622499 -3.61276 0
M  V30 1155 H 102.975 3.07057 -3.98403 0
M  V30 1156 H 102.675 2.13925 -5.47275 0
M  V30 1157 H 104.199 3.05317 -5.28786 0
M  V30 1158 H 105.613 0.814929 -5.67478 0
M  V30 1159 H 104.01 0.0937929 -6.00027 0
M  V30 1160 H 105.08 -0.65921 -4.80398 0
M  V30 1161 N 106.423 1.57458 -0.0668435 0
M  V30 1162 C 107.839 1.56947 0.289772 0
M  V30 1163 C 108.039 1.07584 1.70376 0
M  V30 1164 O 107.095 0.739486 2.41429 0
M  V30 1165 C 108.408 3.0052 0.103943 0
M  V30 1166 C 109.956 3.12517 0.173857 0
M  V30 1167 C 110.431 4.57997 0.0163682 0
M  V30 1168 N 111.922 4.63144 0.0721352 0
M  V30 1169 C 112.657 5.73394 -0.0253794 0
M  V30 1170 N 112.153 6.92576 -0.176133 0
M  V30 1171 N 113.946 5.62091 0.0313305 0
M  V30 1172 H 106.097 1.87863 -0.991027 0
M  V30 1173 H 108.36 0.86583 -0.38606 0
M  V30 1174 H 108.066 3.40729 -0.871572 0
M  V30 1175 H 107.94 3.67304 0.858366 0
M  V30 1176 H 110.327 2.72197 1.13985 0
M  V30 1177 H 110.408 2.48381 -0.611586 0
M  V30 1178 H 110.052 4.99005 -0.946374 0
M  V30 1179 H 109.982 5.20158 0.821153 0
M  V30 1180 H 112.473 3.77436 0.187263 0
M  V30 1181 H 112.786 7.72418 -0.242821 0
M  V30 1182 H 111.131 6.94678 -0.211429 0
M  V30 1183 H 114.322 4.67867 0.147773 0
M  V30 1184 H 114.495 6.47982 -0.048121 0
M  V30 1185 N 107.901 -0.206675 1.56239 0
M  V30 1186 C 108.849 -1.27571 1.94495 0
M  V30 1187 C 109.843 -1.47737 0.828862 0
M  V30 1188 O 111.049 -1.48735 1.0138 0
M  V30 1189 H 107.424 -0.428029 0.6183 0
M  V30 1190 H 109.395 -0.925961 2.8367 0
M  V30 1191 C 108.144 -2.61568 2.29079 0
M  V30 1192 H 107.467 -2.46863 3.14482 0
M  V30 1193 H 108.907 -3.35144 2.5972 0
M  V30 1194 C 107.366 -3.17695 1.12123 0
M  V30 1195 O 107.896 -3.99801 0.390153 0
M  V30 1196 N 106.102 -2.76276 0.901097 0
M  V30 1197 H 105.649 -2.09613 1.49733 0
M  V30 1198 H 105.607 -3.1417 0.120319 0
M  V30 1199 N 109.379 -1.50304 -0.473955 0
M  V30 1200 C 110.604 -1.65175 -1.25427 0
M  V30 1201 C 111.029 -0.333673 -1.85117 0
M  V30 1202 O 110.387 0.702114 -1.67153 0
M  V30 1203 C 110.435 -2.74295 -2.34082 0
M  V30 1204 O 109.539 -2.35349 -3.38651 0
M  V30 1205 H 108.88 -0.551944 -0.369126 0
M  V30 1206 H 111.41 -1.96662 -0.564364 0
M  V30 1207 H 111.42 -2.97285 -2.79438 0
M  V30 1208 H 110.095 -3.69959 -1.90008 0
M  V30 1209 H 108.672 -2.22794 -2.99027 0
M  V30 1210 N 110.857 0.726932 -1.39834 0
M  V30 1211 C 112.106 1.48214 -1.36805 0
M  V30 1212 C 112.419 1.95576 0.0305291 0
M  V30 1213 O 113.625 2.7088 0.183417 0
M  V30 1214 C 112.081 2.67854 -2.40379 0
M  V30 1215 C 111.689 2.27408 -3.85992 0
M  V30 1216 C 113.433 3.45641 -2.46439 0
M  V30 1217 C 111.34 3.43819 -4.81189 0
M  V30 1218 H 110.27 0.556606 -0.508631 0
M  V30 1219 H 112.921 0.792216 -1.65518 0
M  V30 1220 H 111.303 3.3896 -2.04749 0
M  V30 1221 H 112.477 1.63795 -4.30706 0
M  V30 1222 H 110.792 1.62692 -3.83302 0
M  V30 1223 H 113.389 4.32244 -3.14753 0
M  V30 1224 H 113.732 3.88669 -1.49139 0
M  V30 1225 H 114.265 2.8157 -2.81004 0
M  V30 1226 H 111.004 3.05834 -5.79781 0
M  V30 1227 H 110.524 4.06385 -4.41148 0
M  V30 1228 H 112.203 4.10043 -5.00474 0
M  V30 1229 N 112.336 1.25143 0.95797 0
M  V30 1230 C 113.299 1.05321 2.03569 0
M  V30 1231 C 114.299 0.007152 1.60798 0
M  V30 1232 O 115.489 0.24903 1.72411 0
M  V30 1233 C 112.621 0.598394 3.35607 0
M  V30 1234 H 113.814 2.00986 2.22586 0
M  V30 1235 H 111.367 1.07502 1.13459 0
M  V30 1236 H 112.102 -0.361014 3.22284 0
M  V30 1237 H 111.887 1.35351 3.67998 0
M  V30 1238 H 113.377 0.48104 4.1482 0
M  V30 1239 N 113.814 -1.1601 1.06675 0
M  V30 1240 C 114.724 -2.24156 0.692179 0
M  V30 1241 C 115.74 -1.71507 -0.293513 0
M  V30 1242 O 116.916 -2.009 -0.141861 0
M  V30 1243 C 113.981 -3.46587 0.0884131 0
M  V30 1244 C 113.042 -4.14257 1.12646 0
M  V30 1245 C 112.275 -5.30844 0.551416 0
M  V30 1246 O 112.498 -5.66858 -0.634656 0
M  V30 1247 O 111.432 -5.87848 1.29298 0
M  V30 1248 H 115.258 -2.58513 1.59388 0
M  V30 1249 H 112.843 -1.23599 0.83926 0
M  V30 1250 H 114.725 -4.20679 -0.246361 0
M  V30 1251 H 113.4 -3.13994 -0.786712 0
M  V30 1252 H 112.307 -3.42118 1.51348 0
M  V30 1253 H 113.64 -4.50914 1.97325 0
M  V30 1254 N 115.292 -0.849877 -1.32721 0
M  V30 1255 C 116.539 -0.450923 -1.97416 0
M  V30 1256 C 116.867 0.992376 -1.67279 0
M  V30 1257 O 116.122 1.71048 -0.950845 0
M  V30 1258 C 116.421 -0.631272 -3.51781 0
M  V30 1259 C 116.087 -2.04432 -4.01894 0
M  V30 1260 C 114.749 -2.4308 -4.1529 0
M  V30 1261 C 117.101 -2.96679 -4.28522 0
M  V30 1262 C 114.429 -3.73257 -4.52654 0
M  V30 1263 C 116.781 -4.26349 -4.67343 0
M  V30 1264 C 115.445 -4.64939 -4.78945 0
M  V30 1265 H 114.715 -0.165004 -0.722395 0
M  V30 1266 H 117.362 -1.07901 -1.58207 0
M  V30 1267 H 115.667 0.0800767 -3.91718 0
M  V30 1268 H 117.364 -0.302709 -3.99856 0
M  V30 1269 H 113.954 -1.73419 -3.91949 0
M  V30 1270 H 118.138 -2.68054 -4.17685 0
M  V30 1271 H 113.394 -4.02946 -4.59831 0
M  V30 1272 H 117.568 -4.97895 -4.86902 0
M  V30 1273 H 115.195 -5.65855 -5.07654 0
M  V30 1274 N 116.77 1.45427 -0.607355 0
M  V30 1275 C 117.717 2.3053 0.111625 0
M  V30 1276 C 118.687 1.4209 0.860216 0
M  V30 1277 O 119.872 1.71019 0.845998 0
M  V30 1278 C 117.012 3.26992 1.10319 0
M  V30 1279 C 116.125 4.30535 0.355493 0
M  V30 1280 C 115.26 5.14105 1.33676 0
M  V30 1281 C 114.299 6.09376 0.576862 0
M  V30 1282 N 113.436 6.85727 1.5074 0
M  V30 1283 H 118.276 2.91477 -0.620093 0
M  V30 1284 H 115.813 1.43631 -0.317594 0
M  V30 1285 H 117.771 3.81385 1.6912 0
M  V30 1286 H 116.401 2.67799 1.80232 0
M  V30 1287 H 115.453 3.78805 -0.348023 0
M  V30 1288 H 116.765 4.98235 -0.237423 0
M  V30 1289 H 115.919 5.72897 1.99684 0
M  V30 1290 H 114.658 4.46423 1.9636 0
M  V30 1291 H 113.663 5.49715 -0.0968519 0
M  V30 1292 H 114.888 6.79085 -0.0449341 0
M  V30 1293 H 112.834 6.20735 2.12189 0
M  V30 1294 H 112.751 7.49778 0.967913 0
M  V30 1295 H 114.019 7.4906 2.15706 0
M  V30 1296 N 118.248 0.346503 1.53744 0
M  V30 1297 C 119.659 -0.136779 1.86198 0
M  V30 1298 C 120.01 -1.49749 1.26766 0
M  V30 1299 O 119.135 -2.08417 0.582355 0
M  V30 1300 C 119.73 -0.254966 3.37839 0
M  V30 1301 C 118.289 -0.682482 3.70161 0
M  V30 1302 C 117.436 0.181981 2.76702 0
M  V30 1303 H 120.387 0.565994 1.48264 0
M  V30 1304 H 120.408 -1.08195 3.64793 0
M  V30 1305 H 119.92 0.735526 3.81066 0
M  V30 1306 H 118.021 -1.68189 3.3248 0
M  V30 1307 H 118.134 -0.470326 4.76786 0
M  V30 1308 H 116.498 -0.34615 2.52337 0
M  V30 1309 H 117.281 1.16966 3.2276 0
M  V30 1310 N 119.726 -1.57421 0.075193 0
M  V30 1311 C 120.636 -2.1642 -0.905511 0
M  V30 1312 C 121.652 -1.12828 -1.32461 0
M  V30 1313 O 122.828 -1.45109 -1.39661 0
M  V30 1314 C 119.893 -2.71693 -2.15369 0
M  V30 1315 C 118.954 -3.90171 -1.79068 0
M  V30 1316 C 118.187 -4.42798 -2.97936 0
M  V30 1317 O 118.41 -3.94416 -4.12058 0
M  V30 1318 O 117.344 -5.34085 -2.77555 0
M  V30 1319 H 121.17 -3.00588 -0.433626 0
M  V30 1320 H 118.755 -1.48664 -0.148067 0
M  V30 1321 H 120.637 -3.07104 -2.88557 0
M  V30 1322 H 119.312 -1.90582 -2.61649 0
M  V30 1323 H 118.219 -3.59606 -1.03122 0
M  V30 1324 H 119.552 -4.72584 -1.37569 0
M  V30 1325 N 121.204 0.198386 -1.56346 0
M  V30 1326 C 122.453 0.917451 -1.79627 0
M  V30 1327 C 122.766 1.8456 -0.64784 0
M  V30 1328 O 123.972 2.60504 -0.764859 0
M  V30 1329 C 122.428 1.68175 -3.18191 0
M  V30 1330 C 122.036 0.798589 -4.40825 0
M  V30 1331 C 123.78 2.39065 -3.50782 0
M  V30 1332 C 121.687 1.56157 -5.70411 0
M  V30 1333 H 120.617 0.346317 -0.669762 0
M  V30 1334 H 123.268 0.170801 -1.82703 0
M  V30 1335 H 121.65 2.47216 -3.09354 0
M  V30 1336 H 122.824 0.0470665 -4.60776 0
M  V30 1337 H 121.139 0.200686 -4.15916 0
M  V30 1338 H 123.736 2.96692 -4.44835 0
M  V30 1339 H 124.079 3.13091 -2.74371 0
M  V30 1340 H 124.612 1.66993 -3.61052 0
M  V30 1341 H 121.351 0.864142 -6.49779 0
M  V30 1342 H 120.871 2.2871 -5.54483 0
M  V30 1343 H 122.55 2.11622 -6.11412 0
M  V30 1344 N 122.682 1.50554 0.465978 0
M  V30 1345 C 123.928 1.62038 1.21949 0
M  V30 1346 C 124.261 0.322116 1.9151 0
M  V30 1347 O 123.536 -0.676723 1.82348 0
M  V30 1348 C 123.819 2.80421 2.25912 0
M  V30 1349 C 123.672 4.20144 1.60622 0
M  V30 1350 C 124.991 2.94354 3.27176 0
M  V30 1351 H 122.11 0.589752 0.441998 0
M  V30 1352 H 124.752 1.82956 0.51257 0
M  V30 1353 H 122.902 2.62717 2.86203 0
M  V30 1354 H 124.574 4.49449 1.03889 0
M  V30 1355 H 122.817 4.24165 0.909211 0
M  V30 1356 H 123.488 4.98914 2.36196 0
M  V30 1357 H 125.964 3.10578 2.76913 0
M  V30 1358 H 124.84 3.788 3.97242 0
M  V30 1359 H 125.101 2.05186 3.916 0
M  V30 1360 N 124.16 -0.719506 1.40217 0
M  V30 1361 C 125.407 -1.47933 1.38283 0
M  V30 1362 C 125.735 -1.94493 -0.0161536 0
M  V30 1363 O 124.99 -1.68224 -0.999956 0
M  V30 1364 C 125.289 -2.72271 2.31524 0
M  V30 1365 C 124.955 -2.44496 3.78857 0
M  V30 1366 C 123.617 -2.36631 4.18998 0
M  V30 1367 C 125.969 -2.21104 4.71977 0
M  V30 1368 C 123.297 -2.03437 5.503 0
M  V30 1369 C 125.649 -1.89423 6.03574 0
M  V30 1370 C 124.313 -1.80038 6.42762 0
M  V30 1371 H 123.583 -0.541325 0.506012 0
M  V30 1372 H 126.23 -0.824502 1.72842 0
M  V30 1373 H 124.535 -3.42572 1.90137 0
M  V30 1374 H 126.232 -3.30348 2.27313 0
M  V30 1375 H 122.822 -2.51503 3.47051 0
M  V30 1376 H 127.006 -2.26139 4.41786 0
M  V30 1377 H 122.262 -1.94705 5.79569 0
M  V30 1378 H 126.436 -1.70336 6.75247 0
M  V30 1379 H 124.063 -1.54083 7.44421 0
M  V30 1380 N 125.638 -1.25649 -0.95132 0
M  V30 1381 C 126.588 -1.03004 -2.03406 0
M  V30 1382 C 127.572 0.034187 -1.60864 0
M  V30 1383 O 128.764 -0.181549 -1.76066 0
M  V30 1384 C 125.893 -0.654255 -3.37008 0
M  V30 1385 C 124.979 -1.75542 -3.86065 0
M  V30 1386 N 125.37 -2.99113 -4.07879 0
M  V30 1387 C 123.668 -1.63669 -4.14884 0
M  V30 1388 C 124.369 -3.70611 -4.48356 0
M  V30 1389 N 123.345 -2.98247 -4.54477 0
M  V30 1390 H 127.147 -1.96813 -2.1827 0
M  V30 1391 H 124.661 -1.16017 -1.13639 0
M  V30 1392 H 126.658 -0.473206 -4.14206 0
M  V30 1393 H 125.318 0.276468 -3.23521 0
M  V30 1394 H 126.329 -3.35124 -3.94857 0
M  V30 1395 H 123.006 -0.775161 -4.10241 0
M  V30 1396 H 124.396 -4.76695 -4.73509 0
M  V30 1397 N 127.117 1.15442 -1.07289 0
M  V30 1398 C 128.05 2.19135 -0.636798 0
M  V30 1399 C 129.028 1.58884 0.34562 0
M  V30 1400 O 130.212 1.86805 0.252195 0
M  V30 1401 C 127.339 3.38638 0.0650014 0
M  V30 1402 C 126.385 4.17412 -0.87576 0
M  V30 1403 S 127.218 4.79882 -2.37642 0
M  V30 1404 C 128.374 6.02753 -1.6864 0
M  V30 1405 H 128.607 2.55787 -1.51526 0
M  V30 1406 H 126.14 1.26394 -0.886793 0
M  V30 1407 H 128.098 4.07873 0.463664 0
M  V30 1408 H 126.759 3.00331 0.919801 0
M  V30 1409 H 125.952 5.02909 -0.33143 0
M  V30 1410 H 125.554 3.53722 -1.21478 0
M  V30 1411 H 127.846 6.70113 -0.997753 0
M  V30 1412 H 128.789 6.61754 -2.51967 0
M  V30 1413 H 129.197 5.52355 -1.16465 0
M  V30 1414 N 128.595 0.856903 1.32268 0
M  V30 1415 C 129.558 0.308171 2.27119 0
M  V30 1416 C 130.558 -0.533421 1.51695 0
M  V30 1417 O 131.748 -0.344607 1.70757 0
M  V30 1418 C 128.88 -0.563757 3.36206 0
M  V30 1419 H 130.073 1.14535 2.77167 0
M  V30 1420 H 127.626 0.631421 1.42978 0
M  V30 1421 H 128.361 -1.42266 2.91429 0
M  V30 1422 H 128.146 0.0386749 3.92081 0
M  V30 1423 H 129.636 -0.940386 4.06874 0
M  V30 1424 N 130.073 -1.45103 0.615059 0
M  V30 1425 C 131.036 -2.29025 -0.0895485 0
M  V30 1426 C 132.036 -1.40174 -0.787906 0
M  V30 1427 O 133.226 -1.62217 -0.634933 0
M  V30 1428 C 130.358 -3.21376 -1.13711 0
M  V30 1429 H 131.551 -2.92807 0.648382 0
M  V30 1430 H 129.104 -1.51749 0.374444 0
M  V30 1431 H 129.839 -2.6241 -1.90556 0
M  V30 1432 H 129.624 -3.86834 -0.640475 0
M  V30 1433 H 131.114 -3.84459 -1.63036 0
M  V30 1434 N 131.551 -0.354651 -1.53558 0
M  V30 1435 C 132.483 0.5315 -2.22952 0
M  V30 1436 C 133.496 1.05503 -1.23988 0
M  V30 1437 O 134.685 0.963279 -1.50277 0
M  V30 1438 C 131.785 1.74538 -2.90499 0
M  V30 1439 C 130.958 1.35524 -4.15875 0
M  V30 1440 C 130.017 2.42999 -4.66731 0
M  V30 1441 O 129.043 2.05844 -5.30676 0
M  V30 1442 N 130.245 3.74423 -4.43608 0
M  V30 1443 H 133.01 -0.0628615 -2.99634 0
M  V30 1444 H 130.571 -0.179302 -1.60904 0
M  V30 1445 H 132.563 2.45892 -3.21433 0
M  V30 1446 H 131.133 2.24686 -2.17336 0
M  V30 1447 H 130.353 0.471998 -3.91364 0
M  V30 1448 H 131.641 1.07071 -4.97406 0
M  V30 1449 H 131.039 4.07391 -3.92491 0
M  V30 1450 H 129.596 4.41913 -4.7912 0
M  V30 1451 N 133.029 1.57378 -0.0835403 0
M  V30 1452 C 134.44 1.81261 0.447358 0
M  V30 1453 C 134.791 0.998331 1.68902 0
M  V30 1454 O 133.916 0.224282 2.15235 0
M  V30 1455 C 134.511 3.28767 0.818386 0
M  V30 1456 C 133.07 3.53455 1.29409 0
M  V30 1457 C 132.217 2.75831 0.285024 0
M  V30 1458 H 135.168 1.5566 -0.309115 0
M  V30 1459 H 135.189 3.41459 1.67887 0
M  V30 1460 H 134.701 3.88006 -0.0855019 0
M  V30 1461 H 132.802 2.99534 2.21608 0
M  V30 1462 H 132.915 4.62128 1.2639 0
M  V30 1463 H 131.279 2.42947 0.764767 0
M  V30 1464 H 132.062 3.37813 -0.611341 0
M  V30 1465 N 134.507 -0.190092 1.56449 0
M  V30 1466 C 135.437 -1.23816 1.97969 0
M  V30 1467 C 136.418 -1.47201 0.852395 0
M  V30 1468 O 137.603 -1.58854 1.1171 0
M  V30 1469 C 134.733 -2.5813 2.3235 0
M  V30 1470 C 133.687 -2.49348 3.47864 0
M  V30 1471 C 133.013 -3.8798 3.67934 0
M  V30 1472 C 134.313 -2.01424 4.81898 0
M  V30 1473 H 136.007 -0.89311 2.85769 0
M  V30 1474 H 133.553 -0.428177 1.37487 0
M  V30 1475 H 135.506 -3.31637 2.59991 0
M  V30 1476 H 134.23 -2.94386 1.41438 0
M  V30 1477 H 132.889 -1.78297 3.20321 0
M  V30 1478 H 132.537 -4.21597 2.74344 0
M  V30 1479 H 132.237 -3.82978 4.45648 0
M  V30 1480 H 133.761 -4.63101 3.97957 0
M  V30 1481 H 135.175 -2.64693 5.08538 0
M  V30 1482 H 133.572 -2.07413 5.63116 0
M  V30 1483 H 134.642 -0.967677 4.75146 0
M  V30 1484 N 135.985 -1.50799 -0.457987 0
M  V30 1485 C 137.231 -1.62683 -1.21088 0
M  V30 1486 C 137.564 -0.332268 -1.91336 0
M  V30 1487 O 136.839 0.667043 -1.82704 0
M  V30 1488 C 137.122 -2.81615 -2.24422 0
M  V30 1489 C 136.975 -4.20989 -1.58392 0
M  V30 1490 C 138.294 -2.96085 -3.2561 0
M  V30 1491 H 135.413 -0.592087 -0.438864 0
M  V30 1492 H 138.055 -1.83225 -0.50286 0
M  V30 1493 H 136.205 -2.64231 -2.84806 0
M  V30 1494 H 137.877 -4.49994 -1.01504 0
M  V30 1495 H 136.12 -4.24641 -0.886704 0
M  V30 1496 H 136.791 -5.0016 -2.33547 0
M  V30 1497 H 139.267 -3.12042 -2.75262 0
M  V30 1498 H 138.143 -3.80902 -3.95228 0
M  V30 1499 H 138.404 -2.0726 -3.90507 0
M  V30 1500 N 137.463 0.71206 -1.40597 0
M  V30 1501 C 138.879 1.02058 -1.22704 0
M  V30 1502 C 139.079 2.01228 -0.104729 0
M  V30 1503 O 138.135 2.4674 0.53624 0
M  V30 1504 C 139.448 1.56094 -2.57012 0
M  V30 1505 C 140.996 1.6806 -2.64054 0
M  V30 1506 C 141.471 2.25501 -3.9864 0
M  V30 1507 N 142.962 2.32882 -4.004 0
M  V30 1508 C 143.697 2.78317 -5.01325 0
M  V30 1509 N 143.193 3.23478 -6.12645 0
M  V30 1510 N 144.986 2.77733 -4.88693 0
M  V30 1511 H 137.137 0.0547896 -2.12329 0
M  V30 1512 H 139.4 0.0869027 -0.944008 0
M  V30 1513 H 139.106 0.906865 -3.39807 0
M  V30 1514 H 138.98 2.54564 -2.78347 0
M  V30 1515 H 141.367 2.32583 -1.81629 0
M  V30 1516 H 141.448 0.681802 -2.46546 0
M  V30 1517 H 141.092 1.61598 -4.81506 0
M  V30 1518 H 141.022 3.26102 -4.13479 0
M  V30 1519 H 143.513 2.00991 -3.20017 0
M  V30 1520 H 143.826 3.56725 -6.85542 0
M  V30 1521 H 142.171 3.21429 -6.16205 0
M  V30 1522 H 145.362 2.4179 -4.00818 0
M  V30 1523 H 145.535 3.12826 -5.67489 0
M  V30 1524 N 138.941 1.26152 0.944643 0
M  V30 1525 C 139.871 1.09902 2.06019 0
M  V30 1526 C 140.852 0.00519538 1.70099 0
M  V30 1527 O 142.037 0.176583 1.93396 0
M  V30 1528 C 139.167 0.727562 3.39594 0
M  V30 1529 C 138.121 1.77274 3.89561 0
M  V30 1530 C 137.447 1.25569 5.19747 0
M  V30 1531 C 138.747 3.17357 4.14827 0
M  V30 1532 H 140.441 2.03217 2.19871 0
M  V30 1533 H 137.987 0.978452 1.05652 0
M  V30 1534 H 139.94 0.600777 4.17095 0
M  V30 1535 H 138.664 -0.241287 3.25707 0
M  V30 1536 H 137.323 1.88814 3.14237 0
M  V30 1537 H 136.971 0.276783 5.02238 0
M  V30 1538 H 136.671 1.95433 5.54148 0
M  V30 1539 H 138.195 1.1415 5.99835 0
M  V30 1540 H 139.609 3.08914 4.82954 0
M  V30 1541 H 138.006 3.84781 4.60504 0
M  V30 1542 H 139.076 3.63673 3.20734 0
M  V30 1543 N 140.419 -1.14872 1.07899 0
M  V30 1544 C 141.644 -1.90202 0.826926 0
M  V30 1545 C 142.069 -1.77774 -0.614664 0
M  V30 1546 O 141.427 -1.11431 -1.43013 0
M  V30 1547 C 141.475 -3.38352 1.24702 0
M  V30 1548 O 140.579 -4.10497 0.39575 0
M  V30 1549 H 139.92 -0.591968 0.300782 0
M  V30 1550 H 142.45 -1.45437 1.43907 0
M  V30 1551 H 142.46 -3.89156 1.22563 0
M  V30 1552 H 141.135 -3.46715 2.29698 0
M  V30 1553 H 139.712 -3.69796 0.480117 0
M  V30 1554 N 141.898 -0.863906 -1.31812 0
M  V30 1555 C 143.128 -0.485406 -2.00817 0
M  V30 1556 C 143.536 0.925007 -1.65046 0
M  V30 1557 O 142.879 1.61653 -0.872574 0
M  V30 1558 C 142.941 -0.555589 -3.55181 0
M  V30 1559 C 142.605 -1.92654 -4.14407 0
M  V30 1560 C 143.602 -2.89324 -4.31958 0
M  V30 1561 C 141.287 -2.2262 -4.50273 0
M  V30 1562 C 143.281 -4.14108 -4.84555 0
M  V30 1563 C 140.968 -3.47654 -5.02573 0
M  V30 1564 C 141.966 -4.43214 -5.19664 0
M  V30 1565 O 141.654 -5.66033 -5.70843 0
M  V30 1566 H 141.386 -0.188224 -0.649267 0
M  V30 1567 H 143.94 -1.16514 -1.69156 0
M  V30 1568 H 142.17 0.181037 -3.86276 0
M  V30 1569 H 143.859 -0.19138 -4.05449 0
M  V30 1570 H 144.625 -2.6748 -4.04573 0
M  V30 1571 H 140.504 -1.4902 -4.3625 0
M  V30 1572 H 144.048 -4.88703 -4.9781 0
M  V30 1573 H 139.945 -3.69345 -5.29391 0
M  V30 1574 H 140.713 -5.6812 -5.89222 0
M  V30 1575 N 143.376 1.44774 -0.622745 0
M  V30 1576 C 144.286 2.34433 0.0886031 0
M  V30 1577 C 145.302 1.52131 0.844529 0
M  V30 1578 O 146.478 1.84886 0.798691 0
M  V30 1579 C 143.543 3.29986 1.0635 0
M  V30 1580 C 142.604 4.28195 0.307873 0
M  V30 1581 C 141.837 5.19183 1.23633 0
M  V30 1582 O 142.06 5.13918 2.47476 0
M  V30 1583 O 140.994 5.97515 0.725189 0
M  V30 1584 H 144.82 2.96693 -0.648599 0
M  V30 1585 H 142.405 1.44408 -0.382957 0
M  V30 1586 H 144.287 3.88825 1.6246 0
M  V30 1587 H 142.962 2.70269 1.78146 0
M  V30 1588 H 141.869 3.72927 -0.296064 0
M  V30 1589 H 143.202 4.90808 -0.3699 0
M  V30 1590 N 144.854 0.36279 1.53368 0
M  V30 1591 C 145.786 -0.519668 2.23231 0
M  V30 1592 C 146.799 -1.04844 1.24546 0
M  V30 1593 O 147.988 -0.955296 1.50786 0
M  V30 1594 C 145.088 -1.72995 2.9142 0
M  V30 1595 C 144.261 -1.33316 4.16588 0
M  V30 1596 C 143.32 -2.40521 4.68013 0
M  V30 1597 O 142.346 -2.03027 5.3176 0
M  V30 1598 N 143.548 -3.72065 4.45587 0
M  V30 1599 H 146.313 0.078751 2.99597 0
M  V30 1600 H 143.874 0.187833 1.60807 0
M  V30 1601 H 145.866 -2.44184 3.22733 0
M  V30 1602 H 144.436 -2.2353 2.18525 0
M  V30 1603 H 143.656 -0.451236 3.91609 0
M  V30 1604 H 144.944 -1.04432 4.97967 0
M  V30 1605 H 144.342 -4.05304 3.94646 0
M  V30 1606 H 142.899 -4.39366 4.81457 0
M  V30 1607 N 146.332 -1.57332 0.0918853 0
M  V30 1608 C 147.743 -1.81496 -0.437739 0
M  V30 1609 C 148.094 -1.00727 -1.6837 0
M  V30 1610 O 147.219 -0.235694 -2.15113 0
M  V30 1611 C 147.814 -3.29197 -0.800939 0
M  V30 1612 C 146.373 -3.54136 -1.27532 0
M  V30 1613 C 145.52 -2.75979 -0.270392 0
M  V30 1614 H 148.471 -1.55494 0.317366 0
M  V30 1615 H 148.492 -3.42344 -1.66074 0
M  V30 1616 H 148.004 -3.87955 0.106078 0
M  V30 1617 H 146.105 -3.00705 -2.20016 0
M  V30 1618 H 146.218 -4.62792 -1.23938 0
M  V30 1619 H 144.582 -2.43349 -0.751872 0
M  V30 1620 H 145.365 -3.37484 0.629248 0
M  V30 1621 N 147.81 0.181792 -1.56548 0
M  V30 1622 C 149.059 0.898348 -1.8059 0
M  V30 1623 C 149.372 1.83862 -0.667379 0
M  V30 1624 O 150.578 2.59678 -0.792446 0
M  V30 1625 C 149.034 1.64791 -3.19956 0
M  V30 1626 C 148.642 0.751789 -4.41647 0
M  V30 1627 C 150.386 2.35331 -3.53298 0
M  V30 1628 C 148.293 1.50098 -5.72035 0
M  V30 1629 H 147.223 0.339194 -0.673397 0
M  V30 1630 H 149.874 0.151413 -1.82874 0
M  V30 1631 H 148.256 2.43921 -3.11959 0
M  V30 1632 H 149.43 -0.0018076 -4.608 0
M  V30 1633 H 147.745 0.156562 -4.16106 0
M  V30 1634 H 150.342 2.91958 -4.47956 0
M  V30 1635 H 150.685 3.10164 -2.77676 0
M  V30 1636 H 151.218 1.63154 -3.62803 0
M  V30 1637 H 147.957 0.795175 -6.50659 0
M  V30 1638 H 147.477 2.22817 -5.56878 0
M  V30 1639 H 149.156 2.05125 -6.13622 0
M  V30 1640 N 149.288 1.51039 0.449983 0
M  V30 1641 C 150.198 1.74261 1.57067 0
M  V30 1642 C 151.214 0.626363 1.62335 0
M  V30 1643 O 152.39 0.907162 1.79812 0
M  V30 1644 C 149.455 1.85114 2.93144 0
M  V30 1645 C 148.516 3.0893 2.98095 0
M  V30 1646 C 147.749 3.19256 4.27681 0
M  V30 1647 O 147.972 2.35835 5.19363 0
M  V30 1648 O 146.906 4.12144 4.38658 0
M  V30 1649 H 150.732 2.69303 1.40391 0
M  V30 1650 H 148.317 1.35389 0.631688 0
M  V30 1651 H 150.199 1.94311 3.73926 0
M  V30 1652 H 148.874 0.932588 3.09975 0
M  V30 1653 H 147.781 3.0522 2.16314 0
M  V30 1654 H 149.114 4.00433 2.86206 0
M  V30 1655 N 150.766 -0.704594 1.40972 0
M  V30 1656 C 151.994 -1.49354 1.43182 0
M  V30 1657 C 152.409 -1.88768 0.0345508 0
M  V30 1658 O 151.766 -1.56184 -0.944081 0
M  V30 1659 C 151.817 -2.76187 2.33244 0
M  V30 1660 O 151.538 -2.38436 3.67532 0
M  V30 1661 C 153.039 -3.7 2.44162 0
M  V30 1662 H 150.259 -0.460559 0.487982 0
M  V30 1663 H 152.803 -0.868261 1.85153 0
M  V30 1664 H 150.958 -3.34974 1.94606 0
M  V30 1665 H 151.372 -3.20126 4.15475 0
M  V30 1666 H 152.846 -4.55803 3.11364 0
M  V30 1667 H 153.323 -4.13867 1.47006 0
M  V30 1668 H 153.929 -3.17121 2.83398 0
M  V30 1669 N 152.244 -1.26651 -0.937939 0
M  V30 1670 C 153.474 -1.15006 -1.71631 0
M  V30 1671 C 153.882 0.297026 -1.86854 0
M  V30 1672 O 153.225 1.21493 -1.37786 0
M  V30 1673 C 153.287 -1.74984 -3.14039 0
M  V30 1674 C 152.951 -3.24103 -3.2219 0
M  V30 1675 C 153.948 -4.20877 -3.05219 0
M  V30 1676 C 151.633 -3.64625 -3.45476 0
M  V30 1677 C 153.627 -5.56151 -3.11408 0
M  V30 1678 C 151.314 -5.00032 -3.513 0
M  V30 1679 C 152.312 -5.95604 -3.34282 0
M  V30 1680 O 152 -7.28545 -3.3982 0
M  V30 1681 H 151.732 -0.401183 -0.544085 0
M  V30 1682 H 154.286 -1.67832 -1.18413 0
M  V30 1683 H 152.516 -1.16624 -3.68695 0
M  V30 1684 H 154.205 -1.58199 -3.73802 0
M  V30 1685 H 154.971 -3.90908 -2.87081 0
M  V30 1686 H 150.85 -2.90718 -3.57777 0
M  V30 1687 H 154.394 -6.30727 -2.98043 0
M  V30 1688 H 150.291 -5.29659 -3.68959 0
M  V30 1689 H 151.059 -7.3686 -3.56343 0
M  V30 1690 N 153.722 1.14298 -1.08507 0
M  V30 1691 C 154.947 1.8976 -0.837001 0
M  V30 1692 C 155.372 1.78097 0.605228 0
M  V30 1693 O 154.73 1.12188 1.4242 0
M  V30 1694 C 154.778 3.37685 -1.26495 0
M  V30 1695 O 153.882 4.10281 -0.417514 0
M  V30 1696 H 153.223 0.590365 -0.303917 0
M  V30 1697 H 155.753 1.44672 -1.44676 0
M  V30 1698 H 155.763 3.88501 -1.24625 0
M  V30 1699 H 154.438 3.45492 -2.31534 0
M  V30 1700 H 153.015 3.69536 -0.499722 0
M  V30 1701 N 155.201 0.870884 1.31352 0
M  V30 1702 C 156.429 0.49677 2.00848 0
M  V30 1703 C 156.844 -0.910998 1.65367 0
M  V30 1704 O 156.201 -1.59696 0.883374 0
M  V30 1705 C 156.252 0.645308 3.55694 0
M  V30 1706 O 155.973 1.99764 3.89905 0
M  V30 1707 C 157.474 0.272326 4.42463 0
M  V30 1708 H 154.694 0.193462 0.642506 0
M  V30 1709 H 157.238 1.1723 1.67563 0
M  V30 1710 H 155.393 0.0173176 3.87396 0
M  V30 1711 H 155.807 2.00607 4.84621 0
M  V30 1712 H 157.281 0.427208 5.50344 0
M  V30 1713 H 157.758 -0.788587 4.32062 0
M  V30 1714 H 158.364 0.876054 4.1618 0
M  V30 1715 N 156.679 -1.44442 0.630414 0
M  V30 1716 C 157.627 -2.32437 -0.0871428 0
M  V30 1717 C 158.621 -1.47304 -0.836525 0
M  V30 1718 O 159.827 -1.63653 -0.749506 0
M  V30 1719 H 156.202 -0.750533 -0.0469495 0
M  V30 1720 H 158.173 -2.90709 0.673096 0
M  V30 1721 C 156.922 -3.31288 -1.05563 0
M  V30 1722 H 156.245 -3.96805 -0.488426 0
M  V30 1723 H 157.685 -3.9554 -1.52721 0
M  V30 1724 C 156.144 -2.6016 -2.14052 0
M  V30 1725 O 156.674 -2.39997 -3.22124 0
M  V30 1726 N 154.88 -2.19911 -1.89967 0
M  V30 1727 H 154.427 -2.36509 -1.02085 0
M  V30 1728 H 154.385 -1.72646 -2.62756 0
M  V30 1729 N 158.157 -0.370918 -1.53173 0
M  V30 1730 C 159.403 0.217423 -2.01631 0
M  V30 1731 C 159.736 1.47983 -1.25756 0
M  V30 1732 O 159.011 1.91274 -0.352764 0
M  V30 1733 C 159.294 0.503982 -3.56556 0
M  V30 1734 C 159.147 -0.77243 -4.43118 0
M  V30 1735 C 160.466 1.30234 -4.20389 0
M  V30 1736 H 157.585 0.0775486 -0.732909 0
M  V30 1737 H 160.227 -0.496863 -1.83388 0
M  V30 1738 H 158.377 1.11248 -3.72231 0
M  V30 1739 H 160.049 -1.4098 -4.39229 0
M  V30 1740 H 158.292 -1.39167 -4.10871 0
M  V30 1741 H 158.963 -0.526815 -5.4948 0
M  V30 1742 H 161.439 0.787546 -4.08579 0
M  V30 1743 H 160.315 1.47158 -5.28806 0
M  V30 1744 H 160.576 2.31237 -3.76805 0
M  V30 1745 N 159.635 1.57281 -0.100228 0
M  V30 1746 C 160.568 2.09976 0.893612 0
M  V30 1747 C 161.546 1.01155 1.27304 0
M  V30 1748 O 162.73 1.28687 1.37739 0
M  V30 1749 C 159.857 2.58098 2.19324 0
M  V30 1750 C 158.903 3.78626 1.96328 0
M  V30 1751 S 159.736 5.21959 1.19662 0
M  V30 1752 C 160.892 5.73435 2.50844 0
M  V30 1753 H 161.125 2.93946 0.44534 0
M  V30 1754 H 158.658 1.53985 0.113167 0
M  V30 1755 H 160.616 2.8648 2.94005 0
M  V30 1756 H 159.277 1.74344 2.61272 0
M  V30 1757 H 158.47 4.10382 2.92579 0
M  V30 1758 H 158.072 3.50763 1.29775 0
M  V30 1759 H 160.364 5.82015 3.46792 0
M  V30 1760 H 161.307 6.7185 2.23659 0
M  V30 1761 H 161.715 5.01395 2.59352 0
M  V30 1762 N 161.113 -0.173488 1.56642 0
M  V30 1763 C 162.361 -0.888706 1.81512 0
M  V30 1764 C 162.682 -1.82875 0.676872 0
M  V30 1765 O 161.952 -1.93536 -0.303414 0
M  V30 1766 H 160.532 -0.331164 0.669582 0
M  V30 1767 H 163.194 -0.173823 1.94123 0
M  V30 1768 H 162.29 -1.46691 2.75478 0
M  V30 1769 N 162.591 -1.51276 -0.441967 0
M  V30 1770 C 163.819 -1.67516 -1.21434 0
M  V30 1771 C 164.234 -0.37055 -1.85128 0
M  V30 1772 O 163.591 0.650498 -1.70513 0
M  V30 1773 C 163.642 -2.78748 -2.30177 0
M  V30 1774 O 163.363 -4.04154 -1.69089 0
M  V30 1775 C 164.864 -3.06217 -3.20541 0
M  V30 1776 H 162.084 -0.562276 -0.366178 0
M  V30 1777 H 164.628 -1.97666 -0.524244 0
M  V30 1778 H 162.783 -2.5121 -2.94911 0
M  V30 1779 H 163.197 -4.65894 -2.40922 0
M  V30 1780 H 164.671 -3.8764 -3.92987 0
M  V30 1781 H 165.148 -2.18439 -3.81026 0
M  V30 1782 H 165.754 -3.35397 -2.61513 0
M  V30 1783 N 164.069 0.697108 -1.41344 0
M  V30 1784 C 165.315 1.4593 -1.40827 0
M  V30 1785 C 165.648 1.94193 -0.0167098 0
M  V30 1786 O 164.923 1.69425 0.955263 0
M  V30 1787 C 165.206 2.67229 -2.41373 0
M  V30 1788 C 165.059 2.24741 -3.8963 0
M  V30 1789 C 166.378 3.69423 -2.39196 0
M  V30 1790 H 163.497 0.529303 -0.512842 0
M  V30 1791 H 166.139 0.794112 -1.72609 0
M  V30 1792 H 164.289 3.23982 -2.14401 0
M  V30 1793 H 165.961 1.73327 -4.27499 0
M  V30 1794 H 164.204 1.56542 -4.0457 0
M  V30 1795 H 164.875 3.1177 -4.55525 0
M  V30 1796 H 167.351 3.2234 -2.63128 0
M  V30 1797 H 166.227 4.51907 -3.11563 0
M  V30 1798 H 166.488 4.19012 -1.41001 0
M  V30 1799 N 165.547 1.27147 0.931209 0
M  V30 1800 C 166.497 1.06227 2.01742 0
M  V30 1801 C 167.481 -0.00859065 1.60898 0
M  V30 1802 O 168.673 0.209537 1.75755 0
M  V30 1803 C 165.802 0.707787 3.35924 0
M  V30 1804 C 164.888 1.81661 3.83223 0
M  V30 1805 N 165.279 3.05564 4.03069 0
M  V30 1806 C 163.577 1.70249 4.12227 0
M  V30 1807 C 164.278 3.77697 4.42403 0
M  V30 1808 N 163.254 3.0544 4.49675 0
M  V30 1809 H 167.056 2.00261 2.15111 0
M  V30 1810 H 164.57 1.1781 1.11779 0
M  V30 1811 H 166.567 0.539043 4.134 0
M  V30 1812 H 165.227 -0.224964 3.2392 0
M  V30 1813 H 166.238 3.41363 3.89476 0
M  V30 1814 H 162.915 0.840329 4.08956 0
M  V30 1815 H 164.305 4.84168 4.65866 0
M  V30 1816 N 167.025 -1.13721 1.09112 0
M  V30 1817 C 167.955 -2.21148 0.749385 0
M  V30 1818 C 168.936 -1.6792 -0.271475 0
M  V30 1819 O 170.121 -1.93693 -0.140251 0
M  V30 1820 C 167.251 -3.46905 0.165659 0
M  V30 1821 C 166.205 -4.13203 1.11567 0
M  V30 1822 C 165.531 -5.33248 0.393809 0
M  V30 1823 C 166.831 -4.60912 2.45678 0
M  V30 1824 H 168.525 -2.4999 1.64758 0
M  V30 1825 H 166.071 -1.20156 0.793626 0
M  V30 1826 H 168.024 -4.21313 -0.085466 0
M  V30 1827 H 166.748 -3.17449 -0.767714 0
M  V30 1828 H 165.407 -3.40758 1.35202 0
M  V30 1829 H 165.055 -5.00054 -0.543599 0
M  V30 1830 H 164.755 -5.78552 1.02721 0
M  V30 1831 H 166.279 -6.10413 0.150908 0
M  V30 1832 H 167.693 -5.26759 2.26269 0
M  V30 1833 H 166.09 -5.16944 3.04776 0
M  V30 1834 H 167.16 -3.75603 3.06677 0
M  V30 1835 N 168.503 -0.877838 -1.30888 0
M  V30 1836 C 169.433 -0.35534 -2.3078 0
M  V30 1837 C 170.414 0.557994 -1.60687 0
M  V30 1838 O 171.599 0.473355 -1.88343 0
M  V30 1839 C 168.729 0.437221 -3.44537 0
M  V30 1840 C 167.683 -0.383715 -4.26276 0
M  V30 1841 C 167.009 0.535014 -5.32017 0
M  V30 1842 C 168.309 -1.62201 -4.96476 0
M  V30 1843 H 170.003 -1.19007 -2.74732 0
M  V30 1844 H 167.549 -0.573698 -1.32078 0
M  V30 1845 H 169.502 0.813334 -4.13477 0
M  V30 1846 H 168.226 1.30553 -2.99372 0
M  V30 1847 H 166.885 -0.741874 -3.59015 0
M  V30 1848 H 166.533 1.40083 -4.831 0
M  V30 1849 H 166.233 -0.0104211 -5.87599 0
M  V30 1850 H 167.757 0.907799 -6.03814 0
M  V30 1851 H 169.171 -1.31689 -5.5797 0
M  V30 1852 H 167.568 -2.10711 -5.61891 0
M  V30 1853 H 168.638 -2.37044 -4.23011 0
M  V30 1854 N 169.982 1.44106 -0.638065 0
M  V30 1855 C 170.892 2.34513 0.0637334 0
M  V30 1856 C 171.908 1.53018 0.828346 0
M  V30 1857 O 173.084 1.85723 0.779036 0
M  V30 1858 C 170.149 3.31095 1.02844 0
M  V30 1859 C 169.21 4.28497 0.26244 0
M  V30 1860 C 168.443 5.20465 1.1812 0
M  V30 1861 O 168.666 5.16514 2.42011 0
M  V30 1862 O 167.6 5.98251 0.661774 0
M  V30 1863 H 171.426 2.95989 -0.68003 0
M  V30 1864 H 169.011 1.43994 -0.398252 0
M  V30 1865 H 170.893 3.90526 1.58327 0
M  V30 1866 H 169.568 2.72144 1.7527 0
M  V30 1867 H 168.475 3.72592 -0.335602 0
M  V30 1868 H 169.808 4.90388 -0.421936 0
M  V30 1869 N 171.46 0.379036 1.52974 0
M  V30 1870 C 172.688 -0.20679 2.05864 0
M  V30 1871 C 173.103 -1.41356 1.25155 0
M  V30 1872 O 172.46 -1.8009 0.295588 0
M  V30 1873 C 172.511 -0.587045 3.56702 0
M  V30 1874 O 172.232 0.571776 4.34353 0
M  V30 1875 C 173.733 -1.22983 4.25899 0
M  V30 1876 H 170.953 -0.0336123 0.670158 0
M  V30 1877 H 173.497 0.541298 1.97206 0
M  V30 1878 H 171.652 -1.28504 3.65466 0
M  V30 1879 H 172.066 0.261544 5.23847 0
M  V30 1880 H 173.54 -1.44635 5.32715 0
M  V30 1881 H 174.017 -2.19416 3.80465 0
M  V30 1882 H 174.623 -0.572892 4.21424 0
M  V30 1883 N 172.938 -1.57226 0.108567 0
M  V30 1884 C 174.184 -1.95121 -0.552761 0
M  V30 1885 C 174.517 -0.991345 -1.66991 0
M  V30 1886 O 173.792 -0.0267211 -1.94482 0
M  V30 1887 C 174.075 -3.43039 -1.09528 0
M  V30 1888 C 173.928 -4.49797 0.0177332 0
M  V30 1889 C 175.247 -3.92567 -1.98945 0
M  V30 1890 H 172.366 -0.709496 -0.199461 0
M  V30 1891 H 175.008 -1.89126 0.182011 0
M  V30 1892 H 173.158 -3.48279 -1.72146 0
M  V30 1893 H 174.83 -4.56661 0.652584 0
M  V30 1894 H 173.073 -4.284 0.682309 0
M  V30 1895 H 173.744 -5.50528 -0.402919 0
M  V30 1896 H 176.22 -3.89565 -1.46214 0
M  V30 1897 H 175.096 -4.96605 -2.33827 0
M  V30 1898 H 175.357 -3.32648 -2.91201 0
M  V30 1899 N 174.416 0.165178 -1.56732 0
M  V30 1900 C 175.363 1.2044 -1.96883 0
M  V30 1901 C 176.333 1.43664 -0.833657 0
M  V30 1902 O 177.518 1.56302 -1.09427 0
M  V30 1903 C 174.658 2.53727 -2.33916 0
M  V30 1904 C 173.771 2.3783 -3.6064 0
M  V30 1905 C 172.906 3.64026 -3.86857 0
M  V30 1906 C 171.945 3.43088 -5.06909 0
M  V30 1907 N 171.082 4.61369 -5.29229 0
M  V30 1908 H 175.922 0.854996 -2.85471 0
M  V30 1909 H 173.459 0.41076 -1.41249 0
M  V30 1910 H 175.417 3.31419 -2.53411 0
M  V30 1911 H 174.047 2.8665 -1.48431 0
M  V30 1912 H 173.099 1.51282 -3.49024 0
M  V30 1913 H 174.411 2.18308 -4.4849 0
M  V30 1914 H 173.565 4.50152 -4.06753 0
M  V30 1915 H 172.304 3.86533 -2.97394 0
M  V30 1916 H 171.309 2.55349 -4.86906 0
M  V30 1917 H 172.534 3.21997 -5.97909 0
M  V30 1918 H 170.48 4.84084 -4.42718 0
M  V30 1919 H 170.397 4.44783 -6.11313 0
M  V30 1920 H 171.665 5.48761 -5.53608 0
M  V30 1921 N 175.894 1.51508 0.433938 0
M  V30 1922 C 176.826 1.69266 1.54537 0
M  V30 1923 C 177.839 0.573276 1.52373 0
M  V30 1924 O 179.028 0.847698 1.57087 0
M  V30 1925 C 176.128 1.69524 2.93453 0
M  V30 1926 C 175.301 2.98101 3.20085 0
M  V30 1927 C 174.36 2.90502 4.38742 0
M  V30 1928 O 173.386 3.64442 4.3723 0
M  V30 1929 N 174.588 2.06586 5.42496 0
M  V30 1930 H 177.353 2.65145 1.39708 0
M  V30 1931 H 174.914 1.49437 0.622922 0
M  V30 1932 H 176.906 1.62004 3.70859 0
M  V30 1933 H 175.476 0.812245 3.01863 0
M  V30 1934 H 174.696 3.19464 2.30947 0
M  V30 1935 H 175.984 3.83207 3.34708 0
M  V30 1936 H 175.382 1.45896 5.46563 0
M  V30 1937 H 173.939 2.04943 6.18742 0
M  V30 1938 N 177.372 -0.689602 1.41712 0
M  V30 1939 C 178.618 -1.45181 1.41599 0
M  V30 1940 C 178.951 -1.94181 0.0270081 0
M  V30 1941 O 178.226 -1.6993 -0.946265 0
M  V30 1942 C 178.509 -2.65945 2.42787 0
M  V30 1943 C 178.362 -2.22672 3.90816 0
M  V30 1944 C 179.681 -3.68149 2.41151 0
M  V30 1945 H 176.8 -0.526576 0.515642 0
M  V30 1946 H 179.442 -0.784947 1.73028 0
M  V30 1947 H 177.592 -3.2284 2.16116 0
M  V30 1948 H 179.264 -1.71058 4.28412 0
M  V30 1949 H 177.507 -1.54394 4.05395 0
M  V30 1950 H 178.178 -3.0935 4.57172 0
M  V30 1951 H 180.654 -3.2094 2.64834 0
M  V30 1952 H 179.53 -4.50248 3.13955 0
M  V30 1953 H 179.791 -4.18259 1.43221 0
M  V30 1954 N 178.85 -1.27639 -0.924453 0
M  V30 1955 C 180.098 -1.13941 -1.66918 0
M  V30 1956 C 180.419 0.314589 -1.92446 0
M  V30 1957 O 179.689 1.21964 -1.53303 0
M  V30 1958 H 178.269 -0.418678 -0.618642 0
M  V30 1959 H 180.931 -1.60213 -1.10985 0
M  V30 1960 H 180.027 -1.67094 -2.63602 0
M  V30 1961 N 180.328 1.1314 -1.09713 0
M  V30 1962 C 181.276 2.20717 -0.733934 0
M  V30 1963 C 182.27 1.6729 0.266506 0
M  V30 1964 O 183.476 1.79547 0.127656 0
M  V30 1965 H 179.851 0.719292 -0.21937 0
M  V30 1966 H 181.822 2.48611 -1.6503 0
M  V30 1967 C 180.571 3.47265 -0.173849 0
M  V30 1968 H 179.894 3.88716 -0.934873 0
M  V30 1969 H 181.334 4.23979 0.0423126 0
M  V30 1970 C 179.793 3.18724 1.09164 0
M  V30 1971 O 180.323 3.37762 2.17439 0
M  V30 1972 N 178.529 2.72583 1.00732 0
M  V30 1973 H 178.076 2.57291 0.126121 0
M  V30 1974 H 178.034 2.53862 1.85476 0
M  V30 1975 N 181.806 0.884767 1.30421 0
M  V30 1976 C 183.055 0.499164 1.95426 0
M  V30 1977 C 183.368 -0.95645 1.70621 0
M  V30 1978 O 184.574 -1.44889 2.29607 0
M  V30 1979 C 183.03 0.84177 3.49917 0
M  V30 1980 C 182.638 2.31514 3.83543 0
M  V30 1981 C 184.382 0.525355 4.21237 0
M  V30 1982 C 182.289 2.59939 5.31212 0
M  V30 1983 H 181.219 0.182944 0.73147 0
M  V30 1984 H 183.87 1.07971 1.48373 0
M  V30 1985 H 182.252 0.190311 3.95542 0
M  V30 1986 H 183.426 3.0109 3.48829 0
M  V30 1987 H 181.741 2.59907 3.25326 0
M  V30 1988 H 184.338 0.714762 5.29901 0
M  V30 1989 H 184.681 -0.535222 4.12845 0
M  V30 1990 H 185.214 1.134 3.81294 0
M  V30 1991 H 181.953 3.64736 5.44654 0
M  V30 1992 H 181.473 1.94972 5.67227 0
M  V30 1993 H 183.152 2.45429 5.98643 0
M  V30 1994 N 183.284 -1.43765 0.645699 0
M  V30 1995 C 184.231 -2.30745 -0.0504648 0
M  V30 1996 C 185.201 -1.4432 -0.822241 0
M  V30 1997 O 186.386 -1.73202 -0.800358 0
M  V30 1998 C 183.526 -3.29802 -1.0161 0
M  V30 1999 C 182.639 -4.31326 -0.241219 0
M  V30 2000 C 181.774 -5.17469 -1.19998 0
M  V30 2001 C 180.813 -6.10691 -0.415094 0
M  V30 2002 N 179.95 -6.89483 -1.32506 0
M  V30 2003 H 184.79 -2.8973 0.697155 0
M  V30 2004 H 182.327 -1.42738 0.355563 0
M  V30 2005 H 184.285 -3.85734 -1.58949 0
M  V30 2006 H 182.915 -2.72483 -1.73069 0
M  V30 2007 H 181.967 -3.77749 0.448334 0
M  V30 2008 H 183.279 -4.9743 0.369437 0
M  V30 2009 H 182.433 -5.7799 -1.84424 0
M  V30 2010 H 181.172 -4.51473 -1.84455 0
M  V30 2011 H 180.177 -5.49265 0.242565 0
M  V30 2012 H 181.402 -6.78727 0.224966 0
M  V30 2013 H 179.348 -6.26142 -1.95657 0
M  V30 2014 H 179.265 -7.52081 -0.768783 0
M  V30 2015 H 180.533 -7.54516 -1.9577 0
M  V30 2016 N 184.763 -0.387143 -1.52771 0
M  V30 2017 C 185.726 0.436939 -2.24997 0
M  V30 2018 C 186.726 0.991991 -1.26555 0
M  V30 2019 O 187.916 0.874335 -1.50669 0
M  V30 2020 C 185.048 1.61281 -3.00335 0
M  V30 2021 H 186.241 -0.195365 -2.99263 0
M  V30 2022 H 183.794 -0.139218 -1.55679 0
M  V30 2023 H 184.529 2.2826 -2.30364 0
M  V30 2024 H 184.314 1.22154 -3.72587 0
M  V30 2025 H 185.804 2.19629 -3.5518 0
M  V30 2026 N 186.241 1.57166 -0.116904 0
M  V30 2027 C 187.487 1.95412 0.542405 0
M  V30 2028 C 187.82 1.00019 1.66463 0
M  V30 2029 O 187.095 0.0370346 1.94465 0
M  V30 2030 C 187.378 3.43615 1.07708 0
M  V30 2031 C 187.231 4.49781 -0.0415868 0
M  V30 2032 C 188.55 3.93616 1.96861 0
M  V30 2033 H 185.669 0.710543 0.195696 0
M  V30 2034 H 188.311 1.89027 -0.192038 0
M  V30 2035 H 186.461 3.49187 1.70296 0
M  V30 2036 H 188.133 4.56308 -0.676793 0
M  V30 2037 H 186.376 4.28033 -0.705019 0
M  V30 2038 H 187.047 5.50733 0.373717 0
M  V30 2039 H 189.523 3.90335 1.44146 0
M  V30 2040 H 188.399 4.97838 2.3119 0
M  V30 2041 H 188.66 3.34188 2.89432 0
M  V30 2042 N 187.719 -0.156864 1.56817 0
M  V30 2043 C 188.965 -0.872416 1.83076 0
M  V30 2044 C 189.298 -1.81261 0.697001 0
M  V30 2045 O 188.573 -1.92171 -0.30008 0
M  V30 2046 C 188.856 -1.65551 3.19789 0
M  V30 2047 C 188.709 -0.737467 4.43713 0
M  V30 2048 C 190.028 -2.62012 3.53606 0
M  V30 2049 H 187.147 -0.315715 0.665953 0
M  V30 2050 H 189.789 -0.138004 1.89498 0
M  V30 2051 H 187.939 -2.28159 3.14445 0
M  V30 2052 H 189.611 -0.123143 4.61136 0
M  V30 2053 H 187.854 -0.0464067 4.33775 0
M  V30 2054 H 188.525 -1.32122 5.35955 0
M  V30 2055 H 191.001 -2.09525 3.59497 0
M  V30 2056 H 189.877 -3.13861 4.50314 0
M  V30 2057 H 190.138 -3.42902 2.79053 0
M  V30 2058 N 189.197 -1.51736 -0.425897 0
M  V30 2059 C 190.145 -1.74464 -1.53834 0
M  V30 2060 C 191.139 -0.611241 -1.57988 0
M  V30 2061 O 192.345 -0.792899 -1.61596 0
M  V30 2062 H 188.72 -0.551437 -0.511293 0
M  V30 2063 H 190.691 -2.67694 -1.31843 0
M  V30 2064 C 189.44 -1.8972 -2.91379 0
M  V30 2065 H 188.763 -2.76344 -2.88919 0
M  V30 2066 H 190.203 -2.09629 -3.68553 0
M  V30 2067 C 188.662 -0.65992 -3.30374 0
M  V30 2068 O 189.192 0.180083 -4.01296 0
M  V30 2069 N 187.398 -0.500677 -2.86254 0
M  V30 2070 H 186.945 -1.18532 -2.28709 0
M  V30 2071 H 186.903 0.325903 -3.12706 0
M  V30 2072 N 190.675 0.682077 -1.42076 0
M  V30 2073 C 191.924 1.43786 -1.41451 0
M  V30 2074 C 192.237 1.95574 -0.0317074 0
M  V30 2075 O 193.443 2.71326 0.0971462 0
M  V30 2076 C 191.899 2.60071 -2.48779 0
M  V30 2077 C 191.507 2.15013 -3.93031 0
M  V30 2078 C 193.251 3.37626 -2.57311 0
M  V30 2079 C 191.158 3.28336 -4.91883 0
M  V30 2080 H 190.088 0.540143 -0.526082 0
M  V30 2081 H 192.739 0.739157 -1.67955 0
M  V30 2082 H 191.121 3.32275 -2.15429 0
M  V30 2083 H 192.295 1.5001 -4.35699 0
M  V30 2084 H 190.61 1.50416 -3.88284 0
M  V30 2085 H 193.207 4.22012 -3.28345 0
M  V30 2086 H 193.55 3.83727 -1.61429 0
M  V30 2087 H 194.083 2.72488 -2.89819 0
M  V30 2088 H 190.822 2.87234 -5.89217 0
M  V30 2089 H 190.342 3.92145 -4.53853 0
M  V30 2090 H 192.021 3.93913 -5.13265 0
M  V30 2091 N 192.153 1.28127 0.917671 0
M  V30 2092 C 193.381 1.17892 1.70026 0
M  V30 2093 C 193.796 -0.262958 1.8696 0
M  V30 2094 O 193.153 -1.17811 1.3938 0
M  V30 2095 C 193.204 1.86872 3.09453 0
M  V30 2096 O 192.925 3.25428 2.93306 0
M  V30 2097 C 194.426 1.8289 4.03815 0
M  V30 2098 H 191.646 0.40942 0.531617 0
M  V30 2099 H 194.19 1.69181 1.14883 0
M  V30 2100 H 192.345 1.39464 3.61426 0
M  V30 2101 H 192.759 3.59918 3.81523 0
M  V30 2102 H 194.233 2.35751 4.99125 0
M  V30 2103 H 194.71 0.800412 4.31845 0
M  V30 2104 H 195.316 2.29959 3.57769 0
M  V30 2105 N 193.631 -1.12557 1.10312 0
M  V30 2106 C 194.856 -1.88405 0.867085 0
M  V30 2107 C 195.281 -1.79038 -0.576817 0
M  V30 2108 O 194.639 -1.14439 -1.40618 0
M  V30 2109 C 194.687 -3.3563 1.31851 0
M  V30 2110 O 193.791 -4.09565 0.482734 0
M  V30 2111 H 193.132 -0.585455 0.313271 0
M  V30 2112 H 195.662 -1.42352 1.4696 0
M  V30 2113 H 195.672 -3.86469 1.3079 0
M  V30 2114 H 194.347 -3.41765 2.37001 0
M  V30 2115 H 192.924 -3.68695 0.558448 0
M  V30 2116 N 195.109 -0.891671 -1.2995 0
M  V30 2117 C 196.386 -0.433307 -1.9074 0
M  V30 2118 C 196.766 1.08646 -1.80995 0
M  V30 2119 O 196.114 1.92476 -1.23147 0
M  V30 2120 C 196.324 -0.938895 -3.36134 0
M  V30 2121 C 197.672 -0.977829 -4.13187 0
M  V30 2122 O 198.696 -0.886015 -3.45005 0
M  V30 2123 O 197.555 -1.11453 -5.35015 0
M  V30 2124 H 194.649 -0.133699 -0.816121 0
M  V30 2125 H 197.195 -0.981011 -1.38471 0
M  V30 2126 H 195.967 -1.98281 -3.37343 0
M  V30 2127 H 195.59 -0.37074 -3.95868 0
M  V30 2128 N 196.587 1.43421 -0.653314 0
M  V30 2129 C 197.534 2.30768 0.0382271 0
M  V30 2130 C 198.504 1.44755 0.814576 0
M  V30 2131 O 199.689 1.73624 0.791162 0
M  V30 2132 C 196.829 3.30336 0.998599 0
M  V30 2133 C 195.942 4.31448 0.218342 0
M  V30 2134 C 195.077 5.18098 1.17252 0
M  V30 2135 C 194.116 6.10902 0.382702 0
M  V30 2136 N 193.253 6.90176 1.28848 0
M  V30 2137 H 198.093 2.89357 -0.712511 0
M  V30 2138 H 195.63 1.42548 -0.363128 0
M  V30 2139 H 197.588 3.86572 1.56901 0
M  V30 2140 H 196.218 2.73397 1.71621 0
M  V30 2141 H 195.27 3.77506 -0.46836 0
M  V30 2142 H 196.582 4.97227 -0.395812 0
M  V30 2143 H 195.736 5.7896 1.81356 0
M  V30 2144 H 194.475 4.52444 1.82058 0
M  V30 2145 H 193.48 5.49128 -0.27169 0
M  V30 2146 H 194.705 6.78598 -0.260957 0
M  V30 2147 H 192.651 6.27171 1.92334 0
M  V30 2148 H 192.568 7.52478 0.728887 0
M  V30 2149 H 193.836 7.55543 1.91766 0
M  V30 2150 N 198.065 0.39524 1.52563 0
M  V30 2151 C 199.305 -0.184744 2.03563 0
M  V30 2152 C 199.669 -1.43548 1.27507 0
M  V30 2153 O 200.87 -2.093 1.68662 0
M  V30 2154 C 199.141 -0.440294 3.54678 0
M  V30 2155 S 200.7 -0.989712 4.27493 0
M  V30 2156 H 197.518 -0.0515075 0.709132 0
M  V30 2157 H 200.12 0.544957 1.87751 0
M  V30 2158 H 198.824 0.477005 4.07618 0
M  V30 2159 H 198.355 -1.19825 3.74707 0
M  V30 2160 H 200.37 -2.27155 4.41152 0
M  V30 2161 N 199.544 -1.57102 0.125237 0
M  V30 2162 C 200.774 -1.99472 -0.538015 0
M  V30 2163 C 201.182 -1.00395 -1.60366 0
M  V30 2164 O 200.525 0.0103875 -1.83697 0
M  V30 2165 C 200.587 -3.38262 -1.21734 0
M  V30 2166 C 200.251 -4.56021 -0.298897 0
M  V30 2167 C 201.248 -5.17817 0.464943 0
M  V30 2168 C 198.933 -5.01869 -0.208149 0
M  V30 2169 C 200.927 -6.23852 1.3072 0
M  V30 2170 C 198.614 -6.07763 0.637736 0
M  V30 2171 C 199.612 -6.68622 1.39403 0
M  V30 2172 O 199.3 -7.7247 2.22586 0
M  V30 2173 H 199.032 -0.659934 -0.146501 0
M  V30 2174 H 201.586 -2.04321 0.210267 0
M  V30 2175 H 199.816 -3.30185 -2.01282 0
M  V30 2176 H 201.505 -3.6488 -1.77813 0
M  V30 2177 H 202.271 -4.83308 0.404741 0
M  V30 2178 H 198.15 -4.54241 -0.786522 0
M  V30 2179 H 201.694 -6.71284 1.898 0
M  V30 2180 H 197.591 -6.41701 0.699309 0
M  V30 2181 H 198.359 -7.89595 2.15596 0
M  V30 2182 N 201.022 0.148545 -1.56898 0
M  V30 2183 C 202.299 0.890019 -1.74178 0
M  V30 2184 C 202.679 1.99407 -0.692839 0
M  V30 2185 O 202.027 2.26671 0.288505 0
M  V30 2186 C 202.237 1.43389 -3.18183 0
M  V30 2187 C 203.585 1.89791 -3.79822 0
M  V30 2188 O 204.609 1.53134 -3.21603 0
M  V30 2189 O 203.468 2.57387 -4.82093 0
M  V30 2190 H 200.562 0.420496 -0.712118 0
M  V30 2191 H 203.108 0.134591 -1.69165 0
M  V30 2192 H 201.88 0.640383 -3.86024 0
M  V30 2193 H 201.503 2.25287 -3.27615 0
M  V30 2194 N 202.5 1.5196 0.417844 0
M  V30 2195 C 203.448 1.75278 1.52907 0
M  V30 2196 C 204.442 0.619611 1.57662 0
M  V30 2197 O 205.648 0.801457 1.61173 0
M  V30 2198 H 202.023 0.554141 0.508362 0
M  V30 2199 H 203.994 2.68389 1.30422 0
M  V30 2200 C 202.743 1.91262 2.90369 0
M  V30 2201 H 202.066 2.77872 2.8745 0
M  V30 2202 H 203.506 2.11581 3.67436 0
M  V30 2203 C 201.965 0.677431 3.30019 0
M  V30 2204 O 202.495 -0.158799 4.01386 0
M  V30 2205 N 200.701 0.515851 2.85985 0
M  V30 2206 H 200.248 1.19744 2.28077 0
M  V30 2207 H 200.206 -0.309315 3.12875 0
M  V30 2208 N 203.978 -0.674533 1.42435 0
M  V30 2209 C 205.394 -0.98769 1.25367 0
M  V30 2210 C 205.594 -2.00879 0.158044 0
M  V30 2211 O 204.65 -2.48075 -0.470633 0
M  V30 2212 C 205.963 -1.49224 2.6106 0
M  V30 2213 C 207.511 -1.61 2.68417 0
M  V30 2214 C 207.986 -2.14852 4.04478 0
M  V30 2215 N 209.477 -2.22185 4.06434 0
M  V30 2216 C 210.212 -2.64928 5.08528 0
M  V30 2217 N 209.708 -3.07121 6.21006 0
M  V30 2218 N 211.501 -2.64679 4.95885 0
M  V30 2219 H 203.652 0.00152503 2.124 0
M  V30 2220 H 205.915 -0.0618434 0.945981 0
M  V30 2221 H 205.621 -0.816453 3.42092 0
M  V30 2222 H 205.495 -2.47094 2.84999 0
M  V30 2223 H 207.882 -2.27686 1.87732 0
M  V30 2224 H 207.963 -0.616195 2.48267 0
M  V30 2225 H 207.607 -1.48775 4.85622 0
M  V30 2226 H 207.537 -3.15024 4.2198 0
M  V30 2227 H 210.028 -1.92435 3.25234 0
M  V30 2228 H 210.341 -3.38423 6.94759 0
M  V30 2229 H 208.686 -3.04978 6.24511 0
M  V30 2230 H 211.877 -2.31078 4.07088 0
M  V30 2231 H 212.05 -2.9767 5.75584 0
M  V30 2232 N 205.456 -1.28612 -0.910864 0
M  V30 2233 C 206.366 -1.14643 -2.0468 0
M  V30 2234 C 207.382 -0.0723121 -1.7385 0
M  V30 2235 O 208.558 -0.282178 -1.99413 0
M  V30 2236 C 205.623 -0.812561 -3.37044 0
M  V30 2237 C 204.684 -1.96935 -3.81465 0
M  V30 2238 C 203.917 -1.65131 -5.07511 0
M  V30 2239 O 204.14 -0.567013 -5.67575 0
M  V30 2240 O 203.074 -2.49585 -5.47714 0
M  V30 2241 H 206.9 -2.1001 -2.19384 0
M  V30 2242 H 204.485 -1.07958 -1.03274 0
M  V30 2243 H 206.367 -0.640441 -4.16505 0
M  V30 2244 H 205.042 0.111426 -3.23508 0
M  V30 2245 H 203.949 -2.19664 -3.02818 0
M  V30 2246 H 205.282 -2.87414 -3.99567 0
M  V30 2247 N 206.934 1.1197 -1.10907 0
M  V30 2248 C 208.18 1.84059 -0.865674 0
M  V30 2249 C 208.535 1.82731 0.602254 0
M  V30 2250 O 207.828 1.26543 1.43866 0
M  V30 2251 C 208.022 3.30749 -1.35425 0
M  V30 2252 C 207.851 3.46363 -2.86815 0
M  V30 2253 C 206.621 3.59712 -3.54874 0
M  V30 2254 C 208.819 3.41116 -3.84895 0
M  V30 2255 N 206.801 3.63741 -4.94536 0
M  V30 2256 C 208.172 3.51698 -5.10596 0
M  V30 2257 C 210.227 3.24612 -3.77533 0
M  V30 2258 C 208.93 3.4748 -6.29802 0
M  V30 2259 C 210.956 3.21708 -4.96244 0
M  V30 2260 C 210.318 3.32856 -6.20795 0
M  V30 2261 H 206.417 0.689015 -0.369841 0
M  V30 2262 H 209.001 1.34016 -1.41237 0
M  V30 2263 H 207.172 3.79322 -0.834814 0
M  V30 2264 H 208.904 3.90718 -1.05458 0
M  V30 2265 H 205.659 3.62038 -3.05329 0
M  V30 2266 H 206.083 3.69408 -5.67333 0
M  V30 2267 H 210.725 3.14883 -2.8215 0
M  V30 2268 H 208.443 3.55978 -7.25469 0
M  V30 2269 H 212.029 3.10113 -4.92261 0
M  V30 2270 H 210.909 3.3059 -7.11112 0
M  V30 2271 N 208.412 0.89855 1.29475 0
M  V30 2272 C 209.658 0.524658 1.95896 0
M  V30 2273 C 209.991 -0.926468 1.70676 0
M  V30 2274 O 209.266 -1.65665 1.01908 0
M  V30 2275 C 209.549 0.81633 3.50725 0
M  V30 2276 C 209.402 2.31907 3.85408 0
M  V30 2277 C 210.721 0.302038 4.39062 0
M  V30 2278 H 207.84 0.19209 0.711527 0
M  V30 2279 H 210.482 1.12502 1.53112 0
M  V30 2280 H 208.632 0.305369 3.87298 0
M  V30 2281 H 210.304 2.89949 3.58786 0
M  V30 2282 H 208.547 2.78027 3.32992 0
M  V30 2283 H 209.218 2.47373 4.93468 0
M  V30 2284 H 211.694 0.739551 4.09475 0
M  V30 2285 H 210.57 0.535331 5.46283 0
M  V30 2286 H 210.831 -0.797216 4.34853 0
M  V30 2287 N 209.89 -1.43072 0.660911 0
M  V30 2288 C 211.136 -2.02545 0.186337 0
M  V30 2289 C 211.491 -1.51253 -1.18913 0
M  V30 2290 O 210.784 -0.699167 -1.78388 0
M  V30 2291 C 210.978 -3.57103 0.145563 0
M  V30 2292 C 210.807 -4.23393 1.51554 0
M  V30 2293 C 209.577 -4.59144 2.10984 0
M  V30 2294 C 211.775 -4.51897 2.45548 0
M  V30 2295 N 209.757 -5.10545 3.40907 0
M  V30 2296 C 211.128 -5.04698 3.6011 0
M  V30 2297 C 213.183 -4.33872 2.44253 0
M  V30 2298 C 211.886 -5.41371 4.73613 0
M  V30 2299 C 213.912 -4.71612 3.56842 0
M  V30 2300 C 213.274 -5.24553 4.70131 0
M  V30 2301 H 209.373 -0.773823 0.112792 0
M  V30 2302 H 211.957 -1.74137 0.870885 0
M  V30 2303 H 210.128 -3.85059 -0.508353 0
M  V30 2304 H 211.86 -4.03264 -0.340598 0
M  V30 2305 H 208.615 -4.4444 1.63615 0
M  V30 2306 H 209.039 -5.40689 4.07411 0
M  V30 2307 H 213.681 -3.92208 1.579 0
M  V30 2308 H 211.399 -5.81975 5.60652 0
M  V30 2309 H 214.985 -4.59354 3.57051 0
M  V30 2310 H 213.865 -5.53213 5.5581 0
M  V30 2311 N 211.368 -0.403325 -1.52352 0
M  V30 2312 C 212.616 0.174003 -2.0135 0
M  V30 2313 C 212.937 1.46139 -1.29106 0
M  V30 2314 O 212.207 1.91448 -0.415253 0
M  V30 2315 H 210.787 0.0672911 -0.743963 0
M  V30 2316 H 213.449 -0.538235 -1.87321 0
M  V30 2317 H 212.545 0.374254 -3.09848 0
M  V30 2318 N 212.846 1.57033 -0.133567 0
M  V30 2319 C 214.076 1.99754 0.527429 0
M  V30 2320 C 214.484 1.01245 1.59832 0
M  V30 2321 O 213.827 -0.000645496 1.837 0
M  V30 2322 C 213.889 3.38903 1.19939 0
M  V30 2323 C 213.553 4.56174 0.274709 0
M  V30 2324 C 214.55 5.17563 -0.492398 0
M  V30 2325 C 212.235 5.01972 0.18153 0
M  V30 2326 C 214.229 6.2315 -1.34027 0
M  V30 2327 C 211.916 6.07416 -0.669958 0
M  V30 2328 C 212.914 6.67874 -1.42947 0
M  V30 2329 O 212.602 7.71279 -2.2668 0
M  V30 2330 H 212.334 0.660702 0.142999 0
M  V30 2331 H 214.888 2.04207 -0.221099 0
M  V30 2332 H 213.118 3.31248 1.99528 0
M  V30 2333 H 214.807 3.65818 1.75875 0
M  V30 2334 H 215.573 4.83087 -0.430367 0
M  V30 2335 H 211.452 4.54652 0.762422 0
M  V30 2336 H 214.996 6.70268 -1.93357 0
M  V30 2337 H 210.893 6.41321 -0.73333 0
M  V30 2338 H 211.661 7.88441 -2.1978 0
M  V30 2339 N 214.325 -0.140222 1.56975 0
M  V30 2340 C 215.741 -0.493088 1.51792 0
M  V30 2341 C 215.941 -1.83013 0.843116 0
M  V30 2342 O 214.997 -2.49041 0.416493 0
M  V30 2343 C 216.31 -0.497144 2.96562 0
M  V30 2344 C 217.858 -0.582186 3.07538 0
M  V30 2345 C 218.333 -0.616838 4.53827 0
M  V30 2346 N 219.824 -0.678873 4.58198 0
M  V30 2347 C 220.559 -0.726782 5.68775 0
M  V30 2348 N 220.055 -0.733623 6.88905 0
M  V30 2349 N 221.848 -0.768179 5.56826 0
M  V30 2350 H 213.999 0.736108 1.99237 0
M  V30 2351 H 216.262 0.269182 0.90898 0
M  V30 2352 H 215.968 0.417217 3.49217 0
M  V30 2353 H 215.842 -1.33263 3.52875 0
M  V30 2354 H 218.229 -1.48697 2.54899 0
M  V30 2355 H 218.31 0.280581 2.54257 0
M  V30 2356 H 217.954 0.283812 5.07106 0
M  V30 2357 H 217.884 -1.49619 5.04898 0
M  V30 2358 H 220.375 -0.68061 3.7172 0
M  V30 2359 H 220.688 -0.772215 7.68932 0
M  V30 2360 H 219.033 -0.701389 6.91452 0
M  V30 2361 H 222.224 -0.760051 4.61888 0
M  V30 2362 H 222.397 -0.80205 6.43017 0
M  V30 2363 N 215.803 -1.52179 -0.40978 0
M  V30 2364 C 216.713 -1.78364 -1.52392 0
M  V30 2365 C 217.729 -0.669183 -1.60617 0
M  V30 2366 O 218.905 -0.954518 -1.77344 0
M  V30 2367 C 215.97 -1.92822 -2.88133 0
M  V30 2368 C 215.031 -3.16725 -2.898 0
M  V30 2369 C 214.264 -3.30483 -4.19067 0
M  V30 2370 O 214.487 -2.49522 -5.12928 0
M  V30 2371 O 213.421 -4.2363 -4.27576 0
M  V30 2372 H 217.247 -2.72931 -1.33201 0
M  V30 2373 H 214.832 -1.37016 -0.59557 0
M  V30 2374 H 216.714 -2.04157 -3.68643 0
M  V30 2375 H 215.389 -1.01444 -3.07393 0
M  V30 2376 H 214.296 -3.10848 -2.08146 0
M  V30 2377 H 215.629 -4.07881 -2.75489 0
M  V30 2378 N 217.281 0.66697 -1.42791 0
M  V30 2379 C 218.229 1.80157 -1.47127 0
M  V30 2380 C 219.223 1.65825 -0.346199 0
M  V30 2381 O 220.429 1.72338 -0.519572 0
M  V30 2382 H 216.804 0.594158 -0.460956 0
M  V30 2383 H 218.775 1.73619 -2.42692 0
M  V30 2384 C 217.524 3.18351 -1.39813 0
M  V30 2385 H 216.847 3.3001 -2.25684 0
M  V30 2386 H 218.287 3.97736 -1.46908 0
M  V30 2387 C 216.746 3.36707 -0.11391 0
M  V30 2388 O 217.276 3.93027 0.830241 0
M  V30 2389 N 215.482 2.90586 -0.0285295 0
M  V30 2390 H 215.029 2.4494 -0.79764 0
M  V30 2391 H 214.987 3.03245 0.830063 0
M  V30 2392 N 218.759 1.29093 0.90403 0
M  V30 2393 C 219.669 1.15727 2.0407 0
M  V30 2394 C 220.685 0.0815308 1.73809 0
M  V30 2395 O 221.861 0.292749 1.99261 0
M  V30 2396 C 218.926 0.830424 3.36608 0
M  V30 2397 C 217.987 1.98955 3.80415 0
M  V30 2398 C 217.22 1.6782 5.06628 0
M  V30 2399 O 217.443 0.597105 5.67266 0
M  V30 2400 O 216.377 2.52486 5.46383 0
M  V30 2401 H 220.203 2.11171 2.18267 0
M  V30 2402 H 217.788 1.08504 1.027 0
M  V30 2403 H 219.67 0.662521 4.16159 0
M  V30 2404 H 218.345 -0.0942678 3.23563 0
M  V30 2405 H 217.252 2.21267 3.01648 0
M  V30 2406 H 218.585 2.89529 3.98037 0
M  V30 2407 N 220.237 -1.11381 1.11499 0
M  V30 2408 C 221.648 -1.6465 0.880191 0
M  V30 2409 C 221.999 -1.87199 -0.587434 0
M  V30 2410 O 221.124 -1.60667 -1.44966 0
M  V30 2411 C 221.719 -2.99105 1.59128 0
M  V30 2412 C 220.278 -3.49279 1.40289 0
M  V30 2413 C 219.425 -2.24077 1.63354 0
M  V30 2414 H 222.376 -0.950123 1.27116 0
M  V30 2415 H 222.397 -3.66107 1.03664 0
M  V30 2416 H 221.909 -2.82661 2.65941 0
M  V30 2417 H 220.01 -3.70887 0.356888 0
M  V30 2418 H 220.123 -4.2803 2.15238 0
M  V30 2419 H 218.487 -2.31733 1.05698 0
M  V30 2420 H 219.27 -2.10175 2.71443 0
M  V30 2421 N 221.715 -0.905404 -1.28997 0
M  V30 2422 C 222.648 -0.331959 -2.25773 0
M  V30 2423 C 223.626 0.559099 -1.52685 0
M  V30 2424 O 224.81 0.50463 -1.8162 0
M  V30 2425 C 221.937 0.526276 -3.34586 0
M  V30 2426 C 220.983 -0.298249 -4.25456 0
M  V30 2427 S 221.816 -1.69968 -5.0781 0
M  V30 2428 C 222.972 -0.848519 -6.20122 0
M  V30 2429 H 223.205 -1.15222 -2.74064 0
M  V30 2430 H 220.738 -0.706112 -1.37308 0
M  V30 2431 H 222.696 1.01565 -3.97737 0
M  V30 2432 H 221.357 1.32084 -2.84978 0
M  V30 2433 H 220.55 0.357607 -5.0273 0
M  V30 2434 H 220.152 -0.720968 -3.66985 0
M  V30 2435 H 222.444 -0.0744325 -6.77459 0
M  V30 2436 H 223.387 -1.59353 -6.89937 0
M  V30 2437 H 223.795 -0.400383 -5.63078 0
M  V30 2438 N 223.193 1.4272 -0.668489 0
M  V30 2439 C 224.441 2.01226 -0.187769 0
M  V30 2440 C 224.762 1.53092 1.2078 0
M  V30 2441 O 224.032 0.74993 1.80977 0
M  V30 2442 H 222.612 0.744041 -0.0664272 0
M  V30 2443 H 225.274 1.74723 -0.863583 0
M  V30 2444 H 224.37 3.11556 -0.184166 0
M  V30 2445 N 224.671 0.411399 1.52136 0
M  V30 2446 C 225.919 -0.163322 2.01439 0
M  V30 2447 C 226.24 -1.45453 1.29879 0
M  V30 2448 O 225.51 -1.91225 0.4254 0
M  V30 2449 H 224.09 -0.0633447 0.744309 0
M  V30 2450 H 226.752 0.548161 1.87033 0
M  V30 2451 H 225.848 -0.357817 3.10042 0
M  V30 2452 N 226.149 -1.5696 0.141893 0
M  V30 2453 C 227.379 -2.00031 -0.516828 0
M  V30 2454 C 227.787 -1.02091 -1.59293 0
M  V30 2455 O 227.13 -0.00909657 -1.83698 0
M  V30 2456 C 227.192 -3.39534 -1.1814 0
M  V30 2457 C 226.856 -4.56313 -0.250513 0
M  V30 2458 C 227.853 -5.17295 0.519839 0
M  V30 2459 C 225.538 -5.02061 -0.154907 0
M  V30 2460 C 227.532 -6.2243 1.3733 0
M  V30 2461 C 225.219 -6.07053 0.702161 0
M  V30 2462 C 226.217 -6.67106 1.46487 0
M  V30 2463 O 225.905 -7.70066 2.30767 0
M  V30 2464 H 225.637 -0.661451 -0.139493 0
M  V30 2465 H 228.191 -2.04086 0.231926 0
M  V30 2466 H 226.421 -3.32302 -1.97769 0
M  V30 2467 H 228.11 -3.66745 -1.73933 0
M  V30 2468 H 228.876 -4.82852 0.45598 0
M  V30 2469 H 224.755 -4.5505 -0.7383 0
M  V30 2470 H 228.299 -6.69233 1.96909 0
M  V30 2471 H 224.196 -6.40923 0.76733 0
M  V30 2472 H 224.964 -7.87264 2.23959 0
M  V30 2473 N 227.627 0.131896 -1.57047 0
M  V30 2474 C 228.904 0.871495 -1.75112 0
M  V30 2475 C 229.284 1.9866 -0.713949 0
M  V30 2476 O 228.632 2.26965 0.264447 0
M  V30 2477 C 228.842 1.40007 -3.19686 0
M  V30 2478 C 230.19 1.85752 -3.81813 0
M  V30 2479 O 231.214 1.49715 -3.23209 0
M  V30 2480 O 230.073 2.5226 -4.84796 0
M  V30 2481 H 227.167 0.412919 -0.716538 0
M  V30 2482 H 229.713 0.116641 -1.69299 0
M  V30 2483 H 228.485 0.599404 -3.86682 0
M  V30 2484 H 228.108 2.218 -3.29986 0
M  V30 2485 N 229.106 1.52395 0.401703 0
M  V30 2486 C 230.517 1.58899 0.980202 0
M  V30 2487 C 230.868 0.434032 1.91339 0
M  V30 2488 O 229.993 -0.444619 2.11783 0
M  V30 2489 C 230.588 2.87994 1.78451 0
M  V30 2490 C 229.147 2.96953 2.31292 0
M  V30 2491 C 228.294 2.53903 1.11483 0
M  V30 2492 H 231.245 1.57657 0.18168 0
M  V30 2493 H 231.266 2.73765 2.64259 0
M  V30 2494 H 230.778 3.72035 1.10506 0
M  V30 2495 H 228.879 2.17422 3.02586 0
M  V30 2496 H 228.992 4.01344 2.61649 0
M  V30 2497 H 227.356 2.07925 1.47104 0
M  V30 2498 H 228.139 3.40326 0.450928 0
M  V30 2499 N 230.584 -0.659388 1.43143 0
M  V30 2500 C 231.814 -1.44513 1.47646 0
M  V30 2501 C 232.222 -1.88981 0.0910095 0
M  V30 2502 O 231.565 -1.59702 -0.907789 0
M  V30 2503 C 231.627 -2.71663 2.35456 0
M  V30 2504 C 231.291 -2.49175 3.83094 0
M  V30 2505 C 232.288 -2.1279 4.74359 0
M  V30 2506 C 229.973 -2.63691 4.27519 0
M  V30 2507 C 231.967 -1.9121 6.08044 0
M  V30 2508 C 229.654 -2.41726 5.61259 0
M  V30 2509 C 230.652 -2.0554 6.51339 0
M  V30 2510 O 230.34 -1.838 7.82606 0
M  V30 2511 H 230.072 -0.45064 0.503884 0
M  V30 2512 H 232.626 -0.816248 1.88485 0
M  V30 2513 H 230.856 -3.37089 1.89493 0
M  V30 2514 H 232.545 -3.33595 2.31235 0
M  V30 2515 H 233.311 -2.01157 4.41317 0
M  V30 2516 H 229.19 -2.90832 3.57684 0
M  V30 2517 H 232.734 -1.62889 6.78316 0
M  V30 2518 H 228.631 -2.52959 5.9387 0
M  V30 2519 H 229.399 -1.98275 7.94122 0
M  V30 2520 N 232.062 -1.29571 -0.897171 0
M  V30 2521 C 233.287 -1.20705 -1.68656 0
M  V30 2522 C 233.712 0.228582 -1.86706 0
M  V30 2523 O 233.07 1.16494 -1.3892 0
M  V30 2524 C 233.118 -1.9282 -3.04717 0
M  V30 2525 O 232.222 -1.24697 -3.93096 0
M  V30 2526 H 231.563 -0.418126 -0.515816 0
M  V30 2527 H 234.093 -1.71183 -1.12061 0
M  V30 2528 H 234.103 -2.01372 -3.54843 0
M  V30 2529 H 232.778 -2.97239 -2.90899 0
M  V30 2530 H 231.355 -1.2442 -3.51531 0
M  V30 2531 N 233.54 1.10788 -1.12088 0
M  V30 2532 C 234.488 2.19111 -0.780587 0
M  V30 2533 C 235.482 1.67818 0.230961 0
M  V30 2534 O 236.688 1.79777 0.0895427 0
M  V30 2535 H 233.063 0.714477 -0.234578 0
M  V30 2536 H 235.034 2.45055 -1.70266 0
M  V30 2537 C 233.783 3.46818 -0.24747 0
M  V30 2538 H 233.106 3.86646 -1.01712 0
M  V30 2539 H 234.546 4.23973 -0.0476291 0
M  V30 2540 C 233.005 3.20968 1.02378 0
M  V30 2541 O 233.535 3.42298 2.10226 0
M  V30 2542 N 231.741 2.74658 0.949271 0
M  V30 2543 H 231.288 2.57501 0.0715173 0
M  V30 2544 H 231.246 2.57739 1.80049 0
M  V30 2545 N 235.018 0.912232 1.28515 0
M  V30 2546 C 236.243 0.559774 1.99703 0
M  V30 2547 C 236.668 -0.851393 1.67729 0
M  V30 2548 O 236.026 -1.56875 0.908834 0
M  V30 2549 C 236.074 0.773874 3.52198 0
M  V30 2550 O 235.178 -0.167842 4.12058 0
M  V30 2551 H 234.519 0.21723 0.627461 0
M  V30 2552 H 237.049 1.22725 1.63706 0
M  V30 2553 H 237.059 0.683386 4.02236 0
M  V30 2554 H 235.734 1.80261 3.74805 0
M  V30 2555 H 234.311 -0.0287509 3.72889 0
M  V30 2556 N 236.496 -1.42363 0.676048 0
M  V30 2557 C 237.443 -2.308 -0.00150904 0
M  V30 2558 C 238.413 -1.46032 -0.791444 0
M  V30 2559 O 239.598 -1.74861 -0.76344 0
M  V30 2560 C 236.738 -3.31883 -0.945919 0
M  V30 2561 C 235.851 -4.31741 -0.149675 0
M  V30 2562 C 234.986 -5.19898 -1.08995 0
M  V30 2563 C 234.025 -6.11434 -0.285465 0
M  V30 2564 N 233.162 -6.92138 -1.17851 0
M  V30 2565 H 238.002 -2.88187 0.758455 0
M  V30 2566 H 235.539 -1.41952 0.38576 0
M  V30 2567 H 237.497 -3.89019 -1.50731 0
M  V30 2568 H 236.127 -2.76093 -1.6725 0
M  V30 2569 H 235.179 -3.76713 0.528359 0
M  V30 2570 H 236.491 -4.96534 0.474866 0
M  V30 2571 H 235.645 -5.81772 -1.72123 0
M  V30 2572 H 234.384 -4.55284 -1.74837 0
M  V30 2573 H 233.389 -5.48627 0.359018 0
M  V30 2574 H 234.614 -6.78097 0.368883 0
M  V30 2575 H 232.56 -6.30152 -1.82332 0
M  V30 2576 H 232.477 -7.53542 -0.609082 0
M  V30 2577 H 233.745 -7.58499 -1.79722 0
M  V30 2578 N 237.974 -0.419461 -1.51915 0
M  V30 2579 C 239.222 0.152637 -2.01523 0
M  V30 2580 C 239.543 1.44762 -1.30649 0
M  V30 2581 O 238.813 1.90997 -0.435535 0
M  V30 2582 H 237.393 0.0593966 -0.744635 0
M  V30 2583 H 240.055 -0.558073 -1.86739 0
M  V30 2584 H 239.151 0.341369 -3.10227 0
M  V30 2585 N 239.452 1.56882 -0.150215 0
M  V30 2586 C 240.692 1.98119 0.502804 0
M  V30 2587 C 241.056 1.03327 1.61826 0
M  V30 2588 O 242.257 1.33621 2.33236 0
M  V30 2589 C 240.528 3.43329 0.992988 0
M  V30 2590 S 242.087 4.0659 1.65015 0
M  V30 2591 H 238.905 0.692189 0.162467 0
M  V30 2592 H 241.507 1.93988 -0.242689 0
M  V30 2593 H 240.211 4.10046 0.170436 0
M  V30 2594 H 239.742 3.5118 1.77303 0
M  V30 2595 H 241.757 3.99906 2.93752 0
M  V30 2596 N 240.93 -0.123565 1.57115 0
M  V30 2597 C 241.893 -1.13583 1.99076 0
M  V30 2598 C 242.893 -1.34564 0.880296 0
M  V30 2599 O 244.083 -1.31158 1.14644 0
M  V30 2600 C 241.215 -2.49128 2.32698 0
M  V30 2601 H 242.408 -0.775287 2.89706 0
M  V30 2602 H 239.961 -0.36771 1.51913 0
M  V30 2603 H 240.696 -2.90111 1.44934 0
M  V30 2604 H 240.481 -2.35255 3.13684 0
M  V30 2605 H 241.971 -3.2199 2.65918 0
M  V30 2606 N 242.408 -1.52605 -0.393616 0
M  V30 2607 C 243.318 -1.79971 -1.50492 0
M  V30 2608 C 244.334 -0.686181 -1.59899 0
M  V30 2609 O 245.51 -0.973274 -1.76322 0
M  V30 2610 C 242.575 -1.95867 -2.86072 0
M  V30 2611 C 241.636 -3.19781 -2.86424 0
M  V30 2612 C 240.869 -3.34909 -4.15538 0
M  V30 2613 O 241.092 -2.54948 -5.10253 0
M  V30 2614 O 240.026 -4.28141 -4.23059 0
M  V30 2615 H 243.852 -2.74328 -1.30299 0
M  V30 2616 H 241.437 -1.3764 -0.581005 0
M  V30 2617 H 243.319 -2.08056 -3.66457 0
M  V30 2618 H 241.994 -1.04699 -3.063 0
M  V30 2619 H 240.901 -3.13038 -2.04837 0
M  V30 2620 H 242.234 -4.1078 -2.71147 0
M  V30 2621 N 243.887 0.651787 -1.4349 0
M  V30 2622 C 244.817 1.77621 -1.51569 0
M  V30 2623 C 245.798 1.66022 -0.370253 0
M  V30 2624 O 246.983 1.85095 -0.587658 0
M  V30 2625 C 244.113 3.16056 -1.43966 0
M  V30 2626 C 243.067 3.4242 -2.56774 0
M  V30 2627 C 242.393 4.8067 -2.34223 0
M  V30 2628 C 243.693 3.37023 -3.99015 0
M  V30 2629 H 245.387 1.71117 -2.45681 0
M  V30 2630 H 242.933 0.821825 -1.18246 0
M  V30 2631 H 244.886 3.94472 -1.48221 0
M  V30 2632 H 243.61 3.23293 -0.463586 0
M  V30 2633 H 242.269 2.66375 -2.51873 0
M  V30 2634 H 241.917 4.84585 -1.34856 0
M  V30 2635 H 241.617 4.9927 -3.09844 0
M  V30 2636 H 243.141 5.61342 -2.40265 0
M  V30 2637 H 244.555 4.05374 -4.05395 0
M  V30 2638 H 242.952 3.67159 -4.74673 0
M  V30 2639 H 244.022 2.3518 -4.2405 0
M  V30 2640 N 245.365 1.30045 0.890287 0
M  V30 2641 C 246.611 1.18737 1.64406 0
M  V30 2642 C 246.944 -0.258525 1.92472 0
M  V30 2643 O 246.219 -1.18562 1.54186 0
M  V30 2644 C 246.502 2.01087 2.98724 0
M  V30 2645 C 246.355 3.53867 2.77665 0
M  V30 2646 C 247.674 1.84457 3.9958 0
M  V30 2647 H 244.793 0.432698 0.596608 0
M  V30 2648 H 247.435 1.5962 1.0306 0
M  V30 2649 H 245.585 1.66349 3.51084 0
M  V30 2650 H 247.257 3.98637 2.32133 0
M  V30 2651 H 245.5 3.78318 2.12269 0
M  V30 2652 H 246.171 4.06772 3.7315 0
M  V30 2653 H 248.647 2.14817 3.56361 0
M  V30 2654 H 247.523 2.44411 4.91482 0
M  V30 2655 H 247.784 0.802276 4.3476 0
M  V30 2656 N 246.843 -1.10192 1.12674 0
M  V30 2657 C 247.806 -2.14786 0.799979 0
M  V30 2658 C 248.806 -1.59711 -0.18685 0
M  V30 2659 O 249.996 -1.74156 0.0392558 0
M  V30 2660 C 247.128 -3.40374 0.189228 0
M  V30 2661 H 248.321 -2.45203 1.72671 0
M  V30 2662 H 245.874 -1.25597 0.930326 0
M  V30 2663 H 246.609 -3.15577 -0.747107 0
M  V30 2664 H 246.394 -3.81637 0.899766 0
M  V30 2665 H 247.884 -4.17594 -0.0228143 0
M  V30 2666 N 248.321 -0.919034 -1.28029 0
M  V30 2667 C 249.546 -0.570357 -1.99403 0
M  V30 2668 C 249.971 0.842486 -1.68178 0
M  V30 2669 O 249.329 1.56391 -0.917141 0
M  V30 2670 C 249.377 -0.792541 -3.51783 0
M  V30 2671 O 248.481 0.145988 -4.12142 0
M  V30 2672 H 247.822 -0.220555 -0.6263 0
M  V30 2673 H 250.352 -1.23592 -1.63053 0
M  V30 2674 H 250.362 -0.704708 -4.01868 0
M  V30 2675 H 249.037 -1.82247 -3.73844 0
M  V30 2676 H 247.614 0.00897528 -3.72899 0
M  V30 2677 N 249.799 1.42003 -0.683588 0
M  V30 2678 C 250.762 2.29191 -0.0198243 0
M  V30 2679 C 251.762 1.43773 0.72013 0
M  V30 2680 O 252.952 1.65061 0.556815 0
M  V30 2681 C 250.084 3.26435 0.982487 0
M  V30 2682 H 251.277 2.8938 -0.787345 0
M  V30 2683 H 248.83 1.49789 -0.446418 0
M  V30 2684 H 249.565 2.71203 1.77819 0
M  V30 2685 H 249.35 3.89449 0.455182 0
M  V30 2686 H 250.84 3.918 1.44508 0
M  V30 2687 N 251.277 0.427512 1.51691 0
M  V30 2688 C 252.524 -0.142229 2.02 0
M  V30 2689 C 252.852 -1.43566 1.31221 0
M  V30 2690 O 252.107 -1.91298 0.412744 0
M  V30 2691 C 252.406 -0.418249 3.54944 0
M  V30 2692 C 252.072 0.788187 4.43958 0
M  V30 2693 C 250.734 1.11906 4.68007 0
M  V30 2694 C 253.086 1.59347 4.96244 0
M  V30 2695 C 250.414 2.25608 5.41588 0
M  V30 2696 C 252.766 2.7214 5.71072 0
M  V30 2697 C 251.43 3.05692 5.93387 0
M  V30 2698 H 250.7 -0.0520451 0.73917 0
M  V30 2699 H 253.347 0.572697 1.82736 0
M  V30 2700 H 251.652 -1.21496 3.72486 0
M  V30 2701 H 253.349 -0.872339 3.91397 0
M  V30 2702 H 249.939 0.520344 4.2543 0
M  V30 2703 H 254.123 1.35106 4.77556 0
M  V30 2704 H 249.379 2.51929 5.57083 0
M  V30 2705 H 253.553 3.34914 6.10578 0
M  V30 2706 H 251.18 3.9391 6.50184 0
M  V30 2707 N 252.755 -1.56801 0.158532 0
M  V30 2708 C 254.171 -1.5837 -0.197774 0
M  V30 2709 C 254.371 -1.17334 -1.63814 0
M  V30 2710 O 253.427 -0.878988 -2.36707 0
M  V30 2711 C 254.74 -3.00615 0.0714459 0
M  V30 2712 C 256.288 -3.12999 0.00864533 0
M  V30 2713 C 256.763 -4.57313 0.250685 0
M  V30 2714 N 258.254 -4.62777 0.198014 0
M  V30 2715 C 258.989 -5.72271 0.359642 0
M  V30 2716 N 258.485 -6.90371 0.579625 0
M  V30 2717 N 260.278 -5.61318 0.296438 0
M  V30 2718 H 252.429 -1.81765 1.09887 0
M  V30 2719 H 254.692 -0.841849 0.435884 0
M  V30 2720 H 254.398 -3.35068 1.06874 0
M  V30 2721 H 254.272 -3.71683 -0.642757 0
M  V30 2722 H 256.659 -2.7838 -0.979217 0
M  V30 2723 H 256.74 -2.44393 0.755359 0
M  V30 2724 H 256.384 -4.92639 1.2357 0
M  V30 2725 H 256.314 -5.24061 -0.516489 0
M  V30 2726 H 258.805 -3.77885 0.0331115 0
M  V30 2727 H 259.118 -7.69689 0.69275 0
M  V30 2728 H 257.463 -6.92264 0.616087 0
M  V30 2729 H 260.654 -4.67932 0.125258 0
M  V30 2730 H 260.827 -6.46599 0.425831 0
M  V30 2731 N 254.233 0.115231 -1.57178 0
M  V30 2732 C 255.181 1.16014 -2.01602 0
M  V30 2733 C 256.175 1.42653 -0.913587 0
M  V30 2734 O 257.381 1.42571 -1.09879 0
M  V30 2735 H 253.756 0.391252 -0.642204 0
M  V30 2736 H 255.727 0.758998 -2.88586 0
M  V30 2737 C 254.476 2.47767 -2.4394 0
M  V30 2738 H 253.799 2.28108 -3.28339 0
M  V30 2739 H 255.239 3.19432 -2.78818 0
M  V30 2740 C 253.698 3.10617 -1.30455 0
M  V30 2741 O 254.228 3.96846 -0.622585 0
M  V30 2742 N 252.434 2.70553 -1.06064 0
M  V30 2743 H 251.981 2.00527 -1.61699 0
M  V30 2744 H 251.939 3.12934 -0.303284 0
M  V30 2745 N 255.711 1.52812 0.385517 0
M  V30 2746 C 256.936 1.72207 1.15583 0
M  V30 2747 C 257.361 0.441034 1.82857 0
M  V30 2748 O 256.719 -0.603465 1.70962 0
M  V30 2749 C 256.767 2.87476 2.17692 0
M  V30 2750 O 255.871 2.54693 3.24354 0
M  V30 2751 H 255.212 0.572526 0.336319 0
M  V30 2752 H 257.742 1.99618 0.448744 0
M  V30 2753 H 257.752 3.13072 2.6163 0
M  V30 2754 H 256.427 3.80408 1.68115 0
M  V30 2755 H 255.004 2.3985 2.85529 0
M  V30 2756 N 257.189 -0.644168 1.43834 0
M  V30 2757 C 258.436 -1.40395 1.4593 0
M  V30 2758 C 258.764 -1.94305 0.0869658 0
M  V30 2759 O 258.019 -1.73288 -0.909378 0
M  V30 2760 C 258.318 -2.59615 2.45631 0
M  V30 2761 C 257.984 -2.2407 3.91284 0
M  V30 2762 C 256.646 -2.14089 4.30952 0
M  V30 2763 C 258.998 -1.95775 4.83034 0
M  V30 2764 C 256.326 -1.73981 5.6031 0
M  V30 2765 C 258.678 -1.57163 6.12766 0
M  V30 2766 C 257.342 -1.45713 6.51402 0
M  V30 2767 H 256.612 -0.513741 0.533995 0
M  V30 2768 H 259.259 -0.731724 1.76969 0
M  V30 2769 H 257.564 -3.32011 2.08028 0
M  V30 2770 H 259.261 -3.17834 2.44504 0
M  V30 2771 H 255.851 -2.32753 3.59895 0
M  V30 2772 H 260.035 -2.02403 4.53152 0
M  V30 2773 H 255.291 -1.63709 5.89075 0
M  V30 2774 H 259.465 -1.34303 6.83327 0
M  V30 2775 H 257.092 -1.14406 7.51542 0
M  V30 2776 N 258.668 -1.30515 -0.883378 0
M  V30 2777 C 259.915 -1.1943 -1.63532 0
M  V30 2778 C 260.243 0.250627 -1.92878 0
M  V30 2779 O 259.498 1.19556 -1.54935 0
M  V30 2780 C 259.797 -1.96994 -2.98209 0
M  V30 2781 C 259.463 -3.466 -2.88408 0
M  V30 2782 C 258.125 -3.87397 -2.85442 0
M  V30 2783 C 260.477 -4.41863 -2.76418 0
M  V30 2784 C 257.805 -5.21745 -2.68327 0
M  V30 2785 C 260.157 -5.7632 -2.60841 0
M  V30 2786 C 258.821 -6.16354 -2.56251 0
M  V30 2787 H 258.091 -0.437025 -0.598406 0
M  V30 2788 H 260.738 -1.61635 -1.02696 0
M  V30 2789 H 259.043 -1.47429 -3.63004 0
M  V30 2790 H 260.74 -1.85808 -3.55354 0
M  V30 2791 H 257.33 -3.14182 -2.91527 0
M  V30 2792 H 261.514 -4.11285 -2.77775 0
M  V30 2793 H 256.77 -5.51853 -2.63189 0
M  V30 2794 H 260.944 -6.49772 -2.50538 0
M  V30 2795 H 258.571 -7.20401 -2.42748 0
M  V30 2796 N 260.146 1.09593 -1.13257 0
M  V30 2797 C 261.094 2.18271 -0.803783 0
M  V30 2798 C 262.088 1.68054 0.213148 0
M  V30 2799 O 263.294 1.79862 0.0704699 0
M  V30 2800 H 259.669 0.711949 -0.242143 0
M  V30 2801 H 261.64 2.43235 -1.72856 0
M  V30 2802 C 260.389 3.46536 -0.28424 0
M  V30 2803 H 259.712 3.85545 -1.05807 0
M  V30 2804 H 261.152 4.23899 -0.0925945 0
M  V30 2805 C 259.611 3.22036 0.989684 0
M  V30 2806 O 260.141 3.44509 2.06584 0
M  V30 2807 N 258.347 2.7565 0.920086 0
M  V30 2808 H 257.894 2.57562 0.0442019 0
M  V30 2809 H 257.852 2.59635 1.77306 0
M  V30 2810 N 261.624 0.925811 1.2754 0
M  V30 2811 C 263.035 0.610102 1.7645 0
M  V30 2812 C 263.386 -0.874723 1.75622 0
M  V30 2813 O 262.511 -1.68444 1.35851 0
M  V30 2814 C 263.106 1.10073 3.20421 0
M  V30 2815 C 261.665 0.835723 3.67005 0
M  V30 2816 C 260.812 1.26054 2.46993 0
M  V30 2817 H 263.763 1.10579 1.13833 0
M  V30 2818 H 263.784 0.447557 3.77859 0
M  V30 2819 H 263.296 2.18143 3.20991 0
M  V30 2820 H 261.397 -0.231249 3.71882 0
M  V30 2821 H 261.51 1.45193 4.56569 0
M  V30 2822 H 259.874 0.679111 2.45479 0
M  V30 2823 H 260.657 2.34984 2.50275 0
M  V30 2824 N 263.102 -1.41638 0.69111 0
M  V30 2825 C 264.065 -2.29178 0.0319786 0
M  V30 2826 C 265.065 -1.44153 -0.712496 0
M  V30 2827 O 266.255 -1.65354 -0.548053 0
M  V30 2828 C 263.387 -3.26952 -0.965161 0
M  V30 2829 H 264.58 -2.88959 0.802681 0
M  V30 2830 H 262.133 -1.4955 0.454356 0
M  V30 2831 H 262.868 -2.72142 -1.76378 0
M  V30 2832 H 262.653 -3.89685 -0.434522 0
M  V30 2833 H 264.143 -3.92561 -1.42428 0
M  V30 2834 N 264.58 -0.43555 -1.51462 0
M  V30 2835 C 265.528 0.391205 -2.29287 0
M  V30 2836 C 266.522 1.02247 -1.35062 0
M  V30 2837 O 267.728 0.957646 -1.52411 0
M  V30 2838 H 264.103 0.144968 -0.737895 0
M  V30 2839 H 266.074 -0.286051 -2.97026 0
M  V30 2840 C 264.823 1.48096 -3.14583 0
M  V30 2841 H 264.146 1.00457 -3.86973 0
M  V30 2842 H 265.586 2.03273 -3.72097 0
M  V30 2843 C 264.045 2.46321 -2.29843 0
M  V30 2844 O 264.575 3.50815 -1.95682 0
M  V30 2845 N 262.781 2.17166 -1.931 0
M  V30 2846 H 262.328 1.32218 -2.21079 0
M  V30 2847 H 262.286 2.83127 -1.36698 0
M  V30 2848 N 266.058 1.56714 -0.166846 0
M  V30 2849 C 267.288 2.00828 0.48494 0
M  V30 2850 C 267.696 1.04612 1.57648 0
M  V30 2851 O 267.039 0.0383201 1.8366 0
M  V30 2852 C 267.101 3.4137 1.12723 0
M  V30 2853 C 266.765 4.56654 0.177886 0
M  V30 2854 C 267.762 5.16402 -0.60207 0
M  V30 2855 C 265.447 5.02244 0.0750139 0
M  V30 2856 C 267.441 6.20167 -1.47215 0
M  V30 2857 C 265.128 6.05859 -0.798649 0
M  V30 2858 C 266.126 6.64691 -1.57082 0
M  V30 2859 O 265.814 7.66297 -2.42989 0
M  V30 2860 H 265.546 0.663587 0.128953 0
M  V30 2861 H 268.1 2.03692 -0.264365 0
M  V30 2862 H 266.33 3.35406 1.92457 0
M  V30 2863 H 268.019 3.69466 1.68076 0
M  V30 2864 H 268.785 4.82065 -0.53274 0
M  V30 2865 H 264.664 4.56167 0.665812 0
M  V30 2866 H 268.208 6.66016 -2.07531 0
M  V30 2867 H 264.105 6.39621 -0.869199 0
M  V30 2868 H 264.873 7.83601 -2.36455 0
M  V30 2869 N 267.536 -0.106894 1.57237 0
M  V30 2870 C 268.446 -1.14911 2.0453 0
M  V30 2871 C 269.462 -1.44592 0.96795 0
M  V30 2872 O 270.638 -1.55468 1.2803 0
M  V30 2873 C 267.703 -2.45272 2.45036 0
M  V30 2874 C 266.764 -2.22879 3.66911 0
M  V30 2875 C 265.997 -3.47024 4.05475 0
M  V30 2876 O 266.22 -4.54804 3.44252 0
M  V30 2877 O 265.154 -3.3731 4.98504 0
M  V30 2878 H 268.98 -0.777461 2.9358 0
M  V30 2879 H 266.565 -0.318563 1.45964 0
M  V30 2880 H 268.447 -3.22055 2.71769 0
M  V30 2881 H 267.122 -2.81886 1.59129 0
M  V30 2882 H 266.029 -1.43915 3.45311 0
M  V30 2883 H 267.362 -1.91163 4.53561 0
M  V30 2884 N 269.014 -1.53014 -0.377408 0
M  V30 2885 C 269.946 -1.74884 -1.48149 0
M  V30 2886 C 270.959 -0.629433 -1.5014 0
M  V30 2887 O 272.148 -0.905416 -1.53833 0
M  V30 2888 C 269.248 -1.80299 -2.86959 0
M  V30 2889 C 268.421 -3.09776 -3.08801 0
M  V30 2890 C 267.48 -3.06586 -4.27658 0
M  V30 2891 O 266.506 -3.80419 -4.23403 0
M  V30 2892 N 267.708 -2.26578 -5.34455 0
M  V30 2893 H 270.473 -2.70147 -1.29771 0
M  V30 2894 H 268.034 -1.51646 -0.56703 0
M  V30 2895 H 270.026 -1.75657 -3.64591 0
M  V30 2896 H 268.596 -0.92372 -2.98641 0
M  V30 2897 H 267.816 -3.27815 -2.18931 0
M  V30 2898 H 269.104 -3.95366 -3.20255 0
M  V30 2899 H 268.502 -1.66081 -5.40771 0
M  V30 2900 H 267.059 -2.27766 -6.10709 0
M  V30 2901 N 270.492 0.636531 -1.44174 0
M  V30 2902 C 271.442 1.74233 -1.47061 0
M  V30 2903 C 272.426 1.57331 -0.337034 0
M  V30 2904 O 273.618 1.67159 -0.581973 0
M  V30 2905 C 270.747 3.12897 -1.41246 0
M  V30 2906 C 269.833 3.35288 -2.59698 0
M  V30 2907 N 270.224 3.2807 -3.84972 0
M  V30 2908 C 268.522 3.66065 -2.54778 0
M  V30 2909 C 269.223 3.51001 -4.63867 0
M  V30 2910 N 268.199 3.73616 -3.94857 0
M  V30 2911 H 272.001 1.67103 -2.41773 0
M  V30 2912 H 269.515 0.838806 -1.3906 0
M  V30 2913 H 271.512 3.92189 -1.41398 0
M  V30 2914 H 270.172 3.21197 -0.47569 0
M  V30 2915 H 271.183 3.07109 -4.17019 0
M  V30 2916 H 267.86 3.81379 -1.6987 0
M  V30 2917 H 269.25 3.51059 -5.72894 0
M  V30 2918 N 271.97 1.30982 0.876444 0
M  V30 2919 C 273.218 1.20058 1.62575 0
M  V30 2920 C 273.539 -0.242947 1.93481 0
M  V30 2921 O 272.809 -1.1619 1.57724 0
M  V30 2922 H 271.389 0.44135 0.602677 0
M  V30 2923 H 274.051 1.64222 1.04962 0
M  V30 2924 H 273.147 1.76762 2.57219 0
M  V30 2925 N 273.449 -1.08991 1.13837 0
M  V30 2926 C 274.695 -1.81526 0.90422 0
M  V30 2927 C 275.028 -1.85706 -0.568066 0
M  V30 2928 O 274.303 -1.32855 -1.42056 0
M  V30 2929 C 274.586 -3.27447 1.49835 0
M  V30 2930 C 274.439 -3.31512 3.04006 0
M  V30 2931 C 275.758 -4.24256 1.17025 0
M  V30 2932 H 272.877 -0.659029 0.329923 0
M  V30 2933 H 275.519 -1.27644 1.40737 0
M  V30 2934 H 273.669 -3.73462 1.07044 0
M  V30 2935 H 275.341 -2.93867 3.55584 0
M  V30 2936 H 273.584 -2.70963 3.38765 0
M  V30 2937 H 274.255 -4.34329 3.40679 0
M  V30 2938 H 276.731 -3.86549 1.54009 0
M  V30 2939 H 275.607 -5.24684 1.61237 0
M  V30 2940 H 275.868 -4.42019 0.0846274 0
M  V30 2941 N 274.927 -0.932562 -1.27047 0
M  V30 2942 C 276.175 -0.574422 -1.93765 0
M  V30 2943 C 276.496 0.887993 -1.73608 0
M  V30 2944 O 275.766 1.62999 -1.08665 0
M  V30 2945 H 274.346 -0.209451 -0.717035 0
M  V30 2946 H 277.008 -1.18601 -1.5466 0
M  V30 2947 H 276.104 -0.784841 -3.02071 0
M  V30 2948 N 276.405 1.4127 -0.698611 0
M  V30 2949 C 277.335 2.33447 -0.049629 0
M  V30 2950 C 278.316 1.51982 0.763898 0
M  V30 2951 O 279.501 1.80509 0.716257 0
M  V30 2952 C 276.631 3.35828 0.885267 0
M  V30 2953 C 275.585 4.27627 0.178613 0
M  V30 2954 C 274.911 5.20406 1.22807 0
M  V30 2955 C 276.211 5.13459 -0.956933 0
M  V30 2956 H 277.905 2.87966 -0.81951 0
M  V30 2957 H 275.451 1.38461 -0.395538 0
M  V30 2958 H 277.404 3.9924 1.34854 0
M  V30 2959 H 276.128 2.79666 1.68685 0
M  V30 2960 H 274.787 3.65643 -0.26466 0
M  V30 2961 H 274.435 4.60558 2.02226 0
M  V30 2962 H 274.135 5.82661 0.760239 0
M  V30 2963 H 275.659 5.86695 1.69179 0
M  V30 2964 H 277.073 5.70421 -0.573805 0
M  V30 2965 H 275.47 5.8467 -1.35205 0
M  V30 2966 H 276.54 4.50443 -1.79524 0
M  V30 2967 N 277.883 0.443576 1.51229 0
M  V30 2968 C 278.846 -0.353132 2.26463 0
M  V30 2969 C 279.846 -0.944338 1.3015 0
M  V30 2970 O 281.036 -0.817813 1.5381 0
M  V30 2971 C 278.168 -1.50023 3.06114 0
M  V30 2972 H 279.361 0.3063 2.98332 0
M  V30 2973 H 276.914 0.196902 1.55055 0
M  V30 2974 H 277.649 -2.19553 2.38677 0
M  V30 2975 H 277.434 -1.08241 3.76864 0
M  V30 2976 H 278.924 -2.06296 3.63087 0
M  V30 2977 N 279.361 -1.56624 0.175154 0
M  V30 2978 C 280.586 -2.01813 -0.478137 0
M  V30 2979 C 281.011 -1.05457 -1.55757 0
M  V30 2980 O 280.369 -0.0347439 -1.81267 0
M  V30 2981 C 280.417 -3.45581 -1.02987 0
M  V30 2982 O 279.521 -3.52305 -2.14371 0
M  V30 2983 H 278.862 -0.65413 -0.114059 0
M  V30 2984 H 281.392 -2.02673 0.280173 0
M  V30 2985 H 281.402 -3.84965 -1.35151 0
M  V30 2986 H 280.077 -4.1521 -0.239556 0
M  V30 2987 H 278.654 -3.24783 -1.83222 0
M  V30 2988 N 280.839 0.0985539 -1.57292 0
M  V30 2989 C 282.085 0.803867 -1.86188 0
M  V30 2990 C 282.418 1.78549 -0.763794 0
M  V30 2991 O 281.693 1.93153 0.22855 0
M  V30 2992 C 281.976 1.53568 -3.25713 0
M  V30 2993 C 281.829 0.572277 -4.46145 0
M  V30 2994 C 283.148 2.48708 -3.63087 0
M  V30 2995 H 280.267 0.290781 -0.677211 0
M  V30 2996 H 282.909 0.0675783 -1.8988 0
M  V30 2997 H 281.059 2.16332 -3.22696 0
M  V30 2998 H 282.731 -0.0480894 -4.61275 0
M  V30 2999 H 280.974 -0.114618 -4.33649 0
M  V30 3000 H 281.645 1.12139 -5.40489 0
M  V30 3001 H 284.121 1.96039 -3.67026 0
M  V30 3002 H 282.997 2.96932 -4.61652 0
M  V30 3003 H 283.258 3.32309 -2.91588 0
M  V30 3004 N 282.317 1.53212 0.369288 0
M  V30 3005 C 283.733 1.42902 0.710712 0
M  V30 3006 C 283.933 0.565135 1.93413 0
M  V30 3007 O 282.989 0.0461484 2.52458 0
M  V30 3008 C 284.302 2.86042 0.927382 0
M  V30 3009 C 285.85 2.9565 1.02762 0
M  V30 3010 C 286.325 4.39843 1.27679 0
M  V30 3011 N 287.816 4.43256 1.34457 0
M  V30 3012 C 288.551 5.51929 1.55439 0
M  V30 3013 N 288.047 6.70655 1.73762 0
M  V30 3014 N 289.84 5.39502 1.57779 0
M  V30 3015 H 281.991 2.07888 -0.435457 0
M  V30 3016 H 284.254 0.938661 -0.132739 0
M  V30 3017 H 283.96 3.51557 0.100287 0
M  V30 3018 H 283.834 3.29472 1.83653 0
M  V30 3019 H 286.221 2.30291 1.84527 0
M  V30 3020 H 286.302 2.5562 0.0959504 0
M  V30 3021 H 285.946 5.05774 0.464175 0
M  V30 3022 H 285.876 4.77443 2.22162 0
M  V30 3023 H 288.367 3.5769 1.21926 0
M  V30 3024 H 288.68 7.49248 1.89335 0
M  V30 3025 H 287.025 6.73648 1.70948 0
M  V30 3026 H 290.216 4.45713 1.43029 0
M  V30 3027 H 290.389 6.2426 1.7379 0
M  V30 3028 N 283.795 -0.628877 1.44509 0
M  V30 3029 C 284.758 -1.72263 1.51188 0
M  V30 3030 C 285.758 -1.55907 0.39367 0
M  V30 3031 O 286.948 -1.61361 0.656377 0
M  V30 3032 C 284.08 -3.11365 1.38798 0
M  V30 3033 H 285.273 -1.67714 2.4862 0
M  V30 3034 H 282.826 -0.842737 1.31634 0
M  V30 3035 H 283.561 -3.21507 0.424693 0
M  V30 3036 H 283.346 -3.24644 2.19884 0
M  V30 3037 H 284.836 -3.91075 1.46458 0
M  V30 3038 N 285.273 -1.31445 -0.869486 0
M  V30 3039 C 286.521 -1.20918 -1.61936 0
M  V30 3040 C 286.842 0.232683 -1.93607 0
M  V30 3041 O 286.112 1.15352 -1.58338 0
M  V30 3042 H 284.692 -0.44454 -0.600328 0
M  V30 3043 H 287.354 -1.64776 -1.0409 0
M  V30 3044 H 286.45 -1.78124 -2.56278 0
M  V30 3045 N 286.751 1.08385 -1.14413 0
M  V30 3046 C 287.699 2.17406 -0.826888 0
M  V30 3047 C 288.693 1.6827 0.195312 0
M  V30 3048 O 289.899 1.79927 0.0513892 0
M  V30 3049 H 286.274 0.70934 -0.249681 0
M  V30 3050 H 288.245 2.41388 -1.75426 0
M  V30 3051 C 286.994 3.46215 -0.320979 0
M  V30 3052 H 286.317 3.84401 -1.0989 0
M  V30 3053 H 287.757 4.23777 -0.137549 0
M  V30 3054 C 286.216 3.23067 0.955472 0
M  V30 3055 O 286.746 3.4668 2.02918 0
M  V30 3056 N 284.952 2.7661 0.890798 0
M  V30 3057 H 284.499 2.57594 0.0168815 0
M  V30 3058 H 284.457 2.61501 1.74542 0
M  V30 3059 N 288.23 0.939286 1.26551 0
M  V30 3060 C 289.476 0.586715 1.94128 0
M  V30 3061 C 289.809 -0.8717 1.73537 0
M  V30 3062 O 289.084 -1.62339 1.07127 0
M  V30 3063 C 289.367 0.927497 3.4795 0
M  V30 3064 C 289.22 2.44052 3.77834 0
M  V30 3065 C 290.539 0.441569 4.37879 0
M  V30 3066 H 287.658 0.21463 0.705055 0
M  V30 3067 H 290.3 1.17316 1.49455 0
M  V30 3068 H 288.45 0.428431 3.8613 0
M  V30 3069 H 290.122 3.01216 3.4938 0
M  V30 3070 H 288.365 2.8848 3.23978 0
M  V30 3071 H 289.036 2.62947 4.85348 0
M  V30 3072 H 291.512 0.869448 4.06915 0
M  V30 3073 H 290.388 0.708856 5.44304 0
M  V30 3074 H 290.649 -0.658467 4.37169 0
M  V30 3075 N 289.708 -1.40897 0.706093 0
M  V30 3076 C 290.957 -2.00284 0.238574 0
M  V30 3077 C 291.27 -1.56604 -1.17194 0
M  V30 3078 O 292.476 -2.08624 -1.73748 0
M  V30 3079 C 290.932 -3.57934 0.375623 0
M  V30 3080 C 290.54 -4.10591 1.79217 0
M  V30 3081 C 292.284 -4.24488 -0.0315857 0
M  V30 3082 C 290.191 -5.60712 1.88032 0
M  V30 3083 H 289.121 -0.749144 0.0854398 0
M  V30 3084 H 291.772 -1.61251 0.875813 0
M  V30 3085 H 290.154 -3.94622 -0.330042 0
M  V30 3086 H 291.328 -3.85301 2.52745 0
M  V30 3087 H 289.643 -3.56601 2.15 0
M  V30 3088 H 292.24 -5.34698 0.0136842 0
M  V30 3089 H 292.583 -4.02261 -1.072 0
M  V30 3090 H 293.116 -3.92873 0.624181 0
M  V30 3091 H 289.855 -5.87781 2.90161 0
M  V30 3092 H 289.375 -5.87896 1.18903 0
M  V30 3093 H 291.054 -6.25658 1.64805 0
M  V30 3094 N 291.186 -0.45159 -1.50991 0
M  V30 3095 C 292.434 0.109857 -2.01801 0
M  V30 3096 C 292.755 1.41958 -1.3369 0
M  V30 3097 O 292.025 1.9003 -0.475951 0
M  V30 3098 H 290.605 0.0435884 -0.745727 0
M  V30 3099 H 293.267 -0.597557 -1.85514 0
M  V30 3100 H 292.363 0.275489 -3.10882 0
M  V30 3101 N 292.664 1.56529 -0.183458 0
M  V30 3102 C 293.912 1.96855 0.457452 0
M  V30 3103 C 294.233 1.07104 1.62953 0
M  V30 3104 O 293.503 0.139887 1.954 0
M  V30 3105 H 292.083 0.72693 0.171992 0
M  V30 3106 H 294.745 1.93056 -0.267476 0
M  V30 3107 H 293.841 3.01423 0.809368 0
M  V30 3108 N 294.142 -0.090211 1.57342 0
M  V30 3109 C 295.39 -0.791241 1.85967 0
M  V30 3110 C 295.711 -1.7903 0.772859 0
M  V30 3111 O 294.981 -1.94872 -0.200398 0
M  V30 3112 H 293.561 -0.295205 0.686195 0
M  V30 3113 H 296.223 -0.0706782 1.94772 0
M  V30 3114 H 295.319 -1.31882 2.82867 0
M  V30 3115 N 295.62 -1.53406 -0.361157 0
M  V30 3116 C 296.897 -1.60411 -1.11927 0
M  V30 3117 C 297.277 -0.414385 -2.06993 0
M  V30 3118 O 296.625 0.594976 -2.20618 0
M  V30 3119 C 296.835 -2.95652 -1.85448 0
M  V30 3120 C 298.183 -3.50386 -2.39823 0
M  V30 3121 O 299.207 -2.97711 -1.95568 0
M  V30 3122 O 298.066 -4.42482 -3.20737 0
M  V30 3123 H 295.16 -0.64811 -0.513695 0
M  V30 3124 H 297.706 -1.65749 -0.364065 0
M  V30 3125 H 296.478 -3.73682 -1.16091 0
M  V30 3126 H 296.101 -2.93825 -2.67866 0
M  V30 3127 N 297.098 0.621204 -1.44841 0
M  V30 3128 C 298.344 1.38073 -1.49357 0
M  V30 3129 C 298.699 1.91973 -0.128115 0
M  V30 3130 O 297.992 1.71311 0.858087 0
M  V30 3131 C 298.186 2.55675 -2.4973 0
M  V30 3132 C 298.015 2.13289 -3.95901 0
M  V30 3133 C 296.785 2.001 -4.63991 0
M  V30 3134 C 298.983 1.7159 -4.84831 0
M  V30 3135 N 296.965 1.51381 -5.94943 0
M  V30 3136 C 298.336 1.34188 -6.05304 0
M  V30 3137 C 300.391 1.59059 -4.7181 0
M  V30 3138 C 299.094 0.855085 -7.14199 0
M  V30 3139 C 301.12 1.11784 -5.8074 0
M  V30 3140 C 300.482 0.753385 -7.0036 0
M  V30 3141 H 296.581 0.499675 -0.601539 0
M  V30 3142 H 299.165 0.711609 -1.8123 0
M  V30 3143 H 297.336 3.20201 -2.19832 0
M  V30 3144 H 299.068 3.22509 -2.4448 0
M  V30 3145 H 295.823 2.20863 -4.18947 0
M  V30 3146 H 296.247 1.29293 -6.64539 0
M  V30 3147 H 300.889 1.85865 -3.79755 0
M  V30 3148 H 298.607 0.574552 -8.06055 0
M  V30 3149 H 302.193 1.02533 -5.72694 0
M  V30 3150 H 301.073 0.393183 -7.83214 0
M  V30 3151 N 298.576 1.31904 0.862503 0
M  V30 3152 C 299.539 1.20131 1.95195 0
M  V30 3153 C 300.539 0.126409 1.60302 0
M  V30 3154 O 301.729 0.376234 1.70089 0
M  V30 3155 C 298.861 0.845691 3.30244 0
M  V30 3156 H 300.054 2.16943 2.07064 0
M  V30 3157 H 297.607 1.15622 1.05172 0
M  V30 3158 H 298.342 -0.120957 3.24074 0
M  V30 3159 H 298.127 1.62276 3.56944 0
M  V30 3160 H 299.617 0.787418 4.10109 0
M  V30 3161 N 300.054 -1.07777 1.14986 0
M  V30 3162 C 301.001 -2.14867 0.842672 0
M  V30 3163 C 301.971 -1.6486 -0.202552 0
M  V30 3164 O 303.156 -1.90668 -0.0710568 0
M  V30 3165 C 300.296 -3.43486 0.333363 0
M  V30 3166 C 299.409 -4.07306 1.43965 0
M  V30 3167 C 298.544 -5.23744 0.886914 0
M  V30 3168 C 297.583 -5.79517 1.97043 0
M  V30 3169 N 296.72 -6.87291 1.4344 0
M  V30 3170 H 301.56 -2.40485 1.75986 0
M  V30 3171 H 299.097 -1.1801 0.878179 0
M  V30 3172 H 301.055 -4.17195 0.0198163 0
M  V30 3173 H 299.685 -3.18133 -0.546916 0
M  V30 3174 H 298.737 -3.31293 1.86946 0
M  V30 3175 H 300.049 -4.44771 2.25788 0
M  V30 3176 H 299.203 -6.04419 0.525651 0
M  V30 3177 H 297.942 -4.87685 0.0377957 0
M  V30 3178 H 296.947 -4.97491 2.34057 0
M  V30 3179 H 298.172 -6.17632 2.82325 0
M  V30 3180 H 296.118 -6.5318 0.607567 0
M  V30 3181 H 296.035 -7.23617 2.18895 0
M  V30 3182 H 297.303 -7.71682 1.10124 0
M  V30 3183 N 301.532 -0.945985 -1.26051 0
M  V30 3184 C 302.809 -0.513816 -1.88731 0
M  V30 3185 C 303.189 1.00872 -1.8544 0
M  V30 3186 O 302.537 1.8708 -1.312 0
M  V30 3187 C 302.747 -1.08062 -3.31849 0
M  V30 3188 C 304.095 -1.1522 -4.08668 0
M  V30 3189 O 305.119 -1.03155 -3.40936 0
M  V30 3190 O 303.978 -1.34044 -5.29806 0
M  V30 3191 H 301.072 -0.168193 -0.809716 0
M  V30 3192 H 303.618 -1.03886 -1.34186 0
M  V30 3193 H 302.39 -2.1241 -3.2863 0
M  V30 3194 H 302.013 -0.538307 -3.93939 0
M  V30 3195 N 303.011 1.40521 -0.713556 0
M  V30 3196 C 304.427 1.54839 -0.386907 0
M  V30 3197 C 304.627 1.68532 1.1045 0
M  V30 3198 O 303.683 1.67377 1.89053 0
M  V30 3199 C 304.996 2.77792 -1.15118 0
M  V30 3200 C 306.544 2.91607 -1.13729 0
M  V30 3201 C 307.019 4.1747 -1.88368 0
M  V30 3202 N 308.51 4.24466 -1.85427 0
M  V30 3203 C 309.245 5.20755 -2.40004 0
M  V30 3204 N 308.741 6.22965 -3.03129 0
M  V30 3205 N 310.534 5.1282 -2.30158 0
M  V30 3206 H 302.685 1.29879 -1.68063 0
M  V30 3207 H 304.948 0.627896 -0.710247 0
M  V30 3208 H 304.654 2.73944 -2.20561 0
M  V30 3209 H 304.528 3.6984 -0.741477 0
M  V30 3210 H 306.915 2.94959 -0.0910608 0
M  V30 3211 H 306.996 2.00682 -1.5862 0
M  V30 3212 H 306.64 4.1488 -2.9298 0
M  V30 3213 H 306.57 5.074 -1.40898 0
M  V30 3214 H 309.061 3.51241 -1.3942 0
M  V30 3215 H 309.374 6.92859 -3.42295 0
M  V30 3216 H 307.719 6.23415 -3.07212 0
M  V30 3217 H 310.91 4.31899 -1.80501 0
M  V30 3218 H 311.083 5.87689 -2.72993 0
M  V30 3219 N 304.489 0.459591 1.5075 0
M  V30 3220 C 305.419 -0.330644 2.31147 0
M  V30 3221 C 306.4 -1.00087 1.37538 0
M  V30 3222 O 307.585 -1.00025 1.66459 0
M  V30 3223 C 304.715 -1.41958 3.16962 0
M  V30 3224 C 303.669 -0.871608 4.19031 0
M  V30 3225 C 302.995 -2.05797 4.9351 0
M  V30 3226 C 304.295 0.109251 5.22186 0
M  V30 3227 H 305.989 0.340336 2.97459 0
M  V30 3228 H 303.535 0.165119 1.4305 0
M  V30 3229 H 305.488 -1.9798 3.71997 0
M  V30 3230 H 304.212 -2.11917 2.48513 0
M  V30 3231 H 302.871 -0.333442 3.6508 0
M  V30 3232 H 302.519 -2.74427 4.21544 0
M  V30 3233 H 302.219 -1.6976 5.62544 0
M  V30 3234 H 303.743 -2.62331 5.51375 0
M  V30 3235 H 305.157 -0.361405 5.7216 0
M  V30 3236 H 303.554 0.383316 5.98875 0
M  V30 3237 H 304.624 1.03887 4.73641 0
M  V30 3238 N 305.967 -1.56429 0.191757 0
M  V30 3239 C 307.216 -1.9666 -0.448088 0
M  V30 3240 C 307.529 -1.08136 -1.62991 0
M  V30 3241 O 308.735 -1.38135 -2.33733 0
M  V30 3242 C 307.191 -3.49753 -0.848585 0
M  V30 3243 C 306.799 -4.46935 0.308764 0
M  V30 3244 C 308.543 -3.9876 -1.4557 0
M  V30 3245 C 306.45 -5.91293 -0.112506 0
M  V30 3246 H 305.38 -0.734312 -0.171179 0
M  V30 3247 H 308.031 -1.81301 0.283242 0
M  V30 3248 H 306.413 -3.60604 -1.63649 0
M  V30 3249 H 307.587 -4.47813 1.08627 0
M  V30 3250 H 305.902 -4.08102 0.827158 0
M  V30 3251 H 308.499 -5.04086 -1.78328 0
M  V30 3252 H 308.842 -3.42875 -2.36099 0
M  V30 3253 H 309.375 -3.9101 -0.731836 0
M  V30 3254 H 306.114 -6.51097 0.758514 0
M  V30 3255 H 305.634 -5.93676 -0.854941 0
M  V30 3256 H 307.313 -6.44663 -0.549448 0
M  V30 3257 N 307.445 0.0818655 -1.57387 0
M  V30 3258 C 308.856 0.634871 -1.75574 0
M  V30 3259 C 309.207 1.78435 -0.815809 0
M  V30 3260 O 308.332 2.164 0.0025366 0
M  V30 3261 C 308.927 1.15845 -3.18379 0
M  V30 3262 C 307.486 1.65741 -3.37945 0
M  V30 3263 C 306.633 0.572549 -2.71325 0
M  V30 3264 H 309.584 -0.144268 -1.58043 0
M  V30 3265 H 309.605 2.02751 -3.21982 0
M  V30 3266 H 309.117 0.321631 -3.86765 0
M  V30 3267 H 307.218 2.51781 -2.74658 0
M  V30 3268 H 307.331 1.74129 -4.46336 0
M  V30 3269 H 305.695 1.01518 -2.33594 0
M  V30 3270 H 306.478 -0.253918 -3.4236 0
M  V30 3271 N 308.923 1.53595 0.353017 0
M  V30 3272 C 310.2 1.61002 1.11075 0
M  V30 3273 C 310.58 0.425356 2.0677 0
M  V30 3274 O 309.928 -0.583267 2.2093 0
M  V30 3275 C 310.138 2.96631 1.83877 0
M  V30 3276 C 311.486 3.51653 2.37961 0
M  V30 3277 O 312.51 2.98743 1.93987 0
M  V30 3278 O 311.369 4.44177 3.18386 0
M  V30 3279 H 308.463 0.650825 0.510251 0
M  V30 3280 H 311.009 1.6594 0.35527 0
M  V30 3281 H 309.781 3.74293 1.14108 0
M  V30 3282 H 309.404 2.95242 2.66304 0
M  V30 3283 N 310.401 -0.613514 1.45168 0
M  V30 3284 C 311.65 -1.36874 1.4815 0
M  V30 3285 C 311.963 -1.952 0.124982 0
M  V30 3286 O 313.169 -2.71481 0.0324176 0
M  V30 3287 C 311.625 -2.47905 2.60904 0
M  V30 3288 C 311.233 -1.96016 4.02842 0
M  V30 3289 C 312.977 -3.24965 2.73126 0
M  V30 3290 C 310.884 -3.04494 5.06988 0
M  V30 3291 H 309.814 -0.514428 0.551253 0
M  V30 3292 H 312.465 -0.658182 1.7129 0
M  V30 3293 H 310.847 -3.21618 2.31037 0
M  V30 3294 H 312.021 -1.29051 4.4236 0
M  V30 3295 H 310.336 -1.31719 3.95018 0
M  V30 3296 H 312.933 -4.05865 3.48106 0
M  V30 3297 H 313.276 -3.75588 1.79553 0
M  V30 3298 H 313.809 -2.5835 3.0249 0
M  V30 3299 H 310.548 -2.58795 6.0225 0
M  V30 3300 H 310.068 -3.70044 4.72046 0
M  V30 3301 H 311.747 -3.68976 5.31475 0
M  V30 3302 N 311.879 -1.3236 -0.855495 0
M  V30 3303 C 312.809 -1.23833 -1.97958 0
M  V30 3304 C 313.79 -0.122361 -1.69659 0
M  V30 3305 O 314.975 -0.30939 -1.9172 0
M  V30 3306 C 312.105 -0.959772 -3.33775 0
M  V30 3307 C 311.059 -2.03689 -3.76424 0
M  V30 3308 C 310.385 -1.61075 -5.09862 0
M  V30 3309 C 311.685 -3.4518 -3.9198 0
M  V30 3310 H 313.379 -2.1788 -2.0535 0
M  V30 3311 H 310.925 -1.04891 -0.986605 0
M  V30 3312 H 312.878 -0.886678 -4.11966 0
M  V30 3313 H 311.602 0.0163404 -3.26596 0
M  V30 3314 H 310.261 -2.10012 -3.00484 0
M  V30 3315 H 309.909 -0.622107 -4.99138 0
M  V30 3316 H 309.609 -2.33143 -5.39368 0
M  V30 3317 H 311.133 -1.55201 -5.90546 0
M  V30 3318 H 312.547 -3.4145 -4.60526 0
M  V30 3319 H 310.944 -4.1559 -4.32903 0
M  V30 3320 H 312.014 -3.84903 -2.94919 0
M  V30 3321 N 313.357 1.07166 -1.15556 0
M  V30 3322 C 314.773 1.31899 -0.898603 0
M  V30 3323 C 314.973 1.96333 0.453383 0
M  V30 3324 O 314.029 2.22438 1.19489 0
M  V30 3325 C 315.342 2.20826 -2.04099 0
M  V30 3326 C 316.89 2.34269 -2.07574 0
M  V30 3327 C 317.365 3.26546 -3.21141 0
M  V30 3328 N 318.856 3.34127 -3.20801 0
M  V30 3329 C 319.591 4.05595 -4.05315 0
M  V30 3330 N 319.087 4.79661 -4.99897 0
M  V30 3331 N 320.88 4.01555 -3.93332 0
M  V30 3332 H 313.031 0.637302 -2.02613 0
M  V30 3333 H 315.294 0.343468 -0.883591 0
M  V30 3334 H 315 1.80744 -3.01703 0
M  V30 3335 H 314.874 3.21364 -1.97496 0
M  V30 3336 H 317.261 2.73603 -1.10568 0
M  V30 3337 H 317.342 1.33429 -2.18244 0
M  V30 3338 H 316.986 2.87931 -4.184 0
M  V30 3339 H 316.916 4.27345 -3.07708 0
M  V30 3340 H 319.407 2.81336 -2.52306 0
M  V30 3341 H 319.72 5.31694 -5.60822 0
M  V30 3342 H 318.065 4.78671 -5.03884 0
M  V30 3343 H 321.256 3.42806 -3.18751 0
M  V30 3344 H 321.429 4.56987 -4.5942 0
M  V30 3345 N 314.835 0.952656 1.25548 0
M  V30 3346 C 316.06 0.623025 1.97821 0
M  V30 3347 C 316.485 -0.7976 1.70352 0
M  V30 3348 O 315.843 -1.53905 0.958283 0
M  V30 3349 C 315.891 0.885532 3.49558 0
M  V30 3350 O 314.995 -0.0366641 4.12384 0
M  V30 3351 H 314.336 0.237082 0.620232 0
M  V30 3352 H 316.866 1.27871 1.59719 0
M  V30 3353 H 316.876 0.811009 3.99858 0
M  V30 3354 H 315.551 1.92094 3.6888 0
M  V30 3355 H 314.128 0.0898954 3.72792 0
M  V30 3356 N 316.313 -1.40141 0.720998 0
M  V30 3357 C 317.56 -2.00787 0.262842 0
M  V30 3358 C 317.888 -1.5718 -1.14563 0
M  V30 3359 O 317.143 -0.785391 -1.79249 0
M  V30 3360 C 317.442 -3.56165 0.296892 0
M  V30 3361 C 317.108 -4.19373 1.65641 0
M  V30 3362 C 315.77 -4.36352 2.02855 0
M  V30 3363 C 318.122 -4.54578 2.54968 0
M  V30 3364 C 315.45 -4.8582 3.28931 0
M  V30 3365 C 317.802 -5.05447 3.80402 0
M  V30 3366 C 316.466 -5.20635 4.17726 0
M  V30 3367 H 315.736 -0.734731 0.0961807 0
M  V30 3368 H 318.383 -1.67673 0.925093 0
M  V30 3369 H 316.688 -3.8922 -0.448932 0
M  V30 3370 H 318.385 -4.00929 -0.0755208 0
M  V30 3371 H 314.975 -4.06549 1.35704 0
M  V30 3372 H 319.159 -4.41091 2.27491 0
M  V30 3373 H 314.415 -4.95764 3.57811 0
M  V30 3374 H 318.589 -5.31663 4.49786 0
M  V30 3375 H 316.216 -5.58728 5.15487 0
M  V30 3376 N 317.792 -0.46758 -1.50504 0
M  V30 3377 C 318.702 0.33382 -2.32213 0
M  V30 3378 C 319.718 0.999323 -1.42441 0
M  V30 3379 O 320.894 0.988068 -1.75497 0
M  V30 3380 C 317.959 1.4035 -3.17022 0
M  V30 3381 C 317.02 0.754961 -4.2261 0
M  V30 3382 C 316.253 1.77367 -5.03365 0
M  V30 3383 O 316.476 2.99976 -4.8515 0
M  V30 3384 O 315.41 1.34744 -5.86624 0
M  V30 3385 H 319.236 -0.334067 -3.01857 0
M  V30 3386 H 316.821 -0.229496 -1.47627 0
M  V30 3387 H 318.703 2.02318 -3.69656 0
M  V30 3388 H 317.378 2.05492 -2.5011 0
M  V30 3389 H 316.285 0.0964244 -3.73976 0
M  V30 3390 H 317.618 0.146545 -4.91982 0
M  V30 3391 N 319.27 1.56325 -0.20005 0
M  V30 3392 C 320.218 2.20666 0.735482 0
M  V30 3393 C 321.212 1.17934 1.21605 0
M  V30 3394 O 322.418 1.36068 1.17837 0
M  V30 3395 H 318.793 0.70725 0.255542 0
M  V30 3396 H 320.764 2.9792 0.169166 0
M  V30 3397 C 319.513 2.88391 1.94232 0
M  V30 3398 H 318.836 3.67185 1.58161 0
M  V30 3399 H 320.276 3.3684 2.57517 0
M  V30 3400 C 318.735 1.89692 2.78421 0
M  V30 3401 O 319.265 1.40032 3.76502 0
M  V30 3402 N 317.471 1.57813 2.44015 0
M  V30 3403 H 317.018 1.9839 1.64314 0
M  V30 3404 H 316.976 0.920325 3.00628 0
M  V30 3405 N 320.748 -0.0735177 1.57428 0
M  V30 3406 C 321.696 -1.10628 2.04607 0
M  V30 3407 C 322.69 -1.40181 0.951088 0
M  V30 3408 O 323.896 -1.39608 1.1362 0
M  V30 3409 H 320.271 -0.374088 0.652351 0
M  V30 3410 H 322.242 -0.682218 2.90497 0
M  V30 3411 C 320.991 -2.41212 2.50423 0
M  V30 3412 H 320.314 -2.19322 3.34272 0
M  V30 3413 H 321.754 -3.11927 2.87189 0
M  V30 3414 C 320.213 -3.0705 1.38644 0
M  V30 3415 O 320.743 -3.95056 0.727582 0
M  V30 3416 N 318.949 -2.67645 1.132 0
M  V30 3417 H 318.496 -1.96169 1.66959 0
M  V30 3418 H 318.454 -3.1202 0.386147 0
M  V30 3419 N 322.226 -1.5378 -0.344866 0
M  V30 3420 C 323.158 -1.77988 -1.44406 0
M  V30 3421 C 324.171 -0.661138 -1.48771 0
M  V30 3422 O 325.36 -0.937842 -1.51877 0
M  V30 3423 C 322.46 -1.86345 -2.8307 0
M  V30 3424 C 321.633 -3.16256 -3.0216 0
M  V30 3425 C 320.692 -3.15588 -4.21059 0
M  V30 3426 O 319.718 -3.89314 -4.15239 0
M  V30 3427 N 320.92 -2.37864 -5.29529 0
M  V30 3428 H 323.685 -2.72839 -1.24012 0
M  V30 3429 H 321.246 -1.52814 -0.534737 0
M  V30 3430 H 323.238 -1.83351 -3.60783 0
M  V30 3431 H 321.808 -0.986858 -2.96614 0
M  V30 3432 H 321.028 -3.32385 -2.11929 0
M  V30 3433 H 322.316 -4.0207 -3.11797 0
M  V30 3434 H 321.714 -1.77514 -5.37127 0
M  V30 3435 H 320.271 -2.40668 -6.05741 0
M  V30 3436 N 323.704 0.605807 -1.45491 0
M  V30 3437 C 324.636 1.73031 -1.5031 0
M  V30 3438 C 325.649 1.57968 -0.393687 0
M  V30 3439 O 326.838 1.65817 -0.660839 0
M  V30 3440 C 323.938 3.11049 -1.34543 0
M  V30 3441 C 323.111 3.52334 -2.59189 0
M  V30 3442 C 322.17 4.69323 -2.37954 0
M  V30 3443 O 321.196 4.7635 -3.11575 0
M  V30 3444 N 322.398 5.62705 -1.4263 0
M  V30 3445 H 325.163 1.6936 -2.4726 0
M  V30 3446 H 322.724 0.79114 -1.41254 0
M  V30 3447 H 324.716 3.87071 -1.18144 0
M  V30 3448 H 323.286 3.09217 -0.458623 0
M  V30 3449 H 322.506 2.66256 -2.90691 0
M  V30 3450 H 323.794 3.76677 -3.42041 0
M  V30 3451 H 323.192 5.59744 -0.818758 0
M  V30 3452 H 321.749 6.38252 -1.32202 0
M  V30 3453 N 325.182 1.32811 0.848464 0
M  V30 3454 C 326.428 1.23907 1.60546 0
M  V30 3455 C 326.761 -0.197161 1.93197 0
M  V30 3456 O 326.036 -1.13596 1.5788 0
M  V30 3457 C 326.319 2.10489 2.92175 0
M  V30 3458 C 326.172 3.62522 2.66266 0
M  V30 3459 C 327.491 1.97075 3.93509 0
M  V30 3460 H 324.61 0.451459 0.58254 0
M  V30 3461 H 327.252 1.62818 0.979296 0
M  V30 3462 H 325.402 1.77434 3.45614 0
M  V30 3463 H 327.074 4.05821 2.19334 0
M  V30 3464 H 325.317 3.84879 2.00126 0
M  V30 3465 H 325.988 4.18437 3.6002 0
M  V30 3466 H 328.464 2.26045 3.49346 0
M  V30 3467 H 327.34 2.59923 4.83457 0
M  V30 3468 H 327.601 0.940186 4.31987 0
M  V30 3469 N 326.66 -1.06551 1.16123 0
M  V30 3470 C 327.909 -1.78687 0.935622 0
M  V30 3471 C 328.222 -1.88056 -0.538001 0
M  V30 3472 O 329.428 -2.56794 -0.88143 0
M  V30 3473 C 327.884 -3.21143 1.62466 0
M  V30 3474 C 327.492 -3.19949 3.13587 0
M  V30 3475 C 329.236 -3.9783 1.48092 0
M  V30 3476 C 327.143 -4.57108 3.75241 0
M  V30 3477 H 326.073 -0.669712 0.346412 0
M  V30 3478 H 328.724 -1.19534 1.39226 0
M  V30 3479 H 327.106 -3.80539 1.09572 0
M  V30 3480 H 328.28 -2.70151 3.73303 0
M  V30 3481 H 326.595 -2.5676 3.27816 0
M  V30 3482 H 329.192 -4.99217 1.91538 0
M  V30 3483 H 329.535 -4.14078 0.429507 0
M  V30 3484 H 330.068 -3.4495 1.98127 0
M  V30 3485 H 326.807 -4.46065 4.80319 0
M  V30 3486 H 326.327 -5.07111 3.20309 0
M  V30 3487 H 328.006 -5.26069 3.76644 0
M  V30 3488 N 328.138 -0.959301 -1.25041 0
M  V30 3489 C 329.387 -0.612254 -1.92183 0
M  V30 3490 C 329.7 0.855347 -1.75907 0
M  V30 3491 O 330.906 1.31256 -2.37664 0
M  V30 3492 C 329.362 -1.04435 -3.44414 0
M  V30 3493 C 328.97 -2.53482 -3.69393 0
M  V30 3494 C 330.714 -0.770055 -4.17457 0
M  V30 3495 C 328.621 -2.90468 -5.15153 0
M  V30 3496 H 327.551 -0.225279 -0.719559 0
M  V30 3497 H 330.202 -1.16438 -1.41825 0
M  V30 3498 H 328.584 -0.4206 -3.9376 0
M  V30 3499 H 329.758 -3.20916 -3.30681 0
M  V30 3500 H 328.073 -2.78432 -3.0962 0
M  V30 3501 H 330.67 -1.02249 -5.24832 0
M  V30 3502 H 331.013 0.293611 -4.15263 0
M  V30 3503 H 331.546 -1.35437 -3.74034 0
M  V30 3504 H 328.285 -3.95871 -5.22462 0
M  V30 3505 H 327.805 -2.27711 -5.54894 0
M  V30 3506 H 329.484 -2.79914 -5.83315 0
M  V30 3507 N 329.616 1.39756 -0.72842 0
M  V30 3508 C 331.032 1.5442 -0.403308 0
M  V30 3509 C 331.232 1.69694 1.08656 0
M  V30 3510 O 330.288 1.69373 1.87267 0
M  V30 3511 C 331.601 2.76555 -1.18058 0
M  V30 3512 C 333.149 2.90384 -1.16815 0
M  V30 3513 C 333.624 4.15449 -1.92785 0
M  V30 3514 N 335.115 4.22475 -1.89918 0
M  V30 3515 C 335.85 5.1818 -2.45514 0
M  V30 3516 N 335.346 6.19714 -3.09719 0
M  V30 3517 N 337.139 5.1035 -2.35584 0
M  V30 3518 H 329.29 1.28089 -1.69431 0
M  V30 3519 H 331.553 0.620327 -0.716867 0
M  V30 3520 H 331.259 2.7159 -2.23455 0
M  V30 3521 H 331.133 3.69033 -0.780662 0
M  V30 3522 H 333.52 2.94846 -0.12234 0
M  V30 3523 H 333.601 1.98988 -1.6074 0
M  V30 3524 H 333.245 4.11749 -2.97364 0
M  V30 3525 H 333.175 5.05877 -1.46272 0
M  V30 3526 H 335.666 3.49743 -1.43138 0
M  V30 3527 H 335.979 6.8919 -3.49625 0
M  V30 3528 H 334.324 6.20121 -3.13807 0
M  V30 3529 H 337.515 4.2996 -1.85072 0
M  V30 3530 H 337.688 5.84761 -2.79211 0
M  V30 3531 N 331.094 0.475555 1.50254 0
M  V30 3532 C 332.042 -0.330276 2.30243 0
M  V30 3533 C 333.036 -0.986306 1.37726 0
M  V30 3534 O 334.242 -0.9169 1.54897 0
M  V30 3535 H 330.617 -0.125353 0.741479 0
M  V30 3536 H 332.588 0.364702 2.96163 0
M  V30 3537 C 331.337 -1.39704 3.18399 0
M  V30 3538 H 330.66 -0.901621 3.89501 0
M  V30 3539 H 332.1 -1.93336 3.77355 0
M  V30 3540 C 330.559 -2.4014 2.36293 0
M  V30 3541 O 331.089 -3.45504 2.04914 0
M  V30 3542 N 329.295 -2.1197 1.98789 0
M  V30 3543 H 328.842 -1.2631 2.24507 0
M  V30 3544 H 328.8 -2.79403 1.44157 0
M  V30 3545 N 332.573 -1.56217 0.208337 0
M  V30 3546 C 333.984 -1.84243 -0.301904 0
M  V30 3547 C 334.335 -1.12939 -1.60434 0
M  V30 3548 O 333.46 -0.39461 -2.12772 0
M  V30 3549 C 334.055 -3.34231 -0.554543 0
M  V30 3550 C 332.614 -3.62621 -1.00912 0
M  V30 3551 C 331.761 -2.77224 -0.064933 0
M  V30 3552 H 334.712 -1.52712 0.431833 0
M  V30 3553 H 334.733 -3.5372 -1.40223 0
M  V30 3554 H 334.245 -3.86099 0.393561 0
M  V30 3555 H 332.346 -3.16197 -1.97104 0
M  V30 3556 H 332.459 -4.7071 -0.892674 0
M  V30 3557 H 330.823 -2.48256 -0.56929 0
M  V30 3558 H 331.606 -3.31887 0.877851 0
M  V30 3559 N 334.051 0.0651679 -1.57465 0
M  V30 3560 C 335.281 0.774683 -1.91526 0
M  V30 3561 C 335.689 1.71305 -0.803196 0
M  V30 3562 O 335.032 1.82231 0.231881 0
M  V30 3563 C 335.094 1.61645 -3.21109 0
M  V30 3564 C 334.758 0.846753 -4.49087 0
M  V30 3565 C 335.755 0.163024 -5.19644 0
M  V30 3566 C 333.44 0.811966 -4.95694 0
M  V30 3567 C 335.434 -0.54519 -6.35064 0
M  V30 3568 C 333.121 0.0999836 -6.11018 0
M  V30 3569 C 334.119 -0.577388 -6.80555 0
M  V30 3570 O 333.807 -1.27789 -7.93678 0
M  V30 3571 H 333.539 0.225031 -0.637446 0
M  V30 3572 H 336.093 0.0377134 -2.05365 0
M  V30 3573 H 334.323 2.39638 -3.03497 0
M  V30 3574 H 336.012 2.20525 -3.40769 0
M  V30 3575 H 336.778 0.181163 -4.84662 0
M  V30 3576 H 332.657 1.32867 -4.41438 0
M  V30 3577 H 336.201 -1.07446 -6.89276 0
M  V30 3578 H 332.098 0.0797945 -6.45451 0
M  V30 3579 H 332.866 -1.18784 -8.09835 0
M  V30 3580 N 335.529 1.53961 0.336706 0
M  V30 3581 C 336.754 1.75797 1.10046 0
M  V30 3582 C 337.179 0.498985 1.81361 0
M  V30 3583 O 336.537 -0.548769 1.72795 0
M  V30 3584 C 336.585 2.94257 2.08436 0
M  V30 3585 O 335.689 2.64883 3.16087 0
M  V30 3586 H 335.03 0.582936 0.317934 0
M  V30 3587 H 337.56 2.00945 0.38501 0
M  V30 3588 H 337.57 3.21237 2.51537 0
M  V30 3589 H 336.245 3.85564 1.55927 0
M  V30 3590 H 334.822 2.48812 2.77753 0
M  V30 3591 N 337.007 -0.598083 1.45811 0
M  V30 3592 C 338.256 -1.35295 1.49594 0
M  V30 3593 C 338.569 -1.95057 0.145679 0
M  V30 3594 O 339.775 -2.71431 0.0612099 0
M  V30 3595 C 338.231 -2.45124 2.63519 0
M  V30 3596 C 337.839 -1.91732 4.04899 0
M  V30 3597 C 339.583 -3.2205 2.76558 0
M  V30 3598 C 337.49 -2.991 5.1019 0
M  V30 3599 H 336.42 -0.508552 0.556679 0
M  V30 3600 H 339.071 -0.639977 1.71978 0
M  V30 3601 H 337.453 -3.19149 2.34435 0
M  V30 3602 H 338.627 -1.24352 4.43704 0
M  V30 3603 H 336.942 -1.27522 3.96393 0
M  V30 3604 H 339.539 -4.0215 3.52391 0
M  V30 3605 H 339.882 -3.73663 1.83526 0
M  V30 3606 H 340.415 -2.55127 3.05213 0
M  V30 3607 H 337.154 -2.52393 6.04961 0
M  V30 3608 H 336.674 -3.65017 4.75944 0
M  V30 3609 H 338.353 -3.63318 5.35359 0
M  V30 3610 N 338.485 -1.33259 -0.841409 0
M  V30 3611 C 339.901 -1.12538 -1.13169 0
M  V30 3612 C 340.101 0.0854037 -2.01319 0
M  V30 3613 O 339.157 0.766417 -2.40587 0
M  V30 3614 C 340.47 -2.41156 -1.79623 0
M  V30 3615 C 342.018 -2.47038 -1.922 0
M  V30 3616 C 342.493 -3.7561 -2.6207 0
M  V30 3617 N 343.984 -3.76667 -2.69585 0
M  V30 3618 C 344.719 -4.72861 -3.2433 0
M  V30 3619 N 344.215 -5.79428 -3.79783 0
M  V30 3620 N 346.008 -4.6034 -3.22558 0
M  V30 3621 H 338.159 -2.10868 -0.254676 0
M  V30 3622 H 340.422 -0.931615 -0.175493 0
M  V30 3623 H 340.128 -3.29747 -1.22311 0
M  V30 3624 H 340.002 -2.53114 -2.79666 0
M  V30 3625 H 342.389 -1.58898 -2.48667 0
M  V30 3626 H 342.47 -2.39022 -0.911148 0
M  V30 3627 H 342.114 -4.64131 -2.06263 0
M  V30 3628 H 342.044 -3.80902 -3.63622 0
M  V30 3629 H 344.535 -2.99648 -2.30259 0
M  V30 3630 H 344.848 -6.48867 -4.19752 0
M  V30 3631 H 343.193 -5.83166 -3.78078 0
M  V30 3632 H 346.384 -3.76244 -2.78492 0
M  V30 3633 H 346.557 -5.35478 -3.64921 0
M  V30 3634 N 339.963 1.05934 -1.16686 0
M  V30 3635 C 341.374 1.60263 -0.957745 0
M  V30 3636 C 341.725 1.89789 0.49745 0
M  V30 3637 O 340.85 1.67401 1.37135 0
M  V30 3638 C 341.445 2.91172 -1.73218 0
M  V30 3639 C 340.004 3.42188 -1.56794 0
M  V30 3640 C 339.151 2.16028 -1.73859 0
M  V30 3641 H 342.102 0.888392 -1.31504 0
M  V30 3642 H 342.123 3.60744 -1.21014 0
M  V30 3643 H 341.635 2.6965 -2.79124 0
M  V30 3644 H 339.736 3.68762 -0.533437 0
M  V30 3645 H 339.849 4.17273 -2.35414 0
M  V30 3646 H 338.213 2.26426 -1.16633 0
M  V30 3647 H 338.996 1.96985 -2.81161 0
M  V30 3648 N 341.441 0.965919 1.2453 0
M  V30 3649 C 342.687 0.637349 1.93156 0
M  V30 3650 C 343.042 -0.818261 1.74133 0
M  V30 3651 O 342.335 -1.58079 1.08266 0
M  V30 3652 C 342.529 0.945428 3.44669 0
M  V30 3653 C 342.358 2.42944 3.78429 0
M  V30 3654 C 341.128 3.08895 3.9989 0
M  V30 3655 C 343.326 3.40941 3.8505 0
M  V30 3656 N 341.308 4.47052 4.20735 0
M  V30 3657 C 342.679 4.64448 4.10717 0
M  V30 3658 C 344.734 3.35624 3.67779 0
M  V30 3659 C 343.437 5.83292 4.20907 0
M  V30 3660 C 345.463 4.53818 3.79214 0
M  V30 3661 C 344.825 5.76114 4.05304 0
M  V30 3662 H 340.924 0.284034 0.728594 0
M  V30 3663 H 343.508 1.24041 1.50073 0
M  V30 3664 H 341.679 0.371193 3.86622 0
M  V30 3665 H 343.411 0.575613 4.00586 0
M  V30 3666 H 340.166 2.59432 3.96222 0
M  V30 3667 H 340.59 5.18634 4.35141 0
M  V30 3668 H 345.232 2.4211 3.46616 0
M  V30 3669 H 342.95 6.77236 4.40883 0
M  V30 3670 H 346.536 4.51263 3.67224 0
M  V30 3671 H 345.416 6.66045 4.13949 0
M  V30 3672 N 342.919 -1.39368 0.735821 0
M  V30 3673 C 343.851 -2.2913 0.0567723 0
M  V30 3674 C 344.864 -1.46859 -0.702589 0
M  V30 3675 O 346.053 -1.69925 -0.546616 0
M  V30 3676 C 343.153 -3.25492 -0.943823 0
M  V30 3677 C 342.326 -4.36709 -0.24581 0
M  V30 3678 C 341.385 -5.13376 -1.15463 0
M  V30 3679 O 340.411 -5.65683 -0.631803 0
M  V30 3680 N 341.613 -5.24656 -2.48427 0
M  V30 3681 H 344.378 -2.88047 0.827582 0
M  V30 3682 H 341.939 -1.50957 0.585112 0
M  V30 3683 H 343.931 -3.73657 -1.55443 0
M  V30 3684 H 342.501 -2.676 -1.61583 0
M  V30 3685 H 341.721 -3.9041 0.545286 0
M  V30 3686 H 343.009 -5.08244 0.237891 0
M  V30 3687 H 342.407 -4.83679 -2.93379 0
M  V30 3688 H 340.964 -5.76258 -3.04582 0
M  V30 3689 N 344.397 -0.483516 -1.5 0
M  V30 3690 C 345.347 0.32306 -2.257 0
M  V30 3691 C 346.331 0.950755 -1.29805 0
M  V30 3692 O 347.523 0.861247 -1.54634 0
M  V30 3693 C 344.652 1.39724 -3.13579 0
M  V30 3694 C 343.738 0.776663 -4.16928 0
M  V30 3695 N 344.129 -0.1104 -5.0568 0
M  V30 3696 C 342.427 1.03922 -4.33724 0
M  V30 3697 C 343.128 -0.46387 -5.79848 0
M  V30 3698 N 342.104 0.163987 -5.43353 0
M  V30 3699 H 345.906 -0.360086 -2.91686 0
M  V30 3700 H 343.42 -0.298456 -1.59634 0
M  V30 3701 H 345.417 1.98837 -3.66428 0
M  V30 3702 H 344.077 2.08225 -2.49143 0
M  V30 3703 H 345.088 -0.480069 -5.1567 0
M  V30 3704 H 341.765 1.71829 -3.80501 0
M  V30 3705 H 343.155 -1.18854 -6.61304 0
M  V30 3706 N 345.875 1.56104 -0.216619 0
M  V30 3707 C 347.121 1.98466 0.417033 0
M  V30 3708 C 347.454 1.10403 1.59765 0
M  V30 3709 O 346.729 0.160632 1.93836 0
M  V30 3710 C 347.012 3.49769 0.85637 0
M  V30 3711 C 346.865 4.48606 -0.327546 0
M  V30 3712 C 348.184 4.05339 1.7143 0
M  V30 3713 H 345.303 0.721551 0.150112 0
M  V30 3714 H 347.945 1.87423 -0.311864 0
M  V30 3715 H 346.095 3.5931 1.47745 0
M  V30 3716 H 347.767 4.5108 -0.965618 0
M  V30 3717 H 346.01 4.22682 -0.975805 0
M  V30 3718 H 346.681 5.51995 0.0227149 0
M  V30 3719 H 349.157 3.98712 1.19031 0
M  V30 3720 H 348.033 5.11533 1.99061 0
M  V30 3721 H 348.294 3.51918 2.67593 0
M  V30 3722 N 347.353 -0.0568162 1.57498 0
M  V30 3723 C 348.283 -1.06593 2.0775 0
M  V30 3724 C 349.264 -1.39448 0.974082 0
M  V30 3725 O 350.449 -1.48815 1.24771 0
M  V30 3726 C 347.579 -2.37509 2.5339 0
M  V30 3727 C 346.533 -2.1897 3.67745 0
M  V30 3728 C 345.859 -3.55402 3.99492 0
M  V30 3729 C 347.159 -1.59859 4.97235 0
M  V30 3730 H 348.853 -0.647706 2.9231 0
M  V30 3731 H 346.399 -0.310116 1.40621 0
M  V30 3732 H 348.352 -3.08409 2.87162 0
M  V30 3733 H 347.076 -2.8134 1.65878 0
M  V30 3734 H 345.735 -1.50508 3.3428 0
M  V30 3735 H 345.383 -3.9683 3.09088 0
M  V30 3736 H 345.083 -3.43831 4.76502 0
M  V30 3737 H 346.607 -4.27708 4.35773 0
M  V30 3738 H 348.021 -2.20642 5.29141 0
M  V30 3739 H 346.418 -1.58942 5.78669 0
M  V30 3740 H 347.488 -0.561506 4.81638 0
M  V30 3741 N 348.832 -1.54138 -0.328536 0
M  V30 3742 C 349.742 -1.86192 -1.42723 0
M  V30 3743 C 350.758 -0.753382 -1.56844 0
M  V30 3744 O 351.934 -1.04718 -1.72035 0
M  V30 3745 C 348.999 -2.07824 -2.77507 0
M  V30 3746 C 348.06 -3.31641 -2.72603 0
M  V30 3747 C 347.293 -3.52232 -4.00959 0
M  V30 3748 O 347.516 -2.7636 -4.9898 0
M  V30 3749 O 346.45 -4.45699 -4.0452 0
M  V30 3750 H 350.276 -2.79608 -1.18547 0
M  V30 3751 H 347.861 -1.3998 -0.522104 0
M  V30 3752 H 349.743 -2.23411 -3.57303 0
M  V30 3753 H 348.418 -1.17596 -3.01584 0
M  V30 3754 H 347.325 -3.21444 -1.91376 0
M  V30 3755 H 348.658 -4.2191 -2.53481 0
M  V30 3756 N 350.31 0.590341 -1.46126 0
M  V30 3757 C 351.721 1.17243 -1.45296 0
M  V30 3758 C 352.072 1.95281 -0.189723 0
M  V30 3759 O 351.197 2.04502 0.707674 0
M  V30 3760 C 351.792 2.13284 -2.6324 0
M  V30 3761 C 350.351 2.66832 -2.65476 0
M  V30 3762 C 349.498 1.42557 -2.3785 0
M  V30 3763 H 352.449 0.378692 -1.54116 0
M  V30 3764 H 352.47 2.96619 -2.38323 0
M  V30 3765 H 351.982 1.56459 -3.55165 0
M  V30 3766 H 350.083 3.27548 -1.77603 0
M  V30 3767 H 350.196 3.10088 -3.65215 0
M  V30 3768 H 348.56 1.72107 -1.87753 0
M  V30 3769 H 349.343 0.875741 -3.31942 0
M  V30 3770 N 351.788 1.33704 0.83433 0
M  V30 3771 C 352.718 1.26967 1.95963 0
M  V30 3772 C 353.699 0.149337 1.69443 0
M  V30 3773 O 354.884 0.339852 1.91203 0
M  V30 3774 C 352.014 1.01275 3.32206 0
M  V30 3775 C 350.968 2.09652 3.73136 0
M  V30 3776 C 350.294 1.69166 5.07235 0
M  V30 3777 C 351.594 3.51372 3.86439 0
M  V30 3778 H 353.288 2.2112 2.01857 0
M  V30 3779 H 350.834 1.06447 0.969793 0
M  V30 3780 H 352.787 0.952106 4.10503 0
M  V30 3781 H 351.511 0.0356203 3.26581 0
M  V30 3782 H 350.17 2.14766 2.97104 0
M  V30 3783 H 349.818 0.701437 4.98085 0
M  V30 3784 H 349.518 2.41694 5.35591 0
M  V30 3785 H 351.042 1.64576 5.88003 0
M  V30 3786 H 352.456 3.48734 4.55036 0
M  V30 3787 H 350.853 4.22425 4.26236 0
M  V30 3788 H 351.923 3.89546 2.88759 0
M  V30 3789 N 353.266 -1.05314 1.17247 0
M  V30 3790 C 354.491 -1.82509 0.985148 0
M  V30 3791 C 354.916 -1.82343 -0.461788 0
M  V30 3792 O 354.274 -1.23151 -1.33055 0
M  V30 3793 C 354.322 -3.26566 1.52929 0
M  V30 3794 O 353.426 -4.05666 0.742225 0
M  V30 3795 H 352.767 -0.564347 0.349869 0
M  V30 3796 H 355.297 -1.32718 1.55715 0
M  V30 3797 H 355.307 -3.77369 1.55103 0
M  V30 3798 H 353.982 -3.26001 2.58256 0
M  V30 3799 H 352.559 -3.64397 0.791794 0
M  V30 3800 N 354.744 -0.972509 -1.24016 0
M  V30 3801 C 355.992 -0.635776 -1.91839 0
M  V30 3802 C 356.313 0.832312 -1.76345 0
M  V30 3803 O 355.583 1.5946 -1.13795 0
M  V30 3804 H 354.163 -0.232157 -0.710009 0
M  V30 3805 H 356.825 -1.23462 -1.50809 0
M  V30 3806 H 355.921 -0.880545 -2.99421 0
M  V30 3807 N 356.222 1.38976 -0.743202 0
M  V30 3808 C 357.452 2.04339 -0.304807 0
M  V30 3809 C 357.86 1.56162 1.06819 0
M  V30 3810 O 357.203 0.725284 1.68776 0
M  V30 3811 C 357.265 3.58716 -0.237369 0
M  V30 3812 C 356.929 4.29905 -1.55018 0
M  V30 3813 C 357.926 4.55987 -2.49744 0
M  V30 3814 C 355.611 4.68294 -1.81675 0
M  V30 3815 C 357.605 5.19478 -3.69353 0
M  V30 3816 C 355.292 5.31512 -3.0156 0
M  V30 3817 C 356.29 5.57037 -3.9522 0
M  V30 3818 O 355.978 6.18941 -5.12998 0
M  V30 3819 H 355.71 0.663439 -0.12971 0
M  V30 3820 H 358.264 1.78852 -1.01001 0
M  V30 3821 H 356.494 3.83133 0.524003 0
M  V30 3822 H 358.183 4.05543 0.170121 0
M  V30 3823 H 358.949 4.26767 -2.30423 0
M  V30 3824 H 354.828 4.47779 -1.09615 0
M  V30 3825 H 358.372 5.39318 -4.42473 0
M  V30 3826 H 354.269 5.60153 -3.20778 0
M  V30 3827 H 355.037 6.37433 -5.13441 0
M  V30 3828 N 357.7 0.491464 1.49741 0
M  V30 3829 C 358.949 -0.0582189 2.01616 0
M  V30 3830 C 359.262 -1.38927 1.3769 0
M  V30 3831 O 360.468 -2.02509 1.80838 0
M  V30 3832 C 358.924 -0.154235 3.59569 0
M  V30 3833 C 358.532 1.1696 4.32463 0
M  V30 3834 C 360.276 -0.65479 4.1942 0
M  V30 3835 C 358.183 1.03627 5.8225 0
M  V30 3836 H 357.113 -0.0255317 0.753568 0
M  V30 3837 H 359.764 0.629445 1.72367 0
M  V30 3838 H 358.146 -0.906138 3.85493 0
M  V30 3839 H 359.32 1.93405 4.18248 0
M  V30 3840 H 357.635 1.60285 3.84315 0
M  V30 3841 H 360.232 -0.771903 5.29099 0
M  V30 3842 H 360.575 -1.65127 3.8215 0
M  V30 3843 H 361.108 0.040304 3.9778 0
M  V30 3844 H 357.847 2.00672 6.24028 0
M  V30 3845 H 357.367 0.312546 5.98985 0
M  V30 3846 H 359.046 0.711114 6.4308 0
M  V30 3847 N 359.178 -1.55987 0.224894 0
M  V30 3848 C 360.424 -1.98684 -0.406502 0
M  V30 3849 C 360.757 -1.11248 -1.59177 0
M  V30 3850 O 360.032 -0.170909 -1.93748 0
M  V30 3851 C 360.315 -3.50218 -0.837808 0
M  V30 3852 C 360.168 -4.48426 0.351332 0
M  V30 3853 C 361.487 -4.06243 -1.69278 0
M  V30 3854 H 358.606 -0.722337 -0.146283 0
M  V30 3855 H 361.248 -1.87255 0.321799 0
M  V30 3856 H 359.398 -3.60089 -1.45837 0
M  V30 3857 H 361.07 -4.50562 0.989526 0
M  V30 3858 H 359.313 -4.22159 0.998207 0
M  V30 3859 H 359.984 -5.52 0.00655905 0
M  V30 3860 H 362.46 -3.99337 -1.16914 0
M  V30 3861 H 361.336 -5.12581 -1.96346 0
M  V30 3862 H 361.597 -3.53332 -2.65723 0
M  V30 3863 N 360.656 0.0484629 -1.57525 0
M  V30 3864 C 361.902 0.744226 -1.88651 0
M  V30 3865 C 362.235 1.76029 -0.820212 0
M  V30 3866 O 361.51 1.93782 0.166985 0
M  V30 3867 C 361.793 1.43128 -3.30434 0
M  V30 3868 C 361.646 0.43005 -4.47739 0
M  V30 3869 C 362.965 2.37031 -3.70816 0
M  V30 3870 H 360.084 0.269089 -0.68612 0
M  V30 3871 H 362.726 0.00713532 -1.89999 0
M  V30 3872 H 360.876 2.05956 -3.29415 0
M  V30 3873 H 362.548 -0.194816 -4.60888 0
M  V30 3874 H 360.791 -0.252522 -4.33064 0
M  V30 3875 H 361.462 0.948874 -5.43783 0
M  V30 3876 H 363.938 1.84263 -3.73077 0
M  V30 3877 H 362.814 2.82094 -4.70865 0
M  V30 3878 H 363.075 3.22864 -3.02012 0
M  V30 3879 N 362.134 1.5431 0.320358 0
M  V30 3880 C 363.097 1.83195 1.3774 0
M  V30 3881 C 364.097 0.703906 1.44575 0
M  V30 3882 O 365.287 0.972214 1.44546 0
M  V30 3883 C 362.419 1.99487 2.76438 0
M  V30 3884 H 363.612 2.77642 1.1338 0
M  V30 3885 H 361.165 1.46076 0.556012 0
M  V30 3886 H 361.9 1.07262 3.06048 0
M  V30 3887 H 361.685 2.81575 2.7287 0
M  V30 3888 H 363.175 2.23271 3.52902 0
M  V30 3889 N 363.613 -0.582584 1.46437 0
M  V30 3890 C 364.545 -1.70618 1.53043 0
M  V30 3891 C 365.558 -1.57322 0.418769 0
M  V30 3892 O 366.747 -1.64744 0.687136 0
M  V30 3893 C 363.847 -3.08869 1.39474 0
M  V30 3894 C 363.02 -3.48166 2.64762 0
M  V30 3895 C 362.079 -4.65478 2.4539 0
M  V30 3896 O 361.105 -4.71333 3.19114 0
M  V30 3897 N 362.307 -5.60365 1.51564 0
M  V30 3898 H 365.072 -1.65405 2.49923 0
M  V30 3899 H 362.633 -0.768567 1.42494 0
M  V30 3900 H 364.625 -3.85143 1.24287 0
M  V30 3901 H 363.195 -3.08449 0.507758 0
M  V30 3902 H 362.415 -2.61598 2.9489 0
M  V30 3903 H 363.703 -3.71188 3.4799 0
M  V30 3904 H 363.101 -5.5837 0.907705 0
M  V30 3905 H 361.658 -6.36068 1.4234 0
M  V30 3906 N 365.091 -1.34144 -0.827227 0
M  V30 3907 C 366.507 -1.13732 -1.11969 0
M  V30 3908 C 366.707 0.0640463 -2.01398 0
M  V30 3909 O 365.763 0.740856 -2.41387 0
M  V30 3910 C 367.076 -2.43047 -1.77055 0
M  V30 3911 C 368.624 -2.49063 -1.89569 0
M  V30 3912 C 369.099 -3.78369 -2.58072 0
M  V30 3913 N 370.59 -3.79505 -2.65575 0
M  V30 3914 C 371.325 -4.76274 -3.19297 0
M  V30 3915 N 370.821 -5.83424 -3.73616 0
M  V30 3916 N 372.614 -4.63735 -3.17658 0
M  V30 3917 H 364.765 -2.11126 -0.232296 0
M  V30 3918 H 367.028 -0.933424 -0.165602 0
M  V30 3919 H 366.734 -3.31025 -1.18807 0
M  V30 3920 H 366.608 -2.56066 -2.76966 0
M  V30 3921 H 368.995 -1.61527 -2.46968 0
M  V30 3922 H 369.076 -2.39975 -0.885745 0
M  V30 3923 H 368.72 -4.66293 -2.01329 0
M  V30 3924 H 368.65 -3.84737 -3.59562 0
M  V30 3925 H 371.141 -3.02074 -2.27068 0
M  V30 3926 H 371.454 -6.53282 -4.12846 0
M  V30 3927 H 369.799 -5.87143 -3.71871 0
M  V30 3928 H 372.99 -3.79177 -2.74486 0
M  V30 3929 H 373.163 -5.39318 -3.59221 0
M  V30 3930 N 366.569 1.04691 -1.17803 0
M  V30 3931 C 367.499 2.14494 -0.92275 0
M  V30 3932 C 368.48 1.69546 0.137179 0
M  V30 3933 O 369.665 1.94195 -0.0141108 0
M  V30 3934 C 366.795 3.44491 -0.440803 0
M  V30 3935 C 365.749 4.03031 -1.4405 0
M  V30 3936 C 365.075 5.28432 -0.81631 0
M  V30 3937 C 366.375 4.39932 -2.81527 0
M  V30 3938 H 368.069 2.36107 -1.84103 0
M  V30 3939 H 365.615 1.1347 -0.886599 0
M  V30 3940 H 367.568 4.2066 -0.249602 0
M  V30 3941 H 366.292 3.22546 0.513025 0
M  V30 3942 H 364.951 3.28937 -1.61853 0
M  V30 3943 H 364.599 5.02792 0.144511 0
M  V30 3944 H 364.299 5.68559 -1.48371 0
M  V30 3945 H 365.823 6.07284 -0.635496 0
M  V30 3946 H 367.237 5.07113 -2.67412 0
M  V30 3947 H 365.634 4.9109 -3.44892 0
M  V30 3948 H 366.704 3.50045 -3.35554 0
M  V30 3949 N 368.047 0.979072 1.23499 0
M  V30 3950 C 369.277 0.664237 1.95631 0
M  V30 3951 C 369.685 -0.772653 1.72704 0
M  V30 3952 O 369.028 -1.53141 1.01457 0
M  V30 3953 C 369.09 0.873115 3.48736 0
M  V30 3954 C 368.754 2.29182 3.95379 0
M  V30 3955 C 369.751 3.2704 4.04155 0
M  V30 3956 C 367.436 2.62256 4.28401 0
M  V30 3957 C 369.43 4.56052 4.45304 0
M  V30 3958 C 367.117 3.91491 4.69231 0
M  V30 3959 C 368.115 4.88201 4.77649 0
M  V30 3960 O 367.803 6.15129 5.17563 0
M  V30 3961 H 367.535 0.245915 0.629684 0
M  V30 3962 H 370.089 1.3127 1.57979 0
M  V30 3963 H 368.319 0.167476 3.86337 0
M  V30 3964 H 370.008 0.555642 4.02079 0
M  V30 3965 H 370.774 3.02819 3.78848 0
M  V30 3966 H 366.653 1.87692 4.21061 0
M  V30 3967 H 370.197 5.31538 4.51789 0
M  V30 3968 H 366.094 4.15508 4.93987 0
M  V30 3969 H 366.862 6.18862 5.35679 0
M  V30 3970 N 369.525 -1.3858 0.750561 0
M  V30 3971 C 370.753 -2.04471 0.316098 0
M  V30 3972 C 371.168 -1.56606 -1.05452 0
M  V30 3973 O 370.525 -0.737784 -1.66922 0
M  V30 3974 C 370.576 -3.60025 0.326275 0
M  V30 3975 O 370.297 -4.06133 1.6428 0
M  V30 3976 C 371.798 -4.43131 -0.122429 0
M  V30 3977 H 369.018 -0.65717 0.135528 0
M  V30 3978 H 371.562 -1.77329 1.01857 0
M  V30 3979 H 369.717 -3.86014 -0.327431 0
M  V30 3980 H 370.131 -5.00547 1.56693 0
M  V30 3981 H 371.605 -5.51963 -0.0641473 0
M  V30 3982 H 372.082 -4.23333 -1.16988 0
M  V30 3983 H 372.688 -4.22323 0.50229 0
M  V30 3984 N 371.003 -0.499398 -1.49478 0
M  V30 3985 C 371.913 0.284489 -2.32869 0
M  V30 3986 C 372.929 0.968885 -1.44529 0
M  V30 3987 O 374.105 0.95062 -1.77553 0
M  V30 3988 C 371.17 1.33594 -3.19928 0
M  V30 3989 C 370.231 0.665149 -4.24116 0
M  V30 3990 C 369.464 1.6665 -5.07014 0
M  V30 3991 O 369.687 2.89618 -4.91404 0
M  V30 3992 O 368.621 1.22271 -5.8935 0
M  V30 3993 H 372.447 -0.39802 -3.01081 0
M  V30 3994 H 370.032 -0.260758 -1.47107 0
M  V30 3995 H 371.914 1.94431 -3.73864 0
M  V30 3996 H 370.589 2.0014 -2.54412 0
M  V30 3997 H 369.496 0.0170769 -3.74096 0
M  V30 3998 H 370.829 0.0421555 -4.92182 0
M  V30 3999 N 372.481 1.55866 -0.233164 0
M  V30 4000 C 373.729 1.9821 0.394593 0
M  V30 4001 C 374.05 1.12234 1.59463 0
M  V30 4002 O 373.32 0.201981 1.94856 0
M  V30 4003 H 371.9 0.732034 0.148778 0
M  V30 4004 H 374.562 1.92107 -0.32876 0
M  V30 4005 H 373.658 3.03845 0.713063 0
M  V30 4006 N 373.959 -0.0401083 1.57549 0
M  V30 4007 C 374.922 -1.02871 2.04817 0
M  V30 4008 C 375.922 -1.29708 0.950388 0
M  V30 4009 O 377.112 -1.24897 1.21435 0
M  V30 4010 C 374.244 -2.36443 2.45576 0
M  V30 4011 H 375.437 -0.620631 2.93408 0
M  V30 4012 H 372.99 -0.286667 1.53649 0
M  V30 4013 H 373.725 -2.82021 1.60108 0
M  V30 4014 H 373.51 -2.18296 3.25713 0
M  V30 4015 H 375 -3.07441 2.82612 0
M  V30 4016 N 375.437 -1.54477 -0.31217 0
M  V30 4017 C 376.384 -1.84655 -1.38461 0
M  V30 4018 C 377.354 -0.694536 -1.50882 0
M  V30 4019 O 378.539 -0.942081 -1.6592 0
M  V30 4020 C 375.679 -2.0896 -2.74645 0
M  V30 4021 C 374.792 -3.36618 -2.70763 0
M  V30 4022 C 373.927 -3.50824 -3.98868 0
M  V30 4023 C 372.966 -4.72315 -3.89339 0
M  V30 4024 N 372.103 -4.83387 -5.09197 0
M  V30 4025 H 376.943 -2.76142 -1.12026 0
M  V30 4026 H 374.48 -1.36748 -0.542065 0
M  V30 4027 H 376.438 -2.21045 -3.53829 0
M  V30 4028 H 375.068 -1.20752 -2.99364 0
M  V30 4029 H 374.12 -3.33211 -1.83506 0
M  V30 4030 H 375.432 -4.25917 -2.59608 0
M  V30 4031 H 374.586 -3.62513 -4.86486 0
M  V30 4032 H 373.325 -2.59638 -4.12843 0
M  V30 4033 H 372.33 -4.6067 -3.00105 0
M  V30 4034 H 373.555 -5.64897 -3.76919 0
M  V30 4035 H 371.501 -3.9512 -5.23657 0
M  V30 4036 H 371.418 -5.66669 -5.00422 0
M  V30 4037 H 372.686 -4.9942 -5.98498 0
M  V30 4038 N 376.915 0.57481 -1.46744 0
M  V30 4039 C 378.162 1.33272 -1.52462 0
M  V30 4040 C 378.49 1.93669 -0.179572 0
M  V30 4041 O 377.745 1.7743 0.825664 0
M  V30 4042 C 378.044 2.476 -2.57738 0
M  V30 4043 C 377.71 2.05146 -4.01529 0
M  V30 4044 C 376.372 1.93284 -4.40676 0
M  V30 4045 C 378.724 1.72506 -4.91824 0
M  V30 4046 C 376.052 1.47049 -5.67973 0
M  V30 4047 C 378.404 1.27748 -6.19567 0
M  V30 4048 C 377.068 1.14468 -6.57612 0
M  V30 4049 H 376.338 0.487678 -0.557899 0
M  V30 4050 H 378.985 0.646456 -1.80259 0
M  V30 4051 H 377.29 3.21708 -2.23632 0
M  V30 4052 H 378.987 3.05807 -2.5939 0
M  V30 4053 H 375.577 2.15316 -3.7059 0
M  V30 4054 H 379.761 1.80552 -4.62293 0
M  V30 4055 H 375.017 1.35417 -5.96215 0
M  V30 4056 H 379.191 1.01547 -6.88957 0
M  V30 4057 H 376.818 0.78419 -7.56145 0
M  V30 4058 N 378.394 1.34581 0.820102 0
M  V30 4059 C 379.619 1.30333 1.61332 0
M  V30 4060 C 380.044 -0.119339 1.87721 0
M  V30 4061 O 379.402 -1.08197 1.45475 0
M  V30 4062 C 379.45 2.10258 2.92957 0
M  V30 4063 O 378.554 1.47404 3.85157 0
M  V30 4064 H 377.895 0.447488 0.490561 0
M  V30 4065 H 380.425 1.77425 1.01889 0
M  V30 4066 H 380.435 2.21718 3.42498 0
M  V30 4067 H 379.11 3.13693 2.73074 0
M  V30 4068 H 377.687 1.44703 3.43679 0
M  V30 4069 N 379.872 -1.04064 1.18357 0
M  V30 4070 C 380.782 -2.15569 0.925596 0
M  V30 4071 C 381.798 -1.7365 -0.110295 0
M  V30 4072 O 382.974 -2.01273 0.0716218 0
M  V30 4073 C 380.039 -3.43704 0.454836 0
M  V30 4074 C 379.1 -4.00004 1.55869 0
M  V30 4075 C 378.333 -5.22023 1.1103 0
M  V30 4076 O 378.556 -5.70392 -0.0309756 0
M  V30 4077 O 377.49 -5.70856 1.90805 0
M  V30 4078 H 381.316 -2.40187 1.8586 0
M  V30 4079 H 378.901 -1.1402 0.965394 0
M  V30 4080 H 380.783 -4.20923 0.200382 0
M  V30 4081 H 379.458 -3.20559 -0.449876 0
M  V30 4082 H 378.365 -3.24172 1.86716 0
M  V30 4083 H 379.698 -4.2749 2.43953 0
M  V30 4084 N 381.35 -0.985608 -1.22978 0
M  V30 4085 C 382.598 -0.656087 -1.91154 0
M  V30 4086 C 382.919 0.813561 -1.77218 0
M  V30 4087 O 382.189 1.58244 -1.1548 0
M  V30 4088 H 380.769 -0.239674 -0.707506 0
M  V30 4089 H 383.431 -1.25054 -1.49491 0
M  V30 4090 H 382.527 -0.912253 -2.9847 0
M  V30 4091 N 382.828 1.3818 -0.7579 0
M  V30 4092 C 384.074 2.0078 -0.325423 0
M  V30 4093 C 384.429 1.59085 1.08211 0
M  V30 4094 O 383.722 0.820394 1.73148 0
M  V30 4095 C 383.916 3.55252 -0.391218 0
M  V30 4096 C 383.745 4.11947 -1.8036 0
M  V30 4097 C 382.515 4.43519 -2.42113 0
M  V30 4098 C 384.713 4.33908 -2.76095 0
M  V30 4099 N 382.695 4.85847 -3.75267 0
M  V30 4100 C 384.066 4.78692 -3.94023 0
M  V30 4101 C 386.121 4.16015 -2.73561 0
M  V30 4102 C 384.824 5.07459 -5.09782 0
M  V30 4103 C 386.85 4.45909 -3.88483 0
M  V30 4104 C 386.212 4.90921 -5.0515 0
M  V30 4105 H 382.311 0.764215 -0.165831 0
M  V30 4106 H 384.895 1.67724 -0.988776 0
M  V30 4107 H 383.066 3.87646 0.241886 0
M  V30 4108 H 384.798 4.04653 0.061989 0
M  V30 4109 H 381.553 4.32113 -1.93842 0
M  V30 4110 H 381.977 5.11339 -4.4369 0
M  V30 4111 H 386.619 3.80399 -1.84544 0
M  V30 4112 H 384.337 5.4197 -5.99412 0
M  V30 4113 H 387.923 4.33666 -3.87847 0
M  V30 4114 H 386.803 5.1361 -5.92599 0
M  V30 4115 N 384.306 0.507319 1.49211 0
M  V30 4116 C 385.254 -0.281364 2.30892 0
M  V30 4117 C 386.248 -0.95687 1.39787 0
M  V30 4118 O 387.454 -0.883838 1.56807 0
M  V30 4119 H 383.829 -0.109597 0.743971 0
M  V30 4120 H 385.8 0.42744 2.95323 0
M  V30 4121 C 384.549 -1.32918 3.21291 0
M  V30 4122 H 383.872 -0.818799 3.91326 0
M  V30 4123 H 385.312 -1.85288 3.81372 0
M  V30 4124 C 383.771 -2.35074 2.41333 0
M  V30 4125 O 384.301 -3.4108 2.12197 0
M  V30 4126 N 382.507 -2.07705 2.03241 0
M  V30 4127 H 382.054 -1.2152 2.27136 0
M  V30 4128 H 382.012 -2.76283 1.50051 0
M  V30 4129 N 385.784 -1.5574 0.241426 0
M  V30 4130 C 387.031 -1.9881 -0.384836 0
M  V30 4131 C 387.359 -1.12947 -1.58346 0
M  V30 4132 O 386.614 -0.178993 -1.9488 0
M  V30 4133 C 386.913 -3.47308 -0.843317 0
M  V30 4134 C 386.579 -4.50223 0.246946 0
M  V30 4135 C 385.241 -4.78088 0.546399 0
M  V30 4136 C 387.593 -5.11841 0.983282 0
M  V30 4137 C 384.921 -5.64846 1.58636 0
M  V30 4138 C 387.273 -5.99727 2.01272 0
M  V30 4139 C 385.937 -6.25927 2.31888 0
M  V30 4140 H 385.207 -0.727496 -0.140821 0
M  V30 4141 H 387.854 -1.8831 0.348106 0
M  V30 4142 H 386.159 -3.55112 -1.65537 0
M  V30 4143 H 387.856 -3.78017 -1.33806 0
M  V30 4144 H 384.446 -4.286 0.00340639 0
M  V30 4145 H 388.63 -4.90366 0.765182 0
M  V30 4146 H 383.886 -5.83403 1.82896 0
M  V30 4147 H 388.06 -6.46517 2.58823 0
M  V30 4148 H 385.687 -6.92949 3.12611 0
M  V30 4149 N 387.262 0.0317525 -1.57568 0
M  V30 4150 C 388.51 0.721676 -1.88776 0
M  V30 4151 C 388.831 1.76039 -0.838772 0
M  V30 4152 O 388.101 1.95482 0.127935 0
M  V30 4153 H 386.681 0.269534 -0.696678 0
M  V30 4154 H 389.343 -0.00165879 -1.949 0
M  V30 4155 H 388.439 1.21293 -2.87566 0
M  V30 4156 N 388.74 1.54641 0.303973 0
M  V30 4157 C 390.151 1.64811 0.877163 0
M  V30 4158 C 390.502 0.554838 1.88191 0
M  V30 4159 O 389.627 -0.309033 2.14182 0
M  V30 4160 C 390.222 2.9876 1.59775 0
M  V30 4161 C 388.781 3.11061 2.11938 0
M  V30 4162 C 387.928 2.60479 0.951097 0
M  V30 4163 H 390.879 1.58493 0.0810486 0
M  V30 4164 H 390.9 2.90017 2.46314 0
M  V30 4165 H 390.412 3.7831 0.866226 0
M  V30 4166 H 388.513 2.36225 2.88146 0
M  V30 4167 H 388.626 4.17171 2.35595 0
M  V30 4168 H 386.99 2.16859 1.33583 0
M  V30 4169 H 387.773 3.42504 0.233581 0
M  V30 4170 N 390.218 -0.567019 1.47046 0
M  V30 4171 C 391.634 -0.891975 1.32348 0
M  V30 4172 C 391.834 -1.99154 0.306616 0
M  V30 4173 O 390.89 -2.50883 -0.28532 0
M  V30 4174 C 392.203 -1.29449 2.7141 0
M  V30 4175 C 393.751 -1.40646 2.79621 0
M  V30 4176 C 394.226 -1.84257 4.19301 0
M  V30 4177 N 395.717 -1.91424 4.21795 0
M  V30 4178 C 396.452 -2.26476 5.26779 0
M  V30 4179 N 395.948 -2.60211 6.42077 0
M  V30 4180 N 397.741 -2.27166 5.14152 0
M  V30 4181 H 389.892 0.159074 2.11803 0
M  V30 4182 H 392.155 0.00849752 0.947962 0
M  V30 4183 H 391.861 -0.560448 3.47206 0
M  V30 4184 H 391.735 -2.25273 3.02542 0
M  V30 4185 H 394.122 -2.13133 2.04104 0
M  V30 4186 H 394.203 -0.430339 2.52154 0
M  V30 4187 H 393.847 -1.12343 4.95319 0
M  V30 4188 H 393.777 -2.82855 4.44185 0
M  V30 4189 H 396.268 -1.6778 3.38612 0
M  V30 4190 H 396.581 -2.85956 7.17948 0
M  V30 4191 H 394.926 -2.57813 6.45413 0
M  V30 4192 H 398.117 -2.00244 4.23107 0
M  V30 4193 H 398.29 -2.54154 5.96079 0
M  V30 4194 N 391.696 -1.35014 -0.812953 0
M  V30 4195 C 392.973 -1.18502 -1.55617 0
M  V30 4196 C 393.353 0.238421 -2.09749 0
M  V30 4197 O 392.701 1.2411 -1.91857 0
M  V30 4198 C 392.911 -2.24783 -2.66971 0
M  V30 4199 C 394.259 -2.60268 -3.35478 0
M  V30 4200 O 395.283 -2.23648 -2.77236 0
M  V30 4201 O 394.142 -3.2321 -4.40678 0
M  V30 4202 H 391.236 -0.459984 -0.687272 0
M  V30 4203 H 393.782 -1.46677 -0.853464 0
M  V30 4204 H 392.554 -3.20284 -2.24798 0
M  V30 4205 H 392.177 -1.97841 -3.44884 0
M  V30 4206 N 393.175 1.03435 -1.18907 0
M  V30 4207 C 394.085 2.15075 -0.937015 0
M  V30 4208 C 395.101 1.73706 0.101085 0
M  V30 4209 O 396.277 2.01232 -0.0822948 0
M  V30 4210 C 393.342 3.43458 -0.473057 0
M  V30 4211 C 392.403 3.99172 -1.57989 0
M  V30 4212 C 391.636 5.21427 -1.13797 0
M  V30 4213 O 391.859 5.704 0.000725941 0
M  V30 4214 O 390.793 5.69837 -1.9383 0
M  V30 4215 H 394.619 2.39198 -1.87131 0
M  V30 4216 H 392.204 1.13506 -0.971427 0
M  V30 4217 H 394.086 4.20811 -0.222702 0
M  V30 4218 H 392.761 3.20793 0.432869 0
M  V30 4219 H 391.668 3.23178 -1.88433 0
M  V30 4220 H 393.001 4.2619 -2.46217 0
M  V30 4221 N 394.653 0.992116 1.22453 0
M  V30 4222 C 395.93 0.583508 1.86694 0
M  V30 4223 C 396.31 -0.9392 1.89056 0
M  V30 4224 O 395.658 -1.82081 1.38053 0
M  V30 4225 C 395.868 1.20304 3.2761 0
M  V30 4226 C 397.216 1.30308 4.0411 0
M  V30 4227 O 398.24 1.15737 3.36873 0
M  V30 4228 O 397.099 1.53615 5.24466 0
M  V30 4229 H 394.193 0.198129 0.802916 0
M  V30 4230 H 396.739 1.08794 1.30238 0
M  V30 4231 H 395.511 2.24461 3.2052 0
M  V30 4232 H 395.134 0.684144 3.9167 0
M  V30 4233 N 396.131 -1.37776 0.765217 0
M  V30 4234 C 397.094 -2.28686 0.153416 0
M  V30 4235 C 398.094 -1.47727 -0.635081 0
M  V30 4236 O 399.284 -1.68027 -0.459632 0
M  V30 4237 C 396.416 -3.31608 -0.790495 0
M  V30 4238 H 397.609 -2.84297 0.954723 0
M  V30 4239 H 395.162 -1.46932 0.53299 0
M  V30 4240 H 395.897 -2.81109 -1.61705 0
M  V30 4241 H 395.682 -3.9144 -0.227348 0
M  V30 4242 H 397.172 -3.99559 -1.21419 0
M  V30 4243 N 397.609 -0.515225 -1.4894 0
M  V30 4244 C 398.556 0.255567 -2.29381 0
M  V30 4245 C 399.526 0.947387 -1.36432 0
M  V30 4246 O 400.711 0.951288 -1.65394 0
M  V30 4247 C 397.851 1.30551 -3.19453 0
M  V30 4248 C 396.964 0.624029 -4.27469 0
M  V30 4249 C 396.099 1.65563 -5.0474 0
M  V30 4250 C 395.138 0.956802 -6.04576 0
M  V30 4251 N 394.275 1.93326 -6.74959 0
M  V30 4252 H 399.115 -0.436607 -2.94784 0
M  V30 4253 H 396.652 -0.227154 -1.45336 0
M  V30 4254 H 398.61 1.92639 -3.70062 0
M  V30 4255 H 397.24 1.96626 -2.56004 0
M  V30 4256 H 396.292 -0.110459 -3.8024 0
M  V30 4257 H 397.604 0.0746092 -4.98744 0
M  V30 4258 H 396.758 2.35119 -5.59289 0
M  V30 4259 H 395.497 2.23893 -4.3327 0
M  V30 4260 H 394.502 0.247097 -5.49244 0
M  V30 4261 H 395.727 0.379814 -6.78037 0
M  V30 4262 H 393.673 2.50591 -6.06251 0
M  V30 4263 H 393.59 1.43489 -7.42258 0
M  V30 4264 H 394.858 2.62126 -7.34105 0
M  V30 4265 N 399.087 1.5561 -0.249682 0
M  V30 4266 C 400.315 2.03411 0.378352 0
M  V30 4267 C 400.73 1.12886 1.51335 0
M  V30 4268 O 400.087 0.143833 1.81932 0
M  V30 4269 C 400.138 3.50537 0.88351 0
M  V30 4270 O 399.859 4.37614 -0.20626 0
M  V30 4271 C 401.36 4.14113 1.58195 0
M  V30 4272 H 398.58 0.664994 0.08958 0
M  V30 4273 H 401.124 2.01044 -0.374357 0
M  V30 4274 H 399.279 3.5343 1.58639 0
M  V30 4275 H 399.693 5.24199 0.177782 0
M  V30 4276 H 401.167 5.18741 1.8871 0
M  V30 4277 H 401.644 3.60767 2.50487 0
M  V30 4278 H 402.25 4.15151 0.923573 0
M  V30 4279 N 400.565 -0.0233959 1.57583 0
M  V30 4280 C 401.811 -0.714119 1.89811 0
M  V30 4281 C 402.144 -1.74702 0.848113 0
M  V30 4282 O 401.419 -1.94023 -0.136135 0
M  V30 4283 C 401.702 -1.37853 3.32669 0
M  V30 4284 C 401.555 -0.358764 4.48367 0
M  V30 4285 C 402.874 -2.31101 3.7454 0
M  V30 4286 H 399.993 -0.25814 0.690314 0
M  V30 4287 H 402.635 0.0230927 1.89986 0
M  V30 4288 H 400.785 -2.00689 3.3265 0
M  V30 4289 H 402.457 0.268115 4.6052 0
M  V30 4290 H 400.7 0.321387 4.32608 0
M  V30 4291 H 401.371 -0.862242 5.45224 0
M  V30 4292 H 403.847 -1.78304 3.75961 0
M  V30 4293 H 402.723 -2.74567 4.75294 0
M  V30 4294 H 402.984 -3.18018 3.0711 0
M  V30 4295 N 402.043 -1.548 -0.295768 0
M  V30 4296 C 402.953 -1.89177 -1.38742 0
M  V30 4297 C 403.969 -0.786481 -1.55211 0
M  V30 4298 O 405.145 -1.08344 -1.69775 0
M  V30 4299 C 402.21 -2.13663 -2.73036 0
M  V30 4300 C 401.271 -3.37349 -2.65508 0
M  V30 4301 C 400.504 -3.60658 -3.93398 0
M  V30 4302 O 400.727 -2.86882 -4.93006 0
M  V30 4303 O 399.661 -4.54179 -3.94975 0
M  V30 4304 H 403.487 -2.82059 -1.12589 0
M  V30 4305 H 401.072 -1.41056 -0.492295 0
M  V30 4306 H 402.954 -2.3094 -3.52484 0
M  V30 4307 H 401.629 -1.23967 -2.99022 0
M  V30 4308 H 400.536 -3.25431 -1.84514 0
M  V30 4309 H 401.869 -4.27192 -2.44474 0
M  V30 4310 N 403.521 0.559213 -1.47345 0
M  V30 4311 C 404.768 1.31648 -1.53867 0
M  V30 4312 C 405.096 1.93468 -0.200104 0
M  V30 4313 O 404.351 1.78295 0.806799 0
M  V30 4314 C 404.65 2.44853 -2.6035 0
M  V30 4315 C 404.316 2.00876 -4.03683 0
M  V30 4316 C 402.978 1.88599 -4.42701 0
M  V30 4317 C 405.33 1.67279 -4.93626 0
M  V30 4318 C 402.658 1.41017 -5.69501 0
M  V30 4319 C 405.01 1.21169 -6.20887 0
M  V30 4320 C 403.674 1.07487 -6.58789 0
M  V30 4321 H 402.944 0.481734 -0.56304 0
M  V30 4322 H 405.591 0.627301 -1.80934 0
M  V30 4323 H 403.896 3.19318 -2.27032 0
M  V30 4324 H 405.593 3.03039 -2.62619 0
M  V30 4325 H 402.183 2.11374 -3.72853 0
M  V30 4326 H 406.367 1.75638 -4.64182 0
M  V30 4327 H 401.623 1.29086 -5.97618 0
M  V30 4328 H 405.797 0.942345 -6.89995 0
M  V30 4329 H 403.424 0.703946 -7.56934 0
M  V30 4330 N 404.999 1.35443 0.805782 0
M  V30 4331 C 406.248 1.28097 1.55801 0
M  V30 4332 C 406.561 -0.142428 1.95081 0
M  V30 4333 O 407.767 -0.33817 2.69386 0
M  V30 4334 C 406.223 2.24653 2.81174 0
M  V30 4335 C 405.831 3.72342 2.49129 0
M  V30 4336 C 407.575 2.2625 3.59181 0
M  V30 4337 C 405.482 4.60719 3.70799 0
M  V30 4338 H 404.412 0.475937 0.584808 0
M  V30 4339 H 407.063 1.60712 0.885661 0
M  V30 4340 H 405.445 1.85011 3.50124 0
M  V30 4341 H 406.619 4.20624 1.88181 0
M  V30 4342 H 404.934 3.73361 1.84366 0
M  V30 4343 H 407.531 2.89495 4.49552 0
M  V30 4344 H 407.874 1.26647 3.96568 0
M  V30 4345 H 408.407 2.64426 2.97193 0
M  V30 4346 H 405.146 5.61324 3.3852 0
M  V30 4347 H 404.666 4.17163 4.3097 0
M  V30 4348 H 406.345 4.76182 4.38018 0
M  V30 4349 N 406.477 -1.02803 1.19454 0
M  V30 4350 C 407.723 -1.76478 0.999171 0
M  V30 4351 C 408.056 -1.88456 -0.468828 0
M  V30 4352 O 407.331 -1.40198 -1.34814 0
M  V30 4353 C 407.614 -3.19044 1.66981 0
M  V30 4354 C 407.467 -3.14932 3.21151 0
M  V30 4355 C 408.786 -4.17456 1.39349 0
M  V30 4356 H 405.905 -0.640614 0.364393 0
M  V30 4357 H 408.547 -1.20005 1.47305 0
M  V30 4358 H 406.697 -3.67263 1.2669 0
M  V30 4359 H 408.369 -2.74605 3.70661 0
M  V30 4360 H 406.612 -2.52625 3.52652 0
M  V30 4361 H 407.283 -4.1566 3.63223 0
M  V30 4362 H 409.759 -3.77842 1.74283 0
M  V30 4363 H 408.635 -5.154 1.88823 0
M  V30 4364 H 408.896 -4.40949 0.318813 0
M  V30 4365 N 407.956 -0.998596 -1.21925 0
M  V30 4366 C 409.233 -0.593401 -1.86382 0
M  V30 4367 C 409.613 0.92916 -1.89552 0
M  V30 4368 O 408.961 1.81347 -1.39017 0
M  V30 4369 C 409.171 -1.22039 -3.26967 0
M  V30 4370 C 410.519 -1.32449 -4.03413 0
M  V30 4371 O 411.543 -1.17522 -3.36254 0
M  V30 4372 O 410.402 -1.56395 -5.23644 0
M  V30 4373 H 407.496 -0.202385 -0.801854 0
M  V30 4374 H 410.042 -1.09484 -1.29659 0
M  V30 4375 H 408.814 -2.26158 -3.19325 0
M  V30 4376 H 408.437 -0.704906 -3.91301 0
M  V30 4377 N 409.434 1.37368 -0.772513 0
M  V30 4378 C 410.381 2.30262 -0.157488 0
M  V30 4379 C 411.351 1.51137 0.688965 0
M  V30 4380 O 412.536 1.79704 0.641168 0
M  V30 4381 C 409.676 3.37611 0.715045 0
M  V30 4382 C 408.789 4.31746 -0.148098 0
M  V30 4383 C 407.924 5.26171 0.729213 0
M  V30 4384 C 406.963 6.11948 -0.136418 0
M  V30 4385 N 406.1 6.98613 0.698914 0
M  V30 4386 H 410.94 2.82277 -0.955179 0
M  V30 4387 H 408.477 1.38957 -0.482631 0
M  V30 4388 H 410.435 3.98479 1.23575 0
M  V30 4389 H 409.065 2.86959 1.47833 0
M  V30 4390 H 408.117 3.72178 -0.786613 0
M  V30 4391 H 409.429 4.92084 -0.81579 0
M  V30 4392 H 408.583 5.92247 1.31637 0
M  V30 4393 H 407.322 4.66246 1.43059 0
M  V30 4394 H 406.327 5.4485 -0.736102 0
M  V30 4395 H 407.552 6.73945 -0.835134 0
M  V30 4396 H 405.498 6.41215 1.38489 0
M  V30 4397 H 405.415 7.55948 0.0885358 0
M  V30 4398 H 406.683 7.69077 1.27044 0
M  V30 4399 N 410.912 0.523116 1.48665 0
M  V30 4400 C 411.845 -0.290518 2.26343 0
M  V30 4401 C 412.823 -0.950913 1.31895 0
M  V30 4402 O 414.007 -0.976662 1.61225 0
M  V30 4403 C 411.134 -1.41088 3.07915 0
M  V30 4404 C 410.18 -0.862597 4.17686 0
M  V30 4405 S 411.013 0.264135 5.34848 0
M  V30 4406 C 412.169 -0.858864 6.19979 0
M  V30 4407 H 412.402 0.368726 2.95005 0
M  V30 4408 H 409.935 0.30878 1.51281 0
M  V30 4409 H 411.893 -2.0527 3.55492 0
M  V30 4410 H 410.554 -2.04182 2.38681 0
M  V30 4411 H 409.747 -1.70287 4.74361 0
M  V30 4412 H 409.349 -0.297595 3.72814 0
M  V30 4413 H 411.641 -1.7591 6.54264 0
M  V30 4414 H 412.584 -0.330244 7.07329 0
M  V30 4415 H 412.992 -1.13617 5.52948 0
M  V30 4416 N 412.39 -1.55475 0.257931 0
M  V30 4417 C 413.636 -1.99502 -0.364266 0
M  V30 4418 C 413.969 -1.146 -1.56782 0
M  V30 4419 O 413.244 -0.211968 -1.93342 0
M  V30 4420 C 413.527 -3.51917 -0.763333 0
M  V30 4421 C 413.38 -4.4758 0.446371 0
M  V30 4422 C 414.699 -4.09742 -1.60623 0
M  V30 4423 H 411.818 -0.725277 -0.130929 0
M  V30 4424 H 414.46 -1.8653 0.361446 0
M  V30 4425 H 412.61 -3.63101 -1.38166 0
M  V30 4426 H 414.282 -4.48362 1.08487 0
M  V30 4427 H 412.525 -4.19947 1.08753 0
M  V30 4428 H 413.196 -5.51862 0.123645 0
M  V30 4429 H 415.672 -4.01727 -1.08418 0
M  V30 4430 H 414.548 -5.16631 -1.85429 0
M  V30 4431 H 414.809 -3.58889 -2.58169 0
M  V30 4432 N 413.868 0.0150385 -1.57593 0
M  V30 4433 C 415.096 0.714395 -1.94175 0
M  V30 4434 C 415.511 1.68135 -0.858841 0
M  V30 4435 O 414.868 1.81766 0.163567 0
M  V30 4436 C 414.919 1.45933 -3.30735 0
M  V30 4437 O 414.64 0.531167 -4.34868 0
M  V30 4438 C 416.141 2.25456 -3.81686 0
M  V30 4439 H 413.361 0.199923 -0.640525 0
M  V30 4440 H 415.905 -0.0316096 -2.04476 0
M  V30 4441 H 414.06 2.15709 -3.21789 0
M  V30 4442 H 414.474 1.05509 -5.13778 0
M  V30 4443 H 415.948 2.731 -4.79709 0
M  V30 4444 H 416.425 3.07485 -3.13607 0
M  V30 4445 H 417.031 1.60727 -3.9376 0
M  V30 4446 N 415.346 1.54954 0.287554 0
M  V30 4447 C 416.276 1.89839 1.35954 0
M  V30 4448 C 417.257 0.758675 1.52244 0
M  V30 4449 O 418.442 1.01557 1.65529 0
M  V30 4450 C 415.572 2.15753 2.72154 0
M  V30 4451 C 414.526 3.3159 2.70614 0
M  V30 4452 C 413.852 3.42952 4.10229 0
M  V30 4453 C 415.152 4.68359 2.31165 0
M  V30 4454 H 416.846 2.79625 1.07007 0
M  V30 4455 H 414.392 1.3454 0.513316 0
M  V30 4456 H 416.345 2.38743 3.47246 0
M  V30 4457 H 415.069 1.22752 3.02654 0
M  V30 4458 H 413.728 3.08545 1.97979 0
M  V30 4459 H 413.376 2.47443 4.37928 0
M  V30 4460 H 413.076 4.20826 4.10097 0
M  V30 4461 H 414.6 3.68218 4.87081 0
M  V30 4462 H 416.014 4.9099 2.95976 0
M  V30 4463 H 414.411 5.49044 2.42221 0
M  V30 4464 H 415.481 4.68165 1.26291 0
M  V30 4465 N 416.824 -0.551391 1.4764 0
M  V30 4466 C 418.07 -1.30789 1.55774 0
M  V30 4467 C 418.425 -1.91143 0.219562 0
M  V30 4468 O 417.718 -1.7521 -0.775375 0
M  V30 4469 C 417.912 -2.43469 2.61644 0
M  V30 4470 C 417.741 -1.94157 4.05627 0
M  V30 4471 C 416.511 -1.77734 4.7301 0
M  V30 4472 C 418.709 -1.48262 4.92466 0
M  V30 4473 N 416.691 -1.22823 6.01488 0
M  V30 4474 C 418.062 -1.05156 6.11017 0
M  V30 4475 C 420.117 -1.36367 4.78862 0
M  V30 4476 C 418.82 -0.513357 7.17466 0
M  V30 4477 C 420.846 -0.839484 5.85411 0
M  V30 4478 C 420.208 -0.418377 7.03156 0
M  V30 4479 H 416.307 -0.470406 0.624694 0
M  V30 4480 H 418.891 -0.624331 1.84419 0
M  V30 4481 H 417.062 -3.09348 2.34859 0
M  V30 4482 H 418.794 -3.10477 2.59589 0
M  V30 4483 H 415.549 -2.00623 4.29007 0
M  V30 4484 H 415.973 -0.974393 6.69951 0
M  V30 4485 H 420.615 -1.67535 3.88191 0
M  V30 4486 H 418.333 -0.189318 8.07878 0
M  V30 4487 H 421.919 -0.750921 5.76934 0
M  V30 4488 H 420.799 -0.0190538 7.84198 0
M  V30 4489 N 418.302 -1.35869 -0.798587 0
M  V30 4490 C 419.55 -1.29332 -1.55298 0
M  V30 4491 C 419.871 0.129729 -1.94568 0
M  V30 4492 O 419.141 1.06796 -1.6423 0
M  V30 4493 H 417.721 -0.475737 -0.57592 0
M  V30 4494 H 420.383 -1.70062 -0.952093 0
M  V30 4495 H 419.479 -1.91458 -2.46476 0
M  V30 4496 N 419.78 1.02168 -1.19998 0
M  V30 4497 C 421.057 1.72816 -0.916191 0
M  V30 4498 C 421.437 2.03081 0.576325 0
M  V30 4499 O 420.785 1.69122 1.53656 0
M  V30 4500 C 420.995 2.9997 -1.78378 0
M  V30 4501 C 422.343 3.73336 -2.02251 0
M  V30 4502 O 423.367 3.09914 -1.75589 0
M  V30 4503 O 422.226 4.87371 -2.47249 0
M  V30 4504 H 419.32 0.752924 -0.342103 0
M  V30 4505 H 421.866 1.08062 -1.30846 0
M  V30 4506 H 420.638 2.73888 -2.79466 0
M  V30 4507 H 420.261 3.72464 -1.39126 0
M  V30 4508 N 421.258 1.00505 1.21394 0
M  V30 4509 C 422.535 0.603277 1.86064 0
M  V30 4510 C 422.915 -0.919095 1.90042 0
M  V30 4511 O 422.263 -1.80607 1.39977 0
M  V30 4512 C 422.473 1.23772 3.26315 0
M  V30 4513 C 423.821 1.34586 4.02705 0
M  V30 4514 O 424.845 1.19304 3.35626 0
M  V30 4515 O 423.704 1.59169 5.22807 0
M  V30 4516 H 420.798 0.206634 0.800769 0
M  V30 4517 H 423.344 1.1017 1.29076 0
M  V30 4518 H 422.116 2.27848 3.18121 0
M  V30 4519 H 421.739 0.725648 3.90922 0
M  V30 4520 N 422.737 -1.36956 0.779787 0
M  V30 4521 C 423.7 -2.2851 0.177662 0
M  V30 4522 C 424.7 -1.48393 -0.619377 0
M  V30 4523 O 425.89 -1.68505 -0.441785 0
M  V30 4524 C 423.022 -3.32428 -0.755279 0
M  V30 4525 H 424.215 -2.83269 0.984823 0
M  V30 4526 H 421.768 -1.46358 0.548544 0
M  V30 4527 H 422.503 -2.82808 -1.58714 0
M  V30 4528 H 422.288 -3.91659 -0.185817 0
M  V30 4529 H 423.778 -4.00824 -1.17174 0
M  V30 4530 N 424.215 -0.530993 -1.48385 0
M  V30 4531 C 425.44 0.000729535 -2.074 0
M  V30 4532 C 425.865 1.27298 -1.3848 0
M  V30 4533 O 425.223 1.75599 -0.451081 0
M  V30 4534 C 425.271 0.206697 -3.60007 0
M  V30 4535 O 424.375 1.27514 -3.92191 0
M  V30 4536 H 423.716 -0.039583 -0.662819 0
M  V30 4537 H 426.246 -0.739194 -1.9078 0
M  V30 4538 H 426.256 0.42904 -4.05738 0
M  V30 4539 H 424.931 -0.722675 -4.09573 0
M  V30 4540 H 423.508 1.03537 -3.58238 0
M  V30 4541 N 425.693 1.55336 -0.266172 0
M  V30 4542 C 426.939 2.00423 0.346714 0
M  V30 4543 C 427.294 1.15132 1.54151 0
M  V30 4544 O 426.587 0.211289 1.90431 0
M  V30 4545 C 426.781 3.48606 0.787957 0
M  V30 4546 C 426.61 4.48236 -0.362535 0
M  V30 4547 C 425.38 4.98211 -0.843445 0
M  V30 4548 C 427.578 5.00199 -1.19603 0
M  V30 4549 N 425.56 5.81625 -1.96434 0
M  V30 4550 C 426.931 5.80973 -2.16497 0
M  V30 4551 C 428.986 4.82458 -1.2304 0
M  V30 4552 C 427.689 6.45896 -3.1656 0
M  V30 4553 C 429.715 5.48174 -2.21944 0
M  V30 4554 C 429.077 6.28751 -3.17571 0
M  V30 4555 H 425.176 0.776535 0.0922914 0
M  V30 4556 H 427.76 1.90792 -0.388154 0
M  V30 4557 H 425.931 3.58597 1.49207 0
M  V30 4558 H 427.663 3.80538 1.37742 0
M  V30 4559 H 424.418 4.71696 -0.424271 0
M  V30 4560 H 424.842 6.28025 -2.52813 0
M  V30 4561 H 429.484 4.19774 -0.504903 0
M  V30 4562 H 427.202 7.07734 -3.90048 0
M  V30 4563 H 430.788 5.36392 -2.25333 0
M  V30 4564 H 429.668 6.78703 -3.92851 0
M  V30 4565 N 427.171 -0.0066808 1.57599 0
M  V30 4566 C 428.101 -0.999296 2.11036 0
M  V30 4567 C 429.082 -1.36278 1.01795 0
M  V30 4568 O 430.267 -1.4477 1.29442 0
M  V30 4569 C 427.397 -2.29328 2.60818 0
M  V30 4570 C 426.351 -2.07159 3.74525 0
M  V30 4571 C 425.677 -3.42512 4.10596 0
M  V30 4572 C 426.977 -1.43959 5.02069 0
M  V30 4573 H 428.671 -0.554382 2.94223 0
M  V30 4574 H 426.217 -0.265221 1.41536 0
M  V30 4575 H 428.17 -2.99117 2.96828 0
M  V30 4576 H 426.894 -2.7592 1.74745 0
M  V30 4577 H 425.553 -1.39797 3.38899 0
M  V30 4578 H 425.201 -3.86795 3.21556 0
M  V30 4579 H 424.901 -3.28498 4.87199 0
M  V30 4580 H 426.425 -4.13628 4.4916 0
M  V30 4581 H 427.839 -2.03696 5.35893 0
M  V30 4582 H 426.236 -1.40452 5.83432 0
M  V30 4583 H 427.306 -0.407992 4.83181 0
M  V30 4584 N 428.649 -1.55105 -0.279332 0
M  V30 4585 C 429.579 -1.90557 -1.34945 0
M  V30 4586 C 430.56 -0.766738 -1.51839 0
M  V30 4587 O 431.745 -1.02434 -1.64988 0
M  V30 4588 C 428.875 -2.17193 -2.71006 0
M  V30 4589 C 427.829 -3.33021 -2.68851 0
M  V30 4590 C 427.155 -3.45123 -4.08405 0
M  V30 4591 C 428.455 -4.69578 -2.28678 0
M  V30 4592 H 430.149 -2.80188 -1.05522 0
M  V30 4593 H 427.695 -1.34811 -0.506173 0
M  V30 4594 H 429.648 -2.40581 -3.45975 0
M  V30 4595 H 428.372 -1.24355 -3.01999 0
M  V30 4596 H 427.031 -3.0959 -1.9634 0
M  V30 4597 H 426.679 -2.49762 -4.3661 0
M  V30 4598 H 426.379 -4.22995 -4.07859 0
M  V30 4599 H 427.903 -3.70796 -4.85121 0
M  V30 4600 H 429.317 -4.92553 -2.93368 0
M  V30 4601 H 427.714 -5.5032 -2.39306 0
M  V30 4602 H 428.784 -4.68828 -1.23807 0
M  V30 4603 N 430.127 0.543554 -1.4793 0
M  V30 4604 C 431.404 1.30458 -1.4574 0
M  V30 4605 C 431.784 2.1048 -0.161692 0
M  V30 4606 O 431.132 2.11831 0.856734 0
M  V30 4607 C 431.342 2.19754 -2.71126 0
M  V30 4608 C 432.69 2.80334 -3.18901 0
M  V30 4609 O 433.714 2.30049 -2.71948 0
M  V30 4610 O 432.573 3.71766 -4.00565 0
M  V30 4611 H 429.667 0.588117 -0.581418 0
M  V30 4612 H 432.213 0.561328 -1.60147 0
M  V30 4613 H 430.985 1.60316 -3.56952 0
M  V30 4614 H 430.608 3.01351 -2.59371 0
M  V30 4615 N 431.605 1.3629 0.791371 0
M  V30 4616 C 432.853 1.30154 1.5461 0
M  V30 4617 C 433.174 -0.119409 1.94634 0
M  V30 4618 O 432.444 -1.05924 1.64794 0
M  V30 4619 H 431.024 0.478784 0.573389 0
M  V30 4620 H 433.686 1.70565 0.94306 0
M  V30 4621 H 432.782 1.92762 2.45457 0
M  V30 4622 N 433.083 -1.0153 1.20538 0
M  V30 4623 C 433.993 -2.13557 0.971113 0
M  V30 4624 C 435.009 -1.73845 -0.0734366 0
M  V30 4625 O 436.185 -2.01075 0.114299 0
M  V30 4626 C 433.25 -3.42661 0.527639 0
M  V30 4627 C 432.311 -3.96608 1.64319 0
M  V30 4628 C 431.544 -5.1955 1.22078 0
M  V30 4629 O 431.767 -5.70329 0.0900198 0
M  V30 4630 O 430.701 -5.66681 2.02871 0
M  V30 4631 H 434.527 -2.3619 1.90913 0
M  V30 4632 H 432.112 -1.11946 0.989362 0
M  V30 4633 H 433.994 -4.20404 0.289621 0
M  V30 4634 H 432.669 -3.21441 -0.381779 0
M  V30 4635 H 431.576 -3.20139 1.93551 0
M  V30 4636 H 432.909 -4.22219 2.52966 0
M  V30 4637 N 434.561 -1.01147 -1.20859 0
M  V30 4638 C 435.509 -0.57059 -2.25493 0
M  V30 4639 C 436.503 0.388109 -1.64894 0
M  V30 4640 O 437.709 0.258592 -1.78133 0
M  V30 4641 H 434.084 -0.166191 -0.733406 0
M  V30 4642 H 436.055 -1.46411 -2.60012 0
M  V30 4643 C 434.804 0.0805241 -3.47607 0
M  V30 4644 H 434.127 -0.648156 -3.94511 0
M  V30 4645 H 435.567 0.352197 -4.22535 0
M  V30 4646 C 434.026 1.32175 -3.09889 0
M  V30 4647 O 434.556 2.41553 -3.20959 0
M  V30 4648 N 432.762 1.20392 -2.64488 0
M  V30 4649 H 432.309 0.313905 -2.5568 0
M  V30 4650 H 432.267 2.03541 -2.39621 0
M  V30 4651 N 436.039 1.36541 -0.78704 0
M  V30 4652 C 436.989 2.27459 -0.156957 0
M  V30 4653 C 437.973 1.46843 0.657709 0
M  V30 4654 O 439.165 1.69245 0.518173 0
M  V30 4655 C 436.294 3.35893 0.709278 0
M  V30 4656 C 435.38 4.23947 -0.114049 0
M  V30 4657 N 435.771 4.92145 -1.16736 0
M  V30 4658 C 434.069 4.4587 0.107497 0
M  V30 4659 C 434.77 5.57261 -1.66837 0
M  V30 4660 N 433.746 5.3473 -0.977992 0
M  V30 4661 H 437.548 2.77669 -0.963185 0
M  V30 4662 H 435.062 1.49839 -0.62627 0
M  V30 4663 H 437.059 3.99953 1.17656 0
M  V30 4664 H 435.719 2.87238 1.51408 0
M  V30 4665 H 436.73 4.94169 -1.54976 0
M  V30 4666 H 433.407 4.08056 0.882994 0
M  V30 4667 H 434.797 6.21728 -2.54762 0
M  V30 4668 N 437.518 0.538854 1.48102 0
M  V30 4669 C 438.929 0.100679 1.86428 0
M  V30 4670 C 439.28 -1.32447 1.44749 0
M  V30 4671 O 438.405 -1.99339 0.842199 0
M  V30 4672 C 439 0.175933 3.38343 0
M  V30 4673 C 437.559 -0.207098 3.7583 0
M  V30 4674 C 436.706 0.531741 2.72154 0
M  V30 4675 H 439.657 0.749614 1.3988 0
M  V30 4676 H 439.678 -0.610144 3.75576 0
M  V30 4677 H 439.19 1.21328 3.68648 0
M  V30 4678 H 437.291 -1.24626 3.5114 0
M  V30 4679 H 437.404 0.138687 4.78899 0
M  V30 4680 H 435.768 -0.0230462 2.5469 0
M  V30 4681 H 436.551 1.56989 3.05302 0
M  V30 4682 N 438.996 -1.55193 0.274407 0
M  V30 4683 C 439.946 -2.19184 -0.627882 0
M  V30 4684 C 440.93 -1.15625 -1.11892 0
M  V30 4685 O 442.122 -1.41441 -1.06411 0
M  V30 4686 C 439.251 -2.91591 -1.81189 0
M  V30 4687 C 438.337 -4.02438 -1.33807 0
M  V30 4688 N 438.728 -5.0246 -0.580349 0
M  V30 4689 C 437.026 -4.15496 -1.62109 0
M  V30 4690 C 437.727 -5.80756 -0.331344 0
M  V30 4691 N 436.703 -5.36038 -0.903556 0
M  V30 4692 H 440.505 -2.93871 -0.0411216 0
M  V30 4693 H 438.019 -1.62213 0.0779348 0
M  V30 4694 H 440.016 -3.35883 -2.46957 0
M  V30 4695 H 438.676 -2.18414 -2.40261 0
M  V30 4696 H 439.687 -5.17399 -0.227762 0
M  V30 4697 H 436.364 -3.53509 -2.22121 0
M  V30 4698 H 437.754 -6.71335 0.275454 0
M  V30 4699 N 440.474 -0.00167713 -1.576 0
M  V30 4700 C 441.384 1.00548 -2.1196 0
M  V30 4701 C 442.4 1.3758 -1.06526 0
M  V30 4702 O 443.576 1.46278 -1.38436 0
M  V30 4703 C 440.641 2.27809 -2.6135 0
M  V30 4704 C 439.702 1.97074 -3.81393 0
M  V30 4705 C 438.935 3.18267 -4.28417 0
M  V30 4706 O 439.158 4.30009 -3.74765 0
M  V30 4707 O 438.092 3.02167 -5.20556 0
M  V30 4708 H 441.918 0.573373 -2.98238 0
M  V30 4709 H 439.503 0.217255 -1.47812 0
M  V30 4710 H 441.385 3.02568 -2.93309 0
M  V30 4711 H 440.06 2.70254 -1.78169 0
M  V30 4712 H 438.967 1.19785 -3.54404 0
M  V30 4713 H 440.3 1.59464 -4.65652 0
M  V30 4714 N 441.952 1.55251 0.271103 0
M  V30 4715 C 442.915 1.87484 1.31842 0
M  V30 4716 C 443.915 0.749545 1.42262 0
M  V30 4717 O 445.105 1.01771 1.4138 0
M  V30 4718 C 442.237 2.0818 2.69951 0
M  V30 4719 H 443.43 2.81108 1.0449 0
M  V30 4720 H 440.983 1.47771 0.509258 0
M  V30 4721 H 441.718 1.16944 3.02481 0
M  V30 4722 H 441.503 2.90114 2.63774 0
M  V30 4723 H 442.993 2.34385 3.4562 0
M  V30 4724 N 443.43 -0.535701 1.48216 0
M  V30 4725 C 444.38 -1.63688 1.58714 0
M  V30 4726 C 445.364 -1.54635 0.444615 0
M  V30 4727 O 446.556 -1.62753 0.695742 0
M  V30 4728 C 443.685 -3.02423 1.62466 0
M  V30 4729 C 442.771 -3.16601 2.82178 0
M  V30 4730 N 443.162 -3.00771 4.06658 0
M  V30 4731 C 441.46 -3.47645 2.79391 0
M  V30 4732 C 442.161 -3.18213 4.86945 0
M  V30 4733 N 441.137 -3.45528 4.19656 0
M  V30 4734 H 444.939 -1.5005 2.5271 0
M  V30 4735 H 442.453 -0.741018 1.44508 0
M  V30 4736 H 444.45 -3.81517 1.6808 0
M  V30 4737 H 443.11 -3.17157 0.695826 0
M  V30 4738 H 444.121 -2.77652 4.37184 0
M  V30 4739 H 440.798 -3.68771 1.95739 0
M  V30 4740 H 442.188 -3.1076 5.95716 0
M  V30 4741 N 444.908 -1.36708 -0.784132 0
M  V30 4742 C 446.138 -1.34203 -1.57077 0
M  V30 4743 C 446.546 0.0774945 -1.89041 0
M  V30 4744 O 445.889 1.04628 -1.50992 0
M  V30 4745 C 445.951 -2.10351 -2.91535 0
M  V30 4746 C 445.615 -3.59405 -2.82272 0
M  V30 4747 C 446.612 -4.53545 -2.54151 0
M  V30 4748 C 444.297 -4.02362 -3.00683 0
M  V30 4749 C 446.291 -5.8862 -2.44551 0
M  V30 4750 C 443.978 -5.37526 -2.90704 0
M  V30 4751 C 444.976 -6.30468 -2.62677 0
M  V30 4752 O 444.664 -7.63149 -2.52702 0
M  V30 4753 H 444.396 -0.461791 -0.493685 0
M  V30 4754 H 446.95 -1.80475 -0.980712 0
M  V30 4755 H 445.18 -1.5875 -3.52612 0
M  V30 4756 H 446.869 -2.00636 -3.52845 0
M  V30 4757 H 447.635 -4.21669 -2.39625 0
M  V30 4758 H 443.514 -3.30389 -3.21503 0
M  V30 4759 H 447.058 -6.61133 -2.22596 0
M  V30 4760 H 442.955 -5.69008 -3.04795 0
M  V30 4761 H 443.723 -7.73331 -2.68144 0
M  V30 4762 N 446.386 1.0089 -1.21074 0
M  V30 4763 C 447.316 2.1145 -0.990523 0
M  V30 4764 C 448.297 1.69897 0.0831699 0
M  V30 4765 O 449.482 1.94052 -0.0758853 0
M  V30 4766 C 446.612 3.42914 -0.550177 0
M  V30 4767 C 445.566 3.98244 -1.56799 0
M  V30 4768 C 444.892 5.25568 -0.984013 0
M  V30 4769 C 446.192 4.30752 -2.95381 0
M  V30 4770 H 447.886 2.3013 -1.91521 0
M  V30 4771 H 445.432 1.10592 -0.92225 0
M  V30 4772 H 447.385 4.19653 -0.383305 0
M  V30 4773 H 446.109 3.24014 0.41015 0
M  V30 4774 H 444.768 3.23621 -1.72236 0
M  V30 4775 H 444.416 5.02998 -0.0155216 0
M  V30 4776 H 444.116 5.63551 -1.66384 0
M  V30 4777 H 445.64 6.04955 -0.828378 0
M  V30 4778 H 447.054 4.98349 -2.8341 0
M  V30 4779 H 445.451 4.79869 -3.60341 0
M  V30 4780 H 446.521 3.39192 -3.46521 0
M  V30 4781 N 447.864 1.01787 1.20321 0
M  V30 4782 C 448.811 0.589197 2.23153 0
M  V30 4783 C 449.781 -0.391367 1.61423 0
M  V30 4784 O 450.966 -0.290518 1.88575 0
M  V30 4785 C 448.106 -0.0650747 3.45039 0
M  V30 4786 C 447.219 0.960207 4.21194 0
M  V30 4787 C 446.354 0.276854 5.30478 0
M  V30 4788 C 445.393 1.2888 5.98378 0
M  V30 4789 N 444.53 0.632031 6.99249 0
M  V30 4790 H 449.37 1.47071 2.59179 0
M  V30 4791 H 446.907 0.736192 1.27352 0
M  V30 4792 H 448.865 -0.461552 4.14639 0
M  V30 4793 H 447.495 -0.910233 3.09701 0
M  V30 4794 H 446.547 1.47484 3.50646 0
M  V30 4795 H 447.859 1.72977 4.67847 0
M  V30 4796 H 447.013 -0.175056 6.06447 0
M  V30 4797 H 445.752 -0.525004 4.84866 0
M  V30 4798 H 444.757 1.75109 5.21169 0
M  V30 4799 H 445.982 2.09196 6.46076 0
M  V30 4800 H 443.928 -0.149935 6.55829 0
M  V30 4801 H 443.845 1.33964 7.44036 0
M  V30 4802 H 445.113 0.203755 7.79234 0
M  V30 4803 N 449.342 -1.36122 0.79427 0
M  V30 4804 C 450.272 -2.32551 0.210328 0
M  V30 4805 C 451.253 -1.56884 -0.657386 0
M  V30 4806 O 452.438 -1.85014 -0.590207 0
M  V30 4807 C 449.568 -3.41128 -0.651819 0
M  V30 4808 C 448.522 -4.27842 0.116395 0
M  V30 4809 C 447.848 -5.2763 -0.86666 0
M  V30 4810 C 449.148 -5.05647 1.30837 0
M  V30 4811 H 450.842 -2.81636 1.01594 0
M  V30 4812 H 448.388 -1.35407 0.489981 0
M  V30 4813 H 450.341 -4.07581 -1.07031 0
M  V30 4814 H 449.065 -2.90622 -1.49019 0
M  V30 4815 H 447.724 -3.62952 0.515915 0
M  V30 4816 H 447.372 -4.73395 -1.70019 0
M  V30 4817 H 447.072 -5.86514 -0.35705 0
M  V30 4818 H 448.596 -5.96955 -1.28361 0
M  V30 4819 H 450.01 -5.65113 0.965393 0
M  V30 4820 H 448.407 -5.73967 1.75161 0
M  V30 4821 H 449.477 -4.37006 2.10128 0
M  V30 4822 N 450.82 -0.546701 -1.47814 0
M  V30 4823 C 452.097 0.0464413 -1.95545 0
M  V30 4824 C 452.477 1.4962 -1.48919 0
M  V30 4825 O 451.825 2.16752 -0.723232 0
M  V30 4826 C 452.035 -0.0881298 -3.48889 0
M  V30 4827 C 453.383 0.0626059 -4.24554 0
M  V30 4828 O 454.407 -0.0151555 -3.56197 0
M  V30 4829 O 453.266 0.228071 -5.46024 0
M  V30 4830 H 450.36 0.0700004 -0.824032 0
M  V30 4831 H 452.906 -0.612482 -1.58262 0
M  V30 4832 H 451.678 -1.09737 -3.75597 0
M  V30 4833 H 451.301 0.608886 -3.9291 0
M  V30 4834 N 452.299 1.55045 -0.282633 0
M  V30 4835 C 453.539 2.01668 0.333088 0
M  V30 4836 C 453.903 1.1667 1.52486 0
M  V30 4837 O 455.104 1.52907 2.21072 0
M  V30 4838 C 453.375 3.50509 0.698442 0
M  V30 4839 S 454.934 4.19112 1.29963 0
M  V30 4840 H 451.752 0.703468 0.103219 0
M  V30 4841 H 454.354 1.91233 -0.406222 0
M  V30 4842 H 453.058 4.10015 -0.177693 0
M  V30 4843 H 452.589 3.64943 1.46902 0
M  V30 4844 H 454.604 4.23362 2.58803 0
M  V30 4845 N 453.777 0.010035 1.57597 0
M  V30 4846 C 455.002 -0.687021 1.95691 0
M  V30 4847 C 455.427 -1.65952 0.885519 0
M  V30 4848 O 454.785 -1.80633 -0.15543 0
M  V30 4849 C 454.833 -1.3864 3.32884 0
M  V30 4850 O 453.937 -2.50115 3.27897 0
M  V30 4851 H 453.278 -0.181989 0.638573 0
M  V30 4852 H 455.808 0.0662122 2.04493 0
M  V30 4853 H 455.818 -1.74754 3.6868 0
M  V30 4854 H 454.493 -0.673411 4.10412 0
M  V30 4855 H 453.07 -2.16253 3.03791 0
M  V30 4856 N 455.255 -1.55392 -0.262866 0
M  V30 4857 C 456.202 -1.88966 -1.32516 0
M  V30 4858 C 457.172 -0.742187 -1.48596 0
M  V30 4859 O 458.357 -0.99439 -1.62839 0
M  V30 4860 C 455.497 -2.17592 -2.67858 0
M  V30 4861 C 454.61 -3.45061 -2.59917 0
M  V30 4862 C 453.745 -3.63336 -3.87505 0
M  V30 4863 C 452.784 -4.84462 -3.74116 0
M  V30 4864 N 451.921 -4.99342 -4.93561 0
M  V30 4865 H 456.761 -2.79566 -1.03184 0
M  V30 4866 H 454.298 -1.38404 -0.498285 0
M  V30 4867 H 456.256 -2.3219 -3.46617 0
M  V30 4868 H 454.886 -1.30215 -2.95371 0
M  V30 4869 H 453.938 -3.38881 -1.72812 0
M  V30 4870 H 455.25 -4.3396 -2.45926 0
M  V30 4871 H 454.404 -3.77807 -4.74707 0
M  V30 4872 H 453.143 -2.72641 -4.04374 0
M  V30 4873 H 452.148 -4.69985 -2.85297 0
M  V30 4874 H 453.373 -5.76603 -3.58757 0
M  V30 4875 H 451.319 -4.1158 -5.10821 0
M  V30 4876 H 451.236 -5.82303 -4.82141 0
M  V30 4877 H 452.504 -5.18208 -5.82306 0
M  V30 4878 N 456.733 0.527833 -1.48498 0
M  V30 4879 C 457.696 1.61439 -1.62696 0
M  V30 4880 C 458.696 1.52824 -0.500136 0
M  V30 4881 O 459.886 1.56456 -0.765976 0
M  V30 4882 C 457.018 3.01063 -1.59918 0
M  V30 4883 H 458.211 1.50189 -2.59583 0
M  V30 4884 H 455.764 0.750055 -1.37127 0
M  V30 4885 H 456.499 3.17818 -0.645163 0
M  V30 4886 H 456.284 3.08725 -2.41726 0
M  V30 4887 H 457.774 3.80057 -1.73051 0
M  V30 4888 N 458.211 1.37122 0.776871 0
M  V30 4889 C 459.159 1.32549 1.91138 0
M  V30 4890 C 460.153 0.215119 1.68029 0
M  V30 4891 O 461.359 0.382852 1.75881 0
M  V30 4892 H 457.734 0.412952 0.62847 0
M  V30 4893 H 459.705 2.28332 1.92112 0
M  V30 4894 C 458.454 1.14422 3.28333 0
M  V30 4895 H 457.777 1.99115 3.46689 0
M  V30 4896 H 459.217 1.15272 4.0803 0
M  V30 4897 C 457.676 -0.150434 3.36564 0
M  V30 4898 O 458.206 -1.13584 3.85307 0
M  V30 4899 N 456.412 -0.19939 2.89915 0
M  V30 4900 H 455.959 0.603142 2.5044 0
M  V30 4901 H 455.917 -1.06526 2.95803 0
M  V30 4902 N 459.689 -1.00246 1.21608 0
M  V30 4903 C 460.622 -2.08794 0.920892 0
M  V30 4904 C 461.6 -1.62059 -0.132552 0
M  V30 4905 O 462.784 -1.885 -0.0030366 0
M  V30 4906 C 459.911 -3.36525 0.383226 0
M  V30 4907 C 458.957 -4.02172 1.41987 0
M  V30 4908 S 459.79 -4.44256 2.98994 0
M  V30 4909 C 460.946 -5.7517 2.4684 0
M  V30 4910 H 461.179 -2.33511 1.8401 0
M  V30 4911 H 458.712 -1.13562 1.04609 0
M  V30 4912 H 460.67 -4.10423 0.0795871 0
M  V30 4913 H 459.331 -3.09854 -0.514711 0
M  V30 4914 H 458.524 -4.94114 0.993335 0
M  V30 4915 H 458.126 -3.34559 1.67171 0
M  V30 4916 H 460.418 -6.51042 1.87484 0
M  V30 4917 H 461.361 -6.22638 3.37235 0
M  V30 4918 H 461.769 -5.32112 1.88461 0
M  V30 4919 N 461.167 -1.02423 -1.1978 0
M  V30 4920 C 462.099 -0.559152 -2.22275 0
M  V30 4921 C 463.112 0.36251 -1.58713 0
M  V30 4922 O 464.301 0.159641 -1.77785 0
M  V30 4923 C 461.401 0.205094 -3.38279 0
M  V30 4924 C 460.574 -0.720361 -4.31427 0
M  V30 4925 C 459.633 -0.00234368 -5.262 0
M  V30 4926 O 458.659 -0.627378 -5.65732 0
M  V30 4927 N 459.861 1.26996 -5.66438 0
M  V30 4928 H 462.626 -1.44064 -2.62804 0
M  V30 4929 H 460.187 -0.902692 -1.34399 0
M  V30 4930 H 462.179 0.694868 -3.9869 0
M  V30 4931 H 460.749 0.987947 -2.96578 0
M  V30 4932 H 459.969 -1.39031 -3.68869 0
M  V30 4933 H 461.257 -1.3495 -4.90577 0
M  V30 4934 H 460.655 1.79858 -5.36347 0
M  V30 4935 H 459.212 1.70432 -6.29123 0
M  V30 4936 N 462.645 1.35699 -0.801477 0
M  V30 4937 C 463.575 2.32436 -0.222658 0
M  V30 4938 C 464.556 1.5723 0.649057 0
M  V30 4939 O 465.741 1.85324 0.580387 0
M  V30 4940 C 462.871 3.41469 0.633719 0
M  V30 4941 C 461.825 4.27774 -0.139083 0
M  V30 4942 C 461.151 5.28082 0.838666 0
M  V30 4943 C 462.451 5.04946 -1.33517 0
M  V30 4944 H 464.145 2.81094 -1.03086 0
M  V30 4945 H 461.691 1.35146 -0.497155 0
M  V30 4946 H 463.644 4.08143 1.04868 0
M  V30 4947 H 462.368 2.91408 1.47475 0
M  V30 4948 H 461.027 3.62673 -0.535156 0
M  V30 4949 H 460.675 4.7429 1.67506 0
M  V30 4950 H 460.375 5.86695 0.32594 0
M  V30 4951 H 461.899 5.97628 1.25194 0
M  V30 4952 H 463.313 5.64593 -0.995349 0
M  V30 4953 H 461.71 5.7303 -1.78202 0
M  V30 4954 H 462.78 4.35886 -2.12442 0
M  V30 4955 N 464.123 0.554532 1.47522 0
M  V30 4956 C 465.371 0.0294208 2.02079 0
M  V30 4957 C 465.692 -1.32411 1.43151 0
M  V30 4958 O 464.962 -1.863 0.605728 0
M  V30 4959 H 463.542 0.00788672 0.746958 0
M  V30 4960 H 466.204 0.723934 1.80956 0
M  V30 4961 H 465.3 -0.0606745 3.12041 0
M  V30 4962 N 465.601 -1.54893 0.290851 0
M  V30 4963 C 466.847 -2.00949 -0.314784 0
M  V30 4964 C 467.202 -1.1757 -1.52299 0
M  V30 4965 O 466.495 -0.241558 -1.90071 0
M  V30 4966 C 466.689 -3.49815 -0.732397 0
M  V30 4967 C 466.518 -4.47603 0.433799 0
M  V30 4968 C 465.288 -4.96806 0.922599 0
M  V30 4969 C 467.486 -4.98233 1.27546 0
M  V30 4970 N 465.468 -5.78426 2.05662 0
M  V30 4971 C 466.839 -5.77455 2.25712 0
M  V30 4972 C 468.894 -4.80439 1.307 0
M  V30 4973 C 467.597 -6.40778 3.26796 0
M  V30 4974 C 469.623 -5.44574 2.30637 0
M  V30 4975 C 468.985 -6.23619 3.27533 0
M  V30 4976 H 465.084 -0.777905 -0.0799257 0
M  V30 4977 H 467.668 -1.9015 0.418458 0
M  V30 4978 H 465.839 -3.60925 -1.43483 0
M  V30 4979 H 467.571 -3.82681 -1.31671 0
M  V30 4980 H 464.326 -4.70961 0.49926 0
M  V30 4981 H 464.75 -6.23923 2.62772 0
M  V30 4982 H 469.392 -4.18918 0.571622 0
M  V30 4983 H 467.11 -7.01439 4.01258 0
M  V30 4984 H 470.696 -5.32739 2.33838 0
M  V30 4985 H 469.576 -6.72367 4.03599 0
M  V30 4986 N 467.08 -0.0183926 -1.57589 0
M  V30 4987 C 468.03 0.975944 -2.06057 0
M  V30 4988 C 469.014 1.29204 -0.958908 0
M  V30 4989 O 470.206 1.27995 -1.22255 0
M  V30 4990 C 467.335 2.26194 -2.58247 0
M  V30 4991 C 466.421 1.97467 -3.75323 0
M  V30 4992 N 466.812 1.38968 -4.86335 0
M  V30 4993 C 465.11 2.27515 -3.83605 0
M  V30 4994 C 465.811 1.27131 -5.67638 0
M  V30 4995 N 464.787 1.76319 -5.14211 0
M  V30 4996 H 468.589 0.518444 -2.89291 0
M  V30 4997 H 466.103 0.18688 -1.61321 0
M  V30 4998 H 468.1 2.98289 -2.91255 0
M  V30 4999 H 466.76 2.7258 -1.76438 0
M  V30 5000 H 467.771 1.06608 -5.06809 0
M  V30 5001 H 464.448 2.76649 -3.12684 0
M  V30 5002 H 465.838 0.819882 -6.66879 0
M  V30 5003 N 468.558 1.5553 0.254621 0
M  V30 5004 C 469.969 1.67518 0.824286 0
M  V30 5005 C 470.32 0.614429 1.86331 0
M  V30 5006 O 469.445 -0.240736 2.15057 0
M  V30 5007 C 470.04 3.03692 1.50189 0
M  V30 5008 C 468.599 3.17646 2.01935 0
M  V30 5009 C 467.746 2.63373 0.867746 0
M  V30 5010 H 470.697 1.58671 0.0305843 0
M  V30 5011 H 470.718 2.97706 2.36962 0
M  V30 5012 H 470.23 3.80874 0.745431 0
M  V30 5013 H 468.331 2.45273 2.80485 0
M  V30 5014 H 468.444 4.24455 2.22204 0
M  V30 5015 H 466.808 2.20999 1.26616 0
M  V30 5016 H 467.591 3.43074 0.124498 0
M  V30 5017 N 470.036 -0.519951 1.48776 0
M  V30 5018 C 471.452 -0.849418 1.35119 0
M  V30 5019 C 471.652 -1.98077 0.36982 0
M  V30 5020 O 470.708 -2.51664 -0.205359 0
M  V30 5021 C 472.021 -1.20748 2.75391 0
M  V30 5022 C 473.569 -1.31679 2.83954 0
M  V30 5023 C 474.044 -1.70824 4.24951 0
M  V30 5024 N 475.535 -1.77908 4.27672 0
M  V30 5025 C 476.27 -2.09603 5.33717 0
M  V30 5026 N 475.766 -2.39652 6.5003 0
M  V30 5027 N 477.559 -2.10694 5.21119 0
M  V30 5028 H 469.71 0.226377 2.1119 0
M  V30 5029 H 471.973 0.0386519 0.947212 0
M  V30 5030 H 471.679 -0.449703 3.48813 0
M  V30 5031 H 471.553 -2.15534 3.09556 0
M  V30 5032 H 473.94 -2.06532 2.10781 0
M  V30 5033 H 474.021 -0.3499 2.53396 0
M  V30 5034 H 473.665 -0.965282 4.98643 0
M  V30 5035 H 473.595 -2.6858 4.52959 0
M  V30 5036 H 476.086 -1.56923 3.43779 0
M  V30 5037 H 476.399 -2.6297 7.26682 0
M  V30 5038 H 474.744 -2.37149 6.53288 0
M  V30 5039 H 477.935 -1.86682 4.29264 0
M  V30 5040 H 478.108 -2.35062 6.03863 0
M  V30 5041 N 471.514 -1.37532 -0.769588 0
M  V30 5042 C 472.76 -1.34063 -1.52966 0
M  V30 5043 C 473.115 0.0737942 -1.92258 0
M  V30 5044 O 472.408 1.03291 -1.61374 0
M  V30 5045 C 472.602 -2.21558 -2.8044 0
M  V30 5046 C 472.431 -3.71367 -2.53608 0
M  V30 5047 C 471.201 -4.40464 -2.47628 0
M  V30 5048 C 473.399 -4.64177 -2.21459 0
M  V30 5049 N 471.381 -5.758 -2.12902 0
M  V30 5050 C 472.752 -5.87907 -1.9689 0
M  V30 5051 C 474.807 -4.52541 -2.07633 0
M  V30 5052 C 473.51 -7.01304 -1.59892 0
M  V30 5053 C 475.536 -5.65825 -1.72034 0
M  V30 5054 C 474.898 -6.88606 -1.48327 0
M  V30 5055 H 470.997 -0.545856 -0.559969 0
M  V30 5056 H 473.581 -1.72773 -0.897634 0
M  V30 5057 H 471.752 -1.85061 -3.41478 0
M  V30 5058 H 473.484 -2.09332 -3.46356 0
M  V30 5059 H 470.239 -3.93491 -2.63556 0
M  V30 5060 H 470.663 -6.47328 -1.9823 0
M  V30 5061 H 475.305 -3.58183 -2.24643 0
M  V30 5062 H 473.023 -7.95594 -1.4162 0
M  V30 5063 H 476.609 -5.58793 -1.61991 0
M  V30 5064 H 475.489 -7.74779 -1.21189 0
M  V30 5065 N 472.992 0.995999 -1.22138 0
M  V30 5066 C 474.24 1.73167 -1.042 0
M  V30 5067 C 474.561 1.90329 0.42423 0
M  V30 5068 O 473.831 1.4607 1.30539 0
M  V30 5069 H 472.411 0.641593 -0.38258 0
M  V30 5070 H 475.073 1.19974 -1.53598 0
M  V30 5071 H 474.169 2.72734 -1.51731 0
M  V30 5072 N 474.47 1.03057 1.19235 0
M  V30 5073 C 475.4 0.633497 2.24742 0
M  V30 5074 C 476.381 -0.358335 1.66283 0
M  V30 5075 O 477.566 -0.240676 1.92703 0
M  V30 5076 C 474.696 -0.0147648 3.47297 0
M  V30 5077 C 473.65 0.899527 4.18441 0
M  V30 5078 C 472.976 0.116281 5.34574 0
M  V30 5079 C 474.276 2.21404 4.73051 0
M  V30 5080 H 475.97 1.5155 2.58211 0
M  V30 5081 H 473.516 0.73014 1.24117 0
M  V30 5082 H 475.469 -0.304202 4.20301 0
M  V30 5083 H 474.193 -0.931577 3.13032 0
M  V30 5084 H 472.852 1.17319 3.47321 0
M  V30 5085 H 472.5 -0.802619 4.96555 0
M  V30 5086 H 472.2 0.725293 5.83107 0
M  V30 5087 H 473.724 -0.166376 6.10373 0
M  V30 5088 H 475.138 1.98601 5.37802 0
M  V30 5089 H 473.535 2.77512 5.32078 0
M  V30 5090 H 474.605 2.86752 3.91026 0
M  V30 5091 N 475.948 -1.35272 0.808662 0
M  V30 5092 C 477.176 -2.02946 0.402537 0
M  V30 5093 C 477.591 -1.60937 -0.987147 0
M  V30 5094 O 476.948 -0.807917 -1.63643 0
M  V30 5095 C 476.999 -3.58317 0.47868 0
M  V30 5096 O 476.72 -3.98799 1.81358 0
M  V30 5097 C 478.221 -4.43251 0.0656281 0
M  V30 5098 H 475.441 -0.650831 0.163279 0
M  V30 5099 H 477.985 -1.72849 1.09286 0
M  V30 5100 H 476.14 -3.87055 -0.163415 0
M  V30 5101 H 476.554 -4.93451 1.77781 0
M  V30 5102 H 478.028 -5.51738 0.170017 0
M  V30 5103 H 478.505 -4.27913 -0.989278 0
M  V30 5104 H 479.111 -4.19813 0.68096 0
M  V30 5105 N 477.426 -0.562348 -1.47226 0
M  V30 5106 C 478.336 0.185466 -2.33866 0
M  V30 5107 C 479.352 0.906713 -1.48508 0
M  V30 5108 O 480.528 0.874458 -1.81425 0
M  V30 5109 C 477.593 1.19904 -3.25306 0
M  V30 5110 C 476.654 0.484669 -4.26555 0
M  V30 5111 C 475.887 1.44996 -5.13626 0
M  V30 5112 O 476.11 2.68515 -5.03245 0
M  V30 5113 O 475.044 0.971642 -5.94006 0
M  V30 5114 H 478.87 -0.525361 -2.99121 0
M  V30 5115 H 476.455 -0.322916 -1.45868 0
M  V30 5116 H 478.337 1.78399 -3.81774 0
M  V30 5117 H 477.012 1.8917 -2.62672 0
M  V30 5118 H 475.919 -0.141605 -3.73832 0
M  V30 5119 H 477.252 -0.166634 -4.91918 0
M  V30 5120 N 478.904 1.54736 -0.299062 0
M  V30 5121 C 480.132 2.04512 0.313447 0
M  V30 5122 C 480.547 1.17643 1.47667 0
M  V30 5123 O 479.904 0.20164 1.81383 0
M  V30 5124 C 479.955 3.53171 0.771542 0
M  V30 5125 O 479.676 4.36736 -0.345379 0
M  V30 5126 C 481.177 4.18936 1.4494 0
M  V30 5127 H 478.397 0.667507 0.0683784 0
M  V30 5128 H 480.941 1.99752 -0.438129 0
M  V30 5129 H 479.096 3.58298 1.47314 0
M  V30 5130 H 479.51 5.24499 0.0109219 0
M  V30 5131 H 480.984 5.24482 1.72111 0
M  V30 5132 H 481.461 3.68554 2.38883 0
M  V30 5133 H 482.067 4.17879 0.791028 0
M  V30 5134 N 480.382 0.0267497 1.57577 0
M  V30 5135 C 481.312 -0.954308 2.13108 0
M  V30 5136 C 482.293 -1.34088 1.04663 0
M  V30 5137 O 483.478 -1.41992 1.32484 0
M  V30 5138 C 480.608 -2.23744 2.65624 0
M  V30 5139 C 479.562 -1.99168 3.78835 0
M  V30 5140 C 478.888 -3.33726 4.17769 0
M  V30 5141 C 480.188 -1.33277 5.0501 0
M  V30 5142 H 481.882 -0.491848 2.95332 0
M  V30 5143 H 479.428 -0.23514 1.42067 0
M  V30 5144 H 481.381 -2.92754 3.03106 0
M  V30 5145 H 480.105 -2.72151 1.80558 0
M  V30 5146 H 478.764 -1.32577 3.41788 0
M  V30 5147 H 478.412 -3.79888 3.29688 0
M  V30 5148 H 478.112 -3.18089 4.94058 0
M  V30 5149 H 479.636 -4.04008 4.57832 0
M  V30 5150 H 481.05 -1.92283 5.40093 0
M  V30 5151 H 479.447 -1.28045 5.8628 0
M  V30 5152 H 480.517 -0.305411 4.83937 0
M  V30 5153 N 481.861 -1.55662 -0.24637 0
M  V30 5154 C 483.109 -1.77168 -0.972411 0
M  V30 5155 C 483.43 -0.590827 -1.85834 0
M  V30 5156 O 482.7 0.393365 -1.9191 0
M  V30 5157 H 481.28 -0.653405 -0.362038 0
M  V30 5158 H 483.942 -1.93101 -0.264189 0
M  V30 5159 H 483.038 -2.68335 -1.59382 0
M  V30 5160 N 483.339 0.512053 -1.4905 0
M  V30 5161 C 484.755 0.84224 -1.35567 0
M  V30 5162 C 484.955 1.97878 -0.380319 0
M  V30 5163 O 484.011 2.51769 0.19201 0
M  V30 5164 C 485.324 1.19286 -2.76028 0
M  V30 5165 C 486.872 1.30171 -2.84648 0
M  V30 5166 C 487.347 1.68568 -4.25851 0
M  V30 5167 N 488.838 1.75638 -4.28609 0
M  V30 5168 C 489.573 2.06769 -5.34821 0
M  V30 5169 N 489.069 2.36201 -6.51292 0
M  V30 5170 N 490.862 2.07927 -5.22229 0
M  V30 5171 H 483.013 -0.237574 -2.11067 0
M  V30 5172 H 485.276 -0.0436747 -0.946993 0
M  V30 5173 H 484.982 0.431199 -3.49047 0
M  V30 5174 H 484.856 2.13889 -3.10695 0
M  V30 5175 H 487.243 2.05411 -2.11873 0
M  V30 5176 H 487.324 0.336457 -2.53578 0
M  V30 5177 H 486.968 0.938824 -4.99148 0
M  V30 5178 H 486.898 2.66174 -4.54377 0
M  V30 5179 H 489.389 1.55097 -3.44606 0
M  V30 5180 H 489.702 2.59112 -7.28066 0
M  V30 5181 H 488.047 2.33681 -6.54536 0
M  V30 5182 H 491.238 1.84403 -4.30248 0
M  V30 5183 H 491.411 2.31856 -6.05101 0
M  V30 5184 N 484.817 1.37938 0.762283 0
M  V30 5185 C 486.066 1.32989 1.51647 0
M  V30 5186 C 486.379 -0.0802922 1.95435 0
M  V30 5187 O 487.585 -0.252295 2.70325 0
M  V30 5188 C 486.041 2.33485 2.73885 0
M  V30 5189 C 485.649 3.80079 2.37157 0
M  V30 5190 C 487.393 2.37563 3.51801 0
M  V30 5191 C 485.3 4.72283 3.55954 0
M  V30 5192 H 484.23 0.494301 0.56937 0
M  V30 5193 H 486.881 1.63448 0.834083 0
M  V30 5194 H 485.263 1.96056 3.44061 0
M  V30 5195 H 486.437 4.26398 1.74704 0
M  V30 5196 H 484.752 3.79037 1.72395 0
M  V30 5197 H 487.349 3.0365 4.40114 0
M  V30 5198 H 487.692 1.39199 3.92338 0
M  V30 5199 H 488.225 2.73747 2.8863 0
M  V30 5200 H 484.964 5.7181 3.2049 0
M  V30 5201 H 484.484 4.30663 4.1748 0
M  V30 5202 H 486.163 4.89876 4.22647 0
M  V30 5203 N 486.295 -0.989507 1.22664 0
M  V30 5204 C 487.541 -1.7321 1.05481 0
M  V30 5205 C 487.874 -1.89852 -0.408635 0
M  V30 5206 O 487.149 -1.44416 -1.30285 0
M  V30 5207 C 487.432 -3.1357 1.77047 0
M  V30 5208 C 487.285 -3.04555 3.31008 0
M  V30 5209 C 488.604 -4.12812 1.5256 0
M  V30 5210 H 485.723 -0.628697 0.384589 0
M  V30 5211 H 488.365 -1.15258 1.51049 0
M  V30 5212 H 486.515 -3.63046 1.3831 0
M  V30 5213 H 488.187 -2.62674 3.7921 0
M  V30 5214 H 486.43 -2.41278 3.6051 0
M  V30 5215 H 487.101 -4.03894 3.76263 0
M  V30 5216 H 489.577 -3.72106 1.86215 0
M  V30 5217 H 488.453 -5.09132 2.05124 0
M  V30 5218 H 488.714 -4.39711 0.458936 0
M  V30 5219 N 487.773 -1.03688 -1.18687 0
M  V30 5220 C 488.72 -0.624624 -2.22187 0
M  V30 5221 C 489.69 0.365636 -1.62026 0
M  V30 5222 O 490.875 0.260481 -1.89014 0
M  V30 5223 C 488.015 0.0101738 -3.45099 0
M  V30 5224 C 487.128 -1.02709 -4.19613 0
M  V30 5225 C 486.263 -0.361213 -5.2997 0
M  V30 5226 C 485.302 -1.38384 -5.96252 0
M  V30 5227 N 484.439 -0.743196 -6.98155 0
M  V30 5228 H 489.279 -1.51176 -2.56807 0
M  V30 5229 H 486.816 -0.75636 -1.26165 0
M  V30 5230 H 488.774 0.395528 -4.15321 0
M  V30 5231 H 487.404 0.860848 -3.1111 0
M  V30 5232 H 486.456 -1.53043 -3.48256 0
M  V30 5233 H 487.768 -1.80398 -4.65036 0
M  V30 5234 H 486.922 0.0785537 -6.06649 0
M  V30 5235 H 485.661 0.447799 -4.8564 0
M  V30 5236 H 484.666 -1.83378 -5.18317 0
M  V30 5237 H 485.891 -2.19448 -6.42666 0
M  V30 5238 H 483.837 0.0455789 -6.55984 0
M  V30 5239 H 483.754 -1.45784 -7.41811 0
M  V30 5240 H 485.022 -0.327698 -7.78811 0
M  V30 5241 N 489.251 1.34841 -0.815825 0
M  V30 5242 C 490.497 1.99219 -0.410288 0
M  V30 5243 C 490.852 1.63532 1.01366 0
M  V30 5244 O 490.145 0.893093 1.69512 0
M  V30 5245 C 490.339 3.53273 -0.541541 0
M  V30 5246 C 490.168 4.03927 -1.9767 0
M  V30 5247 C 488.938 4.32852 -2.60706 0
M  V30 5248 C 491.136 4.21808 -2.9425 0
M  V30 5249 N 489.118 4.69494 -3.95536 0
M  V30 5250 C 490.489 4.6155 -4.13971 0
M  V30 5251 C 492.544 4.04038 -2.9096 0
M  V30 5252 C 491.247 4.85381 -5.30847 0
M  V30 5253 C 493.273 4.29031 -4.07046 0
M  V30 5254 C 492.635 4.69054 -5.25517 0
M  V30 5255 H 488.734 0.756494 -0.198094 0
M  V30 5256 H 491.318 1.63379 -1.05902 0
M  V30 5257 H 489.489 3.88323 0.0772544 0
M  V30 5258 H 491.221 4.04551 -0.109694 0
M  V30 5259 H 487.976 4.23503 -2.11995 0
M  V30 5260 H 488.4 4.92061 -4.64979 0
M  V30 5261 H 493.042 3.7223 -2.00512 0
M  V30 5262 H 490.76 5.16059 -6.21859 0
M  V30 5263 H 494.346 4.16826 -4.05891 0
M  V30 5264 H 493.226 4.88014 -6.1385 0
M  V30 5265 N 490.729 0.570148 1.46925 0
M  V30 5266 C 491.679 -0.190921 2.27199 0
M  V30 5267 C 492.663 -0.873457 1.35128 0
M  V30 5268 O 493.855 -0.769627 1.59392 0
M  V30 5269 C 490.984 -1.21204 3.21192 0
M  V30 5270 C 490.07 -0.532261 4.20747 0
M  V30 5271 N 490.461 0.405038 5.04176 0
M  V30 5272 C 488.759 -0.784582 4.39045 0
M  V30 5273 C 489.46 0.801149 5.76157 0
M  V30 5274 N 488.436 0.153082 5.43384 0
M  V30 5275 H 492.238 0.529535 2.8909 0
M  V30 5276 H 489.752 0.391019 1.57622 0
M  V30 5277 H 491.749 -1.77135 3.77398 0
M  V30 5278 H 490.409 -1.93345 2.6086 0
M  V30 5279 H 491.42 0.779903 5.11994 0
M  V30 5280 H 488.097 -1.49352 3.89872 0
M  V30 5281 H 489.487 1.57208 6.5325 0
M  V30 5282 N 492.207 -1.54576 0.307264 0
M  V30 5283 C 493.154 -2.23751 -0.56604 0
M  V30 5284 C 494.124 -1.22235 -1.12462 0
M  V30 5285 O 495.309 -1.50873 -1.16799 0
M  V30 5286 C 492.449 -2.98661 -1.72903 0
M  V30 5287 C 491.562 -4.14963 -1.20124 0
M  V30 5288 C 490.697 -4.77441 -2.3286 0
M  V30 5289 C 489.736 -5.85875 -1.77247 0
M  V30 5290 N 488.873 -6.42282 -2.8358 0
M  V30 5291 H 493.713 -2.97984 0.0304578 0
M  V30 5292 H 491.25 -1.47076 0.0268015 0
M  V30 5293 H 493.208 -3.40329 -2.41313 0
M  V30 5294 H 491.838 -2.26793 -2.29706 0
M  V30 5295 H 490.89 -3.78193 -0.409198 0
M  V30 5296 H 492.202 -4.93066 -0.754171 0
M  V30 5297 H 491.356 -5.21993 -3.09205 0
M  V30 5298 H 490.095 -3.98684 -2.80896 0
M  V30 5299 H 489.1 -5.40741 -0.993926 0
M  V30 5300 H 490.325 -6.6652 -1.30107 0
M  V30 5301 H 488.271 -5.66406 -3.30939 0
M  V30 5302 H 488.188 -7.1575 -2.43388 0
M  V30 5303 H 489.456 -6.91492 -3.59804 0
M  V30 5304 N 493.685 -0.035106 -1.57561 0
M  V30 5305 C 494.648 0.929819 -2.09492 0
M  V30 5306 C 495.648 1.25026 -1.01119 0
M  V30 5307 O 496.838 1.18961 -1.27255 0
M  V30 5308 C 493.97 2.24457 -2.56577 0
M  V30 5309 H 495.163 0.479935 -2.96035 0
M  V30 5310 H 492.716 0.213033 -1.54841 0
M  V30 5311 H 493.451 2.74061 -1.73382 0
M  V30 5312 H 493.236 2.02508 -3.35757 0
M  V30 5313 H 494.726 2.93607 -2.96959 0
M  V30 5314 N 495.163 1.55791 0.238111 0
M  V30 5315 C 496.409 1.79211 0.962035 0
M  V30 5316 C 496.764 0.605463 1.82625 0
M  V30 5317 O 496.057 -0.40104 1.87356 0
M  V30 5318 C 496.251 3.05869 1.84875 0
M  V30 5319 C 496.08 4.36739 1.07186 0
M  V30 5320 C 494.85 4.99346 0.773424 0
M  V30 5321 C 497.048 5.1237 0.445168 0
M  V30 5322 N 495.03 6.13894 -0.0266037 0
M  V30 5323 C 496.401 6.19613 -0.219023 0
M  V30 5324 C 498.456 4.96622 0.356522 0
M  V30 5325 C 497.159 7.1282 -0.963358 0
M  V30 5326 C 499.185 5.90214 -0.374304 0
M  V30 5327 C 498.547 6.96872 -1.0271 0
M  V30 5328 H 494.646 0.707627 0.332849 0
M  V30 5329 H 497.23 1.93284 0.234368 0
M  V30 5330 H 495.401 2.93108 2.54837 0
M  V30 5331 H 497.133 3.17547 2.5089 0
M  V30 5332 H 493.888 4.60948 1.08738 0
M  V30 5333 H 494.312 6.75727 -0.414968 0
M  V30 5334 H 498.954 4.14232 0.846878 0
M  V30 5335 H 496.672 7.94704 -1.46529 0
M  V30 5336 H 500.258 5.80106 -0.443678 0
M  V30 5337 H 499.138 7.68045 -1.58358 0
M  V30 5338 N 496.642 -0.504142 1.49319 0
M  V30 5339 C 497.891 -1.25507 1.57895 0
M  V30 5340 C 498.204 -1.93735 0.269433 0
M  V30 5341 O 499.41 -2.70492 0.233706 0
M  V30 5342 C 497.866 -2.27869 2.78574 0
M  V30 5343 C 497.474 -1.65594 4.16272 0
M  V30 5344 C 499.218 -3.0381 2.96479 0
M  V30 5345 C 497.125 -2.66048 5.28178 0
M  V30 5346 H 496.055 -0.47212 0.587894 0
M  V30 5347 H 498.706 -0.52931 1.757 0
M  V30 5348 H 497.088 -3.03594 2.54257 0
M  V30 5349 H 498.262 -0.958826 4.50714 0
M  V30 5350 H 496.577 -1.02055 4.037 0
M  V30 5351 H 499.174 -3.78925 3.77253 0
M  V30 5352 H 499.517 -3.61235 2.06918 0
M  V30 5353 H 500.05 -2.352 3.20821 0
M  V30 5354 H 496.789 -2.13408 6.19788 0
M  V30 5355 H 496.309 -3.34009 4.98195 0
M  V30 5356 H 497.988 -3.28536 5.57381 0
M  V30 5357 N 498.12 -1.38341 -0.754957 0
M  V30 5358 C 499.536 -1.19508 -1.05783 0
M  V30 5359 C 499.736 -0.0428005 -2.01455 0
M  V30 5360 O 498.792 0.611861 -2.44975 0
M  V30 5361 C 500.105 -2.52091 -1.63923 0
M  V30 5362 C 501.653 -2.58762 -1.76101 0
M  V30 5363 C 502.128 -3.91517 -2.37652 0
M  V30 5364 N 503.619 -3.93049 -2.45085 0
M  V30 5365 C 504.354 -4.9253 -2.93602 0
M  V30 5366 N 503.85 -6.02408 -3.42165 0
M  V30 5367 N 505.643 -4.79921 -2.92629 0
M  V30 5368 H 497.794 -2.1206 -0.120056 0
M  V30 5369 H 500.057 -0.94089 -0.11589 0
M  V30 5370 H 499.763 -3.36858 -1.01093 0
M  V30 5371 H 499.637 -2.70388 -2.63003 0
M  V30 5372 H 502.024 -1.74391 -2.38058 0
M  V30 5373 H 502.105 -2.44333 -0.757294 0
M  V30 5374 H 501.749 -4.76309 -1.76329 0
M  V30 5375 H 501.679 -4.03256 -3.38662 0
M  V30 5376 H 504.17 -3.13685 -2.10736 0
M  V30 5377 H 504.483 -6.74248 -3.77637 0
M  V30 5378 H 502.828 -6.0603 -3.40225 0
M  V30 5379 H 506.019 -3.93194 -2.54001 0
M  V30 5380 H 506.192 -5.57601 -3.30128 0
M  V30 5381 N 499.598 0.982988 -1.23187 0
M  V30 5382 C 500.846 1.72052 -1.06031 0
M  V30 5383 C 501.167 1.90769 0.404019 0
M  V30 5384 O 500.437 1.47446 1.28982 0
M  V30 5385 H 499.017 0.637499 -0.389363 0
M  V30 5386 H 501.679 1.18338 -1.54862 0
M  V30 5387 H 500.775 2.7111 -1.54615 0
M  V30 5388 N 501.076 1.04316 1.18135 0
M  V30 5389 C 501.986 0.646876 2.25505 0
M  V30 5390 C 503.002 -0.328008 1.7088 0
M  V30 5391 O 504.178 -0.182309 2.00573 0
M  V30 5392 C 501.243 0.0185664 3.46695 0
M  V30 5393 C 500.304 1.04277 4.16443 0
M  V30 5394 C 499.537 0.444352 5.31847 0
M  V30 5395 O 499.76 -0.748735 5.65465 0
M  V30 5396 O 498.694 1.17428 5.90334 0
M  V30 5397 H 502.52 1.54147 2.61672 0
M  V30 5398 H 500.105 0.814188 1.25265 0
M  V30 5399 H 501.987 -0.331068 4.20097 0
M  V30 5400 H 500.662 -0.849814 3.12346 0
M  V30 5401 H 499.569 1.44425 3.45098 0
M  V30 5402 H 500.902 1.882 4.54798 0
M  V30 5403 N 502.554 -1.34406 0.822964 0
M  V30 5404 C 503.831 -1.92733 0.333641 0
M  V30 5405 C 504.211 -1.75107 -1.17901 0
M  V30 5406 O 503.559 -1.12983 -1.98613 0
M  V30 5407 C 503.769 -3.40557 0.763023 0
M  V30 5408 C 505.117 -4.17709 0.761879 0
M  V30 5409 O 506.141 -3.49141 0.705606 0
M  V30 5410 O 505 -5.40082 0.835109 0
M  V30 5411 H 502.094 -0.821964 0.0911249 0
M  V30 5412 H 504.64 -1.4338 0.907757 0
M  V30 5413 H 503.412 -3.47187 1.8049 0
M  V30 5414 H 503.035 -3.97259 0.164605 0
M  V30 5415 N 504.032 -0.577932 -1.46621 0
M  V30 5416 C 504.965 0.206312 -2.27265 0
M  V30 5417 C 505.943 0.901306 -1.35334 0
M  V30 5418 O 507.127 0.916151 -1.64739 0
M  V30 5419 C 504.254 1.29563 -3.1294 0
M  V30 5420 C 503.3 0.706981 -4.206 0
M  V30 5421 S 504.133 -0.462459 -5.33499 0
M  V30 5422 C 505.289 0.628171 -6.2274 0
M  V30 5423 H 505.522 -0.477961 -2.93433 0
M  V30 5424 H 503.055 -0.364715 -1.50031 0
M  V30 5425 H 505.013 1.91935 -3.62865 0
M  V30 5426 H 503.674 1.95183 -2.46095 0
M  V30 5427 H 502.867 1.52565 -4.80354 0
M  V30 5428 H 502.469 0.159022 -3.73662 0
M  V30 5429 H 504.761 1.51506 -6.60342 0
M  V30 5430 H 505.704 0.0674961 -7.08068 0
M  V30 5431 H 506.112 0.930167 -5.56784 0
M  V30 5432 N 505.51 1.54411 -0.315457 0
M  V30 5433 C 506.44 2.27002 0.547039 0
M  V30 5434 C 507.421 1.27492 1.12605 0
M  V30 5435 O 508.606 1.5629 1.15269 0
M  V30 5436 C 505.736 3.02171 1.71201 0
M  V30 5437 C 504.69 4.0895 1.26268 0
M  V30 5438 C 504.016 4.71915 2.51396 0
M  V30 5439 C 505.316 5.20891 0.383419 0
M  V30 5440 H 507.01 2.99343 -0.0584517 0
M  V30 5441 H 504.556 1.4397 -0.0295527 0
M  V30 5442 H 506.509 3.51681 2.32161 0
M  V30 5443 H 505.233 2.27433 2.34397 0
M  V30 5444 H 503.892 3.60312 0.676062 0
M  V30 5445 H 503.54 3.93801 3.12937 0
M  V30 5446 H 503.24 5.44039 2.22026 0
M  V30 5447 H 504.764 5.24195 3.13133 0
M  V30 5448 H 506.178 5.66206 0.899082 0
M  V30 5449 H 504.575 5.99821 0.182857 0
M  V30 5450 H 505.645 4.81324 -0.587821 0
M  V30 5451 N 506.988 0.0434614 1.5754 0
M  V30 5452 C 508.237 -0.631454 1.91561 0
M  V30 5453 C 508.55 -1.72457 0.92292 0
M  V30 5454 O 509.756 -2.45712 1.15489 0
M  V30 5455 C 508.212 -1.17447 3.40197 0
M  V30 5456 C 507.82 -0.113867 4.47855 0
M  V30 5457 C 509.564 -1.82507 3.83264 0
M  V30 5458 C 507.471 -0.669326 5.876 0
M  V30 5459 H 506.401 -0.239629 0.714908 0
M  V30 5460 H 509.052 0.111097 1.83163 0
M  V30 5461 H 507.434 -1.96909 3.43574 0
M  V30 5462 H 508.608 0.659348 4.56058 0
M  V30 5463 H 506.923 0.438821 4.14081 0
M  V30 5464 H 509.52 -2.25047 4.85034 0
M  V30 5465 H 509.863 -2.67365 3.19095 0
M  V30 5466 H 510.396 -1.09712 3.82372 0
M  V30 5467 H 507.135 0.141449 6.55347 0
M  V30 5468 H 506.655 -1.4107 5.82974 0
M  V30 5469 H 508.334 -1.15463 6.36614 0
M  V30 5470 N 508.466 -1.55915 -0.229846 0
M  V30 5471 C 509.706 -1.80314 -0.962614 0
M  V30 5472 C 510.07 -0.61568 -1.81861 0
M  V30 5473 O 511.271 -0.738795 -2.58448 0
M  V30 5474 C 509.542 -3.0956 -1.78627 0
M  V30 5475 S 511.101 -3.55243 -2.57581 0
M  V30 5476 H 507.919 -0.633142 -0.323499 0
M  V30 5477 H 510.521 -1.94155 -0.228919 0
M  V30 5478 H 509.225 -3.94033 -1.14742 0
M  V30 5479 H 508.756 -2.98503 -2.56241 0
M  V30 5480 H 510.771 -3.17924 -3.80971 0
M  V30 5481 N 509.944 0.496216 -1.49584 0
M  V30 5482 C 511.169 1.27865 -1.63295 0
M  V30 5483 C 511.594 1.85592 -0.306156 0
M  V30 5484 O 510.952 1.66092 0.726851 0
M  V30 5485 C 511 2.38128 -2.7079 0
M  V30 5486 O 510.104 3.42108 -2.30296 0
M  V30 5487 H 509.445 0.377279 -0.546403 0
M  V30 5488 H 511.975 0.593497 -1.95803 0
M  V30 5489 H 511.985 2.8382 -2.93104 0
M  V30 5490 H 510.66 1.95479 -3.67098 0
M  V30 5491 H 509.237 3.02301 -2.18331 0
M  V30 5492 N 511.423 1.38739 0.74761 0
M  V30 5493 C 512.37 1.36449 1.86146 0
M  V30 5494 C 513.34 0.226098 1.64554 0
M  V30 5495 O 514.525 0.41926 1.86137 0
M  V30 5496 C 511.665 1.2013 3.23516 0
M  V30 5497 C 510.778 2.43407 3.56899 0
M  V30 5498 C 509.913 2.19773 4.83605 0
M  V30 5499 C 508.952 3.3879 5.09792 0
M  V30 5500 N 508.089 3.14553 6.27695 0
M  V30 5501 H 512.929 2.3167 1.87438 0
M  V30 5502 H 510.466 1.15094 0.916063 0
M  V30 5503 H 512.424 1.08683 4.02795 0
M  V30 5504 H 511.054 0.285453 3.21535 0
M  V30 5505 H 510.106 2.65504 2.72418 0
M  V30 5506 H 511.418 3.32094 3.72176 0
M  V30 5507 H 510.572 2.05496 5.70838 0
M  V30 5508 H 509.311 1.28461 4.70478 0
M  V30 5509 H 508.316 3.53579 4.21025 0
M  V30 5510 H 509.541 4.30986 5.24812 0
M  V30 5511 H 507.487 2.25893 6.1588 0
M  V30 5512 H 507.404 3.96791 6.435 0
M  V30 5513 H 508.672 3.03943 7.17801 0
M  V30 5514 N 512.901 -0.976442 1.23707 0
M  V30 5515 C 514.317 -1.24341 1.00058 0
M  V30 5516 C 514.517 -1.99315 -0.295932 0
M  V30 5517 O 513.573 -2.3123 -1.01435 0
M  V30 5518 C 514.886 -2.03909 2.21001 0
M  V30 5519 C 516.434 -2.17034 2.25534 0
M  V30 5520 C 516.909 -2.99994 3.46075 0
M  V30 5521 N 518.4 -3.07578 3.46338 0
M  V30 5522 C 519.135 -3.72104 4.36264 0
M  V30 5523 N 518.631 -4.3842 5.36432 0
M  V30 5524 N 520.424 -3.69029 4.23998 0
M  V30 5525 H 512.575 -0.47428 2.07037 0
M  V30 5526 H 514.838 -0.272167 0.908091 0
M  V30 5527 H 514.544 -1.56198 3.15111 0
M  V30 5528 H 514.418 -3.04654 2.22409 0
M  V30 5529 H 516.805 -2.63951 1.31961 0
M  V30 5530 H 516.886 -1.15664 2.28156 0
M  V30 5531 H 516.53 -2.53772 4.39957 0
M  V30 5532 H 516.46 -4.01541 3.40694 0
M  V30 5533 H 518.951 -2.60397 2.73865 0
M  V30 5534 H 519.264 -4.85447 6.013 0
M  V30 5535 H 517.609 -4.37116 5.40328 0
M  V30 5536 H 520.8 -3.16392 3.44984 0
M  V30 5537 H 520.973 -4.19034 4.94282 0
M  V30 5538 N 514.379 -1.04941 -1.1758 0
M  V30 5539 C 515.289 -0.658826 -2.25159 0
M  V30 5540 C 516.305 0.318941 -1.71052 0
M  V30 5541 O 517.481 0.171669 -2.00667 0
M  V30 5542 C 514.546 -0.0369522 -3.4668 0
M  V30 5543 C 513.607 -1.06484 -4.15884 0
M  V30 5544 C 512.84 -0.472551 -5.31604 0
M  V30 5545 O 513.063 0.718736 -5.65854 0
M  V30 5546 O 511.997 -1.20557 -5.89703 0
M  V30 5547 H 515.823 -1.55533 -2.60851 0
M  V30 5548 H 513.408 -0.820819 -1.24832 0
M  V30 5549 H 515.29 0.308784 -4.20267 0
M  V30 5550 H 513.965 0.833238 -3.12792 0
M  V30 5551 H 512.872 -1.46253 -3.44327 0
M  V30 5552 H 514.205 -1.9061 -4.53794 0
M  V30 5553 N 515.857 1.33968 -0.830081 0
M  V30 5554 C 517.106 1.97323 -0.417928 0
M  V30 5555 C 517.419 1.6652 1.02618 0
M  V30 5556 O 518.625 2.2342 1.54259 0
M  V30 5557 C 517.081 3.53099 -0.696359 0
M  V30 5558 C 516.689 3.92788 -2.15457 0
M  V30 5559 C 518.433 4.23049 -0.350724 0
M  V30 5560 C 516.34 5.41506 -2.37751 0
M  V30 5561 H 515.27 0.738409 -0.152541 0
M  V30 5562 H 517.921 1.52711 -1.01744 0
M  V30 5563 H 516.303 3.95991 -0.0265904 0
M  V30 5564 H 517.477 3.6098 -2.86408 0
M  V30 5565 H 515.792 3.35795 -2.46232 0
M  V30 5566 H 518.389 5.32403 -0.495036 0
M  V30 5567 H 518.732 4.10279 0.705476 0
M  V30 5568 H 519.265 3.85657 -0.975362 0
M  V30 5569 H 516.004 5.5927 -3.41903 0
M  V30 5570 H 515.524 5.74804 -1.7135 0
M  V30 5571 H 517.203 6.0828 -2.20465 0
M  V30 5572 N 517.335 0.585699 1.46312 0
M  V30 5573 C 518.56 0.0762461 2.0726 0
M  V30 5574 C 518.985 -1.22071 1.43109 0
M  V30 5575 O 518.343 -1.73804 0.515942 0
M  V30 5576 C 518.391 -0.0729404 3.60526 0
M  V30 5577 O 517.495 -1.1287 3.96654 0
M  V30 5578 H 516.836 0.0641558 0.660893 0
M  V30 5579 H 519.366 0.809492 1.87905 0
M  V30 5580 H 519.376 -0.278158 4.07051 0
M  V30 5581 H 518.051 0.874188 4.06609 0
M  V30 5582 H 516.628 -0.901703 3.61834 0
M  V30 5583 N 518.813 -1.54241 0.323641 0
M  V30 5584 C 520.09 -1.92741 -0.333181 0
M  V30 5585 C 520.47 -1.25326 -1.69872 0
M  V30 5586 O 519.818 -0.396991 -2.25025 0
M  V30 5587 C 520.028 -3.46399 -0.425322 0
M  V30 5588 C 521.376 -4.19029 -0.68557 0
M  V30 5589 O 522.4 -3.52555 -0.50824 0
M  V30 5590 O 521.259 -5.36751 -1.02767 0
M  V30 5591 H 518.353 -0.804811 -0.190286 0
M  V30 5592 H 520.899 -1.65542 0.373361 0
M  V30 5593 H 519.671 -3.87643 0.533737 0
M  V30 5594 H 519.294 -3.79704 -1.17944 0
M  V30 5595 N 520.291 -0.0518155 -1.57515 0
M  V30 5596 C 521.521 0.63048 -1.96745 0
M  V30 5597 C 521.929 1.64875 -0.928054 0
M  V30 5598 O 521.272 1.83449 0.0960678 0
M  V30 5599 C 521.334 1.37381 -3.32215 0
M  V30 5600 C 520.998 0.511298 -4.54131 0
M  V30 5601 C 521.995 -0.222884 -5.19422 0
M  V30 5602 C 519.68 0.442035 -5.00351 0
M  V30 5603 C 521.674 -1.01476 -6.2927 0
M  V30 5604 C 519.361 -0.35353 -6.10077 0
M  V30 5605 C 520.359 -1.08062 -6.74397 0
M  V30 5606 O 520.047 -1.8631 -7.82013 0
M  V30 5607 H 519.779 0.177126 -0.652382 0
M  V30 5608 H 522.333 -0.114726 -2.05079 0
M  V30 5609 H 520.563 2.16466 -3.20436 0
M  V30 5610 H 522.252 1.9464 -3.56188 0
M  V30 5611 H 523.018 -0.178846 -4.8467 0
M  V30 5612 H 518.897 0.997562 -4.50077 0
M  V30 5613 H 522.441 -1.58279 -6.79407 0
M  V30 5614 H 518.338 -0.399205 -6.44264 0
M  V30 5615 H 519.106 -1.78528 -7.98793 0
M  V30 5616 N 521.769 1.56035 0.221574 0
M  V30 5617 C 522.702 1.87427 1.30178 0
M  V30 5618 C 523.68 0.731658 1.45209 0
M  V30 5619 O 524.864 0.980016 1.61022 0
M  V30 5620 C 521.991 2.08127 2.67209 0
M  V30 5621 C 521.037 3.30813 2.69194 0
M  V30 5622 S 521.87 4.86738 2.23263 0
M  V30 5623 C 523.026 5.10474 3.62171 0
M  V30 5624 H 523.259 2.78756 1.03355 0
M  V30 5625 H 520.792 1.48469 0.423813 0
M  V30 5626 H 522.75 2.20736 3.46101 0
M  V30 5627 H 521.411 1.17595 2.91256 0
M  V30 5628 H 520.604 3.42341 3.6989 0
M  V30 5629 H 520.206 3.1706 1.98366 0
M  V30 5630 H 522.498 4.9937 4.5786 0
M  V30 5631 H 523.441 6.12359 3.55558 0
M  V30 5632 H 523.849 4.38208 3.55857 0
M  V30 5633 N 523.247 -0.488276 1.49845 0
M  V30 5634 C 524.472 -1.26997 1.63971 0
M  V30 5635 C 524.897 -1.85427 0.315994 0
M  V30 5636 O 524.255 -1.66475 -0.718032 0
M  V30 5637 C 524.303 -2.36689 2.72049 0
M  V30 5638 O 523.407 -3.40882 2.32107 0
M  V30 5639 H 522.748 -0.374376 0.548396 0
M  V30 5640 H 525.278 -0.583104 1.96115 0
M  V30 5641 H 525.288 -2.82262 2.94605 0
M  V30 5642 H 523.963 -1.93529 3.68129 0
M  V30 5643 H 522.54 -3.01139 2.19931 0
M  V30 5644 N 524.725 -1.39134 -0.740242 0
M  V30 5645 C 525.688 -1.37217 -1.83587 0
M  V30 5646 C 526.688 -0.270221 -1.58513 0
M  V30 5647 O 527.878 -0.527843 -1.6601 0
M  V30 5648 C 525.01 -1.13959 -3.21288 0
M  V30 5649 H 526.203 -2.34705 -1.86691 0
M  V30 5650 H 523.756 -1.24622 -0.94335 0
M  V30 5651 H 524.491 -0.17131 -3.23847 0
M  V30 5652 H 524.276 -1.93754 -3.40884 0
M  V30 5653 H 525.766 -1.15346 -4.01354 0
M  V30 5654 N 526.204 0.969867 -1.24223 0
M  V30 5655 C 527.432 1.74756 -1.10761 0
M  V30 5656 C 527.847 1.85713 0.340041 0
M  V30 5657 O 527.204 1.34389 1.23474 0
M  V30 5658 C 527.255 3.16915 -1.73917 0
M  V30 5659 O 526.976 3.06511 -3.13021 0
M  V30 5660 C 528.477 4.11032 -1.66036 0
M  V30 5661 H 525.697 0.548092 -0.387087 0
M  V30 5662 H 528.241 1.2178 -1.64286 0
M  V30 5663 H 526.396 3.66884 -1.244 0
M  V30 5664 H 526.81 3.96079 -3.43834 0
M  V30 5665 H 528.284 5.08446 -2.14911 0
M  V30 5666 H 528.761 4.34785 -0.621159 0
M  V30 5667 H 529.367 3.66972 -2.14969 0
M  V30 5668 N 527.682 1.05563 1.17022 0
M  V30 5669 C 528.91 0.78845 1.91288 0
M  V30 5670 C 529.325 -0.656318 1.77025 0
M  V30 5671 O 528.682 -1.44869 1.10992 0
M  V30 5672 C 528.733 1.16444 3.42232 0
M  V30 5673 O 528.454 2.5525 3.5606 0
M  V30 5674 C 529.955 0.923937 4.33565 0
M  V30 5675 H 527.175 0.286389 0.606813 0
M  V30 5676 H 529.719 1.4073 1.48375 0
M  V30 5677 H 527.874 0.590266 3.82877 0
M  V30 5678 H 528.288 2.70097 4.49609 0
M  V30 5679 H 529.762 1.23672 5.37968 0
M  V30 5680 H 530.239 -0.140688 4.38975 0
M  V30 5681 H 530.845 1.48214 3.98639 0
M  V30 5682 N 529.16 -1.33526 0.837174 0
M  V30 5683 C 530.576 -1.50727 0.524743 0
M  V30 5684 C 530.776 -1.77792 -0.948279 0
M  V30 5685 O 529.832 -1.83719 -1.73216 0
M  V30 5686 C 531.145 -2.66299 1.39661 0
M  V30 5687 C 532.693 -2.80183 1.39521 0
M  V30 5688 C 533.168 -3.98815 2.25189 0
M  V30 5689 N 534.659 -4.06047 2.2289 0
M  V30 5690 C 535.394 -4.97032 2.85915 0
M  V30 5691 N 534.89 -5.93143 3.57985 0
M  V30 5692 N 536.683 -4.90015 2.75394 0
M  V30 5693 H 528.834 -1.1422 1.79074 0
M  V30 5694 H 531.097 -0.561399 0.763894 0
M  V30 5695 H 530.803 -2.52974 2.4433 0
M  V30 5696 H 530.677 -3.61663 1.07145 0
M  V30 5697 H 533.064 -2.92942 0.356253 0
M  V30 5698 H 533.145 -1.85586 1.76044 0
M  V30 5699 H 532.789 -3.86817 3.29143 0
M  V30 5700 H 532.719 -4.92654 1.86009 0
M  V30 5701 H 535.21 -3.37262 1.70478 0
M  V30 5702 H 535.523 -6.59227 4.03286 0
M  V30 5703 H 533.868 -5.93223 3.62093 0
M  V30 5704 H 537.059 -4.13894 2.18654 0
M  V30 5705 H 537.232 -5.60724 3.24796 0
M  V30 5706 O 530.677 -0.734023 -1.43855 0
M  V30 5707 H 531.368 -0.285275 -1.91588 0
M  V30 END ATOM
M  V30 BEGIN BOND
M  V30 END BOND
M  V30 END CTAB
M  END
$$$$
