drugbank_target|P26392 dTDP-4-dehydrorhamnose reductase (DB03723)
 OpenBabel12092120023D

  0  0  0     0  0            999 V3000
M  V30 BEGIN CTAB
M  V30 COUNTS 4585 4636 0 0 0
M  V30 BEGIN ATOM
M  V30 1 H -0.908 1.98254 -0.117106 0
M  V30 2 N 0 1.576 0 0
M  V30 3 C 0.933 2.03868 1.02534 0
M  V30 4 C 1.911 0.928543 1.3348 0
M  V30 5 O 3.095 1.19667 1.45644 0
M  V30 6 C 0.222 2.43627 2.35294 0
M  V30 7 C -0.732 3.65373 2.2001 0
M  V30 8 S 0.101 5.13292 1.52614 0
M  V30 9 C 1.257 5.56322 2.86805 0
M  V30 10 H 1.49 2.90518 0.631377 0
M  V30 11 H -0.977 1.52953 0.210867 0
M  V30 12 H 0.981 2.67203 3.11629 0
M  V30 13 H -0.358 1.57376 2.7183 0
M  V30 14 H -1.165 3.90944 3.18086 0
M  V30 15 H -1.563 3.418 1.51819 0
M  V30 16 H 0.729 5.58782 3.83104 0
M  V30 17 H 1.672 6.56266 2.65933 0
M  V30 18 H 2.08 4.83886 2.90714 0
M  V30 19 N 1.4781 -0.272755 1.55222 0
M  V30 20 C 2.4261 -1.35705 1.88909 0
M  V30 21 C 3.4201 -1.5112 0.765456 0
M  V30 22 O 4.6261 -1.52901 0.949802 0
M  V30 23 H 1.0011 -0.453868 0.59959 0
M  V30 24 H 2.9721 -1.04544 2.79487 0
M  V30 25 C 1.7211 -2.71049 2.17779 0
M  V30 26 H 1.0441 -2.59979 3.03728 0
M  V30 27 H 2.4841 -3.45858 2.45272 0
M  V30 28 C 0.9431 -3.22165 0.985473 0
M  V30 29 O 1.4731 -4.01096 0.220233 0
M  V30 30 N -0.3209 -2.7985 0.783108 0
M  V30 31 H -0.7739 -2.15775 1.40708 0
M  V30 32 H -0.8159 -3.14397 -0.0130392 0
M  V30 33 N 2.9562 -1.48159 -0.537278 0
M  V30 34 C 4.2052 -1.5506 -1.28993 0
M  V30 35 C 4.5182 -0.226211 -1.94288 0
M  V30 36 O 5.7242 -0.173395 -2.70946 0
M  V30 37 C 4.1802 -2.73429 -2.34018 0
M  V30 38 C 3.7882 -4.1248 -1.74825 0
M  V30 39 C 5.5322 -2.89638 -3.10339 0
M  V30 40 C 3.4392 -5.22121 -2.77747 0
M  V30 41 H 2.3692 -0.577231 -0.485098 0
M  V30 42 H 5.0202 -1.74478 -0.568317 0
M  V30 43 H 3.4022 -2.47431 -3.09182 0
M  V30 44 H 4.5762 -4.48466 -1.05899 0
M  V30 45 H 2.8912 -4.01327 -1.11022 0
M  V30 46 H 5.4882 -3.68718 -3.87235 0
M  V30 47 H 5.8312 -1.9882 -3.65754 0
M  V30 48 H 6.3642 -3.15502 -2.42288 0
M  V30 49 H 3.1032 -6.1488 -2.27161 0
M  V30 50 H 2.6232 -4.90631 -3.45024 0
M  V30 51 H 4.3022 -5.49924 -3.4087 0
M  V30 52 N 4.4343 0.785586 -1.36625 0
M  V30 53 C 5.3643 1.91259 -1.33949 0
M  V30 54 C 6.3453 1.68795 -0.210325 0
M  V30 55 O 7.5303 1.89854 -0.408561 0
M  V30 56 C 4.6603 3.28339 -1.13186 0
M  V30 57 C 3.6143 3.65335 -2.22967 0
M  V30 58 C 2.9403 5.00806 -1.87342 0
M  V30 59 C 4.2403 3.7352 -3.65075 0
M  V30 60 H 5.9343 1.93755 -2.28253 0
M  V30 61 H 3.4803 0.930788 -1.09874 0
M  V30 62 H 5.4333 4.06804 -1.09948 0
M  V30 63 H 4.1573 3.2624 -0.153332 0
M  V30 64 H 2.8163 2.89169 -2.25337 0
M  V30 65 H 2.4643 4.95233 -0.880545 0
M  V30 66 H 2.1643 5.26529 -2.60846 0
M  V30 67 H 3.6883 5.81687 -1.85667 0
M  V30 68 H 5.1023 4.42168 -3.64911 0
M  V30 69 H 3.4993 4.10731 -4.37516 0
M  V30 70 H 4.5693 2.74527 -3.99703 0
M  V30 71 N 5.9124 1.20967 1.01018 0
M  V30 72 C 6.8424 0.988272 2.11555 0
M  V30 73 C 7.8234 -0.0849778 1.69888 0
M  V30 74 O 9.0084 0.0738202 1.9406 0
M  V30 75 C 6.1384 0.546528 3.42973 0
M  V30 76 C 5.0924 1.56375 3.9841 0
M  V30 77 C 4.4184 0.97842 5.25672 0
M  V30 78 C 5.7184 2.94922 4.31066 0
M  V30 79 H 7.4124 1.91276 2.30334 0
M  V30 80 H 4.9584 0.921073 1.1069 0
M  V30 81 H 6.9114 0.378839 4.19694 0
M  V30 82 H 5.6354 -0.413598 3.23971 0
M  V30 83 H 4.2944 1.71891 3.23804 0
M  V30 84 H 3.9424 0.0101688 5.02999 0
M  V30 85 H 3.6424 1.65784 5.63728 0
M  V30 86 H 5.1664 0.821939 6.05043 0
M  V30 87 H 6.5804 2.8288 4.9865 0
M  V30 88 H 4.9774 3.5983 4.80253 0
M  V30 89 H 6.0474 3.4616 3.39561 0
M  V30 90 N 7.3905 -1.2043 1.01659 0
M  V30 91 C 8.6375 -1.89797 0.705917 0
M  V30 92 C 8.9655 -1.78848 -0.764439 0
M  V30 93 O 8.2205 -1.16694 -1.57102 0
M  V30 94 C 8.5195 -3.40464 1.08714 0
M  V30 95 C 8.1855 -3.71614 2.5537 0
M  V30 96 C 6.8475 -3.79826 2.95441 0
M  V30 97 C 9.1995 -3.85915 3.50313 0
M  V30 98 C 6.5275 -3.99797 4.29394 0
M  V30 99 C 8.8795 -4.07396 4.83954 0
M  V30 100 C 7.5435 -4.13837 5.23732 0
M  V30 101 H 6.8135 -0.694518 0.258313 0
M  V30 102 H 9.4605 -1.42691 1.27717 0
M  V30 103 H 7.7655 -3.89385 0.434309 0
M  V30 104 H 9.4625 -3.92433 0.824461 0
M  V30 105 H 6.0525 -3.65822 2.23321 0
M  V30 106 H 10.2365 -3.78926 3.20513 0
M  V30 107 H 5.4925 -4.03018 4.59768 0
M  V30 108 H 9.6665 -4.17404 5.57447 0
M  V30 109 H 7.2935 -4.29064 6.27541 0
M  V30 110 N 8.8686 -0.792821 -1.36206 0
M  V30 111 C 10.1166 -0.366062 -1.98757 0
M  V30 112 C 10.4376 1.0668 -1.63231 0
M  V30 113 O 9.7076 1.73587 -0.907978 0
M  V30 114 H 8.2876 -0.132364 -0.735179 0
M  V30 115 H 10.9496 -1.01562 -1.66347 0
M  V30 116 H 10.0456 -0.460638 -3.08682 0
M  V30 117 N 10.3467 1.47872 -0.545128 0
M  V30 118 C 11.2937 2.29849 0.2093 0
M  V30 119 C 12.2637 1.38313 0.919707 0
M  V30 120 O 13.4487 1.67277 0.917772 0
M  V30 121 C 10.5887 3.22019 1.24088 0
M  V30 122 C 9.7017 4.2864 0.537778 0
M  V30 123 C 8.8367 5.07973 1.5536 0
M  V30 124 C 7.8757 6.06381 0.8348 0
M  V30 125 N 7.0127 6.78717 1.79688 0
M  V30 126 H 11.8527 2.93845 -0.49591 0
M  V30 127 H 9.3897 1.44848 -0.256389 0
M  V30 128 H 11.3477 3.73868 1.85144 0
M  V30 129 H 9.9777 2.59914 1.91428 0
M  V30 130 H 9.0297 3.7994 -0.187046 0
M  V30 131 H 10.3417 4.98793 -0.0258907 0
M  V30 132 H 9.4957 5.63912 2.23803 0
M  V30 133 H 8.2347 4.37693 2.15118 0
M  V30 134 H 7.2397 5.49631 0.136388 0
M  V30 135 H 8.4647 6.78665 0.24313 0
M  V30 136 H 6.4107 6.11177 2.38326 0
M  V30 137 H 6.3277 7.44998 1.28505 0
M  V30 138 H 7.5957 7.39237 2.47282 0
M  V30 139 N 11.8248 0.280983 1.55075 0
M  V30 140 C 13.0528 -0.337293 2.04132 0
M  V30 141 C 13.4678 -1.4903 1.15912 0
M  V30 142 O 12.8248 -1.81606 0.180459 0
M  V30 143 C 12.8758 -0.812706 3.52246 0
M  V30 144 O 12.5968 0.294387 4.3711 0
M  V30 145 C 14.0978 -1.4982 4.17216 0
M  V30 146 H 11.3178 -0.0761638 0.666663 0
M  V30 147 H 13.8618 0.414787 2.00249 0
M  V30 148 H 12.0168 -1.51486 3.56554 0
M  V30 149 H 12.4308 -0.0721325 5.2445 0
M  V30 150 H 13.9048 -1.7822 5.22438 0
M  V30 151 H 14.3818 -2.43168 3.65741 0
M  V30 152 H 14.9878 -0.839742 4.16927 0
M  V30 153 N 13.3029 -1.57598 0.00835791 0
M  V30 154 C 14.5509 -1.90551 -0.6734 0
M  V30 155 C 14.8719 -0.883301 -1.73847 0
M  V30 156 O 14.1419 0.0781442 -1.95744 0
M  V30 157 H 12.7219 -0.703312 -0.251717 0
M  V30 158 H 15.3839 -1.94833 0.0512592 0
M  V30 159 H 14.4799 -2.9056 -1.13935 0
M  V30 160 N 14.781 0.264519 -1.55364 0
M  V30 161 C 15.713 1.34965 -1.85248 0
M  V30 162 C 16.726 1.45136 -0.737525 0
M  V30 163 O 17.915 1.46801 -1.01547 0
M  V30 164 C 15.015 2.73008 -2.00797 0
M  V30 165 C 14.188 2.85324 -3.31525 0
M  V30 166 C 13.247 4.04097 -3.37034 0
M  V30 167 O 12.273 3.94455 -4.10358 0
M  V30 168 N 13.475 5.16458 -2.65049 0
M  V30 169 H 16.24 1.09672 -2.78913 0
M  V30 170 H 13.801 0.454635 -1.55386 0
M  V30 171 H 15.793 3.50772 -2.01844 0
M  V30 172 H 14.363 2.91087 -1.1396 0
M  V30 173 H 13.583 1.94377 -3.42945 0
M  V30 174 H 14.871 2.9049 -4.17724 0
M  V30 175 H 14.269 5.27181 -2.05175 0
M  V30 176 H 12.826 5.92422 -2.71809 0
M  V30 177 N 16.2591 1.48442 0.529413 0
M  V30 178 C 17.5051 1.5672 1.28711 0
M  V30 179 C 17.8381 0.2406 1.92704 0
M  V30 180 O 17.1131 -0.753454 1.79313 0
M  V30 181 C 17.3961 2.70587 2.37603 0
M  V30 182 C 17.2491 4.12953 1.78297 0
M  V30 183 C 18.5681 2.80212 3.39366 0
M  V30 184 H 15.6871 0.570474 0.466613 0
M  V30 185 H 18.3291 1.80617 0.589706 0
M  V30 186 H 16.4791 2.50342 2.97088 0
M  V30 187 H 18.1511 4.44639 1.22858 0
M  V30 188 H 16.3941 4.19927 1.0883 0
M  V30 189 H 17.0651 4.88448 2.57144 0
M  V30 190 H 19.5411 2.98553 2.89836 0
M  V30 191 H 18.4171 3.61611 4.12951 0
M  V30 192 H 18.6781 1.88393 3.99951 0
M  V30 193 N 17.7372 -0.778329 1.37039 0
M  V30 194 C 18.9852 -1.53361 1.31623 0
M  V30 195 C 19.3062 -1.94739 -0.100831 0
M  V30 196 O 18.5762 -1.65797 -1.04347 0
M  V30 197 H 17.1562 -0.568794 0.484234 0
M  V30 198 H 19.8182 -0.926742 1.71457 0
M  V30 199 H 18.9142 -2.43606 1.95096 0
M  V30 200 N 19.2153 -1.21501 -1.00376 0
M  V30 201 C 20.4613 -1.04457 -1.74529 0
M  V30 202 C 20.8163 0.417386 -1.87818 0
M  V30 203 O 20.1093 1.30556 -1.40234 0
M  V30 204 C 20.3033 -1.67673 -3.15627 0
M  V30 205 C 20.1323 -3.19865 -3.16096 0
M  V30 206 C 18.9023 -3.88915 -3.22604 0
M  V30 207 C 21.1003 -4.16936 -3.01112 0
M  V30 208 N 19.0823 -5.28284 -3.12712 0
M  V30 209 C 20.4533 -5.43066 -2.99131 0
M  V30 210 C 22.5083 -4.07968 -2.85423 0
M  V30 211 C 21.2113 -6.6126 -2.83068 0
M  V30 212 C 23.2373 -5.258 -2.70718 0
M  V30 213 C 22.5993 -6.50842 -2.69414 0
M  V30 214 H 18.6983 -0.436584 -0.648782 0
M  V30 215 H 21.2823 -1.53875 -1.19293 0
M  V30 216 H 19.4533 -1.20822 -3.6913 0
M  V30 217 H 21.1853 -1.43824 -3.78281 0
M  V30 218 H 17.9403 -3.39847 -3.2985 0
M  V30 219 H 18.3643 -6.01284 -3.11105 0
M  V30 220 H 23.0063 -3.1209 -2.85236 0
M  V30 221 H 20.7243 -7.57298 -2.82002 0
M  V30 222 H 24.3103 -5.20683 -2.59577 0
M  V30 223 H 23.1903 -7.40485 -2.5817 0
M  V30 224 N 20.6934 1.19889 -1.02296 0
M  V30 225 C 21.6034 2.26571 -0.608508 0
M  V30 226 C 22.6194 1.70299 0.356964 0
M  V30 227 O 23.7954 2.00235 0.216326 0
M  V30 228 C 20.8604 3.46677 0.0402814 0
M  V30 229 C 19.9214 4.18153 -0.97194 0
M  V30 230 C 19.1544 5.32525 -0.354016 0
M  V30 231 O 19.3774 5.64112 0.844604 0
M  V30 232 O 18.3114 5.92242 -1.07391 0
M  V30 233 H 22.1374 2.64251 -1.49684 0
M  V30 234 H 19.7224 1.26629 -0.792809 0
M  V30 235 H 21.6044 4.19475 0.402324 0
M  V30 236 H 20.2794 3.10858 0.902707 0
M  V30 237 H 19.1864 3.47499 -1.38546 0
M  V30 238 H 20.5194 4.57927 -1.80454 0
M  V30 239 N 22.1715 0.800033 1.35784 0
M  V30 240 C 23.1015 0.220184 2.3246 0
M  V30 241 C 24.0825 -0.65073 1.57161 0
M  V30 242 O 25.2675 -0.582359 1.85263 0
M  V30 243 C 22.3975 -0.637353 3.41402 0
M  V30 244 C 21.3515 0.134531 4.27789 0
M  V30 245 C 20.6775 -0.844285 5.27992 0
M  V30 246 C 21.9775 1.32979 5.05088 0
M  V30 247 H 23.6715 1.02787 2.81203 0
M  V30 248 H 21.2175 0.495717 1.35199 0
M  V30 249 H 23.1705 -1.05302 4.08031 0
M  V30 250 H 21.8945 -1.47785 2.91251 0
M  V30 251 H 20.5535 0.531296 3.6273 0
M  V30 252 H 20.2015 -1.68011 4.74111 0
M  V30 253 H 19.9015 -0.332184 5.8666 0
M  V30 254 H 21.4255 -1.2583 5.97494 0
M  V30 255 H 22.8395 0.98934 5.64699 0
M  V30 256 H 21.2365 1.77593 5.7322 0
M  V30 257 H 22.3065 2.11978 4.36111 0
M  V30 258 N 23.6496 -1.47581 0.552962 0
M  V30 259 C 24.5816 -2.27997 -0.234533 0
M  V30 260 C 25.5946 -1.36753 -0.883321 0
M  V30 261 O 26.7836 -1.61612 -0.757889 0
M  V30 262 C 23.8836 -3.10879 -1.34935 0
M  V30 263 C 23.0566 -4.30056 -0.798158 0
M  V30 264 C 22.1156 -4.94567 -1.79694 0
M  V30 265 O 21.1416 -5.53087 -1.34474 0
M  V30 266 N 22.3436 -4.88878 -3.13015 0
M  V30 267 H 25.1086 -2.96222 0.455255 0
M  V30 268 H 22.6696 -1.57163 0.388761 0
M  V30 269 H 24.6616 -3.50903 -2.01616 0
M  V30 270 H 23.2316 -2.44924 -1.94244 0
M  V30 271 H 22.4516 -3.94174 0.0453079 0
M  V30 272 H 23.7396 -5.07152 -0.409173 0
M  V30 273 H 23.1376 -4.42526 -3.52402 0
M  V30 274 H 21.6946 -5.32934 -3.75266 0
M  V30 275 N 25.1277 -0.289203 -1.54924 0
M  V30 276 C 26.5437 0.0645403 -1.59469 0
M  V30 277 C 26.7437 1.53419 -1.30632 0
M  V30 278 O 25.7997 2.2852 -1.074 0
M  V30 279 C 27.1127 -0.32278 -2.98963 0
M  V30 280 C 28.6607 -0.270564 -3.11828 0
M  V30 281 C 29.1357 -0.632532 -4.53611 0
M  V30 282 N 30.6267 -0.584617 -4.59496 0
M  V30 283 C 31.3617 -0.837314 -5.67254 0
M  V30 284 N 30.8577 -1.15536 -6.83098 0
M  V30 285 N 32.6507 -0.765166 -5.56868 0
M  V30 286 H 24.8017 -1.24714 -1.71931 0
M  V30 287 H 27.0647 -0.504809 -0.802416 0
M  V30 288 H 26.7707 -1.34541 -3.24948 0
M  V30 289 H 26.6447 0.32944 -3.75759 0
M  V30 290 H 29.0317 0.742805 -2.85598 0
M  V30 291 H 29.1127 -0.957242 -2.37214 0
M  V30 292 H 28.7567 -1.64365 -4.80569 0
M  V30 293 H 28.6867 0.07609 -5.26545 0
M  V30 294 H 31.1777 -0.349248 -3.76283 0
M  V30 295 H 31.4907 -1.33447 -7.61191 0
M  V30 296 H 29.8357 -1.19328 -6.84679 0
M  V30 297 H 33.0267 -0.516432 -4.65243 0
M  V30 298 H 33.1997 -0.965477 -6.40767 0
M  V30 299 N 26.6058 1.57591 -0.0167156 0
M  V30 300 C 27.8308 1.9598 0.67872 0
M  V30 301 C 28.2558 0.892546 1.65575 0
M  V30 302 O 27.6138 -0.147772 1.80697 0
M  V30 303 C 27.6618 3.33468 1.37227 0
M  V30 304 O 26.7658 3.28954 2.48722 0
M  V30 305 H 26.1068 0.639339 0.17928 0
M  V30 306 H 28.6368 2.04463 -0.0748802 0
M  V30 307 H 28.6468 3.69417 1.7319 0
M  V30 308 H 27.3218 4.10694 0.656007 0
M  V30 309 H 25.8988 3.04705 2.14963 0
M  V30 310 N 28.0839 -0.256276 1.55502 0
M  V30 311 C 29.0139 -1.32102 1.92539 0
M  V30 312 C 29.9949 -1.50684 0.789194 0
M  V30 313 O 31.1799 -1.63449 1.04872 0
M  V30 314 C 28.3099 -2.67752 2.21192 0
M  V30 315 C 27.2639 -2.63878 3.36975 0
M  V30 316 C 26.5899 -4.03236 3.51147 0
M  V30 317 C 27.8899 -2.21682 4.72921 0
M  V30 318 H 29.5839 -1.01351 2.81724 0
M  V30 319 H 27.1299 -0.486105 1.35547 0
M  V30 320 H 29.0829 -3.42365 2.45691 0
M  V30 321 H 27.8069 -3.0012 1.28824 0
M  V30 322 H 26.4659 -1.91722 3.12471 0
M  V30 323 H 26.1139 -4.32854 2.56216 0
M  V30 324 H 25.8139 -4.01535 4.29003 0
M  V30 325 H 27.3379 -4.79563 3.77957 0
M  V30 326 H 28.7519 -2.86023 4.96854 0
M  V30 327 H 27.1489 -2.3111 5.53812 0
M  V30 328 H 28.2189 -1.16833 4.70615 0
M  V30 329 N 29.562 -1.4872 -0.521534 0
M  V30 330 C 30.525 -1.63379 -1.60748 0
M  V30 331 C 31.525 -0.50661 -1.52611 0
M  V30 332 O 32.715 -0.772601 -1.5613 0
M  V30 333 C 29.847 -1.61192 -3.00383 0
M  V30 334 H 31.04 -2.60217 -1.49087 0
M  V30 335 H 28.593 -1.37444 -0.744235 0
M  V30 336 H 29.328 -0.65863 -3.17541 0
M  V30 337 H 29.113 -2.43032 -3.07698 0
M  V30 338 H 30.603 -1.7466 -3.7932 0
M  V30 339 N 31.0401 0.771051 -1.3745 0
M  V30 340 C 32.4511 1.34737 -1.29239 0
M  V30 341 C 32.8021 1.96109 0.0596908 0
M  V30 342 O 31.9271 1.93865 0.961534 0
M  V30 343 C 32.5221 2.44973 -2.34037 0
M  V30 344 C 31.0811 2.98372 -2.29458 0
M  V30 345 C 30.2281 1.71595 -2.17831 0
M  V30 346 H 33.1791 0.571256 -1.48062 0
M  V30 347 H 33.2001 3.24471 -1.98744 0
M  V30 348 H 32.7121 2.00276 -3.32432 0
M  V30 349 H 30.8131 3.47443 -1.34589 0
M  V30 350 H 30.9261 3.53939 -3.229 0
M  V30 351 H 29.2901 1.94547 -1.64388 0
M  V30 352 H 30.0731 1.29001 -3.18141 0
M  V30 353 N 32.5182 1.22032 0.997298 0
M  V30 354 C 33.7642 1.04376 1.73878 0
M  V30 355 C 34.0972 -0.420716 1.89588 0
M  V30 356 O 33.3722 -1.31202 1.43583 0
M  V30 357 C 33.6552 1.75047 3.14691 0
M  V30 358 C 33.5082 3.29062 3.06656 0
M  V30 359 C 34.8272 1.49928 4.13775 0
M  V30 360 H 31.9462 0.380578 0.631133 0
M  V30 361 H 34.5882 1.50312 1.16217 0
M  V30 362 H 32.7382 1.35996 3.63919 0
M  V30 363 H 34.4102 3.7753 2.65083 0
M  V30 364 H 32.6532 3.58967 2.43568 0
M  V30 365 H 33.3242 3.73683 4.06282 0
M  V30 366 H 35.8002 1.83842 3.73285 0
M  V30 367 H 34.6762 2.01878 5.10428 0
M  V30 368 H 34.9372 0.430929 4.39995 0
M  V30 369 N 33.9963 -1.19345 1.0293 0
M  V30 370 C 35.2443 -1.88665 0.724574 0
M  V30 371 C 35.5653 -1.80036 -0.749144 0
M  V30 372 O 34.8353 -1.2111 -1.53978 0
M  V30 373 H 33.4153 -0.698406 0.265025 0
M  V30 374 H 36.0773 -1.44885 1.30362 0
M  V30 375 H 35.1733 -2.94987 1.01926 0
M  V30 376 N 35.4744 -0.807222 -1.35358 0
M  V30 377 C 36.4224 -0.20614 -2.31685 0
M  V30 378 C 37.4164 0.644445 -1.56663 0
M  V30 379 O 38.6224 0.537538 -1.71786 0
M  V30 380 H 34.9974 -0.0479006 -0.750473 0
M  V30 381 H 36.9684 -1.03369 -2.79924 0
M  V30 382 C 35.7174 0.630212 -3.41941 0
M  V30 383 H 35.0404 -0.0149558 -3.99797 0
M  V30 384 H 36.4804 1.01716 -4.11619 0
M  V30 385 C 34.9394 1.79601 -2.85035 0
M  V30 386 O 35.4694 2.89351 -2.78637 0
M  V30 387 N 33.6754 1.60774 -2.42074 0
M  V30 388 H 33.2224 0.715009 -2.47478 0
M  V30 389 H 33.1804 2.38933 -2.04349 0
M  V30 390 N 36.9525 1.47285 -0.560781 0
M  V30 391 C 37.8825 2.32857 0.173105 0
M  V30 392 C 38.8635 1.44009 0.905281 0
M  V30 393 O 40.0485 1.7286 0.885046 0
M  V30 394 C 37.1785 3.25861 1.20133 0
M  V30 395 C 36.1325 4.23978 0.585388 0
M  V30 396 C 35.4585 5.06332 1.7185 0
M  V30 397 C 36.7585 5.20242 -0.463178 0
M  V30 398 H 38.4525 2.94466 -0.541307 0
M  V30 399 H 35.9985 1.41601 -0.261764 0
M  V30 400 H 37.9515 3.84569 1.72293 0
M  V30 401 H 36.6755 2.62315 1.94573 0
M  V30 402 H 35.3345 3.66501 0.085054 0
M  V30 403 H 34.9825 4.39186 2.45203 0
M  V30 404 H 34.6825 5.72762 1.31213 0
M  V30 405 H 36.2065 5.67899 2.24329 0
M  V30 406 H 37.6205 5.73293 -0.027502 0
M  V30 407 H 36.0175 5.94896 -0.788627 0
M  V30 408 H 37.0875 4.65504 -1.35773 0
M  V30 409 N 38.4306 0.297415 1.54768 0
M  V30 410 C 39.6796 -0.313669 1.99246 0
M  V30 411 C 39.9926 -1.55281 1.18942 0
M  V30 412 O 41.1986 -2.23825 1.5367 0
M  V30 413 C 39.6546 -0.609407 3.54703 0
M  V30 414 C 39.2626 0.611192 4.43811 0
M  V30 415 C 41.0066 -1.18188 4.07715 0
M  V30 416 C 38.9136 0.288805 5.90694 0
M  V30 417 H 37.8436 -0.120979 0.744231 0
M  V30 418 H 40.4946 0.40556 1.78962 0
M  V30 419 H 38.8766 -1.38813 3.70873 0
M  V30 420 H 40.0506 1.3875 4.39414 0
M  V30 421 H 38.3656 1.10205 4.01552 0
M  V30 422 H 40.9626 -1.43727 5.15021 0
M  V30 423 H 41.3056 -2.12299 3.58099 0
M  V30 424 H 41.8386 -0.464944 3.95074 0
M  V30 425 H 38.5776 1.19838 6.44453 0
M  V30 426 H 38.0976 -0.450305 5.98107 0
M  V30 427 H 39.7766 -0.110933 6.46905 0
M  V30 428 N 39.9087 -1.5758 0.0250728 0
M  V30 429 C 40.8717 -2.08896 -0.943139 0
M  V30 430 C 41.8717 -1.00321 -1.25668 0
M  V30 431 O 43.0617 -1.26495 -1.19769 0
M  V30 432 C 40.1937 -2.55143 -2.26086 0
M  V30 433 H 41.3867 -2.95723 -0.498775 0
M  V30 434 H 38.9397 -1.54703 -0.222888 0
M  V30 435 H 39.6747 -1.71633 -2.75159 0
M  V30 436 H 39.4597 -3.34461 -2.04641 0
M  V30 437 H 40.9497 -2.95083 -2.95492 0
M  V30 438 N 41.3868 0.248026 -1.55636 0
M  V30 439 C 42.3168 1.31079 -1.93237 0
M  V30 440 C 43.2978 1.50264 -0.797174 0
M  V30 441 O 44.4828 1.62891 -1.05737 0
M  V30 442 C 41.6128 2.66575 -2.22609 0
M  V30 443 C 40.5668 2.62087 -3.3837 0
M  V30 444 C 39.8928 4.01369 -3.53281 0
M  V30 445 C 41.1928 2.19171 -4.7409 0
M  V30 446 H 42.8868 0.998556 -2.82257 0
M  V30 447 H 40.4328 0.47891 -1.35803 0
M  V30 448 H 42.3858 3.41057 -2.47503 0
M  V30 449 H 41.1098 2.99432 -1.30414 0
M  V30 450 H 39.7688 1.90063 -3.13483 0
M  V30 451 H 39.4168 4.31489 -2.58508 0
M  V30 452 H 39.1168 3.99254 -4.31127 0
M  V30 453 H 40.6408 4.77552 -3.80495 0
M  V30 454 H 42.0548 2.83384 -4.98363 0
M  V30 455 H 40.4518 2.2817 -5.5503 0
M  V30 456 H 41.5218 1.14336 -4.71227 0
M  V30 457 N 42.8649 1.48995 0.513639 0
M  V30 458 C 44.1419 1.48338 1.27495 0
M  V30 459 C 44.5219 0.204065 2.10111 0
M  V30 460 O 43.8699 -0.813881 2.13514 0
M  V30 461 C 44.0799 2.75498 2.14247 0
M  V30 462 C 45.4279 3.24484 2.73852 0
M  V30 463 O 46.4519 2.76528 2.24523 0
M  V30 464 O 45.3109 4.07974 3.6362 0
M  V30 465 H 42.4049 0.593149 0.576284 0
M  V30 466 H 44.9509 1.61246 0.528948 0
M  V30 467 H 43.7229 3.60109 1.53092 0
M  V30 468 H 43.3459 2.6539 2.96064 0
M  V30 469 N 44.343 -0.763751 1.37857 0
M  V30 470 C 45.589 -1.52483 1.33704 0
M  V30 471 C 45.922 -1.94051 -0.0759612 0
M  V30 472 O 45.197 -1.64675 -1.03501 0
M  V30 473 C 45.48 -2.78441 2.28348 0
M  V30 474 C 45.333 -2.43075 3.78463 0
M  V30 475 C 46.652 -3.80415 2.21298 0
M  V30 476 H 43.771 -0.553169 0.487005 0
M  V30 477 H 46.413 -0.875562 1.68624 0
M  V30 478 H 44.563 -3.33842 1.987 0
M  V30 479 H 46.235 -1.93527 4.18742 0
M  V30 480 H 44.478 -1.75666 3.96641 0
M  V30 481 H 45.149 -3.33149 4.40132 0
M  V30 482 H 47.625 -3.34527 2.47449 0
M  V30 483 H 46.501 -4.66257 2.89647 0
M  V30 484 H 46.762 -4.25262 1.20849 0
M  V30 485 N 45.8211 -1.22559 -0.990812 0
M  V30 486 C 46.7711 -0.964807 -2.0658 0
M  V30 487 C 47.7551 0.0853472 -1.60673 0
M  V30 488 O 48.9471 -0.125443 -1.76555 0
M  V30 489 C 46.0761 -0.546707 -3.38919 0
M  V30 490 C 45.1621 -1.6317 -3.91454 0
M  V30 491 N 45.5531 -2.85985 -4.17189 0
M  V30 492 C 43.8511 -1.50387 -4.19881 0
M  V30 493 C 44.5521 -3.56159 -4.59919 0
M  V30 494 N 43.5281 -2.83637 -4.63736 0
M  V30 495 H 47.3301 -1.89769 -2.24421 0
M  V30 496 H 44.8441 -1.12343 -1.17273 0
M  V30 497 H 46.8411 -0.34119 -4.15502 0
M  V30 498 H 45.5011 0.379254 -3.22478 0
M  V30 499 H 46.5121 -3.22392 -4.05319 0
M  V30 500 H 43.1891 -0.644254 -4.12499 0
M  V30 501 H 44.5791 -4.6139 -4.88435 0
M  V30 502 N 47.2992 1.18797 -1.03562 0
M  V30 503 C 48.5242 1.9314 -0.755764 0
M  V30 504 C 48.9492 1.7537 0.68022 0
M  V30 505 O 48.3072 1.06046 1.47051 0
M  V30 506 C 48.3552 3.42747 -1.12058 0
M  V30 507 O 47.4592 4.11683 -0.243124 0
M  V30 508 H 46.8002 0.602724 -0.278604 0
M  V30 509 H 49.3302 1.50678 -1.3841 0
M  V30 510 H 49.3402 3.93437 -1.08035 0
M  V30 511 H 48.0152 3.55002 -2.16672 0
M  V30 512 H 46.5922 3.71323 -0.342539 0
M  V30 513 N 48.7773 0.814389 1.34928 0
M  V30 514 C 49.7243 0.22822 2.29669 0
M  V30 515 C 50.6943 -0.642164 1.53184 0
M  V30 516 O 51.8793 -0.585605 1.81591 0
M  V30 517 C 49.0193 -0.61089 3.3965 0
M  V30 518 C 48.1323 0.280792 4.31086 0
M  V30 519 C 47.2673 -0.567067 5.28165 0
M  V30 520 C 46.3063 0.324531 6.11239 0
M  V30 521 N 45.4433 -0.483756 7.00431 0
M  V30 522 H 50.2833 1.04153 2.79206 0
M  V30 523 H 47.8203 0.525133 1.37407 0
M  V30 524 H 49.7783 -1.11263 4.0209 0
M  V30 525 H 48.4083 -1.38939 2.91369 0
M  V30 526 H 47.4603 0.900688 3.69583 0
M  V30 527 H 48.7723 0.966723 4.89342 0
M  V30 528 H 47.9263 -1.13363 5.96015 0
M  V30 529 H 46.6653 -1.28654 4.70425 0
M  V30 530 H 45.6703 0.903298 5.42329 0
M  V30 531 H 46.8953 1.04198 6.71059 0
M  V30 532 H 44.8413 -1.18706 6.45171 0
M  V30 533 H 44.7583 0.143965 7.55863 0
M  V30 534 H 46.0263 -1.03334 7.7262 0
M  V30 535 N 50.2554 -1.46986 0.568584 0
M  V30 536 C 51.1654 -2.33942 -0.17555 0
M  V30 537 C 52.1814 -1.48891 -0.90041 0
M  V30 538 O 53.3574 -1.81794 -0.86676 0
M  V30 539 C 50.4224 -3.25811 -1.18524 0
M  V30 540 C 49.4834 -4.26757 -0.466582 0
M  V30 541 C 48.7164 -5.14236 -1.42817 0
M  V30 542 O 48.9394 -5.04379 -2.66379 0
M  V30 543 O 47.8734 -5.94412 -0.946453 0
M  V30 544 H 51.6994 -2.98896 0.538036 0
M  V30 545 H 49.2844 -1.4573 0.329097 0
M  V30 546 H 51.1664 -3.82527 -1.76779 0
M  V30 547 H 49.8414 -2.63471 -1.88055 0
M  V30 548 H 48.7484 -3.73769 0.157451 0
M  V30 549 H 50.0814 -4.91843 0.187485 0
M  V30 550 N 51.7335 -0.305618 -1.54608 0
M  V30 551 C 52.9805 0.302298 -2.00231 0
M  V30 552 C 53.3085 1.5354 -1.19398 0
M  V30 553 O 52.5635 1.93973 -0.259423 0
M  V30 554 C 52.8625 0.698983 -3.50498 0
M  V30 555 C 52.5285 -0.432903 -4.48817 0
M  V30 556 C 51.1905 -0.743622 -4.75419 0
M  V30 557 C 53.5425 -1.19409 -5.07337 0
M  V30 558 C 50.8705 -1.81857 -5.57804 0
M  V30 559 C 53.2225 -2.25899 -5.90891 0
M  V30 560 C 51.8865 -2.57572 -6.15803 0
M  V30 561 H 51.1565 0.110619 -0.732697 0
M  V30 562 H 53.8035 -0.425674 -1.86709 0
M  V30 563 H 52.1085 1.50711 -3.61654 0
M  V30 564 H 53.8055 1.1806 -3.83227 0
M  V30 565 H 50.3955 -0.18063 -4.28219 0
M  V30 566 H 54.5795 -0.967295 -4.86782 0
M  V30 567 H 49.8355 -2.06864 -5.75341 0
M  V30 568 H 54.0095 -2.85335 -6.35261 0
M  V30 569 H 51.6365 -3.40998 -6.7943 0
M  V30 570 N 53.2116 1.57565 -0.0334293 0
M  V30 571 C 54.4516 1.93844 0.648379 0
M  V30 572 C 54.8156 0.910387 1.69044 0
M  V30 573 O 56.0166 1.15952 2.42505 0
M  V30 574 C 54.2876 3.35017 1.24492 0
M  V30 575 S 55.8466 3.93229 1.94721 0
M  V30 576 H 52.6646 0.678231 0.213364 0
M  V30 577 H 55.2666 1.95254 -0.0981253 0
M  V30 578 H 53.9706 4.07652 0.474128 0
M  V30 579 H 53.5016 3.37061 2.02864 0
M  V30 580 H 55.5166 3.77014 3.22606 0
M  V30 581 N 54.6897 -0.239769 1.55765 0
M  V30 582 C 55.9377 -0.964892 1.77579 0
M  V30 583 C 56.2587 -1.85582 0.598699 0
M  V30 584 O 55.5287 -1.92075 -0.385226 0
M  V30 585 H 54.1087 -0.359265 0.654933 0
M  V30 586 H 56.7707 -0.256001 1.93211 0
M  V30 587 H 55.8667 -1.58243 2.69009 0
M  V30 588 N 56.1678 -1.49265 -0.50573 0
M  V30 589 C 57.4448 -1.49012 -1.26707 0
M  V30 590 C 57.8248 -0.215205 -2.1 0
M  V30 591 O 57.1728 0.802547 -2.13943 0
M  V30 592 C 57.3828 -2.7663 -2.12783 0
M  V30 593 C 58.7308 -3.25932 -2.72127 0
M  V30 594 O 59.7548 -2.77715 -2.23054 0
M  V30 595 O 58.6138 -4.09897 -3.61451 0
M  V30 596 H 55.7078 -0.596197 -0.57313 0
M  V30 597 H 58.2538 -1.61524 -0.52039 0
M  V30 598 H 57.0258 -3.60916 -1.5118 0
M  V30 599 H 56.6488 -2.66956 -2.94653 0
M  V30 600 N 57.6459 0.756429 -1.3826 0
M  V30 601 C 58.8929 1.51547 -1.34312 0
M  V30 602 C 59.2209 1.94382 0.0677144 0
M  V30 603 O 58.4759 1.65514 1.04421 0
M  V30 604 C 58.7749 2.78313 -2.24224 0
M  V30 605 C 58.4409 2.54455 -3.72241 0
M  V30 606 C 57.1029 2.47657 -4.12576 0
M  V30 607 C 59.4549 2.3354 -4.65949 0
M  V30 608 C 56.7829 2.17956 -5.44713 0
M  V30 609 C 59.1349 2.05359 -5.9834 0
M  V30 610 C 57.7989 1.97016 -6.37762 0
M  V30 611 H 57.0689 0.55455 -0.491482 0
M  V30 612 H 59.7159 0.870039 -1.70595 0
M  V30 613 H 58.0209 3.47492 -1.80987 0
M  V30 614 H 59.7179 3.36259 -2.18474 0
M  V30 615 H 56.3079 2.60616 -3.40261 0
M  V30 616 H 60.4919 2.37772 -4.35635 0
M  V30 617 H 55.7479 2.10003 -5.74203 0
M  V30 618 H 59.9219 1.88179 -6.70494 0
M  V30 619 H 57.5489 1.73766 -7.40074 0
M  V30 620 N 59.124 1.23083 0.984299 0
M  V30 621 C 60.349 1.088 1.76571 0
M  V30 622 C 60.774 -0.356657 1.84688 0
M  V30 623 O 60.132 -1.25788 1.30565 0
M  V30 624 C 60.18 1.71371 3.17277 0
M  V30 625 O 59.284 0.973213 4.00752 0
M  V30 626 H 58.625 0.381599 0.543395 0
M  V30 627 H 61.155 1.63057 1.23587 0
M  V30 628 H 61.165 1.76449 3.67872 0
M  V30 629 H 59.84 2.76493 3.10684 0
M  V30 630 H 58.417 0.999078 3.59267 0
M  V30 631 N 60.6021 -1.18246 1.0419 0
M  V30 632 C 61.5501 -2.23968 0.627792 0
M  V30 633 C 62.5441 -1.65828 -0.346019 0
M  V30 634 O 63.7501 -1.78733 -0.213175 0
M  V30 635 H 60.1251 -0.728939 0.184802 0
M  V30 636 H 62.0961 -2.56202 1.52981 0
M  V30 637 C 60.8451 -3.47699 0.00796591 0
M  V30 638 H 60.1681 -3.92734 0.748347 0
M  V30 639 H 61.6081 -4.23294 -0.24455 0
M  V30 640 C 60.0671 -3.13153 -1.24246 0
M  V30 641 O 60.5971 -3.27003 -2.33307 0
M  V30 642 N 58.8031 -2.67467 -1.13622 0
M  V30 643 H 58.3501 -2.56396 -0.248734 0
M  V30 644 H 58.3081 -2.44724 -1.97377 0
M  V30 645 N 62.0802 -0.821533 -1.34494 0
M  V30 646 C 63.4912 -0.467956 -1.8074 0
M  V30 647 C 63.8422 1.01151 -1.68116 0
M  V30 648 O 62.9672 1.78707 -1.22036 0
M  V30 649 C 63.5622 -0.842627 -3.28154 0
M  V30 650 C 62.1212 -0.541439 -3.72485 0
M  V30 651 C 61.2682 -1.06028 -2.56229 0
M  V30 652 H 64.2192 -1.01183 -1.22261 0
M  V30 653 H 64.2402 -0.145876 -3.8022 0
M  V30 654 H 63.7522 -1.91945 -3.37311 0
M  V30 655 H 61.8532 0.526034 -3.68868 0
M  V30 656 H 61.9662 -1.08453 -4.66663 0
M  V30 657 H 60.3302 -0.481892 -2.501 0
M  V30 658 H 61.1132 -2.14352 -2.68157 0
M  V30 659 N 63.5583 1.46682 -0.576371 0
M  V30 660 C 64.5053 2.30241 0.160499 0
M  V30 661 C 65.4753 1.40233 0.890162 0
M  V30 662 O 66.6603 1.69186 0.882084 0
M  V30 663 C 63.8003 3.24578 1.1723 0
M  V30 664 C 62.9133 4.29684 0.446736 0
M  V30 665 C 62.0483 5.11154 1.44551 0
M  V30 666 C 61.0873 6.08015 0.70599 0
M  V30 667 N 60.2243 6.82376 1.65251 0
M  V30 668 H 65.0643 2.92727 -0.558127 0
M  V30 669 H 62.6013 1.44272 -0.287056 0
M  V30 670 H 64.5593 3.77711 1.77172 0
M  V30 671 H 63.1893 2.63916 1.85872 0
M  V30 672 H 62.2413 3.79458 -0.267594 0
M  V30 673 H 63.5533 4.98626 -0.131686 0
M  V30 674 H 62.7073 5.68533 2.11791 0
M  V30 675 H 61.4463 4.42158 2.05786 0
M  V30 676 H 60.4513 5.49796 0.0197725 0
M  V30 677 H 61.6763 6.79028 0.09912 0
M  V30 678 H 59.6223 6.16094 2.25308 0
M  V30 679 H 59.5393 7.47556 1.12673 0
M  V30 680 H 60.8073 7.44316 2.31546 0
M  V30 681 N 65.0364 0.313813 1.54444 0
M  V30 682 C 66.2844 -0.291099 1.99993 0
M  V30 683 C 66.6054 -1.53418 1.20366 0
M  V30 684 O 65.8754 -1.93544 0.302927 0
M  V30 685 H 64.4554 -0.110552 0.738774 0
M  V30 686 H 67.1174 0.428106 1.9014 0
M  V30 687 H 66.2134 -0.554268 3.07139 0
M  V30 688 N 66.5145 -1.57545 0.0417849 0
M  V30 689 C 67.7605 -1.92601 -0.635021 0
M  V30 690 C 68.0935 -0.919627 -1.71045 0
M  V30 691 O 67.3685 0.0557892 -1.9442 0
M  V30 692 C 67.6515 -3.38085 -1.23979 0
M  V30 693 C 67.5045 -4.49467 -0.173057 0
M  V30 694 C 68.8235 -3.83776 -2.15416 0
M  V30 695 H 65.9425 -0.700397 -0.229374 0
M  V30 696 H 68.5845 -1.89728 0.101633 0
M  V30 697 H 66.7345 -3.40664 -1.86762 0
M  V30 698 H 68.4065 -4.59018 0.458312 0
M  V30 699 H 66.6495 -4.30909 0.499996 0
M  V30 700 H 67.3205 -5.48323 -0.636054 0
M  V30 701 H 69.7965 -3.83013 -1.62605 0
M  V30 702 H 68.6725 -4.8624 -2.54679 0
M  V30 703 H 68.9335 -3.19998 -3.05047 0
M  V30 704 N 67.9926 0.231505 -1.5589 0
M  V30 705 C 68.9556 1.27028 -1.90779 0
M  V30 706 C 69.9556 1.40308 -0.785507 0
M  V30 707 O 71.1456 1.38744 -1.05336 0
M  V30 708 C 68.2776 2.64566 -2.14983 0
M  V30 709 H 69.4706 0.973017 -2.83677 0
M  V30 710 H 67.0236 0.471486 -1.49019 0
M  V30 711 H 67.7586 2.99406 -1.24604 0
M  V30 712 H 67.5436 2.56305 -2.96732 0
M  V30 713 H 69.0336 3.39543 -2.43105 0
M  V30 714 N 69.4707 1.49531 0.497807 0
M  V30 715 C 70.3807 1.69176 1.62532 0
M  V30 716 C 71.3967 0.5744 1.64246 0
M  V30 717 O 72.5727 0.849497 1.82608 0
M  V30 718 C 69.6377 1.75695 2.98885 0
M  V30 719 C 68.6987 2.9929 3.07773 0
M  V30 720 C 67.9317 3.05488 4.37622 0
M  V30 721 O 68.1547 2.19192 5.26603 0
M  V30 722 O 67.0887 3.9798 4.51548 0
M  V30 723 H 70.9147 2.647 1.48887 0
M  V30 724 H 68.4997 1.3331 0.674441 0
M  V30 725 H 70.3817 1.82317 3.79919 0
M  V30 726 H 69.0567 0.8335 3.12785 0
M  V30 727 H 67.9637 2.98183 2.25915 0
M  V30 728 H 69.2967 3.91125 2.98801 0
M  V30 729 N 70.9488 -0.749086 1.3866 0
M  V30 730 C 72.1768 -1.53834 1.38358 0
M  V30 731 C 72.5918 -1.88783 -0.0255219 0
M  V30 732 O 71.9488 -1.53101 -0.993292 0
M  V30 733 C 71.9998 -2.83468 2.2434 0
M  V30 734 O 71.7208 -2.50008 3.5976 0
M  V30 735 C 73.2218 -3.7758 2.32267 0
M  V30 736 H 70.4418 -0.47585 0.473083 0
M  V30 737 H 72.9858 -0.926726 1.82297 0
M  V30 738 H 71.1408 -3.40995 1.83851 0
M  V30 739 H 71.5548 -3.33182 4.05081 0
M  V30 740 H 73.0288 -4.65478 2.96706 0
M  V30 741 H 73.5058 -4.18334 1.33765 0
M  V30 742 H 74.1118 -3.25976 2.73166 0
M  V30 743 N 72.4269 -1.23603 -0.977757 0
M  V30 744 C 73.6729 -1.07129 -1.72195 0
M  V30 745 C 74.0059 0.390501 -1.90233 0
M  V30 746 O 73.2809 1.28902 -1.45653 0
M  V30 747 C 73.5639 -1.80031 -3.11867 0
M  V30 748 C 73.4169 -3.33899 -3.01383 0
M  V30 749 C 74.7359 -1.56492 -4.11337 0
M  V30 750 H 71.8549 -0.390571 -0.624999 0
M  V30 751 H 74.4969 -1.52142 -1.13811 0
M  V30 752 H 72.6469 -1.41768 -3.6171 0
M  V30 753 H 74.3189 -3.81699 -2.59043 0
M  V30 754 H 72.5619 -3.62796 -2.37827 0
M  V30 755 H 73.2329 -3.801 -4.00285 0
M  V30 756 H 75.7089 -1.89757 -3.70313 0
M  V30 757 H 74.5849 -2.09973 -5.07151 0
M  V30 758 H 74.8459 -0.500874 -4.39254 0
M  V30 759 N 73.905 1.17692 -1.04816 0
M  V30 760 C 75.321 1.39863 -0.768794 0
M  V30 761 C 75.521 1.91118 0.638451 0
M  V30 762 O 74.577 2.10036 1.40146 0
M  V30 763 C 75.89 2.39274 -1.82122 0
M  V30 764 C 77.438 2.52987 -1.843 0
M  V30 765 C 77.913 3.55669 -2.88555 0
M  V30 766 N 79.404 3.63183 -2.87493 0
M  V30 767 C 80.139 4.42381 -3.64811 0
M  V30 768 N 79.635 5.25125 -4.51903 0
M  V30 769 N 81.428 4.37217 -3.53267 0
M  V30 770 H 73.579 0.82752 -1.95617 0
M  V30 771 H 75.842 0.426123 -0.846831 0
M  V30 772 H 75.548 2.08678 -2.83102 0
M  V30 773 H 75.422 3.38725 -1.65967 0
M  V30 774 H 77.809 2.82896 -0.839869 0
M  V30 775 H 77.89 1.53623 -2.04532 0
M  V30 776 H 77.534 3.26499 -3.89051 0
M  V30 777 H 77.464 4.54728 -2.65575 0
M  V30 778 H 79.955 3.04103 -2.24343 0
M  V30 779 H 80.268 5.82728 -5.07591 0
M  V30 780 H 78.613 5.24519 -4.55966 0
M  V30 781 H 81.804 3.71626 -2.84625 0
M  V30 782 H 81.977 4.98696 -4.13771 0
M  V30 783 N 75.3831 0.828654 1.34056 0
M  V30 784 C 76.3301 0.252567 2.29414 0
M  V30 785 C 77.3001 -0.62588 1.53857 0
M  V30 786 O 78.4851 -0.566312 1.82202 0
M  V30 787 C 75.6251 -0.574831 3.40279 0
M  V30 788 C 74.7381 0.326499 4.30764 0
M  V30 789 C 73.8731 -0.511016 5.28736 0
M  V30 790 C 72.9121 0.389342 6.1086 0
M  V30 791 N 72.0491 -0.409439 7.00905 0
M  V30 792 H 76.8891 1.07108 2.78086 0
M  V30 793 H 74.4261 0.539677 1.36843 0
M  V30 794 H 76.3841 -1.06992 4.03248 0
M  V30 795 H 75.0141 -1.35841 2.92826 0
M  V30 796 H 74.0661 0.939837 3.68607 0
M  V30 797 H 75.3781 1.01857 4.88289 0
M  V30 798 H 74.5321 -1.07035 5.97184 0
M  V30 799 H 73.2711 -1.23657 4.71763 0
M  V30 800 H 72.2761 0.960769 5.4134 0
M  V30 801 H 73.5011 1.1131 6.69916 0
M  V30 802 H 71.4471 -1.11856 6.46393 0
M  V30 803 H 71.3641 0.224126 7.55668 0
M  V30 804 H 72.6321 -0.951336 7.73673 0
M  V30 805 N 76.8612 -1.46375 0.584142 0
M  V30 806 C 77.7912 -2.33103 -0.136037 0
M  V30 807 C 78.7722 -1.45431 -0.882255 0
M  V30 808 O 79.9572 -1.74246 -0.857434 0
M  V30 809 C 77.0872 -3.27731 -1.14933 0
M  V30 810 C 76.0412 -4.24855 -0.517862 0
M  V30 811 C 75.3672 -5.09001 -1.63773 0
M  V30 812 C 76.6672 -5.19439 0.545886 0
M  V30 813 H 78.3612 -2.93568 0.588086 0
M  V30 814 H 75.9072 -1.41166 0.284259 0
M  V30 815 H 77.8602 -3.87261 -1.66153 0
M  V30 816 H 76.5842 -2.65377 -1.90375 0
M  V30 817 H 75.2432 -3.6659 -0.0267361 0
M  V30 818 H 74.8912 -4.43031 -2.38185 0
M  V30 819 H 74.5912 -5.74777 -1.22085 0
M  V30 820 H 76.1152 -5.71396 -2.15266 0
M  V30 821 H 77.5292 -5.73177 0.118704 0
M  V30 822 H 75.9262 -5.93566 0.88317 0
M  V30 823 H 76.9962 -4.63285 1.43162 0
M  V30 824 N 78.3393 -0.321999 -1.54275 0
M  V30 825 C 79.7553 0.0306999 -1.5957 0
M  V30 826 C 79.9553 1.50614 -1.33857 0
M  V30 827 O 79.0113 2.2619 -1.12223 0
M  V30 828 C 80.3243 -0.386122 -2.98211 0
M  V30 829 C 81.8723 -0.336647 -3.11184 0
M  V30 830 C 82.3473 -0.728607 -4.52167 0
M  V30 831 N 83.8383 -0.681952 -4.58152 0
M  V30 832 C 84.5733 -0.957449 -5.6535 0
M  V30 833 N 84.0693 -1.3 -6.80494 0
M  V30 834 N 85.8623 -0.883113 -5.55119 0
M  V30 835 H 78.0133 -1.28332 -1.69247 0
M  V30 836 H 80.2763 -0.521716 -0.791528 0
M  V30 837 H 79.9823 -1.41404 -3.22022 0
M  V30 838 H 79.8563 0.249662 -3.76373 0
M  V30 839 H 82.2433 0.682058 -2.8711 0
M  V30 840 H 82.3243 -1.00734 -2.3513 0
M  V30 841 H 81.9683 -1.74522 -4.76974 0
M  V30 842 H 81.8983 -0.0356152 -5.26588 0
M  V30 843 H 84.3893 -0.428985 -3.75457 0
M  V30 844 H 84.7023 -1.49563 -7.58189 0
M  V30 845 H 83.0473 -1.33824 -6.81994 0
M  V30 846 H 86.2383 -0.615001 -4.64042 0
M  V30 847 H 86.4113 -1.10118 -6.38575 0
M  V30 848 N 79.8174 1.5752 -0.0501392 0
M  V30 849 C 81.2284 1.80271 0.485705 0
M  V30 850 C 81.5794 0.96228 1.70981 0
M  V30 851 O 80.7044 0.178578 2.15662 0
M  V30 852 C 81.2994 3.26957 0.887938 0
M  V30 853 C 79.8584 3.5063 1.36877 0
M  V30 854 C 79.0054 2.75165 0.343468 0
M  V30 855 H 81.9564 1.56281 -0.276028 0
M  V30 856 H 81.9774 3.37821 1.75093 0
M  V30 857 H 81.4894 3.881 -0.0031809 0
M  V30 858 H 79.5904 2.94766 2.27911 0
M  V30 859 H 79.7034 4.59343 1.36164 0
M  V30 860 H 78.0674 2.4127 0.816128 0
M  V30 861 H 78.8504 3.39034 -0.539548 0
M  V30 862 N 81.2955 -0.223234 1.56011 0
M  V30 863 C 82.5725 -0.972108 1.69733 0
M  V30 864 C 82.9525 -2.02485 0.59691 0
M  V30 865 O 82.3005 -2.25037 -0.396324 0
M  V30 866 C 82.5105 -1.58407 3.10979 0
M  V30 867 C 83.8585 -2.07696 3.70334 0
M  V30 868 O 84.8825 -1.68304 3.1393 0
M  V30 869 O 83.7415 -2.80096 4.69264 0
M  V30 870 H 80.8355 -0.453993 0.691245 0
M  V30 871 H 83.3815 -0.215149 1.68331 0
M  V30 872 H 82.1535 -0.823831 3.82529 0
M  V30 873 H 81.7765 -2.40661 3.16493 0
M  V30 874 N 82.7736 -1.49793 -0.48987 0
M  V30 875 C 84.0196 -1.60078 -1.24511 0
M  V30 876 C 84.3526 -0.291608 -1.91998 0
M  V30 877 O 83.6276 0.705647 -1.81248 0
M  V30 878 C 83.9106 -2.76791 -2.30345 0
M  V30 879 C 83.7636 -4.17535 -1.67286 0
M  V30 880 C 85.0826 -2.89111 -3.31817 0
M  V30 881 H 82.2016 -0.582645 -0.451324 0
M  V30 882 H 84.8436 -1.82117 -0.541612 0
M  V30 883 H 82.9936 -2.5813 -2.90346 0
M  V30 884 H 84.6656 -4.4774 -1.11026 0
M  V30 885 H 82.9086 -4.22665 -0.976577 0
M  V30 886 H 83.5796 -4.95094 -2.44103 0
M  V30 887 H 86.0556 -3.06133 -2.81819 0
M  V30 888 H 84.9316 -3.72433 -4.03219 0
M  V30 889 H 85.1926 -1.9893 -3.94815 0
M  V30 890 N 84.2517 0.741722 -1.39055 0
M  V30 891 C 85.5007 1.49656 -1.35225 0
M  V30 892 C 85.8137 1.95533 0.0512708 0
M  V30 893 O 87.0197 2.7067 0.212138 0
M  V30 894 C 85.4757 2.70389 -2.37525 0
M  V30 895 C 85.0837 2.31489 -3.83558 0
M  V30 896 C 86.8277 3.48236 -2.42759 0
M  V30 897 C 84.7347 3.48903 -4.77515 0
M  V30 898 H 83.6647 0.56197 -0.502699 0
M  V30 899 H 86.3157 0.809727 -1.64668 0
M  V30 900 H 84.6977 3.41113 -2.01142 0
M  V30 901 H 85.8717 1.68354 -4.28945 0
M  V30 902 H 84.1867 1.66749 -3.81554 0
M  V30 903 H 86.7837 4.35558 -3.1015 0
M  V30 904 H 87.1267 3.90229 -1.45008 0
M  V30 905 H 87.6597 2.84535 -2.78002 0
M  V30 906 H 84.3987 3.11966 -5.76504 0
M  V30 907 H 83.9187 4.11041 -4.36813 0
M  V30 908 H 85.5977 4.15328 -4.96096 0
M  V30 909 N 85.7298 1.2412 0.971189 0
M  V30 910 C 86.9758 1.08041 1.71625 0
M  V30 911 C 87.3088 -0.380407 1.90438 0
M  V30 912 O 86.5838 -1.28127 1.46334 0
M  V30 913 C 86.8668 1.81682 3.10908 0
M  V30 914 C 86.7198 3.35493 2.99608 0
M  V30 915 C 88.0388 1.58671 4.10501 0
M  V30 916 H 85.1578 0.39388 0.622919 0
M  V30 917 H 87.7998 1.52743 1.13003 0
M  V30 918 H 85.9498 1.43684 3.60953 0
M  V30 919 H 87.6218 3.83068 2.57015 0
M  V30 920 H 85.8648 3.64052 2.35899 0
M  V30 921 H 86.5358 3.82217 3.98264 0
M  V30 922 H 89.0118 1.91719 3.69301 0
M  V30 923 H 87.8878 2.1266 5.06031 0
M  V30 924 H 88.1488 0.524161 4.38982 0
M  V30 925 N 87.2079 -1.17134 1.05439 0
M  V30 926 C 88.1559 -2.23289 0.651511 0
M  V30 927 C 89.1499 -1.66186 -0.328411 0
M  V30 928 O 90.3559 -1.78949 -0.194206 0
M  V30 929 H 86.7309 -0.726938 0.192523 0
M  V30 930 H 88.7019 -2.54565 1.55689 0
M  V30 931 C 87.4509 -3.47671 0.0448436 0
M  V30 932 H 86.7739 -3.91918 0.78996 0
M  V30 933 H 88.2139 -4.2353 -0.19964 0
M  V30 934 C 86.6729 -3.14453 -1.20918 0
M  V30 935 O 87.2029 -3.29459 -2.29825 0
M  V30 936 N 85.4089 -2.68657 -1.10779 0
M  V30 937 H 84.9559 -2.56646 -0.221526 0
M  V30 938 H 84.9139 -2.46804 -1.9477 0
M  V30 939 N 88.686 -0.835752 -1.33615 0
M  V30 940 C 89.649 -0.272 -2.2758 0
M  V30 941 C 90.649 0.557487 -1.50827 0
M  V30 942 O 91.839 0.37173 -1.70188 0
M  V30 943 C 88.971 0.617173 -3.35267 0
M  V30 944 H 90.164 -1.10111 -2.78954 0
M  V30 945 H 87.717 -0.608594 -1.43965 0
M  V30 946 H 88.452 1.46884 -2.89129 0
M  V30 947 H 88.237 0.0237066 -3.92093 0
M  V30 948 H 89.727 1.005 -4.05326 0
M  V30 949 N 90.1641 1.46063 -0.591896 0
M  V30 950 C 91.1271 2.28854 0.125973 0
M  V30 951 C 92.1271 1.38903 0.810107 0
M  V30 952 O 93.3171 1.61186 0.66066 0
M  V30 953 C 90.4491 3.19526 1.1881 0
M  V30 954 H 91.6421 2.93802 -0.601717 0
M  V30 955 H 89.1951 1.52325 -0.350254 0
M  V30 956 H 89.9301 2.59345 1.94707 0
M  V30 957 H 89.7151 3.85766 0.701936 0
M  V30 958 H 91.2051 3.81817 1.69132 0
M  V30 959 N 91.6422 0.330177 1.54103 0
M  V30 960 C 92.6052 -0.520144 2.2322 0
M  V30 961 C 93.6052 -1.03828 1.22786 0
M  V30 962 O 94.7952 -0.929652 1.4732 0
M  V30 963 C 91.9272 -1.72317 2.94142 0
M  V30 964 H 93.1202 0.0841605 2.99782 0
M  V30 965 H 90.6732 0.0813433 1.56088 0
M  V30 966 H 91.4082 -2.36653 2.21734 0
M  V30 967 H 91.1932 -1.35898 3.67796 0
M  V30 968 H 92.6832 -2.3266 3.46784 0
M  V30 969 N 93.1203 -1.57491 0.0584922 0
M  V30 970 C 94.0703 -2.08474 -0.923188 0
M  V30 971 C 95.0543 -0.991479 -1.26722 0
M  V30 972 O 96.2463 -1.25473 -1.24842 0
M  V30 973 C 93.3753 -2.6392 -2.19548 0
M  V30 974 C 92.4613 -3.80227 -1.87852 0
M  V30 975 N 92.8523 -4.89714 -1.26546 0
M  V30 976 C 91.1503 -3.89271 -2.17679 0
M  V30 977 C 91.8513 -5.70689 -1.12644 0
M  V30 978 N 90.8273 -5.18531 -1.63176 0
M  V30 979 H 94.6293 -2.90517 -0.444653 0
M  V30 980 H 92.1433 -1.61745 -0.145764 0
M  V30 981 H 94.1403 -2.98752 -2.9078 0
M  V30 982 H 92.8003 -1.83318 -2.68001 0
M  V30 983 H 93.8113 -5.09358 -0.936757 0
M  V30 984 H 90.4883 -3.19623 -2.68602 0
M  V30 985 H 91.8783 -6.6875 -0.6499 0
M  V30 986 N 94.5984 0.214957 -1.56127 0
M  V30 987 C 95.8264 0.955092 -1.83536 0
M  V30 988 C 96.2414 1.77677 -0.638472 0
M  V30 989 O 95.5984 1.78219 0.392968 0
M  V30 990 C 95.6494 1.86734 -3.09536 0
M  V30 991 O 95.3704 1.07887 -4.24608 0
M  V30 992 C 96.8714 2.72082 -3.4998 0
M  V30 993 H 94.0914 0.279611 -0.609966 0
M  V30 994 H 96.6354 0.228197 -2.03223 0
M  V30 995 H 94.7904 2.5481 -2.91806 0
M  V30 996 H 95.2044 1.69872 -4.9623 0
M  V30 997 H 96.6784 3.31782 -4.41163 0
M  V30 998 H 97.1554 3.44806 -2.7204 0
M  V30 999 H 97.7614 2.09409 -3.70173 0
M  V30 1000 N 96.0765 1.50051 0.48192 0
M  V30 1001 C 97.0395 1.67584 1.5636 0
M  V30 1002 C 98.0395 0.546894 1.51214 0
M  V30 1003 O 99.2295 0.813725 1.54026 0
M  V30 1004 C 96.3615 1.691 2.96003 0
M  V30 1005 H 97.5545 2.64078 1.42136 0
M  V30 1006 H 95.1075 1.39369 0.707533 0
M  V30 1007 H 95.8425 0.742589 3.15684 0
M  V30 1008 H 95.6275 2.51105 3.01146 0
M  V30 1009 H 97.1175 1.84656 3.74556 0
M  V30 1010 N 97.5546 -0.734337 1.39446 0
M  V30 1011 C 98.8006 -1.49613 1.36908 0
M  V30 1012 C 99.1336 -1.94169 -0.0347829 0
M  V30 1013 O 98.4086 -1.66833 -0.999847 0
M  V30 1014 C 98.6916 -2.73534 2.34203 0
M  V30 1015 C 98.5446 -2.34993 3.83534 0
M  V30 1016 C 99.8636 -3.75635 2.29317 0
M  V30 1017 H 96.9826 -0.542714 0.498629 0
M  V30 1018 H 99.6246 -0.839597 1.70443 0
M  V30 1019 H 97.7746 -3.29553 2.05736 0
M  V30 1020 H 99.4466 -1.84601 4.22753 0
M  V30 1021 H 97.6896 -1.67213 4.00278 0
M  V30 1022 H 98.3606 -3.23738 4.47099 0
M  V30 1023 H 100.837 -3.29203 2.54489 0
M  V30 1024 H 99.7126 -4.60008 2.99472 0
M  V30 1025 H 99.9736 -4.22603 1.29842 0
M  V30 1026 N 99.0327 -1.24633 -0.964593 0
M  V30 1027 C 100.31 -0.995809 -1.68354 0
M  V30 1028 C 100.69 0.480964 -2.05548 0
M  V30 1029 O 100.038 1.45599 -1.76105 0
M  V30 1030 C 100.248 -1.92177 -2.91323 0
M  V30 1031 C 101.596 -2.19446 -3.63495 0
M  V30 1032 O 102.62 -1.89855 -3.01386 0
M  V30 1033 O 101.479 -2.69714 -4.75307 0
M  V30 1034 H 98.5727 -0.376854 -0.736146 0
M  V30 1035 H 101.119 -1.35745 -1.0184 0
M  V30 1036 H 99.8907 -2.91938 -2.60553 0
M  V30 1037 H 99.5137 -1.56349 -3.65569 0
M  V30 1038 N 100.511 1.16574 -1.06058 0
M  V30 1039 C 101.458 2.20883 -0.669263 0
M  V30 1040 C 102.428 1.62729 0.332918 0
M  V30 1041 O 103.613 1.895 0.222346 0
M  V30 1042 C 100.753 3.45049 -0.0593572 0
M  V30 1043 C 99.8658 4.17458 -1.11143 0
M  V30 1044 C 99.0008 5.29135 -0.467916 0
M  V30 1045 C 98.0398 5.93343 -1.50369 0
M  V30 1046 N 97.1768 6.96516 -0.883706 0
M  V30 1047 H 102.017 2.53709 -1.5632 0
M  V30 1048 H 99.5538 1.24616 -0.781625 0
M  V30 1049 H 101.512 4.16033 0.311771 0
M  V30 1050 H 100.142 3.12781 0.797992 0
M  V30 1051 H 99.1938 3.45101 -1.60029 0
M  V30 1052 H 100.506 4.61307 -1.89731 0
M  V30 1053 H 99.6598 6.06684 -0.0436871 0
M  V30 1054 H 98.3988 4.86443 0.349864 0
M  V30 1055 H 97.4038 5.14517 -1.93784 0
M  V30 1056 H 98.6288 6.38114 -2.32352 0
M  V30 1057 H 96.5748 6.55943 -0.086595 0
M  V30 1058 H 96.4918 7.38723 -1.607 0
M  V30 1059 H 97.7598 7.77993 -0.484543 0
M  V30 1060 N 101.989 0.842826 1.3317 0
M  V30 1061 C 102.952 0.284065 2.27433 0
M  V30 1062 C 103.952 -0.54948 1.5112 0
M  V30 1063 O 105.142 -0.362699 1.70382 0
M  V30 1064 C 102.274 -0.599384 3.35589 0
M  V30 1065 H 103.467 1.11589 2.78366 0
M  V30 1066 H 101.02 0.616221 1.4364 0
M  V30 1067 H 101.755 -1.45349 2.89904 0
M  V30 1068 H 101.54 -0.00291266 3.921 0
M  V30 1069 H 103.03 -0.983488 4.05854 0
M  V30 1070 N 103.467 -1.45747 0.599634 0
M  V30 1071 C 104.377 -2.34262 -0.125888 0
M  V30 1072 C 105.393 -1.50768 -0.868625 0
M  V30 1073 O 106.569 -1.83592 -0.828003 0
M  V30 1074 C 103.634 -3.28252 -1.11587 0
M  V30 1075 C 102.695 -4.27651 -0.375956 0
M  V30 1076 C 101.928 -5.1715 -1.31877 0
M  V30 1077 O 102.151 -5.09916 -2.55621 0
M  V30 1078 O 101.085 -5.96286 -0.820157 0
M  V30 1079 H 104.911 -2.97688 0.601315 0
M  V30 1080 H 102.496 -1.44999 0.359934 0
M  V30 1081 H 104.378 -3.86191 -1.68626 0
M  V30 1082 H 103.053 -2.67401 -1.82424 0
M  V30 1083 H 101.96 -3.7335 0.236698 0
M  V30 1084 H 103.293 -4.91334 0.29177 0
M  V30 1085 N 104.945 -0.338344 -1.53925 0
M  V30 1086 C 106.17 0.263987 -2.05713 0
M  V30 1087 C 106.595 1.43847 -1.21201 0
M  V30 1088 O 105.953 1.79904 -0.224535 0
M  V30 1089 C 106.001 0.662 -3.54471 0
M  V30 1090 O 105.105 1.76265 -3.72833 0
M  V30 1091 H 104.446 0.0448722 -0.662482 0
M  V30 1092 H 106.976 -0.491048 -1.9862 0
M  V30 1093 H 106.986 0.940594 -3.9701 0
M  V30 1094 H 105.661 -0.196937 -4.15433 0
M  V30 1095 H 104.238 1.48173 -3.42198 0
M  V30 1096 N 106.423 1.57458 -0.0668435 0
M  V30 1097 C 107.333 2.15937 0.916975 0
M  V30 1098 C 108.349 1.12123 1.33058 0
M  V30 1099 O 109.525 1.44366 1.40429 0
M  V30 1100 C 106.59 2.70547 2.16807 0
M  V30 1101 C 105.651 3.89215 1.81135 0
M  V30 1102 C 104.884 4.41211 3.0028 0
M  V30 1103 O 105.107 3.92225 4.14144 0
M  V30 1104 O 104.041 5.32605 2.80384 0
M  V30 1105 H 107.867 3.00354 0.449561 0
M  V30 1106 H 105.452 1.48584 0.155949 0
M  V30 1107 H 107.334 3.0557 2.90181 0
M  V30 1108 H 106.009 1.89192 2.62656 0
M  V30 1109 H 104.916 3.59054 1.05028 0
M  V30 1110 H 106.249 4.71848 1.40073 0
M  V30 1111 N 107.901 -0.206675 1.56239 0
M  V30 1112 C 109.312 -0.772383 1.69974 0
M  V30 1113 C 109.663 -1.84353 0.671436 0
M  V30 1114 O 108.788 -2.15695 -0.174491 0
M  V30 1115 C 109.383 -1.40779 3.08167 0
M  V30 1116 C 107.942 -1.92072 3.23706 0
M  V30 1117 C 107.089 -0.786347 2.65917 0
M  V30 1118 H 110.04 0.0182223 1.5869 0
M  V30 1119 H 110.061 -2.27696 3.04852 0
M  V30 1120 H 109.573 -0.627958 3.82986 0
M  V30 1121 H 107.674 -2.7281 2.53782 0
M  V30 1122 H 107.787 -2.09046 4.31087 0
M  V30 1123 H 106.151 -1.1976 2.24788 0
M  V30 1124 H 106.934 -0.0189416 3.43295 0
M  V30 1125 N 109.379 -1.50304 -0.473955 0
M  V30 1126 C 110.289 -1.7174 -1.5982 0
M  V30 1127 C 111.305 -0.600457 -1.63311 0
M  V30 1128 O 112.481 -0.878441 -1.81233 0
M  V30 1129 C 109.546 -1.80427 -2.96052 0
M  V30 1130 C 108.607 -3.04148 -3.02972 0
M  V30 1131 C 107.84 -3.12411 -4.32706 0
M  V30 1132 O 108.063 -2.27542 -5.23049 0
M  V30 1133 O 106.997 -4.05113 -4.45159 0
M  V30 1134 H 110.823 -2.67035 -1.44657 0
M  V30 1135 H 108.408 -1.34366 -0.653148 0
M  V30 1136 H 110.29 -1.88338 -3.7697 0
M  V30 1137 H 108.965 -0.883156 -3.11419 0
M  V30 1138 H 107.872 -3.0174 -2.21142 0
M  V30 1139 H 109.205 -3.95829 -2.92541 0
M  V30 1140 N 110.857 0.726932 -1.39834 0
M  V30 1141 C 111.787 1.85405 -1.41941 0
M  V30 1142 C 112.768 1.67751 -0.281728 0
M  V30 1143 O 113.953 1.8795 -0.488717 0
M  V30 1144 C 111.083 3.23243 -1.2701 0
M  V30 1145 C 110.037 3.55549 -2.38262 0
M  V30 1146 C 109.363 4.9241 -2.08415 0
M  V30 1147 C 110.663 3.577 -3.80589 0
M  V30 1148 H 112.357 1.83899 -2.36266 0
M  V30 1149 H 109.903 0.883349 -1.13723 0
M  V30 1150 H 111.856 4.01775 -1.27103 0
M  V30 1151 H 110.58 3.25296 -0.291564 0
M  V30 1152 H 109.239 2.79351 -2.37399 0
M  V30 1153 H 108.887 4.91052 -1.0898 0
M  V30 1154 H 108.587 5.14992 -2.82943 0
M  V30 1155 H 110.111 5.73289 -2.10171 0
M  V30 1156 H 111.525 4.26293 -3.83337 0
M  V30 1157 H 109.922 3.91804 -4.54543 0
M  V30 1158 H 110.992 2.57328 -4.10987 0
M  V30 1159 N 112.336 1.25143 0.95797 0
M  V30 1160 C 113.299 1.05321 2.03569 0
M  V30 1161 C 114.299 0.007152 1.60798 0
M  V30 1162 O 115.489 0.24903 1.72411 0
M  V30 1163 C 112.621 0.598394 3.35607 0
M  V30 1164 H 113.814 2.00986 2.22586 0
M  V30 1165 H 111.367 1.07502 1.13459 0
M  V30 1166 H 112.102 -0.361014 3.22284 0
M  V30 1167 H 111.887 1.35351 3.67998 0
M  V30 1168 H 113.377 0.48104 4.1482 0
M  V30 1169 N 113.814 -1.1601 1.06675 0
M  V30 1170 C 114.746 -2.20115 0.638921 0
M  V30 1171 C 115.759 -1.59916 -0.305057 0
M  V30 1172 O 116.948 -1.78245 -0.0954446 0
M  V30 1173 C 114.048 -3.38798 -0.0830083 0
M  V30 1174 C 113.221 -4.2855 0.875426 0
M  V30 1175 C 112.28 -5.25849 0.192042 0
M  V30 1176 O 111.306 -5.63102 0.830921 0
M  V30 1177 N 112.508 -5.70648 -1.06493 0
M  V30 1178 H 115.273 -2.57439 1.53444 0
M  V30 1179 H 112.834 -1.31057 0.950557 0
M  V30 1180 H 114.826 -4.00936 -0.550685 0
M  V30 1181 H 113.396 -2.99947 -0.880386 0
M  V30 1182 H 112.616 -3.63617 1.52238 0
M  V30 1183 H 113.904 -4.85393 1.52548 0
M  V30 1184 H 113.302 -5.42482 -1.60405 0
M  V30 1185 H 111.859 -6.34859 -1.47641 0
M  V30 1186 N 115.292 -0.849877 -1.32721 0
M  V30 1187 C 116.222 -0.306308 -2.31482 0
M  V30 1188 C 117.203 0.591952 -1.59468 0
M  V30 1189 O 118.388 0.513199 -1.87296 0
M  V30 1190 C 115.518 0.510204 -3.43532 0
M  V30 1191 C 114.472 -0.293209 -4.26994 0
M  V30 1192 C 113.798 0.647743 -5.30762 0
M  V30 1193 C 115.098 -1.51634 -4.99804 0
M  V30 1194 H 116.792 -1.13153 -2.77195 0
M  V30 1195 H 114.338 -0.545553 -1.33266 0
M  V30 1196 H 116.291 0.900856 -4.11658 0
M  V30 1197 H 115.015 1.36874 -2.96535 0
M  V30 1198 H 113.674 -0.665555 -3.60508 0
M  V30 1199 H 113.322 1.50299 -4.8002 0
M  V30 1200 H 113.022 0.11422 -5.87489 0
M  V30 1201 H 114.546 1.03567 -6.01753 0
M  V30 1202 H 115.96 -1.19824 -5.60638 0
M  V30 1203 H 114.357 -1.98745 -5.66234 0
M  V30 1204 H 115.427 -2.28018 -4.27943 0
M  V30 1205 N 116.77 1.45427 -0.607355 0
M  V30 1206 C 117.7 2.3329 0.0989352 0
M  V30 1207 C 118.681 1.46816 0.859007 0
M  V30 1208 O 119.866 1.75588 0.829604 0
M  V30 1209 C 116.996 3.29518 1.09705 0
M  V30 1210 C 115.95 4.25626 0.450206 0
M  V30 1211 C 115.276 5.11542 1.55655 0
M  V30 1212 C 116.576 5.18505 -0.628455 0
M  V30 1213 H 118.27 2.92595 -0.634716 0
M  V30 1214 H 115.816 1.40696 -0.306681 0
M  V30 1215 H 117.769 3.89855 1.59971 0
M  V30 1216 H 116.493 2.68372 1.86129 0
M  V30 1217 H 115.152 3.66586 -0.0315886 0
M  V30 1218 H 114.8 4.46765 2.31107 0
M  V30 1219 H 114.5 5.76647 1.12925 0
M  V30 1220 H 116.024 5.74748 2.06148 0
M  V30 1221 H 117.438 5.72916 -0.209877 0
M  V30 1222 H 115.835 5.92085 -0.977489 0
M  V30 1223 H 116.905 4.60948 -1.50514 0
M  V30 1224 N 118.248 0.346503 1.53744 0
M  V30 1225 C 119.196 -0.52422 2.26616 0
M  V30 1226 C 120.19 -1.09948 1.28871 0
M  V30 1227 O 121.396 -1.04488 1.46568 0
M  V30 1228 H 117.771 -0.187743 0.728187 0
M  V30 1229 H 119.742 0.11239 2.98188 0
M  V30 1230 C 118.491 -1.66186 3.05414 0
M  V30 1231 H 117.814 -1.22848 3.80458 0
M  V30 1232 H 119.254 -2.24622 3.59612 0
M  V30 1233 C 117.713 -2.59302 2.1509 0
M  V30 1234 O 118.243 -3.61628 1.74895 0
M  V30 1235 N 116.449 -2.28055 1.8011 0
M  V30 1236 H 115.996 -1.44883 2.12994 0
M  V30 1237 H 115.954 -2.90615 1.19958 0
M  V30 1238 N 119.726 -1.57421 0.075193 0
M  V30 1239 C 120.689 -2.11791 -0.876203 0
M  V30 1240 C 121.689 -1.04268 -1.22412 0
M  V30 1241 O 122.879 -1.30242 -1.15684 0
M  V30 1242 C 120.011 -2.62207 -2.17854 0
M  V30 1243 H 121.204 -2.9716 -0.40444 0
M  V30 1244 H 118.757 -1.55333 -0.173557 0
M  V30 1245 H 119.492 -1.803 -2.6956 0
M  V30 1246 H 119.277 -3.40802 -1.93897 0
M  V30 1247 H 120.767 -3.04335 -2.85955 0
M  V30 1248 N 121.204 0.198386 -1.56346 0
M  V30 1249 C 122.432 0.935572 -1.84539 0
M  V30 1250 C 122.847 1.76989 -0.657281 0
M  V30 1251 O 122.204 1.78626 0.374043 0
M  V30 1252 C 122.255 1.8344 -3.11499 0
M  V30 1253 O 121.976 1.03377 -4.25728 0
M  V30 1254 C 123.477 2.68355 -3.52846 0
M  V30 1255 H 120.697 0.273126 -0.612897 0
M  V30 1256 H 123.241 0.20663 -2.03453 0
M  V30 1257 H 121.396 2.51701 -2.94492 0
M  V30 1258 H 121.81 1.64599 -4.98003 0
M  V30 1259 H 123.284 3.27085 -4.44657 0
M  V30 1260 H 123.761 3.41901 -2.75681 0
M  V30 1261 H 124.367 2.05471 -3.72373 0
M  V30 1262 N 122.682 1.50554 0.465978 0
M  V30 1263 C 123.907 1.65838 1.24549 0
M  V30 1264 C 124.332 0.343486 1.84937 0
M  V30 1265 O 123.69 -0.69324 1.67523 0
M  V30 1266 C 123.738 2.75533 2.32624 0
M  V30 1267 O 122.842 2.37142 3.37398 0
M  V30 1268 H 122.183 0.553893 0.366194 0
M  V30 1269 H 124.713 1.96959 0.553927 0
M  V30 1270 H 124.723 2.98763 2.77857 0
M  V30 1271 H 123.398 3.70962 1.88043 0
M  V30 1272 H 121.975 2.24377 2.97841 0
M  V30 1273 N 124.16 -0.719506 1.40217 0
M  V30 1274 C 125.406 -1.48152 1.38488 0
M  V30 1275 C 125.739 -1.94195 -0.0141867 0
M  V30 1276 O 125.014 -1.67884 -0.982096 0
M  V30 1277 C 125.297 -2.71035 2.37091 0
M  V30 1278 C 125.15 -2.30912 3.86005 0
M  V30 1279 C 126.469 -3.73182 2.33288 0
M  V30 1280 H 123.588 -0.537395 0.504357 0
M  V30 1281 H 126.23 -0.821472 1.71324 0
M  V30 1282 H 124.38 -3.27352 2.0922 0
M  V30 1283 H 126.052 -1.80107 4.24687 0
M  V30 1284 H 124.295 -1.62958 4.02029 0
M  V30 1285 H 124.966 -3.18978 4.50508 0
M  V30 1286 H 127.442 -3.26485 2.57966 0
M  V30 1287 H 126.318 -4.56806 3.04334 0
M  V30 1288 H 126.579 -4.21202 1.34317 0
M  V30 1289 N 125.638 -1.25649 -0.95132 0
M  V30 1290 C 126.548 -1.08073 -2.08224 0
M  V30 1291 C 127.564 -0.0169666 -1.73992 0
M  V30 1292 O 128.74 -0.218593 -2.0021 0
M  V30 1293 C 125.805 -0.704922 -3.39458 0
M  V30 1294 C 124.866 -1.84699 -3.87537 0
M  V30 1295 C 124.099 -1.48902 -5.12508 0
M  V30 1296 O 124.322 -0.386156 -5.69091 0
M  V30 1297 O 123.256 -2.32033 -5.55378 0
M  V30 1298 H 127.082 -2.02924 -2.25954 0
M  V30 1299 H 124.667 -1.04618 -1.06656 0
M  V30 1300 H 126.549 -0.507609 -4.18332 0
M  V30 1301 H 125.224 0.214291 -3.2299 0
M  V30 1302 H 124.131 -2.09919 -3.09653 0
M  V30 1303 H 125.464 -2.74557 -4.08509 0
M  V30 1304 N 127.117 1.15442 -1.07289 0
M  V30 1305 C 128.08 2.18358 -0.696591 0
M  V30 1306 C 129.08 1.58637 0.262837 0
M  V30 1307 O 130.27 1.74145 0.0438809 0
M  V30 1308 C 127.402 3.4089 -0.0266151 0
M  V30 1309 H 128.595 2.53162 -1.60776 0
M  V30 1310 H 126.148 1.29893 -0.869342 0
M  V30 1311 H 126.883 3.11653 0.896822 0
M  V30 1312 H 126.668 3.85495 -0.716657 0
M  V30 1313 H 128.158 4.17009 0.222028 0
M  V30 1314 N 128.595 0.856903 1.32268 0
M  V30 1315 C 129.844 0.457599 1.96441 0
M  V30 1316 C 130.157 -0.992426 1.68553 0
M  V30 1317 O 131.363 -1.49727 2.26482 0
M  V30 1318 C 129.819 0.767358 3.51624 0
M  V30 1319 C 129.427 2.23326 3.88367 0
M  V30 1320 C 131.171 0.435887 4.22256 0
M  V30 1321 C 129.078 2.48613 5.36606 0
M  V30 1322 H 128.008 0.167387 0.735185 0
M  V30 1323 H 130.659 1.048 1.5063 0
M  V30 1324 H 129.041 0.106367 3.95857 0
M  V30 1325 H 130.215 2.93623 3.55137 0
M  V30 1326 H 128.53 2.52948 3.30766 0
M  V30 1327 H 131.127 0.602202 5.31298 0
M  V30 1328 H 131.47 -0.622672 4.11617 0
M  V30 1329 H 132.003 1.05286 3.83614 0
M  V30 1330 H 128.742 3.53101 5.52268 0
M  V30 1331 H 128.262 1.82896 5.71235 0
M  V30 1332 H 129.941 2.32676 6.03714 0
M  V30 1333 N 130.073 -1.45103 0.615059 0
M  V30 1334 C 131.036 -2.29025 -0.0895485 0
M  V30 1335 C 132.036 -1.40174 -0.787906 0
M  V30 1336 O 133.226 -1.62217 -0.634933 0
M  V30 1337 C 130.358 -3.21376 -1.13711 0
M  V30 1338 H 131.551 -2.92807 0.648382 0
M  V30 1339 H 129.104 -1.51749 0.374444 0
M  V30 1340 H 129.839 -2.6241 -1.90556 0
M  V30 1341 H 129.624 -3.86834 -0.640475 0
M  V30 1342 H 131.114 -3.84459 -1.63036 0
M  V30 1343 N 131.551 -0.354651 -1.53558 0
M  V30 1344 C 132.498 0.496968 -2.25386 0
M  V30 1345 C 133.468 1.0865 -1.25636 0
M  V30 1346 O 134.653 1.12104 -1.54394 0
M  V30 1347 C 131.793 1.63637 -3.03837 0
M  V30 1348 C 130.906 1.07307 -4.18461 0
M  V30 1349 C 130.041 2.18068 -4.84376 0
M  V30 1350 C 129.08 1.59147 -5.91049 0
M  V30 1351 N 128.217 2.63695 -6.50699 0
M  V30 1352 H 133.057 -0.122075 -2.9775 0
M  V30 1353 H 130.594 -0.0720154 -1.46924 0
M  V30 1354 H 132.552 2.30734 -3.47589 0
M  V30 1355 H 131.182 2.22623 -2.33749 0
M  V30 1356 H 130.234 0.292708 -3.79272 0
M  V30 1357 H 131.546 0.602193 -4.95152 0
M  V30 1358 H 130.7 2.93007 -5.31255 0
M  V30 1359 H 129.439 2.68504 -4.07133 0
M  V30 1360 H 128.444 0.827175 -5.43542 0
M  V30 1361 H 129.669 1.09549 -6.70206 0
M  V30 1362 H 127.615 3.13365 -5.76315 0
M  V30 1363 H 127.532 2.21263 -7.22896 0
M  V30 1364 H 128.8 3.3837 -7.02229 0
M  V30 1365 N 133.029 1.57378 -0.0835403 0
M  V30 1366 C 133.992 2.12252 0.864959 0
M  V30 1367 C 134.992 1.04916 1.21858 0
M  V30 1368 O 136.182 1.30853 1.14991 0
M  V30 1369 C 133.314 2.63358 2.16461 0
M  V30 1370 H 134.507 2.97371 0.388676 0
M  V30 1371 H 132.06 1.55423 0.165317 0
M  V30 1372 H 132.795 1.81727 2.686 0
M  V30 1373 H 132.58 3.41826 1.92087 0
M  V30 1374 H 134.07 3.05847 2.84337 0
M  V30 1375 N 134.507 -0.190092 1.56449 0
M  V30 1376 C 135.47 -1.21925 1.9408 0
M  V30 1377 C 136.47 -1.38176 0.822431 0
M  V30 1378 O 137.66 -1.35903 1.08977 0
M  V30 1379 C 134.792 -2.58773 2.21922 0
M  V30 1380 H 135.985 -0.897464 2.86157 0
M  V30 1381 H 133.538 -0.43181 1.50217 0
M  V30 1382 H 134.273 -2.95998 1.32499 0
M  V30 1383 H 134.058 -2.48348 3.03424 0
M  V30 1384 H 135.548 -3.32978 2.52022 0
M  V30 1385 N 135.985 -1.50799 -0.457987 0
M  V30 1386 C 136.933 -1.71162 -1.575 0
M  V30 1387 C 137.927 -0.577592 -1.59249 0
M  V30 1388 O 139.133 -0.758443 -1.63241 0
M  V30 1389 H 135.508 -0.540468 -0.522875 0
M  V30 1390 H 137.479 -2.64837 -1.37492 0
M  V30 1391 C 136.228 -1.83496 -2.95338 0
M  V30 1392 H 135.551 -2.70153 -2.94716 0
M  V30 1393 H 136.991 -2.01765 -3.72917 0
M  V30 1394 C 135.45 -0.589694 -3.31699 0
M  V30 1395 O 135.98 0.265163 -4.00824 0
M  V30 1396 N 134.186 -0.439845 -2.87252 0
M  V30 1397 H 133.733 -1.13655 -2.31172 0
M  V30 1398 H 133.691 0.392159 -3.11945 0
M  V30 1399 N 137.463 0.71206 -1.40597 0
M  V30 1400 C 138.373 1.8562 -1.43466 0
M  V30 1401 C 139.389 1.70902 -0.326902 0
M  V30 1402 O 140.565 1.93105 -0.572043 0
M  V30 1403 C 137.63 3.21451 -1.29884 0
M  V30 1404 C 136.691 3.48398 -2.50833 0
M  V30 1405 C 135.924 4.77749 -2.3789 0
M  V30 1406 O 136.147 5.53089 -1.39459 0
M  V30 1407 O 135.081 5.05111 -3.27333 0
M  V30 1408 H 138.907 1.86155 -2.39958 0
M  V30 1409 H 136.492 0.86295 -1.21957 0
M  V30 1410 H 138.374 4.02579 -1.24531 0
M  V30 1411 H 137.049 3.21636 -0.364997 0
M  V30 1412 H 135.956 2.67265 -2.61763 0
M  V30 1413 H 137.289 3.53014 -3.4299 0
M  V30 1414 N 138.941 1.26152 0.944643 0
M  V30 1415 C 140.169 1.14259 1.72489 0
M  V30 1416 C 140.584 -0.302555 1.8636 0
M  V30 1417 O 139.941 -1.20741 1.36849 0
M  V30 1418 C 139.992 1.80266 3.13347 0
M  V30 1419 O 139.713 3.19133 3.00143 0
M  V30 1420 C 141.214 1.74283 4.07603 0
M  V30 1421 H 138.434 0.398051 0.540181 0
M  V30 1422 H 140.978 1.66706 1.18446 0
M  V30 1423 H 139.133 1.31766 3.64303 0
M  V30 1424 H 139.547 3.51744 3.89071 0
M  V30 1425 H 141.021 2.25111 5.04013 0
M  V30 1426 H 141.498 0.708631 4.33446 0
M  V30 1427 H 142.104 2.22319 3.62567 0
M  V30 1428 N 140.419 -1.14872 1.07899 0
M  V30 1429 C 141.667 -1.85422 0.803941 0
M  V30 1430 C 141.988 -1.83051 -0.67211 0
M  V30 1431 O 141.258 -1.27532 -1.48703 0
M  V30 1432 H 139.838 -0.686537 0.294408 0
M  V30 1433 H 142.5 -1.39226 1.3639 0
M  V30 1434 H 141.596 -2.90399 1.14346 0
M  V30 1435 N 141.898 -0.863906 -1.31812 0
M  V30 1436 C 142.861 -0.320212 -2.26952 0
M  V30 1437 C 143.861 0.525369 -1.51975 0
M  V30 1438 O 145.051 0.335547 -1.70938 0
M  V30 1439 C 142.183 0.545919 -3.365 0
M  V30 1440 H 143.376 -1.16004 -2.76556 0
M  V30 1441 H 140.929 -0.638995 -1.42641 0
M  V30 1442 H 141.664 1.40718 -2.92179 0
M  V30 1443 H 141.449 -0.0594674 -3.92055 0
M  V30 1444 H 142.939 0.918796 -4.07367 0
M  V30 1445 N 143.376 1.44774 -0.622745 0
M  V30 1446 C 144.622 2.02968 -0.13257 0
M  V30 1447 C 144.977 1.48047 1.22881 0
M  V30 1448 O 144.27 0.651625 1.80179 0
M  V30 1449 C 144.464 3.57364 -0.0508323 0
M  V30 1450 C 144.293 4.27262 -1.40275 0
M  V30 1451 C 143.063 4.64577 -1.98737 0
M  V30 1452 C 145.261 4.58248 -2.3348 0
M  V30 1453 N 143.243 5.19404 -3.27251 0
M  V30 1454 C 144.614 5.14069 -3.46603 0
M  V30 1455 C 146.669 4.40195 -2.32664 0
M  V30 1456 C 145.372 5.53738 -4.59093 0
M  V30 1457 C 147.398 4.80907 -3.44213 0
M  V30 1458 C 146.76 5.36834 -4.56058 0
M  V30 1459 H 142.859 0.776541 -0.0922354 0
M  V30 1460 H 145.443 1.76385 -0.82441 0
M  V30 1461 H 143.614 3.83576 0.610265 0
M  V30 1462 H 145.346 4.02219 0.447397 0
M  V30 1463 H 142.101 4.48622 -1.51774 0
M  V30 1464 H 142.525 5.51301 -3.92933 0
M  V30 1465 H 147.167 3.96257 -1.47446 0
M  V30 1466 H 144.885 5.96635 -5.45025 0
M  V30 1467 H 148.471 4.68659 -3.44747 0
M  V30 1468 H 147.351 5.67755 -5.40947 0
M  V30 1469 N 144.854 0.36279 1.53368 0
M  V30 1470 C 146.1 -0.228113 2.01513 0
M  V30 1471 C 146.433 -1.48648 1.2497 0
M  V30 1472 O 145.708 -1.91459 0.342616 0
M  V30 1473 C 145.991 -0.522884 3.56284 0
M  V30 1474 C 145.844 0.74892 4.43521 0
M  V30 1475 C 147.163 -1.32461 4.19693 0
M  V30 1476 H 144.282 -0.0814343 0.732487 0
M  V30 1477 H 146.924 0.48713 1.83649 0
M  V30 1478 H 145.074 -1.1322 3.71636 0
M  V30 1479 H 146.746 1.38648 4.39971 0
M  V30 1480 H 144.989 1.36986 4.11603 0
M  V30 1481 H 145.66 0.497667 5.49752 0
M  V30 1482 H 148.136 -0.809203 4.08156 0
M  V30 1483 H 147.012 -1.49961 5.28018 0
M  V30 1484 H 147.273 -2.33232 3.75573 0
M  V30 1485 N 146.332 -1.57332 0.0918853 0
M  V30 1486 C 147.578 -1.94524 -0.573425 0
M  V30 1487 C 147.911 -0.973578 -1.68033 0
M  V30 1488 O 147.186 -0.00609226 -1.94499 0
M  V30 1489 C 147.469 -3.41858 -1.13161 0
M  V30 1490 C 147.322 -4.4979 -0.0299747 0
M  V30 1491 C 148.641 -3.90435 -2.03098 0
M  V30 1492 H 145.76 -0.70734 -0.206975 0
M  V30 1493 H 148.402 -1.89309 0.161942 0
M  V30 1494 H 146.552 -3.46433 -1.7583 0
M  V30 1495 H 148.224 -4.57327 0.604112 0
M  V30 1496 H 146.467 -4.291 0.636833 0
M  V30 1497 H 147.138 -5.50069 -0.461287 0
M  V30 1498 H 149.614 -3.87992 -1.50338 0
M  V30 1499 H 148.49 -4.94097 -2.39081 0
M  V30 1500 H 148.751 -3.29541 -2.94712 0
M  V30 1501 N 147.81 0.181792 -1.56548 0
M  V30 1502 C 148.76 1.22961 -1.92002 0
M  V30 1503 C 149.744 1.40331 -0.787146 0
M  V30 1504 O 150.936 1.42478 -1.05019 0
M  V30 1505 C 148.065 2.57144 -2.27446 0
M  V30 1506 C 147.151 2.43512 -3.47222 0
M  V30 1507 N 147.542 1.99577 -4.64761 0
M  V30 1508 C 145.84 2.74368 -3.51622 0
M  V30 1509 C 146.541 1.98156 -5.46909 0
M  V30 1510 N 145.517 2.40164 -4.8767 0
M  V30 1511 H 149.319 0.881462 -2.8037 0
M  V30 1512 H 146.833 0.390141 -1.57644 0
M  V30 1513 H 148.83 3.32847 -2.51035 0
M  V30 1514 H 147.49 2.92771 -1.40411 0
M  V30 1515 H 148.501 1.70078 -4.89177 0
M  V30 1516 H 145.178 3.14102 -2.75038 0
M  V30 1517 H 146.568 1.65975 -6.51077 0
M  V30 1518 N 149.288 1.51039 0.449983 0
M  V30 1519 C 150.518 1.66627 1.22143 0
M  V30 1520 C 150.926 0.357776 1.85786 0
M  V30 1521 O 150.269 -0.672424 1.70951 0
M  V30 1522 C 150.331 2.71562 2.35573 0
M  V30 1523 C 149.995 4.14526 1.92399 0
M  V30 1524 C 150.992 4.99717 1.43453 0
M  V30 1525 C 148.677 4.60559 2.00475 0
M  V30 1526 C 150.671 6.28998 1.03155 0
M  V30 1527 C 148.358 5.8984 1.59788 0
M  V30 1528 C 149.356 6.73886 1.11208 0
M  V30 1529 O 149.044 8.0075 0.710935 0
M  V30 1530 H 148.776 0.562635 0.374724 0
M  V30 1531 H 151.33 1.98146 0.541036 0
M  V30 1532 H 149.56 2.3533 3.06849 0
M  V30 1533 H 151.249 2.76156 2.97478 0
M  V30 1534 H 152.015 4.65361 1.36618 0
M  V30 1535 H 147.894 3.95273 2.37235 0
M  V30 1536 H 151.438 6.9455 0.651663 0
M  V30 1537 H 147.335 6.23713 1.66289 0
M  V30 1538 H 148.103 8.142 0.837913 0
M  V30 1539 N 150.766 -0.704594 1.40972 0
M  V30 1540 C 151.991 -1.49858 1.43378 0
M  V30 1541 C 152.416 -1.88061 0.038184 0
M  V30 1542 O 151.774 -1.5402 -0.956425 0
M  V30 1543 C 151.822 -2.74333 2.34038 0
M  V30 1544 O 150.926 -3.7147 1.7912 0
M  V30 1545 H 150.267 -0.45139 0.486974 0
M  V30 1546 H 152.797 -0.866832 1.8533 0
M  V30 1547 H 152.807 -3.22741 2.49604 0
M  V30 1548 H 151.482 -2.45863 3.35446 0
M  V30 1549 H 150.059 -3.30363 1.72958 0
M  V30 1550 N 152.244 -1.26651 -0.937939 0
M  V30 1551 C 153.472 -1.15173 -1.7188 0
M  V30 1552 C 153.887 0.292668 -1.86518 0
M  V30 1553 O 153.244 1.20014 -1.37488 0
M  V30 1554 C 153.295 -1.81925 -3.12387 0
M  V30 1555 O 153.016 -3.2072 -2.98446 0
M  V30 1556 C 154.517 -1.76442 -4.06673 0
M  V30 1557 H 151.737 -0.400911 -0.538063 0
M  V30 1558 H 154.281 -1.67332 -1.1756 0
M  V30 1559 H 152.436 -1.33696 -3.63599 0
M  V30 1560 H 152.85 -3.53802 -3.872 0
M  V30 1561 H 154.324 -2.27781 -5.02812 0
M  V30 1562 H 154.801 -0.731608 -4.33064 0
M  V30 1563 H 155.407 -2.24238 -3.61382 0
M  V30 1564 N 153.722 1.14298 -1.08507 0
M  V30 1565 C 154.999 1.81544 -0.728088 0
M  V30 1566 C 155.379 1.95838 0.78808 0
M  V30 1567 O 154.727 1.51904 1.70697 0
M  V30 1568 C 154.937 3.17169 -1.45619 0
M  V30 1569 C 156.285 3.9265 -1.61591 0
M  V30 1570 O 157.309 3.26762 -1.41793 0
M  V30 1571 O 156.168 5.10807 -1.94263 0
M  V30 1572 H 153.262 0.78491 -0.260471 0
M  V30 1573 H 155.808 1.21307 -1.18671 0
M  V30 1574 H 154.58 3.01934 -2.489 0
M  V30 1575 H 154.203 3.851 -0.989124 0
M  V30 1576 N 155.201 0.870884 1.31352 0
M  V30 1577 C 156.431 0.496049 2.00557 0
M  V30 1578 C 156.839 -0.916241 1.65534 0
M  V30 1579 O 156.182 -1.61188 0.881134 0
M  V30 1580 C 156.244 0.574418 3.54881 0
M  V30 1581 C 155.908 1.94849 4.1338 0
M  V30 1582 C 156.905 2.91611 4.30417 0
M  V30 1583 C 154.59 2.25005 4.49086 0
M  V30 1584 C 156.584 4.16672 4.82352 0
M  V30 1585 C 154.271 3.50315 5.00722 0
M  V30 1586 C 155.269 4.45964 5.17306 0
M  V30 1587 O 154.957 5.69052 5.67833 0
M  V30 1588 H 154.689 0.191664 0.64826 0
M  V30 1589 H 157.243 1.17409 1.68536 0
M  V30 1590 H 155.473 -0.160549 3.86367 0
M  V30 1591 H 157.162 0.212879 4.05341 0
M  V30 1592 H 157.928 2.69622 4.03149 0
M  V30 1593 H 153.807 1.51332 4.35453 0
M  V30 1594 H 157.351 4.91336 4.95211 0
M  V30 1595 H 153.248 3.72147 5.27424 0
M  V30 1596 H 154.016 5.71236 5.86201 0
M  V30 1597 N 156.679 -1.44442 0.630414 0
M  V30 1598 C 157.925 -2.02351 0.134816 0
M  V30 1599 C 158.258 -1.4947 -1.23986 0
M  V30 1600 O 157.533 -0.678475 -1.82283 0
M  V30 1601 C 157.816 -3.59898 0.120707 0
M  V30 1602 C 157.669 -4.23063 1.52767 0
M  V30 1603 C 158.988 -4.36585 -0.555127 0
M  V30 1604 H 156.107 -0.73527 0.0504646 0
M  V30 1605 H 158.749 -1.72022 0.806751 0
M  V30 1606 H 156.899 -3.85868 -0.451477 0
M  V30 1607 H 158.571 -4.08202 2.14869 0
M  V30 1608 H 156.814 -3.80586 2.08175 0
M  V30 1609 H 157.485 -5.32071 1.46984 0
M  V30 1610 H 159.961 -4.16044 -0.0685429 0
M  V30 1611 H 158.837 -5.46294 -0.534185 0
M  V30 1612 H 159.098 -4.11138 -1.62535 0
M  V30 1613 N 158.157 -0.370918 -1.53173 0
M  V30 1614 C 159.404 0.217102 -2.01333 0
M  V30 1615 C 159.732 1.48338 -1.25802 0
M  V30 1616 O 158.987 1.92698 -0.34146 0
M  V30 1617 C 159.286 0.549696 -3.53147 0
M  V30 1618 C 158.952 -0.622872 -4.46577 0
M  V30 1619 C 157.614 -0.944595 -4.71838 0
M  V30 1620 C 159.966 -1.40819 -5.01816 0
M  V30 1621 C 157.294 -2.05351 -5.49589 0
M  V30 1622 C 159.646 -2.50757 -5.80778 0
M  V30 1623 C 158.31 -2.83458 -6.04324 0
M  V30 1624 H 157.58 0.0794431 -0.736729 0
M  V30 1625 H 160.227 -0.504481 -1.84736 0
M  V30 1626 H 158.532 1.35237 -3.6772 0
M  V30 1627 H 160.229 1.017 -3.87889 0
M  V30 1628 H 156.819 -0.36209 -4.27068 0
M  V30 1629 H 161.003 -1.17289 -4.82242 0
M  V30 1630 H 156.259 -2.3108 -5.6605 0
M  V30 1631 H 160.433 -3.12022 -6.22588 0
M  V30 1632 H 158.06 -3.69508 -6.64355 0
M  V30 1633 N 159.635 1.57281 -0.100228 0
M  V30 1634 C 161.046 1.81725 0.428107 0
M  V30 1635 C 161.397 1.01619 1.67833 0
M  V30 1636 O 160.522 0.247098 2.14985 0
M  V30 1637 C 161.117 3.29617 0.78347 0
M  V30 1638 C 159.676 3.54808 1.25653 0
M  V30 1639 C 158.823 2.76118 0.255752 0
M  V30 1640 H 161.774 1.55324 -0.325608 0
M  V30 1641 H 161.795 3.4322 1.64256 0
M  V30 1642 H 161.307 3.87893 -0.12665 0
M  V30 1643 H 159.408 3.01868 2.18418 0
M  V30 1644 H 159.521 4.63443 1.21482 0
M  V30 1645 H 157.885 2.43745 0.738956 0
M  V30 1646 H 158.668 3.37145 -0.647136 0
M  V30 1647 N 161.113 -0.173488 1.56642 0
M  V30 1648 C 162.361 -0.888706 1.81512 0
M  V30 1649 C 162.682 -1.82875 0.676872 0
M  V30 1650 O 161.952 -1.93536 -0.303414 0
M  V30 1651 H 160.532 -0.331164 0.669582 0
M  V30 1652 H 163.194 -0.173823 1.94123 0
M  V30 1653 H 162.29 -1.46691 2.75478 0
M  V30 1654 N 162.591 -1.51276 -0.441967 0
M  V30 1655 C 163.819 -1.67516 -1.21434 0
M  V30 1656 C 164.234 -0.37055 -1.85128 0
M  V30 1657 O 163.591 0.650498 -1.70513 0
M  V30 1658 C 163.642 -2.78748 -2.30177 0
M  V30 1659 O 163.363 -4.04154 -1.69089 0
M  V30 1660 C 164.864 -3.06217 -3.20541 0
M  V30 1661 H 162.084 -0.562276 -0.366178 0
M  V30 1662 H 164.628 -1.97666 -0.524244 0
M  V30 1663 H 162.783 -2.5121 -2.94911 0
M  V30 1664 H 163.197 -4.65894 -2.40922 0
M  V30 1665 H 164.671 -3.8764 -3.92987 0
M  V30 1666 H 165.148 -2.18439 -3.81026 0
M  V30 1667 H 165.754 -3.35397 -2.61513 0
M  V30 1668 N 164.069 0.697108 -1.41344 0
M  V30 1669 C 165.317 1.45426 -1.40341 0
M  V30 1670 C 165.638 1.94996 -0.0128787 0
M  V30 1671 O 164.908 1.71599 0.945027 0
M  V30 1672 H 163.488 0.539594 -0.516573 0
M  V30 1673 H 166.15 0.825201 -1.76569 0
M  V30 1674 H 165.246 2.31817 -2.08967 0
M  V30 1675 N 165.547 1.27147 0.931209 0
M  V30 1676 C 166.824 1.0401 1.65654 0
M  V30 1677 C 167.204 -0.426297 2.06751 0
M  V30 1678 O 166.552 -1.40879 1.79904 0
M  V30 1679 C 166.762 1.99834 2.86125 0
M  V30 1680 C 168.11 2.29007 3.57549 0
M  V30 1681 O 169.134 1.97779 2.96246 0
M  V30 1682 O 167.993 2.82222 4.67989 0
M  V30 1683 H 165.087 0.396239 0.725895 0
M  V30 1684 H 167.633 1.38397 0.982056 0
M  V30 1685 H 166.405 2.98744 2.52721 0
M  V30 1686 H 166.028 1.65987 3.61295 0
M  V30 1687 N 167.025 -1.13721 1.09112 0
M  V30 1688 C 168.274 -1.84275 0.82009 0
M  V30 1689 C 168.587 -1.84253 -0.656509 0
M  V30 1690 O 169.793 -2.50668 -1.04296 0
M  V30 1691 C 168.249 -3.30825 1.41714 0
M  V30 1692 C 167.857 -3.39244 2.92605 0
M  V30 1693 C 169.601 -4.06443 1.22492 0
M  V30 1694 C 167.508 -4.80047 3.45411 0
M  V30 1695 H 166.438 -0.690387 0.30312 0
M  V30 1696 H 169.089 -1.28146 1.31343 0
M  V30 1697 H 167.471 -3.86737 0.851498 0
M  V30 1698 H 168.645 -2.93344 3.55367 0
M  V30 1699 H 166.96 -2.77088 3.10823 0
M  V30 1700 H 169.557 -5.10387 1.59402 0
M  V30 1701 H 169.9 -4.15972 0.165299 0
M  V30 1702 H 170.433 -3.56852 1.75788 0
M  V30 1703 H 167.172 -4.75709 4.50978 0
M  V30 1704 H 166.692 -5.26455 2.87411 0
M  V30 1705 H 168.371 -5.48957 3.42425 0
M  V30 1706 N 168.503 -0.877838 -1.30888 0
M  V30 1707 C 169.914 -0.544193 -1.78593 0
M  V30 1708 C 170.265 0.939301 -1.72254 0
M  V30 1709 O 169.39 1.7337 -1.29505 0
M  V30 1710 C 169.985 -0.98105 -3.24285 0
M  V30 1711 C 168.544 -0.698935 -3.69854 0
M  V30 1712 C 167.691 -1.168 -2.51502 0
M  V30 1713 H 170.642 -1.06278 -1.17859 0
M  V30 1714 H 170.663 -0.307009 -3.79259 0
M  V30 1715 H 170.175 -2.06079 -3.28866 0
M  V30 1716 H 168.276 0.369112 -3.70767 0
M  V30 1717 H 168.389 -1.28148 -4.61644 0
M  V30 1718 H 166.753 -0.587535 -2.47831 0
M  V30 1719 H 167.536 -2.25533 -2.58824 0
M  V30 1720 N 169.982 1.44106 -0.638065 0
M  V30 1721 C 171.228 2.02815 -0.15409 0
M  V30 1722 C 171.583 1.49342 1.21304 0
M  V30 1723 O 170.876 0.670699 1.79478 0
M  V30 1724 C 171.07 3.5729 -0.0887327 0
M  V30 1725 C 170.899 4.2575 -1.44799 0
M  V30 1726 C 169.669 4.62443 -2.03653 0
M  V30 1727 C 171.867 4.55746 -2.38327 0
M  V30 1728 N 169.849 5.15903 -3.32741 0
M  V30 1729 C 171.22 5.10364 -3.52036 0
M  V30 1730 C 173.275 4.37703 -2.3732 0
M  V30 1731 C 171.978 5.48837 -4.64941 0
M  V30 1732 C 174.004 4.77229 -3.49294 0
M  V30 1733 C 173.366 5.31966 -4.61726 0
M  V30 1734 H 169.465 0.775519 -0.100466 0
M  V30 1735 H 172.049 1.755 -0.843071 0
M  V30 1736 H 170.22 3.84201 0.569548 0
M  V30 1737 H 171.952 4.02671 0.404711 0
M  V30 1738 H 168.707 4.46987 -1.56523 0
M  V30 1739 H 169.131 5.47102 -3.98758 0
M  V30 1740 H 173.773 3.94671 -1.51641 0
M  V30 1741 H 171.491 5.9082 -5.51323 0
M  V30 1742 H 175.077 4.64976 -3.49698 0
M  V30 1743 H 173.957 5.61986 -5.46939 0
M  V30 1744 N 171.46 0.379036 1.52974 0
M  V30 1745 C 172.392 -0.495963 2.2377 0
M  V30 1746 C 173.405 -1.03517 1.25651 0
M  V30 1747 O 174.594 -0.939249 1.51791 0
M  V30 1748 C 171.694 -1.69894 2.93239 0
M  V30 1749 C 170.867 -1.2889 4.17979 0
M  V30 1750 C 169.926 -2.35543 4.70538 0
M  V30 1751 O 168.952 -1.97375 5.33883 0
M  V30 1752 N 170.154 -3.67318 4.49508 0
M  V30 1753 H 172.919 0.110523 2.99496 0
M  V30 1754 H 170.48 0.204878 1.60598 0
M  V30 1755 H 172.472 -2.40747 3.25304 0
M  V30 1756 H 171.042 -2.212 2.20883 0
M  V30 1757 H 170.262 -0.409676 3.92065 0
M  V30 1758 H 171.55 -0.991443 4.99047 0
M  V30 1759 H 170.948 -4.01095 3.98923 0
M  V30 1760 H 169.505 -4.34235 4.8609 0
M  V30 1761 N 172.938 -1.57226 0.108567 0
M  V30 1762 C 173.848 -2.18292 -0.859401 0
M  V30 1763 C 174.864 -1.15612 -1.30038 0
M  V30 1764 O 176.04 -1.48039 -1.36552 0
M  V30 1765 C 173.105 -2.762 -2.09558 0
M  V30 1766 C 172.166 -3.93881 -1.70752 0
M  V30 1767 C 171.399 -4.49018 -2.88477 0
M  V30 1768 O 171.622 -4.03068 -4.036 0
M  V30 1769 O 170.556 -5.39852 -2.66164 0
M  V30 1770 H 174.382 -3.01441 -0.369769 0
M  V30 1771 H 171.967 -1.48945 -0.1165 0
M  V30 1772 H 173.849 -3.13156 -2.81978 0
M  V30 1773 H 172.524 -1.96089 -2.57548 0
M  V30 1774 H 171.431 -3.61713 -0.954714 0
M  V30 1775 H 172.764 -4.75396 -1.27513 0
M  V30 1776 N 174.416 0.165178 -1.56732 0
M  V30 1777 C 175.644 0.896218 -1.86482 0
M  V30 1778 C 176.059 1.75555 -0.694675 0
M  V30 1779 O 175.416 1.79379 0.33607 0
M  V30 1780 C 175.467 1.76792 -3.1532 0
M  V30 1781 O 175.188 0.943239 -4.27825 0
M  V30 1782 C 176.689 2.6081 -3.58459 0
M  V30 1783 H 173.909 0.260064 -0.618553 0
M  V30 1784 H 176.453 0.163428 -2.03846 0
M  V30 1785 H 174.608 2.45398 -2.99764 0
M  V30 1786 H 175.022 1.53998 -5.01383 0
M  V30 1787 H 176.496 3.17579 -4.51495 0
M  V30 1788 H 176.973 3.35977 -2.82872 0
M  V30 1789 H 177.579 1.97526 -3.76648 0
M  V30 1790 N 175.894 1.51508 0.433938 0
M  V30 1791 C 177.171 1.54888 1.19453 0
M  V30 1792 C 177.551 0.315154 2.08734 0
M  V30 1793 O 176.899 -0.699558 2.17528 0
M  V30 1794 C 177.109 2.86467 1.99342 0
M  V30 1795 C 178.457 3.38545 2.56267 0
M  V30 1796 O 179.481 2.88041 2.0955 0
M  V30 1797 O 178.34 4.26675 3.41483 0
M  V30 1798 H 175.434 0.622863 0.544032 0
M  V30 1799 H 177.98 1.63823 0.442732 0
M  V30 1800 H 176.752 3.67718 1.33788 0
M  V30 1801 H 176.375 2.8071 2.8158 0
M  V30 1802 N 177.372 -0.689602 1.41712 0
M  V30 1803 C 178.335 -1.78521 1.43746 0
M  V30 1804 C 179.335 -1.57436 0.327191 0
M  V30 1805 O 180.525 -1.64 0.587348 0
M  V30 1806 C 177.657 -3.16971 1.25467 0
M  V30 1807 H 178.85 -1.78108 2.41283 0
M  V30 1808 H 176.403 -0.89781 1.27942 0
M  V30 1809 H 177.138 -3.23019 0.287948 0
M  V30 1810 H 176.923 -3.33678 2.05917 0
M  V30 1811 H 178.413 -3.96935 1.2974 0
M  V30 1812 N 178.85 -1.27639 -0.924453 0
M  V30 1813 C 180.078 -1.16989 -1.70649 0
M  V30 1814 C 180.493 0.272869 -1.86818 0
M  V30 1815 O 179.85 1.18549 -1.38753 0
M  V30 1816 C 179.901 -1.85229 -3.10439 0
M  V30 1817 O 179.622 -3.23868 -2.95028 0
M  V30 1818 C 181.123 -1.80746 -4.04779 0
M  V30 1819 H 178.343 -0.406595 -0.53378 0
M  V30 1820 H 180.887 -1.68569 -1.15778 0
M  V30 1821 H 179.042 -1.37545 -3.6216 0
M  V30 1822 H 179.456 -3.57889 -3.83426 0
M  V30 1823 H 180.93 -2.33101 -5.00368 0
M  V30 1824 H 181.407 -0.777499 -4.32263 0
M  V30 1825 H 182.013 -2.28059 -3.58984 0
M  V30 1826 N 180.328 1.1314 -1.09713 0
M  V30 1827 C 181.553 1.88862 -0.857081 0
M  V30 1828 C 181.978 1.78729 0.586304 0
M  V30 1829 O 181.336 1.13692 1.41222 0
M  V30 1830 C 181.384 3.36325 -1.30069 0
M  V30 1831 O 180.488 4.09815 -0.461007 0
M  V30 1832 H 179.829 0.587108 -0.310162 0
M  V30 1833 H 182.359 1.43129 -1.46203 0
M  V30 1834 H 182.369 3.87157 -1.28738 0
M  V30 1835 H 181.044 3.43017 -2.35185 0
M  V30 1836 H 179.621 3.68986 -0.538888 0
M  V30 1837 N 181.806 0.884767 1.30421 0
M  V30 1838 C 183.217 0.553656 1.78302 0
M  V30 1839 C 183.568 -0.930153 1.7275 0
M  V30 1840 O 182.693 -1.72681 1.30423 0
M  V30 1841 C 183.288 0.998234 3.2376 0
M  V30 1842 C 181.847 0.71854 3.69478 0
M  V30 1843 C 180.994 1.18132 2.50879 0
M  V30 1844 H 183.945 1.06901 1.17294 0
M  V30 1845 H 183.966 0.327118 3.79091 0
M  V30 1846 H 183.478 2.0782 3.27769 0
M  V30 1847 H 181.579 -0.349444 3.70958 0
M  V30 1848 H 181.692 1.30595 4.60958 0
M  V30 1849 H 180.056 0.600669 2.47516 0
M  V30 1850 H 180.839 2.26902 2.57624 0
M  V30 1851 N 183.284 -1.43765 0.645699 0
M  V30 1852 C 184.214 -2.33471 -0.0370477 0
M  V30 1853 C 185.195 -1.49042 -0.819779 0
M  V30 1854 O 186.38 -1.77726 -0.782758 0
M  V30 1855 C 183.51 -3.32311 -1.0093 0
M  V30 1856 C 182.464 -4.2667 -0.337201 0
M  V30 1857 C 181.79 -5.1549 -1.42037 0
M  V30 1858 C 183.09 -5.16657 0.765706 0
M  V30 1859 H 184.784 -2.90809 0.712069 0
M  V30 1860 H 182.33 -1.39834 0.343876 0
M  V30 1861 H 184.283 -3.9396 -1.49578 0
M  V30 1862 H 183.007 -2.73213 -1.78948 0
M  V30 1863 H 181.666 -3.66374 0.128771 0
M  V30 1864 H 181.314 -4.52735 -2.1918 0
M  V30 1865 H 181.014 -5.79438 -0.975966 0
M  V30 1866 H 182.538 -5.80012 -1.90838 0
M  V30 1867 H 183.952 -5.72158 0.361702 0
M  V30 1868 H 182.349 -5.89286 1.13413 0
M  V30 1869 H 183.419 -4.56796 1.62683 0
M  V30 1870 N 184.763 -0.387143 -1.52771 0
M  V30 1871 C 185.711 0.463953 -2.27926 0
M  V30 1872 C 186.705 1.06493 -1.31741 0
M  V30 1873 O 187.911 1.00565 -1.49287 0
M  V30 1874 H 184.286 0.16837 -0.732909 0
M  V30 1875 H 186.257 -0.19141 -2.97785 0
M  V30 1876 C 185.006 1.5803 -3.09713 0
M  V30 1877 H 184.329 1.12718 -3.83581 0
M  V30 1878 H 185.769 2.15008 -3.65442 0
M  V30 1879 C 184.228 2.53509 -2.2189 0
M  V30 1880 O 184.758 3.56863 -1.84422 0
M  V30 1881 N 182.964 2.23199 -1.86093 0
M  V30 1882 H 182.511 1.39185 -2.16761 0
M  V30 1883 H 182.469 2.87333 -1.27621 0
M  V30 1884 N 186.241 1.57166 -0.116904 0
M  V30 1885 C 187.487 1.95412 0.542405 0
M  V30 1886 C 187.82 1.00019 1.66463 0
M  V30 1887 O 187.095 0.0370346 1.94465 0
M  V30 1888 C 187.378 3.43615 1.07708 0
M  V30 1889 C 187.231 4.49781 -0.0415868 0
M  V30 1890 C 188.55 3.93616 1.96861 0
M  V30 1891 H 185.669 0.710543 0.195696 0
M  V30 1892 H 188.311 1.89027 -0.192038 0
M  V30 1893 H 186.461 3.49187 1.70296 0
M  V30 1894 H 188.133 4.56308 -0.676793 0
M  V30 1895 H 186.376 4.28033 -0.705019 0
M  V30 1896 H 187.047 5.50733 0.373717 0
M  V30 1897 H 189.523 3.90335 1.44146 0
M  V30 1898 H 188.399 4.97838 2.3119 0
M  V30 1899 H 188.66 3.34188 2.89432 0
M  V30 1900 N 187.719 -0.156864 1.56817 0
M  V30 1901 C 188.949 -0.885031 1.86684 0
M  V30 1902 C 189.357 -1.75696 0.701954 0
M  V30 1903 O 188.7 -1.80569 -0.337732 0
M  V30 1904 C 188.762 -1.80092 3.11138 0
M  V30 1905 C 188.426 -1.10714 4.43386 0
M  V30 1906 C 189.423 -0.465714 5.1781 0
M  V30 1907 C 187.108 -1.09959 4.90117 0
M  V30 1908 C 189.102 0.174002 6.37162 0
M  V30 1909 C 186.789 -0.456055 6.09396 0
M  V30 1910 C 187.787 0.179622 6.82764 0
M  V30 1911 O 187.475 0.812975 7.99779 0
M  V30 1912 H 187.207 -0.261813 0.623242 0
M  V30 1913 H 189.761 -0.157383 2.04796 0
M  V30 1914 H 187.991 -2.56926 2.89009 0
M  V30 1915 H 189.68 -2.40018 3.27332 0
M  V30 1916 H 190.446 -0.463427 4.82781 0
M  V30 1917 H 186.325 -1.58378 4.3294 0
M  V30 1918 H 189.869 0.670765 6.94368 0
M  V30 1919 H 185.766 -0.455975 6.43888 0
M  V30 1920 H 186.534 0.71366 8.15383 0
M  V30 1921 N 189.197 -1.51736 -0.425897 0
M  V30 1922 C 190.445 -1.64644 -1.17204 0
M  V30 1923 C 190.766 -0.370486 -1.91448 0
M  V30 1924 O 190.036 0.614088 -1.86026 0
M  V30 1925 H 188.616 -0.606819 -0.435638 0
M  V30 1926 H 191.278 -1.88713 -0.487177 0
M  V30 1927 H 190.374 -2.47958 -1.89534 0
M  V30 1928 N 190.675 0.682077 -1.42076 0
M  V30 1929 C 191.622 1.79578 -1.44984 0
M  V30 1930 C 192.592 1.6332 -0.302614 0
M  V30 1931 O 193.777 1.83978 -0.505633 0
M  V30 1932 C 190.917 3.1756 -1.35091 0
M  V30 1933 C 190.03 3.45156 -2.59791 0
M  V30 1934 C 189.165 4.72826 -2.42093 0
M  V30 1935 C 188.204 4.93433 -3.62202 0
M  V30 1936 N 187.341 6.12338 -3.43491 0
M  V30 1937 H 192.181 1.76427 -2.40161 0
M  V30 1938 H 189.718 0.861376 -1.19242 0
M  V30 1939 H 191.676 3.97287 -1.27354 0
M  V30 1940 H 190.306 3.19854 -0.435133 0
M  V30 1941 H 189.358 2.59736 -2.77923 0
M  V30 1942 H 190.67 3.5628 -3.49094 0
M  V30 1943 H 189.824 5.60631 -2.319 0
M  V30 1944 H 188.563 4.63973 -1.50268 0
M  V30 1945 H 187.568 4.04073 -3.72834 0
M  V30 1946 H 188.793 5.04136 -4.54998 0
M  V30 1947 H 186.739 6.04672 -2.54377 0
M  V30 1948 H 186.656 6.2429 -4.26377 0
M  V30 1949 H 187.924 7.02841 -3.37097 0
M  V30 1950 N 192.153 1.28127 0.917671 0
M  V30 1951 C 193.381 1.17892 1.70026 0
M  V30 1952 C 193.796 -0.262958 1.8696 0
M  V30 1953 O 193.153 -1.17811 1.3938 0
M  V30 1954 C 193.204 1.86872 3.09453 0
M  V30 1955 O 192.925 3.25428 2.93306 0
M  V30 1956 C 194.426 1.8289 4.03815 0
M  V30 1957 H 191.646 0.40942 0.531617 0
M  V30 1958 H 194.19 1.69181 1.14883 0
M  V30 1959 H 192.345 1.39464 3.61426 0
M  V30 1960 H 192.759 3.59918 3.81523 0
M  V30 1961 H 194.233 2.35751 4.99125 0
M  V30 1962 H 194.71 0.800412 4.31845 0
M  V30 1963 H 195.316 2.29959 3.57769 0
M  V30 1964 N 193.631 -1.12557 1.10312 0
M  V30 1965 C 194.578 -2.18247 0.750781 0
M  V30 1966 C 195.548 -1.63853 -0.272293 0
M  V30 1967 O 196.733 -1.90195 -0.151862 0
M  V30 1968 C 193.873 -3.44591 0.187379 0
M  V30 1969 C 192.986 -4.13046 1.2656 0
M  V30 1970 C 192.121 -5.27034 0.663978 0
M  V30 1971 C 191.16 -5.87353 1.72287 0
M  V30 1972 N 190.297 -6.92757 1.1416 0
M  V30 1973 H 195.137 -2.47732 1.65628 0
M  V30 1974 H 192.674 -1.21629 0.827337 0
M  V30 1975 H 194.632 -4.16904 -0.157148 0
M  V30 1976 H 193.262 -3.15527 -0.681355 0
M  V30 1977 H 192.314 -3.38924 1.72727 0
M  V30 1978 H 193.626 -4.53947 2.06721 0
M  V30 1979 H 192.78 -6.06104 0.268824 0
M  V30 1980 H 191.519 -4.87407 -0.169082 0
M  V30 1981 H 190.524 -5.06971 2.12746 0
M  V30 1982 H 191.749 -6.29051 2.55875 0
M  V30 1983 H 189.695 -6.5517 0.329984 0
M  V30 1984 H 189.612 -7.3225 1.88007 0
M  V30 1985 H 190.88 -7.75658 0.772956 0
M  V30 1986 N 195.109 -0.891671 -1.2995 0
M  V30 1987 C 196.039 -0.379797 -2.30391 0
M  V30 1988 C 197.02 0.540919 -1.6127 0
M  V30 1989 O 198.205 0.453352 -1.88834 0
M  V30 1990 C 195.335 0.400654 -3.44981 0
M  V30 1991 C 194.289 -0.428905 -4.25846 0
M  V30 1992 C 193.615 0.478557 -5.32554 0
M  V30 1993 C 194.915 -1.67458 -4.94727 0
M  V30 1994 H 196.609 -1.21914 -2.73454 0
M  V30 1995 H 194.155 -0.587675 -1.31462 0
M  V30 1996 H 196.108 0.769434 -4.14316 0
M  V30 1997 H 194.832 1.27371 -3.0074 0
M  V30 1998 H 193.491 -0.779911 -3.58208 0
M  V30 1999 H 193.139 1.34951 -4.84559 0
M  V30 2000 H 192.839 -0.0727433 -5.87555 0
M  V30 2001 H 194.363 0.843705 -6.04743 0
M  V30 2002 H 195.777 -1.376 -5.56542 0
M  V30 2003 H 194.174 -2.16659 -5.59624 0
M  V30 2004 H 195.244 -2.41518 -4.20473 0
M  V30 2005 N 196.587 1.43421 -0.653314 0
M  V30 2006 C 197.55 2.29182 0.0287951 0
M  V30 2007 C 198.55 1.42213 0.750465 0
M  V30 2008 O 199.74 1.63843 0.591701 0
M  V30 2009 C 196.872 3.24278 1.05151 0
M  V30 2010 H 198.065 2.90985 -0.725786 0
M  V30 2011 H 195.618 1.50702 -0.414545 0
M  V30 2012 H 196.353 2.6737 1.83532 0
M  V30 2013 H 196.138 3.88396 0.537687 0
M  V30 2014 H 197.628 3.88647 1.52786 0
M  V30 2015 N 198.065 0.39524 1.52563 0
M  V30 2016 C 199.313 -0.184678 2.01254 0
M  V30 2017 C 199.634 -1.46822 1.28329 0
M  V30 2018 O 198.904 -1.91666 0.405094 0
M  V30 2019 H 197.484 -0.0712355 0.743596 0
M  V30 2020 H 200.146 0.528293 1.87603 0
M  V30 2021 H 199.242 -0.390681 3.09645 0
M  V30 2022 N 199.544 -1.57102 0.125237 0
M  V30 2023 C 200.454 -2.19191 -0.8362 0
M  V30 2024 C 201.47 -1.16985 -1.28805 0
M  V30 2025 O 202.646 -1.49479 -1.34974 0
M  V30 2026 C 199.711 -2.78407 -2.06617 0
M  V30 2027 C 198.772 -3.9567 -1.66565 0
M  V30 2028 C 198.005 -4.52052 -2.83698 0
M  V30 2029 O 198.228 -4.07326 -3.99302 0
M  V30 2030 O 197.162 -5.42645 -2.60423 0
M  V30 2031 H 200.988 -3.01816 -0.337776 0
M  V30 2032 H 198.573 -1.4906 -0.100695 0
M  V30 2033 H 200.455 -3.16129 -2.7864 0
M  V30 2034 H 199.13 -1.9881 -2.55453 0
M  V30 2035 H 198.037 -3.62705 -0.916296 0
M  V30 2036 H 199.37 -4.76722 -1.22464 0
M  V30 2037 N 201.022 0.148545 -1.56898 0
M  V30 2038 C 201.969 1.18345 -1.98149 0
M  V30 2039 C 202.939 1.42772 -0.848848 0
M  V30 2040 O 204.124 1.55132 -1.11079 0
M  V30 2041 C 201.264 2.51231 -2.36594 0
M  V30 2042 C 200.377 2.33991 -3.63142 0
M  V30 2043 C 199.512 3.59902 -3.90697 0
M  V30 2044 C 198.551 3.37692 -5.1052 0
M  V30 2045 N 197.688 4.5573 -5.34092 0
M  V30 2046 H 202.528 0.82467 -2.86362 0
M  V30 2047 H 200.065 0.395756 -1.41676 0
M  V30 2048 H 202.023 3.28713 -2.56912 0
M  V30 2049 H 200.653 2.85059 -1.51463 0
M  V30 2050 H 199.705 1.47572 -3.50609 0
M  V30 2051 H 201.017 2.13539 -4.5078 0
M  V30 2052 H 200.171 4.45813 -4.11505 0
M  V30 2053 H 198.91 3.83357 -3.01477 0
M  V30 2054 H 197.915 2.5017 -4.89587 0
M  V30 2055 H 199.14 3.15637 -6.0129 0
M  V30 2056 H 197.086 4.79361 -4.47827 0
M  V30 2057 H 197.003 4.38274 -6.15996 0
M  V30 2058 H 198.271 5.42858 -5.59397 0
M  V30 2059 N 202.5 1.5196 0.417844 0
M  V30 2060 C 203.463 1.74065 1.49111 0
M  V30 2061 C 204.463 0.610537 1.48758 0
M  V30 2062 O 205.653 0.87832 1.50437 0
M  V30 2063 C 202.785 1.81502 2.88565 0
M  V30 2064 H 203.978 2.69869 1.30807 0
M  V30 2065 H 201.531 1.42244 0.647785 0
M  V30 2066 H 202.266 0.875813 3.1225 0
M  V30 2067 H 202.051 2.63651 2.90225 0
M  V30 2068 H 203.541 2.00376 3.66387 0
M  V30 2069 N 203.978 -0.674533 1.42435 0
M  V30 2070 C 204.908 -1.80009 1.48724 0
M  V30 2071 C 205.889 -1.6659 0.343793 0
M  V30 2072 O 207.074 -1.86007 0.558137 0
M  V30 2073 C 204.204 -3.18306 1.38919 0
M  V30 2074 C 203.158 -3.46461 2.51294 0
M  V30 2075 C 202.484 -4.84335 2.26547 0
M  V30 2076 C 203.784 -3.43328 3.93603 0
M  V30 2077 H 205.478 -1.75004 2.42928 0
M  V30 2078 H 203.024 -0.840533 1.16923 0
M  V30 2079 H 204.977 -3.9678 1.41927 0
M  V30 2080 H 203.701 -3.2399 0.412094 0
M  V30 2081 H 202.36 -2.70348 2.47604 0
M  V30 2082 H 202.008 -4.86669 1.2713 0
M  V30 2083 H 201.708 -5.04136 3.01861 0
M  V30 2084 H 203.232 -5.65094 2.31304 0
M  V30 2085 H 204.646 -4.11772 3.98894 0
M  V30 2086 H 203.043 -3.74664 4.68771 0
M  V30 2087 H 204.113 -2.41897 4.20255 0
M  V30 2088 N 205.456 -1.28612 -0.910864 0
M  V30 2089 C 206.388 -1.08589 -2.01844 0
M  V30 2090 C 207.401 -0.0367419 -1.62759 0
M  V30 2091 O 208.59 -0.280101 -1.76289 0
M  V30 2092 C 205.69 -0.628626 -3.33019 0
M  V30 2093 C 204.863 -1.75382 -4.00699 0
M  V30 2094 C 203.922 -1.28945 -5.10156 0
M  V30 2095 O 202.948 -1.9922 -5.33198 0
M  V30 2096 N 204.15 -0.154224 -5.80295 0
M  V30 2097 H 206.915 -2.03973 -2.19579 0
M  V30 2098 H 204.476 -1.20403 -1.08234 0
M  V30 2099 H 206.468 -0.301508 -4.03575 0
M  V30 2100 H 205.038 0.232451 -3.11735 0
M  V30 2101 H 204.258 -2.25039 -3.23653 0
M  V30 2102 H 205.546 -2.50854 -4.42662 0
M  V30 2103 H 204.944 0.43194 -5.64049 0
M  V30 2104 H 203.501 0.113599 -6.51701 0
M  V30 2105 N 206.934 1.1197 -1.10907 0
M  V30 2106 C 208.211 1.79959 -0.766432 0
M  V30 2107 C 208.591 1.97466 0.746363 0
M  V30 2108 O 207.939 1.55491 1.67436 0
M  V30 2109 C 208.149 3.14009 -1.52314 0
M  V30 2110 C 209.497 3.89134 -1.69883 0
M  V30 2111 O 210.521 3.2368 -1.48692 0
M  V30 2112 O 209.38 5.06572 -2.05054 0
M  V30 2113 H 206.474 0.779208 -0.277062 0
M  V30 2114 H 209.02 1.18762 -1.21217 0
M  V30 2115 H 207.792 2.96587 -2.55249 0
M  V30 2116 H 207.415 3.82915 -1.07059 0
M  V30 2117 N 208.412 0.89855 1.29475 0
M  V30 2118 C 209.36 0.365253 2.29714 0
M  V30 2119 C 210.354 -0.534993 1.6073 0
M  V30 2120 O 211.56 -0.417921 1.75081 0
M  V30 2121 H 207.935 0.0994853 0.74539 0
M  V30 2122 H 209.906 1.22406 2.72138 0
M  V30 2123 C 208.655 -0.393159 3.4547 0
M  V30 2124 H 207.978 0.290332 3.98744 0
M  V30 2125 H 209.418 -0.731189 4.17648 0
M  V30 2126 C 207.877 -1.59539 2.9673 0
M  V30 2127 O 208.407 -2.69469 2.97908 0
M  V30 2128 N 206.613 -1.43716 2.52575 0
M  V30 2129 H 206.16 -0.542828 2.51816 0
M  V30 2130 H 206.118 -2.24288 2.20323 0
M  V30 2131 N 209.89 -1.43072 0.660911 0
M  V30 2132 C 211.13 -2.03596 0.181146 0
M  V30 2133 C 211.494 -1.51057 -1.18515 0
M  V30 2134 O 212.695 -2.03275 -1.75877 0
M  V30 2135 C 210.966 -3.56845 0.19911 0
M  V30 2136 S 212.525 -4.38289 -0.211684 0
M  V30 2137 H 209.343 -0.706954 0.0757479 0
M  V30 2138 H 211.945 -1.75027 0.870965 0
M  V30 2139 H 210.649 -3.92583 1.1961 0
M  V30 2140 H 210.18 -3.90067 -0.510996 0
M  V30 2141 H 212.195 -4.74583 -1.44863 0
M  V30 2142 N 211.368 -0.403325 -1.52352 0
M  V30 2143 C 212.779 0.0675782 -1.86578 0
M  V30 2144 C 213.13 1.44941 -1.32236 0
M  V30 2145 O 212.255 2.06112 -0.659307 0
M  V30 2146 C 212.85 0.129404 -3.38553 0
M  V30 2147 C 211.409 0.544629 -3.72439 0
M  V30 2148 C 210.556 -0.284551 -2.75836 0
M  V30 2149 H 213.507 -0.620631 -1.46061 0
M  V30 2150 H 213.528 0.94581 -3.68558 0
M  V30 2151 H 213.04 -0.87645 -3.78074 0
M  V30 2152 H 211.141 1.55734 -3.38493 0
M  V30 2153 H 211.254 0.293046 -4.78203 0
M  V30 2154 H 209.618 0.252258 -2.53448 0
M  V30 2155 H 210.401 -1.28865 -3.18196 0
M  V30 2156 N 212.846 1.57033 -0.133567 0
M  V30 2157 C 213.793 2.16074 0.811208 0
M  V30 2158 C 214.763 1.08979 1.2535 0
M  V30 2159 O 215.948 1.36958 1.32843 0
M  V30 2160 C 213.088 2.77595 2.05024 0
M  V30 2161 C 212.201 3.99042 1.65498 0
M  V30 2162 C 211.336 4.48603 2.84479 0
M  V30 2163 C 210.375 5.62547 2.41262 0
M  V30 2164 N 209.512 6.06787 3.53206 0
M  V30 2165 H 214.352 2.96477 0.300906 0
M  V30 2166 H 211.889 1.46462 0.136822 0
M  V30 2167 H 213.847 3.11402 2.77642 0
M  V30 2168 H 212.477 1.99859 2.53488 0
M  V30 2169 H 211.529 3.71302 0.826981 0
M  V30 2170 H 212.841 4.81629 1.29748 0
M  V30 2171 H 211.995 4.84395 3.65303 0
M  V30 2172 H 210.734 3.64995 3.23465 0
M  V30 2173 H 209.739 5.26345 1.58874 0
M  V30 2174 H 210.964 6.47931 2.03377 0
M  V30 2175 H 208.91 5.26117 3.91838 0
M  V30 2176 H 208.827 6.84266 3.21427 0
M  V30 2177 H 210.095 6.4722 4.34427 0
M  V30 2178 N 214.325 -0.140222 1.56975 0
M  V30 2179 C 215.275 -1.17827 1.95194 0
M  V30 2180 C 216.259 -1.38195 0.824075 0
M  V30 2181 O 217.451 -1.39643 1.0876 0
M  V30 2182 C 214.58 -2.51024 2.34184 0
M  V30 2183 C 213.666 -2.3422 3.53556 0
M  V30 2184 N 214.057 -1.87185 4.69889 0
M  V30 2185 C 212.355 -2.64949 3.58773 0
M  V30 2186 C 213.056 -1.83586 5.5197 0
M  V30 2187 N 212.032 -2.2715 4.93866 0
M  V30 2188 H 215.834 -0.806817 2.82609 0
M  V30 2189 H 213.348 -0.348208 1.58623 0
M  V30 2190 H 215.345 -3.26074 2.59772 0
M  V30 2191 H 214.005 -2.88945 1.48124 0
M  V30 2192 H 215.016 -1.57048 4.93514 0
M  V30 2193 H 211.693 -3.067 2.8327 0
M  V30 2194 H 213.083 -1.48655 6.55249 0
M  V30 2195 N 215.803 -1.52179 -0.40978 0
M  V30 2196 C 216.733 -1.78435 -1.5061 0
M  V30 2197 C 217.714 -0.635295 -1.57791 0
M  V30 2198 O 218.899 -0.880823 -1.73076 0
M  V30 2199 C 216.029 -1.93444 -2.88439 0
M  V30 2200 C 214.983 -3.09038 -2.96108 0
M  V30 2201 C 214.309 -3.09268 -4.36185 0
M  V30 2202 C 215.609 -4.48508 -2.67652 0
M  V30 2203 H 217.303 -2.70237 -1.28889 0
M  V30 2204 H 214.849 -1.30036 -0.618605 0
M  V30 2205 H 216.802 -2.10394 -3.65119 0
M  V30 2206 H 215.526 -0.983129 -3.11452 0
M  V30 2207 H 214.185 -2.91837 -2.21872 0
M  V30 2208 H 213.833 -2.11861 -4.56206 0
M  V30 2209 H 213.533 -3.86907 -4.42241 0
M  V30 2210 H 215.057 -3.28348 -5.14801 0
M  V30 2211 H 216.471 -4.65918 -3.34056 0
M  V30 2212 H 214.868 -5.28059 -2.85085 0
M  V30 2213 H 215.938 -4.56649 -1.63095 0
M  V30 2214 N 217.281 0.66697 -1.42791 0
M  V30 2215 C 218.53 1.42278 -1.42968 0
M  V30 2216 C 218.843 1.9553 -0.0524489 0
M  V30 2217 O 220.049 2.71414 0.068363 0
M  V30 2218 C 218.505 2.57418 -2.51524 0
M  V30 2219 C 218.113 2.10832 -3.9529 0
M  V30 2220 C 219.857 3.34878 -2.60877 0
M  V30 2221 C 217.764 3.23101 -4.95338 0
M  V30 2222 H 216.694 0.534533 -0.531781 0
M  V30 2223 H 219.345 0.721302 -1.68729 0
M  V30 2224 H 217.727 3.29971 -2.18941 0
M  V30 2225 H 218.901 1.4538 -4.37266 0
M  V30 2226 H 217.216 1.46289 -3.89857 0
M  V30 2227 H 219.813 4.18505 -3.32802 0
M  V30 2228 H 220.156 3.81993 -1.6549 0
M  V30 2229 H 220.689 2.69398 -2.92693 0
M  V30 2230 H 217.428 2.80969 -5.9223 0
M  V30 2231 H 216.948 3.87309 -4.57987 0
M  V30 2232 H 218.627 3.88447 -5.17415 0
M  V30 2233 N 218.759 1.29093 0.90403 0
M  V30 2234 C 220.006 1.16813 1.65411 0
M  V30 2235 C 220.334 -0.28128 1.92455 0
M  V30 2236 O 219.589 -1.22006 1.53013 0
M  V30 2237 C 219.888 1.92224 3.01305 0
M  V30 2238 C 219.554 3.41968 2.93885 0
M  V30 2239 C 218.216 3.82807 2.91569 0
M  V30 2240 C 220.568 4.37409 2.83413 0
M  V30 2241 C 217.896 5.1741 2.76594 0
M  V30 2242 C 220.248 5.72097 2.69977 0
M  V30 2243 C 218.912 6.12199 2.66024 0
M  V30 2244 H 218.182 0.42745 0.605283 0
M  V30 2245 H 220.829 1.59981 1.05254 0
M  V30 2246 H 219.134 1.41635 3.65304 0
M  V30 2247 H 220.831 1.80131 3.58265 0
M  V30 2248 H 217.421 3.09504 2.96488 0
M  V30 2249 H 221.605 4.06813 2.84283 0
M  V30 2250 H 216.861 5.47596 2.71935 0
M  V30 2251 H 221.035 6.45704 2.60844 0
M  V30 2252 H 218.662 7.16448 2.54178 0
M  V30 2253 N 220.237 -1.11381 1.11499 0
M  V30 2254 C 221.653 -1.35143 0.849031 0
M  V30 2255 C 221.853 -1.94515 -0.525938 0
M  V30 2256 O 220.909 -2.1785 -1.27662 0
M  V30 2257 C 222.222 -2.28249 1.95762 0
M  V30 2258 C 223.77 -2.41812 1.98736 0
M  V30 2259 C 224.245 -3.3824 3.088 0
M  V30 2260 N 225.736 -3.45803 3.08179 0
M  V30 2261 C 226.471 -4.20358 3.89982 0
M  V30 2262 N 225.967 -4.97884 4.8175 0
M  V30 2263 N 227.76 -4.15877 3.78157 0
M  V30 2264 H 219.911 -0.712062 2.00109 0
M  V30 2265 H 222.174 -0.376025 0.870235 0
M  V30 2266 H 221.88 -1.91817 2.94787 0
M  V30 2267 H 221.754 -3.28473 1.85433 0
M  V30 2268 H 224.141 -2.77518 1.00338 0
M  V30 2269 H 224.222 -1.41437 2.13141 0
M  V30 2270 H 223.866 -3.03261 4.07425 0
M  V30 2271 H 223.796 -4.38471 2.91635 0
M  V30 2272 H 226.287 -2.90506 2.41691 0
M  V30 2273 H 226.6 -5.52142 5.40702 0
M  V30 2274 H 224.945 -4.97043 4.85771 0
M  V30 2275 H 228.136 -3.544 3.05808 0
M  V30 2276 H 228.309 -4.73723 4.42143 0
M  V30 2277 N 221.715 -0.905404 -1.28997 0
M  V30 2278 C 222.943 -0.549846 -1.9946 0
M  V30 2279 C 223.358 0.866834 -1.67724 0
M  V30 2280 O 222.715 1.57298 -0.925404 0
M  V30 2281 C 222.766 -0.739387 -3.53858 0
M  V30 2282 O 222.487 -2.10031 -3.84472 0
M  V30 2283 C 223.988 -0.389541 -4.41585 0
M  V30 2284 H 221.208 -0.210429 -0.637151 0
M  V30 2285 H 223.752 -1.21632 -1.64396 0
M  V30 2286 H 221.907 -0.120023 -3.87214 0
M  V30 2287 H 222.321 -2.13385 -4.79132 0
M  V30 2288 H 223.795 -0.572972 -5.49018 0
M  V30 2289 H 224.272 0.673756 -4.34001 0
M  V30 2290 H 224.878 -0.986089 -4.1371 0
M  V30 2291 N 223.193 1.4272 -0.668489 0
M  V30 2292 C 224.418 2.06484 -0.194758 0
M  V30 2293 C 224.843 1.49862 1.13679 0
M  V30 2294 O 224.201 0.614582 1.70565 0
M  V30 2295 C 224.249 3.60353 -0.133546 0
M  V30 2296 O 223.353 4.02464 0.899806 0
M  V30 2297 H 222.694 0.656137 -0.10188 0
M  V30 2298 H 225.224 1.82964 -0.915722 0
M  V30 2299 H 225.234 4.07976 0.0447041 0
M  V30 2300 H 223.909 4.00938 -1.1055 0
M  V30 2301 H 222.486 3.66402 0.693109 0
M  V30 2302 N 224.671 0.411399 1.52136 0
M  V30 2303 C 225.917 -0.156262 2.02799 0
M  V30 2304 C 226.272 -1.42613 1.29149 0
M  V30 2305 O 225.565 -1.87592 0.389839 0
M  V30 2306 C 225.759 -0.455872 3.54481 0
M  V30 2307 C 225.588 0.783404 4.42824 0
M  V30 2308 C 224.358 1.30928 4.88043 0
M  V30 2309 C 226.556 1.66217 4.86699 0
M  V30 2310 N 224.538 2.5038 5.6052 0
M  V30 2311 C 225.909 2.70292 5.5798 0
M  V30 2312 C 227.964 1.67966 4.68713 0
M  V30 2313 C 226.667 3.7603 6.13184 0
M  V30 2314 C 228.693 2.72624 5.24815 0
M  V30 2315 C 228.055 3.7542 5.9602 0
M  V30 2316 H 224.154 -0.0186886 0.781777 0
M  V30 2317 H 226.738 0.566255 1.86284 0
M  V30 2318 H 224.909 -1.14743 3.71064 0
M  V30 2319 H 226.641 -1.01261 3.91827 0
M  V30 2320 H 223.396 0.866977 4.65597 0
M  V30 2321 H 223.82 3.10881 6.014 0
M  V30 2322 H 228.462 0.898312 4.13147 0
M  V30 2323 H 226.18 4.55019 6.6782 0
M  V30 2324 H 229.766 2.74887 5.12765 0
M  V30 2325 H 228.646 4.55073 6.38654 0
M  V30 2326 N 226.149 -1.5696 0.141893 0
M  V30 2327 C 227.395 -1.9625 -0.511248 0
M  V30 2328 C 227.728 -1.02654 -1.64851 0
M  V30 2329 O 227.003 -0.0679676 -1.94381 0
M  V30 2330 C 227.286 -3.45285 -1.02227 0
M  V30 2331 C 227.139 -4.49658 0.113138 0
M  V30 2332 C 228.458 -3.96698 -1.90574 0
M  V30 2333 H 225.577 -0.713567 -0.184367 0
M  V30 2334 H 228.219 -1.88698 0.222087 0
M  V30 2335 H 226.369 -3.51852 -1.64719 0
M  V30 2336 H 228.041 -4.55174 0.749302 0
M  V30 2337 H 226.284 -4.26857 0.773026 0
M  V30 2338 H 226.955 -5.51258 -0.286053 0
M  V30 2339 H 229.431 -3.92578 -1.37918 0
M  V30 2340 H 228.307 -5.01453 -2.2324 0
M  V30 2341 H 228.568 -3.3875 -2.84079 0
M  V30 2342 N 227.627 0.131896 -1.57047 0
M  V30 2343 C 228.857 0.855219 -1.88068 0
M  V30 2344 C 229.265 1.74557 -0.729817 0
M  V30 2345 O 228.608 1.81083 0.308962 0
M  V30 2346 C 228.67 1.75119 -3.13964 0
M  V30 2347 C 228.334 1.03646 -4.45091 0
M  V30 2348 C 229.331 0.383276 -5.18485 0
M  V30 2349 C 227.016 1.02148 -4.91804 0
M  V30 2350 C 229.01 -0.275347 -6.36805 0
M  V30 2351 C 226.697 0.359047 -6.10044 0
M  V30 2352 C 227.695 -0.288222 -6.82392 0
M  V30 2353 O 227.383 -0.94011 -7.98384 0
M  V30 2354 H 227.115 0.251864 -0.627328 0
M  V30 2355 H 229.669 0.124782 -2.05021 0
M  V30 2356 H 227.899 2.52295 -2.9306 0
M  V30 2357 H 229.588 2.3478 -3.31109 0
M  V30 2358 H 230.354 0.386562 -4.83457 0
M  V30 2359 H 226.233 1.5147 -4.35405 0
M  V30 2360 H 229.777 -0.781148 -6.93213 0
M  V30 2361 H 225.674 0.35348 -6.44531 0
M  V30 2362 H 226.442 -0.84329 -8.14144 0
M  V30 2363 N 229.106 1.52395 0.401703 0
M  V30 2364 C 230.069 1.75636 1.47257 0
M  V30 2365 C 231.069 0.62628 1.48103 0
M  V30 2366 O 232.259 0.894227 1.49497 0
M  V30 2367 C 229.391 1.84553 2.86624 0
M  V30 2368 H 230.584 2.71241 1.27938 0
M  V30 2369 H 228.137 1.42923 0.632662 0
M  V30 2370 H 228.872 0.908882 3.11303 0
M  V30 2371 H 228.657 2.66715 2.87412 0
M  V30 2372 H 230.147 2.04251 3.64241 0
M  V30 2373 N 230.584 -0.659388 1.43143 0
M  V30 2374 C 231.832 -1.41654 1.44147 0
M  V30 2375 C 232.153 -1.94893 0.0645739 0
M  V30 2376 O 231.423 -1.74044 -0.899198 0
M  V30 2377 H 230.003 -0.525708 0.530697 0
M  V30 2378 H 232.665 -0.778097 1.78694 0
M  V30 2379 H 231.761 -2.26195 2.1504 0
M  V30 2380 N 232.062 -1.29571 -0.897171 0
M  V30 2381 C 233.009 -1.14916 -2.00158 0
M  V30 2382 C 233.979 -0.0418149 -1.66047 0
M  V30 2383 O 235.164 -0.209793 -1.89643 0
M  V30 2384 C 232.304 -0.834307 -3.34863 0
M  V30 2385 C 231.417 -2.02234 -3.8174 0
M  V30 2386 C 230.552 -1.64664 -5.05034 0
M  V30 2387 C 229.591 -2.80033 -5.44286 0
M  V30 2388 N 228.728 -2.42843 -6.58765 0
M  V30 2389 H 233.568 -2.09403 -2.12025 0
M  V30 2390 H 231.105 -1.042 -1.0383 0
M  V30 2391 H 233.063 -0.632436 -4.12379 0
M  V30 2392 H 231.693 0.0736656 -3.22716 0
M  V30 2393 H 230.745 -2.33583 -3.00238 0
M  V30 2394 H 232.057 -2.88673 -4.06779 0
M  V30 2395 H 231.211 -1.4078 -5.9014 0
M  V30 2396 H 229.95 -0.753766 -4.8184 0
M  V30 2397 H 228.955 -3.04596 -4.57713 0
M  V30 2398 H 230.18 -3.69989 -5.6946 0
M  V30 2399 H 228.126 -1.56046 -6.3717 0
M  V30 2400 H 228.043 -3.22815 -6.83613 0
M  V30 2401 H 229.311 -2.22285 -7.47134 0
M  V30 2402 N 233.54 1.10788 -1.12088 0
M  V30 2403 C 234.788 1.8231 -0.872205 0
M  V30 2404 C 235.109 1.85419 0.603709 0
M  V30 2405 O 234.379 1.32963 1.43867 0
M  V30 2406 H 232.959 0.675137 -0.319686 0
M  V30 2407 H 235.621 1.34068 -1.41463 0
M  V30 2408 H 234.717 2.85955 -1.25045 0
M  V30 2409 N 235.018 0.912232 1.28515 0
M  V30 2410 C 235.966 0.389597 2.29314 0
M  V30 2411 C 236.96 -0.517915 1.61289 0
M  V30 2412 O 238.166 -0.399328 1.75515 0
M  V30 2413 H 234.541 0.107386 0.744293 0
M  V30 2414 H 236.512 1.25286 2.70825 0
M  V30 2415 C 235.261 -0.356496 3.45868 0
M  V30 2416 H 234.584 0.332608 3.98414 0
M  V30 2417 H 236.024 -0.686851 4.184 0
M  V30 2418 C 234.483 -1.56383 2.98406 0
M  V30 2419 O 235.013 -2.66294 3.00749 0
M  V30 2420 N 233.219 -1.41029 2.54085 0
M  V30 2421 H 232.766 -0.516089 2.52377 0
M  V30 2422 H 232.724 -2.21939 2.22689 0
M  V30 2423 N 236.496 -1.42363 0.676048 0
M  V30 2424 C 237.444 -2.32596 -0.0131507 0
M  V30 2425 C 238.438 -1.49891 -0.789238 0
M  V30 2426 O 239.644 -1.65955 -0.697061 0
M  V30 2427 H 236.019 -0.751647 -0.0230481 0
M  V30 2428 H 237.99 -2.88421 0.765243 0
M  V30 2429 C 236.739 -3.34479 -0.949702 0
M  V30 2430 H 236.062 -3.98158 -0.361938 0
M  V30 2431 H 237.502 -4.00199 -1.4006 0
M  V30 2432 C 235.961 -2.66838 -2.05667 0
M  V30 2433 O 236.491 -2.50124 -3.14326 0
M  V30 2434 N 234.697 -2.25843 -1.82875 0
M  V30 2435 H 234.244 -2.39637 -0.945085 0
M  V30 2436 H 234.202 -1.80918 -2.5713 0
M  V30 2437 N 237.974 -0.419461 -1.51915 0
M  V30 2438 C 239.221 0.152939 -2.01922 0
M  V30 2439 C 239.549 1.4426 -1.30458 0
M  V30 2440 O 238.804 1.91514 -0.402593 0
M  V30 2441 C 239.103 0.437067 -3.54717 0
M  V30 2442 C 238.769 -0.764632 -4.44369 0
M  V30 2443 C 237.431 -1.09423 -4.68594 0
M  V30 2444 C 239.783 -1.56713 -4.97082 0
M  V30 2445 C 237.111 -2.22732 -5.42777 0
M  V30 2446 C 239.463 -2.69107 -5.72507 0
M  V30 2447 C 238.127 -3.02541 -5.95 0
M  V30 2448 H 237.397 0.0559644 -0.738884 0
M  V30 2449 H 240.044 -0.562998 -1.83037 0
M  V30 2450 H 238.349 1.23469 -3.71837 0
M  V30 2451 H 240.046 0.893083 -3.90928 0
M  V30 2452 H 236.636 -0.497775 -4.257 0
M  V30 2453 H 240.82 -1.32571 -4.78266 0
M  V30 2454 H 236.076 -2.48971 -5.58411 0
M  V30 2455 H 240.25 -3.31671 -6.12346 0
M  V30 2456 H 237.877 -3.90457 -6.52264 0
M  V30 2457 N 239.452 1.56882 -0.150215 0
M  V30 2458 C 240.415 2.1573 0.774157 0
M  V30 2459 C 241.415 1.0999 1.17298 0
M  V30 2460 O 242.605 1.35613 1.09338 0
M  V30 2461 C 239.737 2.72302 2.05096 0
M  V30 2462 H 240.93 2.98752 0.262201 0
M  V30 2463 H 238.483 1.55985 0.099248 0
M  V30 2464 H 239.218 1.92956 2.6065 0
M  V30 2465 H 239.003 3.49665 1.77416 0
M  V30 2466 H 240.493 3.17632 2.71109 0
M  V30 2467 N 240.93 -0.123565 1.57115 0
M  V30 2468 C 241.877 -1.15177 2.00007 0
M  V30 2469 C 242.847 -1.41403 0.871454 0
M  V30 2470 O 244.032 -1.53346 1.13533 0
M  V30 2471 C 241.172 -2.47436 2.40561 0
M  V30 2472 C 240.285 -2.28184 3.66819 0
M  V30 2473 C 239.42 -3.53641 3.96373 0
M  V30 2474 C 238.459 -3.29528 5.15827 0
M  V30 2475 N 237.596 -4.47175 5.41275 0
M  V30 2476 H 242.436 -0.779008 2.87638 0
M  V30 2477 H 239.973 -0.373166 1.42288 0
M  V30 2478 H 241.931 -3.24584 2.62109 0
M  V30 2479 H 240.561 -2.82614 1.55978 0
M  V30 2480 H 239.613 -1.41976 3.52912 0
M  V30 2481 H 240.925 -2.0634 4.5412 0
M  V30 2482 H 240.079 -4.39209 4.18545 0
M  V30 2483 H 238.818 -3.78512 3.07538 0
M  V30 2484 H 237.823 -2.42349 4.93505 0
M  V30 2485 H 239.048 -3.06031 6.06236 0
M  V30 2486 H 236.994 -4.72175 4.55397 0
M  V30 2487 H 236.911 -4.28419 6.22891 0
M  V30 2488 H 238.179 -5.3389 5.67963 0
M  V30 2489 N 242.408 -1.52605 -0.393616 0
M  V30 2490 C 243.636 -1.71294 -1.16043 0
M  V30 2491 C 244.051 -0.429259 -1.83855 0
M  V30 2492 O 243.408 0.595921 -1.72496 0
M  V30 2493 C 243.459 -2.8593 -2.21193 0
M  V30 2494 O 243.18 -4.09329 -1.56146 0
M  V30 2495 C 244.681 -3.16259 -3.10636 0
M  V30 2496 H 241.901 -0.573641 -0.348104 0
M  V30 2497 H 244.445 -1.99234 -0.461092 0
M  V30 2498 H 242.6 -2.60465 -2.86769 0
M  V30 2499 H 243.014 -4.73323 -2.25978 0
M  V30 2500 H 244.488 -3.99946 -3.80456 0
M  V30 2501 H 244.965 -2.3045 -3.73884 0
M  V30 2502 H 245.571 -3.43547 -2.50711 0
M  V30 2503 N 243.887 0.651787 -1.4349 0
M  V30 2504 C 244.82 1.77668 -1.43211 0
M  V30 2505 C 245.798 1.59931 -0.29338 0
M  V30 2506 O 246.982 1.82095 -0.487191 0
M  V30 2507 C 244.109 3.14986 -1.24505 0
M  V30 2508 C 243.155 3.51421 -2.41673 0
M  V30 2509 S 243.988 3.51234 -4.04222 0
M  V30 2510 C 245.144 4.91206 -3.87902 0
M  V30 2511 H 245.377 1.77635 -2.38397 0
M  V30 2512 H 242.91 0.824558 -1.30539 0
M  V30 2513 H 244.868 3.94237 -1.144 0
M  V30 2514 H 243.529 3.1258 -0.308651 0
M  V30 2515 H 242.722 4.51291 -2.24393 0
M  V30 2516 H 242.324 2.79585 -2.48411 0
M  V30 2517 H 244.616 5.79902 -3.50315 0
M  V30 2518 H 245.559 5.13537 -4.8753 0
M  V30 2519 H 245.967 4.64808 -3.20334 0
M  V30 2520 N 245.365 1.30045 0.890287 0
M  V30 2521 C 246.295 1.18541 2.01172 0
M  V30 2522 C 247.276 0.0773356 1.69924 0
M  V30 2523 O 248.461 0.25845 1.92473 0
M  V30 2524 C 245.591 0.870941 3.36202 0
M  V30 2525 C 244.545 1.93637 3.81692 0
M  V30 2526 C 243.871 1.475 5.13953 0
M  V30 2527 C 245.171 3.34666 4.00994 0
M  V30 2528 H 246.865 2.12359 2.11054 0
M  V30 2529 H 244.411 1.02238 1.01407 0
M  V30 2530 H 246.364 0.777141 4.14172 0
M  V30 2531 H 245.088 -0.102926 3.26438 0
M  V30 2532 H 243.747 2.01972 3.05946 0
M  V30 2533 H 243.395 0.489551 5.00612 0
M  V30 2534 H 243.095 2.1876 5.4536 0
M  V30 2535 H 244.619 1.39489 5.94454 0
M  V30 2536 H 246.033 3.2912 4.69417 0
M  V30 2537 H 244.43 4.03966 4.43769 0
M  V30 2538 H 245.5 3.76949 3.05021 0
M  V30 2539 N 246.843 -1.10192 1.12674 0
M  V30 2540 C 248.259 -1.34235 0.863317 0
M  V30 2541 C 248.459 -1.95062 -0.505277 0
M  V30 2542 O 247.515 -2.19192 -1.25345 0
M  V30 2543 C 248.828 -2.2616 1.98172 0
M  V30 2544 C 250.376 -2.3969 2.0129 0
M  V30 2545 C 250.851 -3.34946 3.1237 0
M  V30 2546 N 252.342 -3.42515 3.11829 0
M  V30 2547 C 253.077 -4.16199 3.94419 0
M  V30 2548 N 252.573 -4.92747 4.87004 0
M  V30 2549 N 254.366 -4.11843 3.82547 0
M  V30 2550 H 246.517 -0.690798 2.00853 0
M  V30 2551 H 248.78 -0.366774 0.874174 0
M  V30 2552 H 248.486 -1.8868 2.96804 0
M  V30 2553 H 248.36 -3.26488 1.88906 0
M  V30 2554 H 250.747 -2.76438 1.03276 0
M  V30 2555 H 250.828 -1.39169 2.14629 0
M  V30 2556 H 250.472 -2.98923 4.10619 0
M  V30 2557 H 250.402 -4.35353 2.96269 0
M  V30 2558 H 252.893 -2.87926 2.44759 0
M  V30 2559 H 253.206 -5.46376 5.46528 0
M  V30 2560 H 251.551 -4.91862 4.91016 0
M  V30 2561 H 254.742 -3.51136 3.0955 0
M  V30 2562 H 254.915 -4.69007 4.47142 0
M  V30 2563 N 248.321 -0.919034 -1.28029 0
M  V30 2564 C 249.251 -0.428581 -2.29533 0
M  V30 2565 C 250.232 0.50659 -1.62381 0
M  V30 2566 O 251.417 0.413195 -1.89753 0
M  V30 2567 C 248.547 0.327388 -3.45753 0
M  V30 2568 C 247.501 -0.519137 -4.2484 0
M  V30 2569 C 246.827 0.365486 -5.33449 0
M  V30 2570 C 248.127 -1.77914 -4.91064 0
M  V30 2571 H 249.821 -1.27687 -2.70807 0
M  V30 2572 H 247.367 -0.615428 -1.30186 0
M  V30 2573 H 249.32 0.681378 -4.15855 0
M  V30 2574 H 248.044 1.20963 -3.03374 0
M  V30 2575 H 246.703 -0.855717 -3.56473 0
M  V30 2576 H 246.351 1.24642 -4.87312 0
M  V30 2577 H 246.051 -0.197356 -5.87268 0
M  V30 2578 H 247.575 0.715241 -6.06396 0
M  V30 2579 H 248.989 -1.49374 -5.53498 0
M  V30 2580 H 247.386 -2.2848 -5.54903 0
M  V30 2581 H 248.456 -2.50382 -4.15255 0
M  V30 2582 N 249.799 1.42003 -0.683588 0
M  V30 2583 C 250.762 2.29191 -0.0198243 0
M  V30 2584 C 251.762 1.43773 0.72013 0
M  V30 2585 O 252.952 1.65061 0.556815 0
M  V30 2586 C 250.084 3.26435 0.982487 0
M  V30 2587 H 251.277 2.8938 -0.787345 0
M  V30 2588 H 248.83 1.49789 -0.446418 0
M  V30 2589 H 249.565 2.71203 1.77819 0
M  V30 2590 H 249.35 3.89449 0.455182 0
M  V30 2591 H 250.84 3.918 1.44508 0
M  V30 2592 N 251.277 0.427512 1.51691 0
M  V30 2593 C 252.224 -0.388867 2.275 0
M  V30 2594 C 253.194 -1.02532 1.30677 0
M  V30 2595 O 254.379 -1.0461 1.59566 0
M  V30 2596 C 251.519 -1.48954 3.11298 0
M  V30 2597 C 250.632 -0.872194 4.23104 0
M  V30 2598 C 249.767 -1.94709 4.94228 0
M  V30 2599 C 248.806 -1.30766 5.97969 0
M  V30 2600 N 247.943 -2.32349 6.62539 0
M  V30 2601 H 252.783 0.263997 2.96828 0
M  V30 2602 H 250.32 0.142033 1.46413 0
M  V30 2603 H 252.278 -2.13887 3.58201 0
M  V30 2604 H 250.908 -2.11217 2.44105 0
M  V30 2605 H 249.96 -0.111419 3.80237 0
M  V30 2606 H 251.272 -0.365264 4.97461 0
M  V30 2607 H 250.426 -2.67327 5.44629 0
M  V30 2608 H 249.165 -2.48773 4.1948 0
M  V30 2609 H 248.17 -0.566902 5.4687 0
M  V30 2610 H 249.395 -0.774483 6.74669 0
M  V30 2611 H 247.341 -2.85511 5.90609 0
M  V30 2612 H 247.258 -1.8652 7.3263 0
M  V30 2613 H 248.526 -3.04481 7.17574 0
M  V30 2614 N 252.755 -1.56801 0.158532 0
M  V30 2615 C 253.665 -2.20916 -0.789518 0
M  V30 2616 C 254.681 -1.1969 -1.26294 0
M  V30 2617 O 255.857 -1.52308 -1.31773 0
M  V30 2618 C 252.922 -2.82727 -2.00665 0
M  V30 2619 C 251.983 -3.99114 -1.58134 0
M  V30 2620 C 251.216 -4.57968 -2.74045 0
M  V30 2621 O 251.439 -4.15704 -3.90572 0
M  V30 2622 O 250.373 -5.48047 -2.48855 0
M  V30 2623 H 254.199 -3.02464 -0.273681 0
M  V30 2624 H 251.784 -1.4924 -0.0690548 0
M  V30 2625 H 253.666 -3.21968 -2.71872 0
M  V30 2626 H 252.341 -2.04184 -2.51179 0
M  V30 2627 H 251.248 -3.64567 -0.839155 0
M  V30 2628 H 252.581 -4.79212 -1.12325 0
M  V30 2629 N 254.233 0.115231 -1.57178 0
M  V30 2630 C 255.649 0.468877 -1.52557 0
M  V30 2631 C 255.849 1.81649 -0.872125 0
M  V30 2632 O 254.905 2.48347 -0.45606 0
M  V30 2633 C 256.218 0.4499 -2.97315 0
M  V30 2634 C 257.766 0.533185 -3.08425 0
M  V30 2635 C 258.241 0.54456 -4.54751 0
M  V30 2636 N 259.732 0.605892 -4.5922 0
M  V30 2637 C 260.467 0.636203 -5.6986 0
M  V30 2638 N 259.963 0.623931 -6.89985 0
M  V30 2639 N 261.756 0.679496 -5.57978 0
M  V30 2640 H 253.907 -0.767712 -1.9804 0
M  V30 2641 H 256.17 -0.283609 -0.904583 0
M  V30 2642 H 255.876 -0.472721 -3.48509 0
M  V30 2643 H 255.75 1.27632 -3.5495 0
M  V30 2644 H 258.137 1.44623 -2.57232 0
M  V30 2645 H 258.218 -0.320995 -2.53778 0
M  V30 2646 H 257.862 -0.364452 -5.06591 0
M  V30 2647 H 257.792 1.41568 -5.07214 0
M  V30 2648 H 260.283 0.621386 -3.72756 0
M  V30 2649 H 260.596 0.649787 -7.70063 0
M  V30 2650 H 258.941 0.591296 -6.9248 0
M  V30 2651 H 262.132 0.686472 -4.63039 0
M  V30 2652 H 262.305 0.69965 -6.44212 0
M  V30 2653 N 255.711 1.52812 0.385517 0
M  V30 2654 C 256.643 1.74096 1.49074 0
M  V30 2655 C 257.656 0.621462 1.50472 0
M  V30 2656 O 258.845 0.897245 1.54311 0
M  V30 2657 C 255.945 1.78774 2.87911 0
M  V30 2658 C 255.118 3.08134 3.10439 0
M  V30 2659 C 254.177 3.04313 4.29278 0
M  V30 2660 O 253.203 3.78168 4.25415 0
M  V30 2661 N 254.405 2.23741 5.35649 0
M  V30 2662 H 257.17 2.69455 1.31202 0
M  V30 2663 H 254.731 1.51343 0.575065 0
M  V30 2664 H 256.723 1.73721 3.65518 0
M  V30 2665 H 255.293 0.907869 2.99126 0
M  V30 2666 H 254.513 3.26649 2.20667 0
M  V30 2667 H 255.801 3.93662 3.22347 0
M  V30 2668 H 255.199 1.63211 5.41645 0
M  V30 2669 H 253.756 2.24524 6.11909 0
M  V30 2670 N 257.189 -0.644168 1.43834 0
M  V30 2671 C 258.417 -1.43147 1.49387 0
M  V30 2672 C 258.832 -1.88452 0.114583 0
M  V30 2673 O 258.189 -1.60047 -0.876989 0
M  V30 2674 C 258.24 -2.66046 2.44748 0
M  V30 2675 O 257.961 -2.22633 3.77314 0
M  V30 2676 C 259.462 -3.59311 2.59635 0
M  V30 2677 H 256.682 -0.439447 0.507077 0
M  V30 2678 H 259.226 -0.78895 1.88669 0
M  V30 2679 H 257.381 -3.26418 2.08638 0
M  V30 2680 H 257.795 -3.02216 4.28679 0
M  V30 2681 H 259.269 -4.42187 3.30416 0
M  V30 2682 H 259.746 -4.07259 1.64427 0
M  V30 2683 H 260.352 -3.04816 2.96593 0
M  V30 2684 N 258.668 -1.30515 -0.883378 0
M  V30 2685 C 259.598 -1.19607 -2.00541 0
M  V30 2686 C 260.579 -0.086346 -1.69881 0
M  V30 2687 O 261.764 -0.268654 -1.92333 0
M  V30 2688 C 258.894 -0.888758 -3.35736 0
M  V30 2689 C 257.848 -1.95659 -3.8066 0
M  V30 2690 C 257.174 -1.50224 -5.13164 0
M  V30 2691 C 258.474 -3.36788 -3.99213 0
M  V30 2692 H 260.168 -2.13476 -2.09925 0
M  V30 2693 H 257.714 -1.02775 -1.00863 0
M  V30 2694 H 259.667 -0.799094 -4.13754 0
M  V30 2695 H 258.391 0.0856125 -3.26488 0
M  V30 2696 H 257.05 -2.03591 -3.04871 0
M  V30 2697 H 256.698 -0.516092 -5.00345 0
M  V30 2698 H 256.398 -2.2165 -5.44192 0
M  V30 2699 H 257.922 -1.42639 -5.93706 0
M  V30 2700 H 259.336 -3.31605 -4.67665 0
M  V30 2701 H 257.733 -4.06314 -4.41621 0
M  V30 2702 H 258.803 -3.78561 -3.03017 0
M  V30 2703 N 260.146 1.09593 -1.13257 0
M  V30 2704 C 261.371 1.8604 -0.916732 0
M  V30 2705 C 261.796 1.80504 0.529146 0
M  V30 2706 O 261.154 1.18127 1.37534 0
M  V30 2707 C 261.202 3.32017 -1.40703 0
M  V30 2708 O 260.306 4.08141 -0.591153 0
M  V30 2709 H 259.647 0.576943 -0.328683 0
M  V30 2710 H 262.177 1.38405 -1.50682 0
M  V30 2711 H 262.187 3.82865 -1.4099 0
M  V30 2712 H 260.862 3.35361 -2.45979 0
M  V30 2713 H 259.439 3.67084 -0.656005 0
M  V30 2714 N 261.624 0.925811 1.2754 0
M  V30 2715 C 262.87 0.566092 1.94739 0
M  V30 2716 C 263.203 -0.890057 1.72603 0
M  V30 2717 O 262.478 -1.63467 1.05399 0
M  V30 2718 C 262.761 0.89054 3.48915 0
M  V30 2719 C 262.614 2.4003 3.80402 0
M  V30 2720 C 263.933 0.395101 4.38323 0
M  V30 2721 H 261.052 0.20714 0.707292 0
M  V30 2722 H 263.694 1.15725 1.50691 0
M  V30 2723 H 261.844 0.387452 3.86563 0
M  V30 2724 H 263.516 2.97494 3.52555 0
M  V30 2725 H 261.759 2.85028 3.2702 0
M  V30 2726 H 262.43 2.57785 4.8811 0
M  V30 2727 H 264.906 0.826241 4.07814 0
M  V30 2728 H 263.782 0.651086 5.45025 0
M  V30 2729 H 264.043 -0.704798 4.36446 0
M  V30 2730 N 263.102 -1.41638 0.69111 0
M  V30 2731 C 264.351 -2.00526 0.217318 0
M  V30 2732 C 264.664 -1.55353 -1.18848 0
M  V30 2733 O 265.87 -2.06769 -1.75951 0
M  V30 2734 C 264.326 -3.58313 0.337639 0
M  V30 2735 C 263.934 -4.12469 1.74852 0
M  V30 2736 C 265.678 -4.24431 -0.0766066 0
M  V30 2737 C 263.585 -5.62675 1.82074 0
M  V30 2738 H 262.515 -0.750008 0.0774893 0
M  V30 2739 H 265.166 -1.6217 0.858661 0
M  V30 2740 H 263.548 -3.9425 -0.371879 0
M  V30 2741 H 264.722 -3.8796 2.48644 0
M  V30 2742 H 263.037 -3.58861 2.11205 0
M  V30 2743 H 265.634 -5.34683 -0.0430284 0
M  V30 2744 H 265.977 -4.01101 -1.1146 0
M  V30 2745 H 266.51 -3.93512 0.582476 0
M  V30 2746 H 263.249 -5.90826 2.83911 0
M  V30 2747 H 262.769 -5.89124 1.12661 0
M  V30 2748 H 264.448 -6.27371 1.58159 0
M  V30 2749 N 264.58 -0.43555 -1.51462 0
M  V30 2750 C 265.528 0.391205 -2.29287 0
M  V30 2751 C 266.522 1.02247 -1.35062 0
M  V30 2752 O 267.728 0.957646 -1.52411 0
M  V30 2753 H 264.103 0.144968 -0.737895 0
M  V30 2754 H 266.074 -0.286051 -2.97026 0
M  V30 2755 C 264.823 1.48096 -3.14583 0
M  V30 2756 H 264.146 1.00457 -3.86973 0
M  V30 2757 H 265.586 2.03273 -3.72097 0
M  V30 2758 C 264.045 2.46321 -2.29843 0
M  V30 2759 O 264.575 3.50815 -1.95682 0
M  V30 2760 N 262.781 2.17166 -1.931 0
M  V30 2761 H 262.328 1.32218 -2.21079 0
M  V30 2762 H 262.286 2.83127 -1.36698 0
M  V30 2763 N 266.058 1.56714 -0.166846 0
M  V30 2764 C 267.335 1.88412 0.525373 0
M  V30 2765 C 267.715 1.07602 1.81618 0
M  V30 2766 O 267.063 0.168621 2.27877 0
M  V30 2767 C 267.273 3.40363 0.771613 0
M  V30 2768 C 268.621 4.10007 1.1036 0
M  V30 2769 O 269.645 3.45655 0.860304 0
M  V30 2770 O 268.504 5.2369 1.56239 0
M  V30 2771 H 265.598 0.781587 0.270278 0
M  V30 2772 H 268.144 1.68458 -0.204946 0
M  V30 2773 H 266.916 3.91046 -0.141093 0
M  V30 2774 H 266.539 3.65914 1.55541 0
M  V30 2775 N 267.536 -0.106894 1.57237 0
M  V30 2776 C 268.468 -1.15646 1.97885 0
M  V30 2777 C 269.481 -1.36981 0.879779 0
M  V30 2778 O 270.67 -1.35841 1.15799 0
M  V30 2779 C 267.77 -2.51425 2.27241 0
M  V30 2780 C 266.943 -2.50529 3.58545 0
M  V30 2781 C 266.002 -3.68145 3.75973 0
M  V30 2782 O 265.028 -3.51176 4.47956 0
M  V30 2783 N 266.23 -4.87177 3.15656 0
M  V30 2784 H 268.995 -0.81059 2.8853 0
M  V30 2785 H 266.556 -0.296024 1.59171 0
M  V30 2786 H 268.548 -3.28689 2.36105 0
M  V30 2787 H 267.118 -2.78147 1.42663 0
M  V30 2788 H 266.338 -1.58894 3.60758 0
M  V30 2789 H 267.626 -2.46997 4.44826 0
M  V30 2790 H 267.024 -5.03868 2.57165 0
M  V30 2791 H 265.581 -5.62075 3.30023 0
M  V30 2792 N 269.014 -1.53014 -0.377408 0
M  V30 2793 C 270.244 -1.72265 -1.14054 0
M  V30 2794 C 270.652 -0.44601 -1.83868 0
M  V30 2795 O 269.995 0.590095 -1.73964 0
M  V30 2796 C 270.057 -2.82492 -2.22348 0
M  V30 2797 C 269.721 -4.23233 -1.72402 0
M  V30 2798 C 270.718 -5.05992 -1.19448 0
M  V30 2799 C 268.403 -4.696 -1.78273 0
M  V30 2800 C 270.397 -6.33203 -0.730268 0
M  V30 2801 C 268.084 -5.96792 -1.31464 0
M  V30 2802 C 269.082 -6.78424 -0.789297 0
M  V30 2803 O 268.77 -8.0323 -0.328077 0
M  V30 2804 H 268.502 -0.579873 -0.347453 0
M  V30 2805 H 271.056 -2.00502 -0.445882 0
M  V30 2806 H 269.286 -2.49702 -2.95272 0
M  V30 2807 H 270.975 -2.90034 -2.83963 0
M  V30 2808 H 271.741 -4.71349 -1.14259 0
M  V30 2809 H 267.62 -4.06142 -2.18106 0
M  V30 2810 H 271.164 -6.96868 -0.319542 0
M  V30 2811 H 267.061 -6.30937 -1.36342 0
M  V30 2812 H 267.829 -8.1727 -0.448493 0
M  V30 2813 N 270.492 0.636531 -1.44174 0
M  V30 2814 C 271.74 1.39343 -1.46383 0
M  V30 2815 C 272.061 1.94766 -0.0955715 0
M  V30 2816 O 271.331 1.75452 0.871395 0
M  V30 2817 H 269.911 0.517199 -0.538994 0
M  V30 2818 H 272.573 0.74957 -1.7991 0
M  V30 2819 H 271.669 2.22746 -2.18611 0
M  V30 2820 N 271.97 1.30982 0.876444 0
M  V30 2821 C 272.933 1.18054 1.96459 0
M  V30 2822 C 273.933 0.109399 1.60427 0
M  V30 2823 O 275.123 0.358173 1.70478 0
M  V30 2824 C 272.255 0.810616 3.31122 0
M  V30 2825 H 273.448 2.14735 2.09354 0
M  V30 2826 H 271.001 1.145 1.06392 0
M  V30 2827 H 271.736 -0.155322 3.23928 0
M  V30 2828 H 271.521 1.58481 3.58645 0
M  V30 2829 H 273.011 0.743876 4.10921 0
M  V30 2830 N 273.449 -1.08991 1.13837 0
M  V30 2831 C 274.86 -1.62746 0.914917 0
M  V30 2832 C 275.211 -1.88403 -0.547594 0
M  V30 2833 O 274.336 -1.63706 -1.41525 0
M  V30 2834 C 274.931 -2.95662 1.65437 0
M  V30 2835 C 273.49 -3.46225 1.47666 0
M  V30 2836 C 272.637 -2.20562 1.6807 0
M  V30 2837 H 275.588 -0.922946 1.29102 0
M  V30 2838 H 275.609 -3.63825 1.11407 0
M  V30 2839 H 275.121 -2.76956 2.71877 0
M  V30 2840 H 273.222 -3.70046 0.435478 0
M  V30 2841 H 273.335 -4.23368 2.24268 0
M  V30 2842 H 271.699 -2.29439 1.10589 0
M  V30 2843 H 272.482 -2.0437 2.7584 0
M  V30 2844 N 274.927 -0.932562 -1.27047 0
M  V30 2845 C 276.155 -0.592031 -1.98249 0
M  V30 2846 C 276.57 0.831062 -1.69525 0
M  V30 2847 O 275.927 1.55299 -0.958561 0
M  V30 2848 C 275.978 -0.814279 -3.5221 0
M  V30 2849 O 275.699 -2.18139 -3.7993 0
M  V30 2850 C 277.2 -0.483121 -4.4066 0
M  V30 2851 H 274.42 -0.223896 -0.632544 0
M  V30 2852 H 276.964 -1.25091 -1.61779 0
M  V30 2853 H 275.119 -0.20213 -3.86872 0
M  V30 2854 H 275.533 -2.235 -4.74498 0
M  V30 2855 H 277.007 -0.689298 -5.47679 0
M  V30 2856 H 277.484 0.581546 -4.35333 0
M  V30 2857 H 278.09 -1.07362 -4.11526 0
M  V30 2858 N 276.405 1.4127 -0.698611 0
M  V30 2859 C 277.653 2.00782 -0.230409 0
M  V30 2860 C 277.974 1.5562 1.17505 0
M  V30 2861 O 277.244 0.78815 1.79346 0
M  V30 2862 H 275.824 0.742464 -0.0821944 0
M  V30 2863 H 278.486 1.72852 -0.90045 0
M  V30 2864 H 277.582 3.11095 -0.25021 0
M  V30 2865 N 277.883 0.443576 1.51229 0
M  V30 2866 C 278.846 -0.353132 2.26463 0
M  V30 2867 C 279.846 -0.944338 1.3015 0
M  V30 2868 O 281.036 -0.817813 1.5381 0
M  V30 2869 C 278.168 -1.50023 3.06114 0
M  V30 2870 H 279.361 0.3063 2.98332 0
M  V30 2871 H 276.914 0.196902 1.55055 0
M  V30 2872 H 277.649 -2.19553 2.38677 0
M  V30 2873 H 277.434 -1.08241 3.76864 0
M  V30 2874 H 278.924 -2.06296 3.63087 0
M  V30 2875 N 279.361 -1.56624 0.175154 0
M  V30 2876 C 280.271 -2.21741 -0.766042 0
M  V30 2877 C 281.287 -1.21023 -1.25018 0
M  V30 2878 O 282.463 -1.53697 -1.3015 0
M  V30 2879 C 279.528 -2.84839 -1.97655 0
M  V30 2880 C 278.589 -4.00769 -1.53892 0
M  V30 2881 C 277.822 -4.60849 -2.69173 0
M  V30 2882 O 278.045 -4.19823 -3.86141 0
M  V30 2883 O 276.979 -5.50655 -2.43028 0
M  V30 2884 H 280.805 -3.02738 -0.241585 0
M  V30 2885 H 278.39 -1.49305 -0.053222 0
M  V30 2886 H 280.272 -3.24834 -2.68442 0
M  V30 2887 H 278.947 -2.06836 -2.48999 0
M  V30 2888 H 277.854 -3.65436 -0.80044 0
M  V30 2889 H 279.187 -4.80376 -1.07236 0
M  V30 2890 N 280.839 0.0985539 -1.57292 0
M  V30 2891 C 281.769 1.12064 -2.04851 0
M  V30 2892 C 282.75 1.41981 -0.936767 0
M  V30 2893 O 283.935 1.52071 -1.20781 0
M  V30 2894 C 281.065 2.44144 -2.47004 0
M  V30 2895 C 280.019 2.28643 -3.6181 0
M  V30 2896 C 279.345 3.65869 -3.89929 0
M  V30 2897 C 280.645 1.72986 -4.92822 0
M  V30 2898 H 282.339 0.724979 -2.9049 0
M  V30 2899 H 279.885 0.34729 -1.39749 0
M  V30 2900 H 281.838 3.15914 -2.78884 0
M  V30 2901 H 280.562 2.85639 -1.5836 0
M  V30 2902 H 279.221 1.59318 -3.30172 0
M  V30 2903 H 278.869 4.04885 -2.98458 0
M  V30 2904 H 278.569 3.56344 -4.67218 0
M  V30 2905 H 280.093 4.39112 -4.2428 0
M  V30 2906 H 281.507 2.34593 -5.23105 0
M  V30 2907 H 279.904 1.74229 -5.74251 0
M  V30 2908 H 280.974 0.689007 -4.7998 0
M  V30 2909 N 282.317 1.53212 0.369288 0
M  V30 2910 C 283.247 1.82365 1.45826 0
M  V30 2911 C 284.228 0.676907 1.56051 0
M  V30 2912 O 285.413 0.926401 1.70679 0
M  V30 2913 C 282.543 2.01023 2.83208 0
M  V30 2914 C 281.497 3.1678 2.8781 0
M  V30 2915 C 280.823 3.20724 4.27832 0
M  V30 2916 C 282.123 4.55447 2.55667 0
M  V30 2917 H 283.817 2.73559 1.21678 0
M  V30 2918 H 281.363 1.3163 0.583911 0
M  V30 2919 H 283.316 2.20001 3.59413 0
M  V30 2920 H 282.04 1.06536 3.08736 0
M  V30 2921 H 280.699 2.97616 2.14056 0
M  V30 2922 H 280.347 2.23882 4.50429 0
M  V30 2923 H 280.047 3.98496 4.31827 0
M  V30 2924 H 281.571 3.41881 5.05915 0
M  V30 2925 H 282.985 4.74611 3.21586 0
M  V30 2926 H 281.382 5.35432 2.70984 0
M  V30 2927 H 282.452 4.60812 1.5093 0
M  V30 2928 N 283.795 -0.628877 1.44509 0
M  V30 2929 C 284.758 -1.72263 1.51188 0
M  V30 2930 C 285.758 -1.55907 0.39367 0
M  V30 2931 O 286.948 -1.61361 0.656377 0
M  V30 2932 C 284.08 -3.11365 1.38798 0
M  V30 2933 H 285.273 -1.67714 2.4862 0
M  V30 2934 H 282.826 -0.842737 1.31634 0
M  V30 2935 H 283.561 -3.21507 0.424693 0
M  V30 2936 H 283.346 -3.24644 2.19884 0
M  V30 2937 H 284.836 -3.91075 1.46458 0
M  V30 2938 N 285.273 -1.31445 -0.869486 0
M  V30 2939 C 286.55 -1.11795 -1.60503 0
M  V30 2940 C 286.93 0.327168 -2.08549 0
M  V30 2941 O 286.278 1.32135 -1.8642 0
M  V30 2942 C 286.488 -2.13258 -2.76265 0
M  V30 2943 C 287.836 -2.45805 -3.46215 0
M  V30 2944 O 288.86 -2.11688 -2.86473 0
M  V30 2945 O 287.719 -3.04228 -4.5399 0
M  V30 2946 H 284.813 -0.430421 -0.706163 0
M  V30 2947 H 287.359 -1.42925 -0.914907 0
M  V30 2948 H 286.131 -3.10461 -2.3818 0
M  V30 2949 H 285.754 -1.83035 -3.52964 0
M  V30 2950 N 286.751 1.08385 -1.14413 0
M  V30 2951 C 287.991 1.8238 -0.922868 0
M  V30 2952 C 288.355 1.84225 0.540842 0
M  V30 2953 O 289.556 2.53985 0.880058 0
M  V30 2954 C 287.827 3.24048 -1.50757 0
M  V30 2955 S 289.386 4.14917 -1.4279 0
M  V30 2956 H 286.204 0.628524 -0.332384 0
M  V30 2957 H 288.806 1.30278 -1.45766 0
M  V30 2958 H 287.51 3.20288 -2.56601 0
M  V30 2959 H 287.041 3.81224 -0.971178 0
M  V30 2960 H 289.056 4.94473 -0.413582 0
M  V30 2961 N 288.23 0.939286 1.26551 0
M  V30 2962 C 289.458 0.602536 1.97932 0
M  V30 2963 C 289.873 -0.82206 1.69964 0
M  V30 2964 O 289.23 -1.54789 0.966784 0
M  V30 2965 C 289.281 0.832946 3.51773 0
M  V30 2966 O 289.002 2.20151 3.78768 0
M  V30 2967 C 290.503 0.506483 4.40397 0
M  V30 2968 H 287.723 0.227248 0.631347 0
M  V30 2969 H 290.267 1.25948 1.61113 0
M  V30 2970 H 288.422 0.222644 3.8676 0
M  V30 2971 H 288.836 2.26013 4.73306 0
M  V30 2972 H 290.31 0.718333 5.47306 0
M  V30 2973 H 290.787 -0.558451 4.35635 0
M  V30 2974 H 291.393 1.09543 4.10951 0
M  V30 2975 N 289.708 -1.40897 0.706093 0
M  V30 2976 C 290.671 -2.29131 0.0562841 0
M  V30 2977 C 291.671 -1.44901 -0.697166 0
M  V30 2978 O 292.861 -1.65926 -0.530484 0
M  V30 2979 C 289.993 -3.27957 -0.93043 0
M  V30 2980 H 291.186 -2.88091 0.833284 0
M  V30 2981 H 288.739 -1.4906 0.470192 0
M  V30 2982 H 289.474 -2.73997 -1.73482 0
M  V30 2983 H 289.259 -3.90124 -0.393166 0
M  V30 2984 H 290.749 -3.94049 -1.38256 0
M  V30 2985 N 291.186 -0.45159 -1.50991 0
M  V30 2986 C 292.136 0.370861 -2.24964 0
M  V30 2987 C 293.12 0.978074 -1.2776 0
M  V30 2988 O 294.312 0.893854 -1.52772 0
M  V30 2989 C 291.441 1.46344 -3.10545 0
M  V30 2990 C 290.527 0.864924 -4.15187 0
M  V30 2991 N 290.918 -0.00311354 -5.058 0
M  V30 2992 C 289.216 1.13099 -4.31422 0
M  V30 2993 C 289.917 -0.340772 -5.80701 0
M  V30 2994 N 288.893 0.279203 -5.42883 0
M  V30 2995 H 292.695 -0.298134 -2.92384 0
M  V30 2996 H 290.209 -0.264528 -1.60231 0
M  V30 2997 H 292.206 2.06565 -3.62128 0
M  V30 2998 H 290.866 2.13463 -2.4467 0
M  V30 2999 H 291.877 -0.37058 -5.16572 0
M  V30 3000 H 288.554 1.79861 -3.76771 0
M  V30 3001 H 289.944 -1.048 -6.63677 0
M  V30 3002 N 292.664 1.56529 -0.183458 0
M  V30 3003 C 293.627 2.17324 0.728223 0
M  V30 3004 C 294.627 1.12453 1.14939 0
M  V30 3005 O 295.817 1.37902 1.06437 0
M  V30 3006 C 292.949 2.76591 1.99274 0
M  V30 3007 H 294.142 2.99241 0.198772 0
M  V30 3008 H 291.695 1.5616 0.0661391 0
M  V30 3009 H 292.43 1.98441 2.56499 0
M  V30 3010 H 292.215 3.5335 1.69959 0
M  V30 3011 H 293.705 3.23311 2.6431 0
M  V30 3012 N 294.142 -0.090211 1.57342 0
M  V30 3013 C 295.391 -0.791531 1.8552 0
M  V30 3014 C 295.704 -1.79659 0.773441 0
M  V30 3015 O 296.91 -2.54616 0.942497 0
M  V30 3016 C 295.366 -1.45856 3.2902 0
M  V30 3017 C 294.974 -0.493017 4.45279 0
M  V30 3018 C 296.718 -2.14332 3.66418 0
M  V30 3019 C 294.625 -1.16491 5.79814 0
M  V30 3020 H 293.555 -0.299356 0.692027 0
M  V30 3021 H 296.206 -0.0445343 1.83446 0
M  V30 3022 H 294.588 -2.25318 3.2565 0
M  V30 3023 H 295.762 0.270464 4.60006 0
M  V30 3024 H 294.077 0.0863061 4.16311 0
M  V30 3025 H 296.674 -2.65344 4.64216 0
M  V30 3026 H 297.017 -2.93447 2.95287 0
M  V30 3027 H 297.55 -1.41724 3.71698 0
M  V30 3028 H 294.289 -0.41447 6.54188 0
M  V30 3029 H 293.809 -1.8997 5.68921 0
M  V30 3030 H 295.488 -1.69001 6.24538 0
M  V30 3031 N 295.62 -1.53406 -0.361157 0
M  V30 3032 C 297.036 -1.43277 -0.703124 0
M  V30 3033 C 297.236 -0.575384 -1.9311 0
M  V30 3034 O 296.292 -0.0595362 -2.5243 0
M  V30 3035 C 297.605 -2.8653 -0.9122 0
M  V30 3036 C 299.153 -2.96191 -1.01193 0
M  V30 3037 C 299.628 -4.40514 -1.25345 0
M  V30 3038 N 301.119 -4.43962 -1.32105 0
M  V30 3039 C 301.854 -5.52746 -1.5251 0
M  V30 3040 N 301.35 -6.71567 -1.70203 0
M  V30 3041 N 303.143 -5.40331 -1.54916 0
M  V30 3042 H 295.294 -2.07654 0.446475 0
M  V30 3043 H 297.557 -0.937944 0.137715 0
M  V30 3044 H 297.263 -3.51605 -0.0816414 0
M  V30 3045 H 297.137 -3.30441 -1.81903 0
M  V30 3046 H 299.524 -2.31266 -1.83303 0
M  V30 3047 H 299.605 -2.55667 -0.0823929 0
M  V30 3048 H 299.249 -5.06014 -0.437346 0
M  V30 3049 H 299.179 -4.78614 -2.19627 0
M  V30 3050 H 301.67 -3.58332 -1.20028 0
M  V30 3051 H 301.983 -7.50241 -1.85359 0
M  V30 3052 H 300.328 -6.74545 -1.67373 0
M  V30 3053 H 303.519 -4.46465 -1.40663 0
M  V30 3054 H 303.692 -6.25173 -1.70477 0
M  V30 3055 N 297.098 0.621204 -1.44841 0
M  V30 3056 C 298.344 1.3826 -1.48365 0
M  V30 3057 C 298.677 1.93831 -0.119624 0
M  V30 3058 O 297.952 1.74251 0.864111 0
M  V30 3059 C 298.235 2.54058 -2.55199 0
M  V30 3060 C 298.088 2.03772 -4.00995 0
M  V30 3061 C 299.407 3.56225 -2.58442 0
M  V30 3062 H 296.526 0.501374 -0.540179 0
M  V30 3063 H 299.168 0.7015 -1.76576 0
M  V30 3064 H 297.318 3.12162 -2.31274 0
M  V30 3065 H 298.99 1.50423 -4.36086 0
M  V30 3066 H 297.233 1.34876 -4.12299 0
M  V30 3067 H 297.904 2.87185 -4.71411 0
M  V30 3068 H 300.38 3.07939 -2.79844 0
M  V30 3069 H 299.256 4.34756 -3.3508 0
M  V30 3070 H 299.517 4.10949 -1.63013 0
M  V30 3071 N 298.576 1.31904 0.862503 0
M  V30 3072 C 299.539 1.20131 1.95195 0
M  V30 3073 C 300.539 0.126409 1.60302 0
M  V30 3074 O 301.729 0.376234 1.70089 0
M  V30 3075 C 298.861 0.845691 3.30244 0
M  V30 3076 H 300.054 2.16943 2.07064 0
M  V30 3077 H 297.607 1.15622 1.05172 0
M  V30 3078 H 298.342 -0.120957 3.24074 0
M  V30 3079 H 298.127 1.62276 3.56944 0
M  V30 3080 H 299.617 0.787418 4.10109 0
M  V30 3081 N 300.054 -1.07777 1.14986 0
M  V30 3082 C 300.984 -2.16865 0.865557 0
M  V30 3083 C 301.965 -1.69123 -0.182083 0
M  V30 3084 O 303.15 -1.94164 -0.0373815 0
M  V30 3085 C 300.28 -3.45539 0.349313 0
M  V30 3086 C 299.234 -4.06708 1.33313 0
M  V30 3087 C 298.56 -5.30411 0.675918 0
M  V30 3088 C 299.86 -4.47241 2.69764 0
M  V30 3089 H 301.554 -2.40905 1.77778 0
M  V30 3090 H 299.1 -1.15781 0.856203 0
M  V30 3091 H 301.053 -4.21174 0.137983 0
M  V30 3092 H 299.777 -3.21072 -0.598362 0
M  V30 3093 H 298.436 -3.33112 1.53075 0
M  V30 3094 H 298.084 -5.02232 -0.277767 0
M  V30 3095 H 297.784 -5.72293 1.33244 0
M  V30 3096 H 299.308 -6.08755 0.474262 0
M  V30 3097 H 300.722 -5.14025 2.53873 0
M  V30 3098 H 299.119 -5.00062 3.3175 0
M  V30 3099 H 300.189 -3.58818 3.26156 0
M  V30 3100 N 301.532 -0.945985 -1.26051 0
M  V30 3101 C 302.48 -0.450259 -2.282 0
M  V30 3102 C 303.474 0.47497 -1.62605 0
M  V30 3103 O 304.68 0.352653 -1.76512 0
M  V30 3104 H 301.055 -0.127081 -0.741184 0
M  V30 3105 H 303.026 -1.32422 -2.67408 0
M  V30 3106 C 301.775 0.26467 -3.46691 0
M  V30 3107 H 301.098 -0.438123 -3.97392 0
M  V30 3108 H 302.538 0.575678 -4.20074 0
M  V30 3109 C 300.997 1.48416 -3.02447 0
M  V30 3110 O 301.527 2.58227 -3.07704 0
M  V30 3111 N 299.733 1.34243 -2.57735 0
M  V30 3112 H 299.28 0.448994 -2.53657 0
M  V30 3113 H 299.238 2.15957 -2.28495 0
M  V30 3114 N 303.011 1.40521 -0.713556 0
M  V30 3115 C 303.958 2.30723 -0.059684 0
M  V30 3116 C 304.928 1.48079 0.752448 0
M  V30 3117 O 306.113 1.76823 0.71681 0
M  V30 3118 C 303.253 3.34274 0.857594 0
M  V30 3119 C 302.366 4.31986 0.0351536 0
M  V30 3120 C 301.501 5.22605 0.951724 0
M  V30 3121 C 300.54 6.11976 0.123253 0
M  V30 3122 N 299.677 6.9502 0.99459 0
M  V30 3123 H 304.517 2.86074 -0.834596 0
M  V30 3124 H 302.054 1.40879 -0.42326 0
M  V30 3125 H 304.012 3.92879 1.40364 0
M  V30 3126 H 302.642 2.8043 1.59871 0
M  V30 3127 H 301.694 3.7518 -0.628052 0
M  V30 3128 H 303.006 4.95101 -0.606347 0
M  V30 3129 H 302.16 5.86131 1.56638 0
M  V30 3130 H 300.899 4.59759 1.62705 0
M  V30 3131 H 299.904 5.47482 -0.50435 0
M  V30 3132 H 301.129 6.76881 -0.548539 0
M  V30 3133 H 299.075 6.34764 1.6556 0
M  V30 3134 H 298.992 7.54892 0.40908 0
M  V30 3135 H 300.26 7.62997 1.59549 0
M  V30 3136 N 304.489 0.459591 1.5075 0
M  V30 3137 C 305.9 0.00171547 1.867 0
M  V30 3138 C 306.251 -1.39934 1.37525 0
M  V30 3139 O 305.376 -2.03523 0.735349 0
M  V30 3140 C 305.971 -0.00366298 3.388 0
M  V30 3141 C 304.53 -0.406026 3.74204 0
M  V30 3142 C 303.677 0.38673 2.7459 0
M  V30 3143 H 306.628 0.674413 1.43657 0
M  V30 3144 H 306.649 -0.808371 3.71814 0
M  V30 3145 H 306.161 1.01617 3.74561 0
M  V30 3146 H 304.262 -1.43063 3.4404 0
M  V30 3147 H 304.375 -0.115362 4.78961 0
M  V30 3148 H 302.739 -0.158019 2.54209 0
M  V30 3149 H 303.522 1.40585 3.13194 0
M  V30 3150 N 305.967 -1.56429 0.191757 0
M  V30 3151 C 306.877 -2.22541 -0.742481 0
M  V30 3152 C 307.893 -1.22342 -1.23727 0
M  V30 3153 O 309.069 -1.55069 -1.28513 0
M  V30 3154 C 306.134 -2.8692 -1.94623 0
M  V30 3155 C 305.195 -4.02378 -1.49633 0
M  V30 3156 C 304.428 -4.63678 -2.6427 0
M  V30 3157 O 304.651 -4.23895 -3.81666 0
M  V30 3158 O 303.585 -5.53202 -2.37174 0
M  V30 3159 H 307.411 -3.02977 -0.209462 0
M  V30 3160 H 304.996 -1.49353 -0.0373832 0
M  V30 3161 H 306.878 -3.27663 -2.64982 0
M  V30 3162 H 305.553 -2.09466 -2.46791 0
M  V30 3163 H 304.46 -3.66265 -0.761636 0
M  V30 3164 H 305.793 -4.81487 -1.02134 0
M  V30 3165 N 307.445 0.0818655 -1.57387 0
M  V30 3166 C 308.691 0.784074 -1.8703 0
M  V30 3167 C 309.024 1.77729 -0.782689 0
M  V30 3168 O 308.299 1.93384 0.208051 0
M  V30 3169 C 308.582 1.50105 -3.27323 0
M  V30 3170 C 308.435 0.524925 -4.46727 0
M  V30 3171 C 309.754 2.44843 -3.65705 0
M  V30 3172 H 306.873 0.283582 -0.680257 0
M  V30 3173 H 309.515 0.0474352 -1.89941 0
M  V30 3174 H 307.665 2.12897 -3.24972 0
M  V30 3175 H 309.337 -0.0970111 -4.61198 0
M  V30 3176 H 307.58 -0.160606 -4.33503 0
M  V30 3177 H 308.251 1.064 -5.41648 0
M  V30 3178 H 310.727 1.92135 -3.69085 0
M  V30 3179 H 309.603 2.92018 -4.64776 0
M  V30 3180 H 309.864 3.29197 -2.95096 0
M  V30 3181 N 308.923 1.53595 0.353017 0
M  V30 3182 C 309.886 1.80232 1.41594 0
M  V30 3183 C 310.886 0.673081 1.46035 0
M  V30 3184 O 312.076 0.941335 1.46576 0
M  V30 3185 C 309.208 1.93578 2.80607 0
M  V30 3186 H 310.401 2.75174 1.19244 0
M  V30 3187 H 307.954 1.44864 0.586872 0
M  V30 3188 H 308.689 1.00746 3.08254 0
M  V30 3189 H 308.474 2.75724 2.78781 0
M  V30 3190 H 309.964 2.15735 3.57558 0
M  V30 3191 N 310.401 -0.613514 1.45168 0
M  V30 3192 C 311.649 -1.36997 1.48581 0
M  V30 3193 C 311.97 -1.94589 0.126545 0
M  V30 3194 O 311.24 -1.76816 -0.843372 0
M  V30 3195 H 309.82 -0.508558 0.547154 0
M  V30 3196 H 312.482 -0.720853 1.81079 0
M  V30 3197 H 311.578 -2.1924 2.22127 0
M  V30 3198 N 311.879 -1.3236 -0.855495 0
M  V30 3199 C 312.809 -1.23833 -1.97958 0
M  V30 3200 C 313.79 -0.122361 -1.69659 0
M  V30 3201 O 314.975 -0.30939 -1.9172 0
M  V30 3202 C 312.105 -0.959772 -3.33775 0
M  V30 3203 C 311.059 -2.03689 -3.76424 0
M  V30 3204 C 310.385 -1.61075 -5.09862 0
M  V30 3205 C 311.685 -3.4518 -3.9198 0
M  V30 3206 H 313.379 -2.1788 -2.0535 0
M  V30 3207 H 310.925 -1.04891 -0.986605 0
M  V30 3208 H 312.878 -0.886678 -4.11966 0
M  V30 3209 H 311.602 0.0163404 -3.26596 0
M  V30 3210 H 310.261 -2.10012 -3.00484 0
M  V30 3211 H 309.909 -0.622107 -4.99138 0
M  V30 3212 H 309.609 -2.33143 -5.39368 0
M  V30 3213 H 311.133 -1.55201 -5.90546 0
M  V30 3214 H 312.547 -3.4145 -4.60526 0
M  V30 3215 H 310.944 -4.1559 -4.32903 0
M  V30 3216 H 312.014 -3.84903 -2.94919 0
M  V30 3217 N 313.357 1.07166 -1.15556 0
M  V30 3218 C 314.587 1.83248 -0.954133 0
M  V30 3219 C 314.995 1.82449 0.500911 0
M  V30 3220 O 314.338 1.23575 1.35923 0
M  V30 3221 C 314.4 3.31393 -1.39351 0
M  V30 3222 C 314.064 3.5591 -2.86666 0
M  V30 3223 C 315.061 3.49695 -3.8472 0
M  V30 3224 C 312.746 3.83515 -3.24379 0
M  V30 3225 C 314.74 3.70737 -5.18491 0
M  V30 3226 C 312.427 4.04209 -4.58321 0
M  V30 3227 C 313.425 3.97815 -5.55186 0
M  V30 3228 O 313.113 4.17954 -6.86709 0
M  V30 3229 H 312.845 0.584941 -0.338851 0
M  V30 3230 H 315.399 1.36169 -1.53777 0
M  V30 3231 H 313.629 3.79292 -0.75329 0
M  V30 3232 H 315.318 3.88945 -1.16089 0
M  V30 3233 H 316.084 3.28368 -3.56931 0
M  V30 3234 H 311.963 3.87605 -2.49567 0
M  V30 3235 H 315.507 3.65663 -5.94085 0
M  V30 3236 H 311.404 4.25023 -4.85825 0
M  V30 3237 H 312.172 4.35291 -6.93155 0
M  V30 3238 N 314.835 0.952656 1.25548 0
M  V30 3239 C 315.785 0.442033 2.23674 0
M  V30 3240 C 316.769 -0.467632 1.53955 0
M  V30 3241 O 317.961 -0.301006 1.74422 0
M  V30 3242 C 315.09 -0.280816 3.4215 0
M  V30 3243 C 314.176 0.646803 4.19139 0
M  V30 3244 N 314.567 1.77759 4.73535 0
M  V30 3245 C 312.865 0.454617 4.43677 0
M  V30 3246 C 313.566 2.35658 5.31827 0
M  V30 3247 N 312.542 1.64333 5.18166 0
M  V30 3248 H 316.344 1.30505 2.63336 0
M  V30 3249 H 313.858 0.809904 1.40763 0
M  V30 3250 H 315.855 -0.663747 4.11582 0
M  V30 3251 H 314.515 -1.14046 3.04012 0
M  V30 3252 H 315.526 2.15949 4.7073 0
M  V30 3253 H 312.203 -0.362312 4.15925 0
M  V30 3254 H 313.593 3.30998 5.84713 0
M  V30 3255 N 316.313 -1.40141 0.720998 0
M  V30 3256 C 317.243 -2.33339 0.0867621 0
M  V30 3257 C 318.224 -1.53178 -0.739622 0
M  V30 3258 O 319.409 -1.81625 -0.687449 0
M  V30 3259 C 316.539 -3.37194 -0.831728 0
M  V30 3260 C 315.493 -4.27857 -0.110558 0
M  V30 3261 C 314.819 -5.22294 -1.14513 0
M  V30 3262 C 316.119 -5.11872 1.0385 0
M  V30 3263 H 317.813 -2.86626 0.865219 0
M  V30 3264 H 315.359 -1.37814 0.417516 0
M  V30 3265 H 317.312 -4.01335 -1.28485 0
M  V30 3266 H 316.036 -2.82314 -1.64214 0
M  V30 3267 H 314.695 -3.65176 0.322797 0
M  V30 3268 H 314.343 -4.63717 -1.94874 0
M  V30 3269 H 314.043 -5.83797 -0.667446 0
M  V30 3270 H 315.567 -5.89312 -1.59824 0
M  V30 3271 H 316.981 -5.69436 0.664482 0
M  V30 3272 H 315.378 -5.82445 1.4449 0
M  V30 3273 H 316.448 -4.4753 1.86668 0
M  V30 3274 N 317.792 -0.46758 -1.50504 0
M  V30 3275 C 319.038 0.0887532 -2.02606 0
M  V30 3276 C 319.371 1.39686 -1.34913 0
M  V30 3277 O 318.646 1.88644 -0.473694 0
M  V30 3278 C 318.929 0.276206 -3.59039 0
M  V30 3279 C 318.782 -1.05267 -4.37309 0
M  V30 3280 C 320.101 1.03235 -4.27821 0
M  V30 3281 H 317.22 0.0307814 -0.736357 0
M  V30 3282 H 319.862 -0.612485 -1.79857 0
M  V30 3283 H 318.012 0.8735 -3.78553 0
M  V30 3284 H 319.684 -1.68628 -4.29374 0
M  V30 3285 H 317.927 -1.65015 -4.01189 0
M  V30 3286 H 318.598 -0.875197 -5.45018 0
M  V30 3287 H 321.074 0.526111 -4.12761 0
M  V30 3288 H 319.95 1.1323 -5.37094 0
M  V30 3289 H 320.211 2.06806 -3.90748 0
M  V30 3290 N 319.27 1.56325 -0.20005 0
M  V30 3291 C 320.233 2.18084 0.705132 0
M  V30 3292 C 321.233 1.13666 1.1374 0
M  V30 3293 O 322.423 1.39023 1.04968 0
M  V30 3294 C 319.555 2.78689 1.96329 0
M  V30 3295 H 320.748 2.99435 0.167023 0
M  V30 3296 H 318.301 1.56221 0.0495725 0
M  V30 3297 H 319.036 2.0115 2.5438 0
M  V30 3298 H 318.821 3.55133 1.66202 0
M  V30 3299 H 320.311 3.26096 2.60866 0
M  V30 3300 N 320.748 -0.0735177 1.57428 0
M  V30 3301 C 321.996 -0.771472 1.86796 0
M  V30 3302 C 322.317 -1.78201 0.791804 0
M  V30 3303 O 321.587 -1.95074 -0.179718 0
M  V30 3304 H 320.167 -0.28791 0.689287 0
M  V30 3305 H 322.829 -0.0500161 1.94836 0
M  V30 3306 H 321.925 -1.28874 2.8425 0
M  V30 3307 N 322.226 -1.5378 -0.344866 0
M  V30 3308 C 323.474 -1.70625 -1.08311 0
M  V30 3309 C 323.795 -0.471447 -1.89215 0
M  V30 3310 O 323.065 0.514616 -1.8902 0
M  V30 3311 H 321.645 -0.629058 -0.402859 0
M  V30 3312 H 324.307 -1.9103 -0.386459 0
M  V30 3313 H 323.403 -2.57656 -1.76124 0
M  V30 3314 N 323.704 0.605807 -1.45491 0
M  V30 3315 C 324.932 1.39136 -1.5313 0
M  V30 3316 C 325.347 1.88082 -0.164507 0
M  V30 3317 O 324.704 1.62316 0.834247 0
M  V30 3318 C 324.755 2.59463 -2.51716 0
M  V30 3319 O 324.476 2.12551 -3.83084 0
M  V30 3320 C 325.977 3.52301 -2.6907 0
M  V30 3321 H 323.197 0.425849 -0.51855 0
M  V30 3322 H 325.741 0.73865 -1.90694 0
M  V30 3323 H 323.896 3.20772 -2.17219 0
M  V30 3324 H 324.31 2.90744 -4.36541 0
M  V30 3325 H 325.784 4.33271 -3.42024 0
M  V30 3326 H 326.261 4.02757 -1.75167 0
M  V30 3327 H 326.867 2.96845 -3.04571 0
M  V30 3328 N 325.182 1.32811 0.848464 0
M  V30 3329 C 326.41 1.26739 1.63538 0
M  V30 3330 C 326.825 -0.163484 1.88091 0
M  V30 3331 O 326.182 -1.10258 1.45429 0
M  V30 3332 C 326.233 2.03013 2.99112 0
M  V30 3333 O 325.954 3.40518 2.75643 0
M  V30 3334 C 327.455 2.04038 3.93552 0
M  V30 3335 H 324.675 0.437024 0.509167 0
M  V30 3336 H 327.219 1.75033 1.05753 0
M  V30 3337 H 325.374 1.58426 3.53525 0
M  V30 3338 H 325.788 3.79635 3.61908 0
M  V30 3339 H 327.262 2.61877 4.85926 0
M  V30 3340 H 327.739 1.0282 4.26995 0
M  V30 3341 H 328.345 2.486 3.45077 0
M  V30 3342 N 326.66 -1.06551 1.16123 0
M  V30 3343 C 327.888 -1.83005 0.965237 0
M  V30 3344 C 328.303 -1.82423 -0.486542 0
M  V30 3345 O 327.66 -1.24152 -1.33763 0
M  V30 3346 C 327.711 -3.29733 1.48183 0
M  V30 3347 O 327.432 -3.30416 2.87674 0
M  V30 3348 C 328.933 -4.22926 1.32848 0
M  V30 3349 H 326.153 -0.577118 0.342309 0
M  V30 3350 H 328.697 -1.3445 1.54089 0
M  V30 3351 H 326.852 -3.75609 0.948517 0
M  V30 3352 H 327.266 -4.22149 3.11272 0
M  V30 3353 H 328.74 -5.23916 1.73827 0
M  V30 3354 H 329.217 -4.38346 0.273692 0
M  V30 3355 H 329.823 -3.82894 1.85127 0
M  V30 3356 N 328.138 -0.959301 -1.25041 0
M  V30 3357 C 329.384 -0.627096 -1.93492 0
M  V30 3358 C 329.739 0.827484 -1.73696 0
M  V30 3359 O 329.032 1.58651 -1.07427 0
M  V30 3360 C 329.226 -0.927136 -3.45165 0
M  V30 3361 C 329.055 -2.40933 -3.79712 0
M  V30 3362 C 327.825 -3.0677 -4.01522 0
M  V30 3363 C 330.023 -3.38894 -3.86853 0
M  V30 3364 N 328.005 -4.44815 -4.231 0
M  V30 3365 C 329.376 -4.62263 -4.13174 0
M  V30 3366 C 331.431 -3.33668 -3.69554 0
M  V30 3367 C 330.134 -5.81052 -4.23995 0
M  V30 3368 C 332.16 -4.518 -3.81616 0
M  V30 3369 C 331.522 -5.73957 -4.08354 0
M  V30 3370 H 327.621 -0.280166 -0.73009 0
M  V30 3371 H 330.205 -1.23244 -1.50729 0
M  V30 3372 H 328.376 -0.350685 -3.86814 0
M  V30 3373 H 330.108 -0.554361 -4.00885 0
M  V30 3374 H 326.863 -2.57327 -3.97593 0
M  V30 3375 H 327.287 -5.16319 -4.37885 0
M  V30 3376 H 331.929 -2.40268 -3.47895 0
M  V30 3377 H 329.647 -6.74888 -4.44468 0
M  V30 3378 H 333.233 -4.49309 -3.69612 0
M  V30 3379 H 332.113 -6.6384 -4.17475 0
M  V30 3380 N 329.616 1.39756 -0.72842 0
M  V30 3381 C 330.566 2.2792 -0.0603424 0
M  V30 3382 C 331.55 1.43922 0.719399 0
M  V30 3383 O 332.742 1.66895 0.589489 0
M  V30 3384 C 329.871 3.32582 0.851104 0
M  V30 3385 C 328.957 4.24049 0.0658641 0
M  V30 3386 N 329.348 4.96653 -0.957578 0
M  V30 3387 C 327.646 4.45013 0.296509 0
M  V30 3388 C 328.347 5.63836 -1.43052 0
M  V30 3389 N 327.323 5.38397 -0.750315 0
M  V30 3390 H 331.125 2.81504 -0.84455 0
M  V30 3391 H 328.639 1.5236 -0.562155 0
M  V30 3392 H 330.636 3.94603 1.34514 0
M  V30 3393 H 329.296 2.80558 1.63454 0
M  V30 3394 H 330.307 5.00297 -1.33877 0
M  V30 3395 H 326.984 4.03943 1.05527 0
M  V30 3396 H 328.374 6.31974 -2.28163 0
M  V30 3397 N 331.094 0.475555 1.50254 0
M  V30 3398 C 332.371 -0.139685 1.95101 0
M  V30 3399 C 332.751 -1.56555 1.41611 0
M  V30 3400 O 332.099 -2.19956 0.618993 0
M  V30 3401 C 332.309 -0.0784298 3.48912 0
M  V30 3402 C 333.657 -0.265095 4.23772 0
M  V30 3403 O 334.681 -0.154808 3.55863 0
M  V30 3404 O 333.54 -0.488327 5.44314 0
M  V30 3405 H 330.634 -0.109236 0.819754 0
M  V30 3406 H 333.18 0.536276 1.61004 0
M  V30 3407 H 331.952 0.916918 3.80405 0
M  V30 3408 H 331.575 -0.795655 3.89558 0
M  V30 3409 N 332.573 -1.56217 0.208337 0
M  V30 3410 C 333.803 -2.02043 -0.431523 0
M  V30 3411 C 334.211 -1.08755 -1.54819 0
M  V30 3412 O 333.554 -0.0870009 -1.83494 0
M  V30 3413 C 333.616 -3.44239 -1.03633 0
M  V30 3414 C 333.28 -4.56965 -0.0567502 0
M  V30 3415 C 334.277 -5.14624 0.738773 0
M  V30 3416 C 331.962 -5.02266 0.0581736 0
M  V30 3417 C 333.956 -6.16045 1.63605 0
M  V30 3418 C 331.643 -6.03528 0.959001 0
M  V30 3419 C 332.641 -6.60293 1.7465 0
M  V30 3420 O 332.329 -7.59586 2.6322 0
M  V30 3421 H 332.061 -0.666772 -0.111313 0
M  V30 3422 H 334.615 -2.02919 0.318277 0
M  V30 3423 H 332.845 -3.40391 -1.83497 0
M  V30 3424 H 334.534 -3.73793 -1.58221 0
M  V30 3425 H 335.3 -4.80483 0.660364 0
M  V30 3426 H 331.179 -4.57771 -0.544633 0
M  V30 3427 H 334.723 -6.60279 2.25116 0
M  V30 3428 H 330.62 -6.37092 1.03848 0
M  V30 3429 H 331.388 -7.77057 2.57148 0
M  V30 3430 N 334.051 0.0651679 -1.57465 0
M  V30 3431 C 335.014 1.06117 -2.03155 0
M  V30 3432 C 336.014 1.31204 -0.929632 0
M  V30 3433 O 337.204 1.26813 -1.19432 0
M  V30 3434 C 334.336 2.4032 -2.41783 0
M  V30 3435 H 335.529 0.667231 -2.92383 0
M  V30 3436 H 333.082 0.311075 -1.53173 0
M  V30 3437 H 333.817 2.84532 -1.55601 0
M  V30 3438 H 333.602 2.23451 -3.22199 0
M  V30 3439 H 335.092 3.11898 -2.77685 0
M  V30 3440 N 335.529 1.53961 0.336706 0
M  V30 3441 C 336.492 1.81724 1.39675 0
M  V30 3442 C 337.492 0.688532 1.45313 0
M  V30 3443 O 338.682 0.956829 1.45569 0
M  V30 3444 C 335.814 1.96543 2.78538 0
M  V30 3445 H 337.007 2.76424 1.16318 0
M  V30 3446 H 334.56 1.45478 0.571474 0
M  V30 3447 H 335.295 1.0401 3.07168 0
M  V30 3448 H 335.08 2.78665 2.75841 0
M  V30 3449 H 336.57 2.19516 3.5525 0
M  V30 3450 N 337.007 -0.598083 1.45811 0
M  V30 3451 C 337.937 -1.71873 1.58057 0
M  V30 3452 C 338.918 -1.64533 0.431615 0
M  V30 3453 O 340.103 -1.82787 0.65595 0
M  V30 3454 C 337.233 -3.10495 1.55597 0
M  V30 3455 C 336.187 -3.32654 2.69305 0
M  V30 3456 C 335.513 -4.71646 2.51902 0
M  V30 3457 C 336.813 -3.21981 4.11248 0
M  V30 3458 H 338.507 -1.61881 2.51863 0
M  V30 3459 H 336.053 -0.777372 1.21214 0
M  V30 3460 H 338.006 -3.88699 1.6276 0
M  V30 3461 H 336.73 -3.2135 0.583255 0
M  V30 3462 H 335.389 -2.56843 2.61586 0
M  V30 3463 H 335.037 -4.79246 1.52748 0
M  V30 3464 H 334.737 -4.87426 3.2816 0
M  V30 3465 H 336.261 -5.52038 2.60933 0
M  V30 3466 H 337.675 -3.90049 4.20161 0
M  V30 3467 H 336.072 -3.49289 4.87972 0
M  V30 3468 H 337.142 -2.1928 4.32486 0
M  V30 3469 N 338.485 -1.33259 -0.841409 0
M  V30 3470 C 339.731 -1.24757 -1.59886 0
M  V30 3471 C 340.064 0.186913 -1.93298 0
M  V30 3472 O 339.339 1.12757 -1.5848 0
M  V30 3473 C 339.622 -2.12036 -2.91055 0
M  V30 3474 C 339.475 -3.63929 -2.6434 0
M  V30 3475 C 340.794 -1.9916 -3.92458 0
M  V30 3476 H 337.913 -0.454542 -0.580138 0
M  V30 3477 H 340.555 -1.63335 -0.970647 0
M  V30 3478 H 338.705 -1.79265 -3.44669 0
M  V30 3479 H 340.377 -4.06978 -2.17178 0
M  V30 3480 H 338.62 -3.85935 -1.98082 0
M  V30 3481 H 339.291 -4.20341 -3.57796 0
M  V30 3482 H 341.767 -2.27895 -3.48143 0
M  V30 3483 H 340.643 -2.62484 -4.82072 0
M  V30 3484 H 340.904 -0.963082 -4.31482 0
M  V30 3485 N 339.963 1.05934 -1.16686 0
M  V30 3486 C 341.21 1.788 -0.950622 0
M  V30 3487 C 341.538 1.87384 0.521305 0
M  V30 3488 O 340.793 1.36438 1.40297 0
M  V30 3489 C 341.092 3.23105 -1.52767 0
M  V30 3490 C 340.758 3.34594 -3.02254 0
M  V30 3491 C 339.42 3.37437 -3.43059 0
M  V30 3492 C 341.772 3.36219 -3.98254 0
M  V30 3493 C 339.1 3.39525 -4.78477 0
M  V30 3494 C 341.452 3.39845 -5.33562 0
M  V30 3495 C 340.116 3.40971 -5.73842 0
M  V30 3496 H 339.386 0.654275 -0.347857 0
M  V30 3497 H 342.033 1.24555 -1.45459 0
M  V30 3498 H 340.338 3.80227 -0.94524 0
M  V30 3499 H 342.035 3.7809 -1.336 0
M  V30 3500 H 338.625 3.3309 -2.6972 0
M  V30 3501 H 342.809 3.33231 -3.67792 0
M  V30 3502 H 338.065 3.38703 -5.09009 0
M  V30 3503 H 342.239 3.4005 -6.07733 0
M  V30 3504 H 339.866 3.42342 -6.78753 0
M  V30 3505 N 341.441 0.965919 1.2453 0
M  V30 3506 C 342.718 0.543777 1.87889 0
M  V30 3507 C 343.098 -0.97909 1.87021 0
M  V30 3508 O 342.446 -1.84969 1.3416 0
M  V30 3509 C 342.656 1.13327 3.30088 0
M  V30 3510 C 344.004 1.21707 4.06783 0
M  V30 3511 O 345.028 1.08566 3.39252 0
M  V30 3512 O 343.887 1.42456 5.27606 0
M  V30 3513 H 340.981 0.181054 0.806938 0
M  V30 3514 H 343.527 1.06007 1.32516 0
M  V30 3515 H 342.299 2.17612 3.25209 0
M  V30 3516 H 341.922 0.600911 3.93033 0
M  V30 3517 N 342.919 -1.39368 0.735821 0
M  V30 3518 C 343.829 -2.34395 0.0979693 0
M  V30 3519 C 344.845 -1.58361 -0.720968 0
M  V30 3520 O 346.021 -1.90648 -0.649245 0
M  V30 3521 C 343.086 -3.37393 -0.797916 0
M  V30 3522 C 342.147 -4.29287 0.0333662 0
M  V30 3523 C 341.38 -5.27365 -0.819854 0
M  V30 3524 O 341.603 -5.31959 -2.05855 0
M  V30 3525 O 340.537 -6.01389 -0.248079 0
M  V30 3526 H 344.363 -2.90601 0.882315 0
M  V30 3527 H 341.948 -1.40909 0.4965 0
M  V30 3528 H 343.83 -4.00505 -1.31048 0
M  V30 3529 H 342.505 -2.83571 -1.56106 0
M  V30 3530 H 341.412 -3.69395 0.591475 0
M  V30 3531 H 342.745 -4.86317 0.758752 0
M  V30 3532 N 344.397 -0.483516 -1.5 0
M  V30 3533 C 345.36 0.292965 -2.2732 0
M  V30 3534 C 346.36 0.909499 -1.32608 0
M  V30 3535 O 347.55 0.776745 -1.55924 0
M  V30 3536 C 344.682 1.41854 -3.09984 0
M  V30 3537 H 345.875 -0.385289 -2.97415 0
M  V30 3538 H 343.428 -0.237942 -1.54478 0
M  V30 3539 H 344.163 2.13148 -2.44414 0
M  V30 3540 H 343.948 0.982114 -3.79601 0
M  V30 3541 H 345.438 1.96597 -3.68429 0
M  V30 3542 N 345.875 1.56104 -0.216619 0
M  V30 3543 C 347.291 1.58995 0.13886 0
M  V30 3544 C 347.491 1.23333 1.59346 0
M  V30 3545 O 346.547 0.966234 2.33281 0
M  V30 3546 C 347.86 3.00143 -0.182968 0
M  V30 3547 C 349.408 3.12751 -0.124807 0
M  V30 3548 C 349.883 4.56068 -0.420241 0
M  V30 3549 N 351.374 4.61723 -0.369634 0
M  V30 3550 C 352.109 5.70542 -0.571789 0
M  V30 3551 N 351.605 6.87744 -0.835453 0
M  V30 3552 N 353.398 5.59831 -0.504563 0
M  V30 3553 H 345.549 1.77562 -1.16557 0
M  V30 3554 H 347.812 0.825091 -0.466828 0
M  V30 3555 H 347.518 3.30871 -1.19237 0
M  V30 3556 H 347.392 3.73813 0.504367 0
M  V30 3557 H 349.779 2.81822 0.875223 0
M  V30 3558 H 349.86 2.41421 -0.845544 0
M  V30 3559 H 349.504 4.87713 -1.41769 0
M  V30 3560 H 349.434 5.25617 0.321631 0
M  V30 3561 H 351.925 3.77502 -0.173338 0
M  V30 3562 H 352.238 7.66587 -0.977938 0
M  V30 3563 H 350.583 6.895 -0.872592 0
M  V30 3564 H 353.774 4.67145 -0.298842 0
M  V30 3565 H 353.947 6.44573 -0.665519 0
M  V30 3566 N 347.353 -0.0568162 1.57498 0
M  V30 3567 C 348.3 -1.06591 2.04712 0
M  V30 3568 C 349.27 -1.3758 0.930644 0
M  V30 3569 O 350.455 -1.48392 1.19935 0
M  V30 3570 C 347.595 -2.3701 2.50839 0
M  V30 3571 C 346.708 -2.12421 3.76167 0
M  V30 3572 C 345.843 -3.36511 4.11015 0
M  V30 3573 C 344.882 -3.07353 5.2934 0
M  V30 3574 N 344.019 -4.23816 5.59754 0
M  V30 3575 H 348.859 -0.65631 2.90683 0
M  V30 3576 H 346.396 -0.312481 1.43743 0
M  V30 3577 H 348.354 -3.13175 2.7564 0
M  V30 3578 H 346.984 -2.75744 1.67825 0
M  V30 3579 H 346.036 -1.2688 3.58616 0
M  V30 3580 H 347.348 -1.86894 4.62463 0
M  V30 3581 H 346.502 -4.21062 4.36797 0
M  V30 3582 H 345.241 -3.65128 3.23315 0
M  V30 3583 H 344.246 -2.212 5.03339 0
M  V30 3584 H 345.471 -2.80043 6.1867 0
M  V30 3585 H 343.417 -4.52436 4.75014 0
M  V30 3586 H 343.334 -4.01614 6.40501 0
M  V30 3587 H 344.602 -5.0932 5.90096 0
M  V30 3588 N 348.832 -1.54138 -0.328536 0
M  V30 3589 C 349.795 -1.82462 -1.38709 0
M  V30 3590 C 350.795 -0.696229 -1.44946 0
M  V30 3591 O 351.985 -0.964535 -1.4506 0
M  V30 3592 C 349.117 -1.98018 -2.77492 0
M  V30 3593 H 350.31 -2.77037 -1.14851 0
M  V30 3594 H 347.863 -1.45779 -0.563751 0
M  V30 3595 H 348.598 -1.05637 -3.06613 0
M  V30 3596 H 348.383 -2.80124 -2.74359 0
M  V30 3597 H 349.873 -2.21396 -3.54081 0
M  V30 3598 N 350.31 0.590341 -1.46126 0
M  V30 3599 C 351.558 1.34616 -1.50742 0
M  V30 3600 C 351.879 1.94363 -0.157486 0
M  V30 3601 O 351.149 1.78136 0.815136 0
M  V30 3602 H 349.729 0.499789 -0.555175 0
M  V30 3603 H 352.391 0.691953 -1.82203 0
M  V30 3604 H 351.487 2.15678 -2.25587 0
M  V30 3605 N 351.788 1.33704 0.83433 0
M  V30 3606 C 353.037 1.24763 1.58484 0
M  V30 3607 C 353.35 -0.183775 1.94735 0
M  V30 3608 O 354.556 -0.395234 2.68608 0
M  V30 3609 C 353.012 2.18638 2.85876 0
M  V30 3610 C 352.62 3.66974 2.56971 0
M  V30 3611 C 354.364 2.18581 3.63899 0
M  V30 3612 C 352.271 4.5275 3.80488 0
M  V30 3613 H 351.201 0.463425 0.594772 0
M  V30 3614 H 353.852 1.58797 0.919551 0
M  V30 3615 H 352.234 1.77542 3.5397 0
M  V30 3616 H 353.408 4.16538 1.9706 0
M  V30 3617 H 351.723 3.69366 1.92244 0
M  V30 3618 H 354.32 2.79894 4.55591 0
M  V30 3619 H 354.663 1.18207 3.99165 0
M  V30 3620 H 355.196 2.58062 3.02735 0
M  V30 3621 H 351.935 5.54017 3.5035 0
M  V30 3622 H 351.455 4.07927 4.39722 0
M  V30 3623 H 353.134 4.66784 4.4802 0
M  V30 3624 N 353.266 -1.05314 1.17247 0
M  V30 3625 C 354.494 -1.81971 0.984593 0
M  V30 3626 C 354.909 -1.82929 -0.467166 0
M  V30 3627 O 354.266 -1.25564 -1.32438 0
M  V30 3628 C 354.317 -3.28143 1.51672 0
M  V30 3629 O 354.038 -3.27347 2.91163 0
M  V30 3630 C 355.539 -4.21493 1.37326 0
M  V30 3631 H 352.759 -0.573455 0.348411 0
M  V30 3632 H 355.303 -1.32808 1.55506 0
M  V30 3633 H 353.458 -3.74582 0.988302 0
M  V30 3634 H 353.872 -4.18824 3.15732 0
M  V30 3635 H 355.346 -5.22043 1.79375 0
M  V30 3636 H 355.823 -4.38031 0.320169 0
M  V30 3637 H 356.429 -3.80909 1.89178 0
M  V30 3638 N 354.744 -0.972509 -1.24016 0
M  V30 3639 C 355.674 -0.525548 -2.27509 0
M  V30 3640 C 356.655 0.437262 -1.64384 0
M  V30 3641 O 357.84 0.332343 -1.91335 0
M  V30 3642 C 354.97 0.180448 -3.46831 0
M  V30 3643 C 353.924 -0.698859 -4.22256 0
M  V30 3644 C 353.25 0.138903 -5.3452 0
M  V30 3645 C 354.55 -1.98582 -4.83076 0
M  V30 3646 H 356.244 -1.39058 -2.65148 0
M  V30 3647 H 353.79 -0.67009 -1.27459 0
M  V30 3648 H 355.743 0.504387 -4.18371 0
M  V30 3649 H 354.467 1.07987 -3.08231 0
M  V30 3650 H 353.126 -1.00614 -3.52523 0
M  V30 3651 H 352.774 1.03862 -4.9216 0
M  V30 3652 H 352.474 -0.446259 -5.85903 0
M  V30 3653 H 353.998 0.457404 -6.08884 0
M  V30 3654 H 355.412 -1.72715 -5.46665 0
M  V30 3655 H 353.809 -2.5181 -5.44713 0
M  V30 3656 H 354.879 -2.67769 -4.04262 0
M  V30 3657 N 356.222 1.38976 -0.743202 0
M  V30 3658 C 357.185 2.28901 -0.117014 0
M  V30 3659 C 358.185 1.46698 0.658503 0
M  V30 3660 O 359.375 1.67274 0.486305 0
M  V30 3661 C 356.507 3.30309 0.84315 0
M  V30 3662 H 357.7 2.8578 -0.909373 0
M  V30 3663 H 355.253 1.47761 -0.509547 0
M  V30 3664 H 355.988 2.785 1.66157 0
M  V30 3665 H 355.773 3.91029 0.289594 0
M  V30 3666 H 357.263 3.97577 1.2776 0
M  V30 3667 N 357.7 0.491464 1.49741 0
M  V30 3668 C 358.63 -0.28154 2.31796 0
M  V30 3669 C 359.611 -0.971473 1.3963 0
M  V30 3670 O 360.796 -0.964719 1.68543 0
M  V30 3671 C 357.926 -1.35203 3.19902 0
M  V30 3672 C 356.88 -0.782529 4.20786 0
M  V30 3673 C 356.206 -1.95283 4.97764 0
M  V30 3674 C 357.506 0.21999 5.21837 0
M  V30 3675 H 359.2 0.403355 2.96671 0
M  V30 3676 H 356.746 0.195425 1.42668 0
M  V30 3677 H 358.699 -1.90045 3.76113 0
M  V30 3678 H 357.423 -2.06598 2.52953 0
M  V30 3679 H 356.082 -0.255928 3.65706 0
M  V30 3680 H 355.73 -2.65423 4.2727 0
M  V30 3681 H 355.43 -1.57789 5.66018 0
M  V30 3682 H 356.954 -2.50577 5.56816 0
M  V30 3683 H 358.368 -0.23996 5.72798 0
M  V30 3684 H 356.765 0.51026 5.97927 0
M  V30 3685 H 357.835 1.13911 4.7133 0
M  V30 3686 N 359.178 -1.55987 0.224894 0
M  V30 3687 C 360.406 -2.02784 -0.410665 0
M  V30 3688 C 360.821 -1.10464 -1.53112 0
M  V30 3689 O 360.178 -0.114871 -1.82138 0
M  V30 3690 C 360.229 -3.49087 -0.939165 0
M  V30 3691 O 359.95 -4.37887 0.136614 0
M  V30 3692 C 361.451 -4.11543 -1.64763 0
M  V30 3693 H 358.671 -0.663484 -0.100148 0
M  V30 3694 H 361.215 -2.01614 0.342326 0
M  V30 3695 H 359.37 -3.50861 -1.64242 0
M  V30 3696 H 359.784 -5.23849 -0.261155 0
M  V30 3697 H 361.258 -5.15673 -1.96939 0
M  V30 3698 H 361.735 -3.56736 -2.56195 0
M  V30 3699 H 362.341 -4.13629 -0.989503 0
M  V30 3700 N 360.656 0.0484629 -1.57525 0
M  V30 3701 C 361.566 1.07241 -2.08654 0
M  V30 3702 C 362.582 1.409 -1.02095 0
M  V30 3703 O 363.758 1.50609 -1.33712 0
M  V30 3704 C 360.823 2.36008 -2.5397 0
M  V30 3705 C 359.884 2.09108 -3.7493 0
M  V30 3706 C 359.117 3.31736 -4.18075 0
M  V30 3707 O 359.34 4.41714 -3.60895 0
M  V30 3708 O 358.274 3.18576 -5.10679 0
M  V30 3709 H 362.1 0.667965 -2.96263 0
M  V30 3710 H 359.685 0.26417 -1.47046 0
M  V30 3711 H 361.567 3.11747 -2.83535 0
M  V30 3712 H 360.242 2.75786 -1.69481 0
M  V30 3713 H 359.149 1.31 -3.50414 0
M  V30 3714 H 360.482 1.74198 -4.60343 0
M  V30 3715 N 362.134 1.5431 0.320358 0
M  V30 3716 C 363.064 1.86912 1.3995 0
M  V30 3717 C 364.045 0.726211 1.53819 0
M  V30 3718 O 365.23 0.980233 1.67646 0
M  V30 3719 C 362.36 2.09932 2.7667 0
M  V30 3720 C 361.314 3.25776 2.77586 0
M  V30 3721 C 360.64 3.34173 4.17412 0
M  V30 3722 C 361.94 4.6335 2.41048 0
M  V30 3723 H 363.634 2.77292 1.12914 0
M  V30 3724 H 361.18 1.33421 0.541738 0
M  V30 3725 H 363.133 2.31324 3.52232 0
M  V30 3726 H 361.857 1.16304 3.0519 0
M  V30 3727 H 360.516 3.04276 2.04479 0
M  V30 3728 H 360.164 2.38098 4.43078 0
M  V30 3729 H 359.864 4.12033 4.18931 0
M  V30 3730 H 361.388 3.57803 4.94782 0
M  V30 3731 H 362.802 4.84602 3.06324 0
M  V30 3732 H 361.199 5.43782 2.53813 0
M  V30 3733 H 362.269 4.65381 1.36193 0
M  V30 3734 N 363.613 -0.582584 1.46437 0
M  V30 3735 C 364.561 -1.71272 1.5738 0
M  V30 3736 C 365.555 -1.63524 0.44229 0
M  V30 3737 O 366.761 -1.69016 0.619166 0
M  V30 3738 H 363.136 -0.566273 0.494813 0
M  V30 3739 H 365.107 -1.59174 2.52401 0
M  V30 3740 C 363.856 -3.09658 1.58136 0
M  V30 3741 H 363.179 -3.16291 2.44541 0
M  V30 3742 H 364.619 -3.88494 1.69847 0
M  V30 3743 C 363.078 -3.3547 0.310026 0
M  V30 3744 O 363.608 -3.97199 -0.599683 0
M  V30 3745 N 361.814 -2.89925 0.197901 0
M  V30 3746 H 361.361 -2.39873 0.93909 0
M  V30 3747 H 361.319 -3.07568 -0.65185 0
M  V30 3748 N 365.091 -1.34144 -0.827227 0
M  V30 3749 C 366.054 -1.25264 -1.91942 0
M  V30 3750 C 367.054 -0.168866 -1.59911 0
M  V30 3751 O 368.244 -0.421198 -1.69031 0
M  V30 3752 C 365.376 -0.932952 -3.27885 0
M  V30 3753 H 366.569 -2.22357 -2.0124 0
M  V30 3754 H 364.122 -1.1837 -1.0207 0
M  V30 3755 H 364.857 0.0349917 -3.24281 0
M  V30 3756 H 364.642 -1.71682 -3.52516 0
M  V30 3757 H 366.132 -0.895874 -4.07877 0
M  V30 3758 N 366.569 1.04691 -1.17803 0
M  V30 3759 C 367.815 1.78045 -0.970969 0
M  V30 3760 C 368.148 1.87686 0.498751 0
M  V30 3761 O 367.423 1.38035 1.37027 0
M  V30 3762 C 367.706 3.2166 -1.61884 0
M  V30 3763 C 367.559 3.20001 -3.161 0
M  V30 3764 C 368.878 4.1962 -1.3269 0
M  V30 3765 H 365.997 0.64633 -0.354155 0
M  V30 3766 H 368.639 1.22333 -1.45378 0
M  V30 3767 H 366.789 3.69232 -1.20831 0
M  V30 3768 H 368.461 2.80467 -3.66246 0
M  V30 3769 H 366.704 2.58203 -3.48588 0
M  V30 3770 H 367.375 4.21386 -3.56564 0
M  V30 3771 H 369.851 3.80567 -1.68249 0
M  V30 3772 H 368.727 5.18339 -1.80599 0
M  V30 3773 H 368.988 4.414 -0.248622 0
M  V30 3774 N 368.047 0.979072 1.23499 0
M  V30 3775 C 369.458 0.684391 1.73704 0
M  V30 3776 C 369.809 -0.799448 1.79174 0
M  V30 3777 O 368.934 -1.62531 1.42873 0
M  V30 3778 C 369.529 1.23564 3.15464 0
M  V30 3779 C 368.088 0.99063 3.6313 0
M  V30 3780 C 367.235 1.36416 2.41425 0
M  V30 3781 H 370.186 1.15307 1.09041 0
M  V30 3782 H 370.207 0.607417 3.7562 0
M  V30 3783 H 369.719 2.31561 3.1145 0
M  V30 3784 H 367.82 -0.0733136 3.72528 0
M  V30 3785 H 367.933 1.64427 4.5 0
M  V30 3786 H 366.297 0.782616 2.42378 0
M  V30 3787 H 367.08 2.45387 2.40083 0
M  V30 3788 N 369.525 -1.3858 0.750561 0
M  V30 3789 C 370.753 -2.04471 0.316098 0
M  V30 3790 C 371.168 -1.56606 -1.05452 0
M  V30 3791 O 370.525 -0.737784 -1.66922 0
M  V30 3792 C 370.576 -3.60025 0.326275 0
M  V30 3793 O 370.297 -4.06133 1.6428 0
M  V30 3794 C 371.798 -4.43131 -0.122429 0
M  V30 3795 H 369.018 -0.65717 0.135528 0
M  V30 3796 H 371.562 -1.77329 1.01857 0
M  V30 3797 H 369.717 -3.86014 -0.327431 0
M  V30 3798 H 370.131 -5.00547 1.56693 0
M  V30 3799 H 371.605 -5.51963 -0.0641473 0
M  V30 3800 H 372.082 -4.23333 -1.16988 0
M  V30 3801 H 372.688 -4.22323 0.50229 0
M  V30 3802 N 371.003 -0.499398 -1.49478 0
M  V30 3803 C 372.228 0.044722 -2.07352 0
M  V30 3804 C 372.653 1.30207 -1.35749 0
M  V30 3805 O 372.011 1.76516 -0.413732 0
M  V30 3806 C 372.059 0.283013 -3.59488 0
M  V30 3807 O 371.163 1.35804 -3.89398 0
M  V30 3808 H 370.504 -0.0255147 -0.66351 0
M  V30 3809 H 373.034 -0.698561 -1.92305 0
M  V30 3810 H 373.044 0.515007 -4.04737 0
M  V30 3811 H 371.719 -0.635636 -4.11014 0
M  V30 3812 H 370.296 1.11113 -3.55961 0
M  V30 3813 N 372.481 1.55866 -0.233164 0
M  V30 3814 C 373.444 2.1953 0.658715 0
M  V30 3815 C 374.444 1.16053 1.11303 0
M  V30 3816 O 375.634 1.41218 1.01996 0
M  V30 3817 C 372.766 2.82791 1.90373 0
M  V30 3818 H 373.959 2.99721 0.10347 0
M  V30 3819 H 371.512 1.56291 0.0164245 0
M  V30 3820 H 372.247 2.06501 2.50056 0
M  V30 3821 H 372.032 3.58578 1.58632 0
M  V30 3822 H 373.522 3.31556 2.53891 0
M  V30 3823 N 373.959 -0.0401083 1.57549 0
M  V30 3824 C 375.189 -0.744115 1.92734 0
M  V30 3825 C 375.597 -1.70005 0.830348 0
M  V30 3826 O 374.94 -1.82576 -0.20286 0
M  V30 3827 C 375.002 -1.56516 3.2364 0
M  V30 3828 C 374.666 -0.7752 4.50377 0
M  V30 3829 C 375.663 -0.0803326 5.19838 0
M  V30 3830 C 373.348 -0.733002 4.96923 0
M  V30 3831 C 375.342 0.646154 6.34116 0
M  V30 3832 C 373.029 -0.00276321 6.111 0
M  V30 3833 C 374.027 0.685585 6.7955 0
M  V30 3834 O 373.715 1.40399 7.91545 0
M  V30 3835 H 373.447 -0.214861 0.640945 0
M  V30 3836 H 376.001 -0.00503675 2.05399 0
M  V30 3837 H 374.231 -2.3478 3.07271 0
M  V30 3838 H 375.92 -2.15076 3.44234 0
M  V30 3839 H 376.686 -0.104035 4.84888 0
M  V30 3840 H 372.565 -1.25827 4.43496 0
M  V30 3841 H 376.109 1.18398 6.87479 0
M  V30 3842 H 372.006 0.0229012 6.45496 0
M  V30 3843 H 372.774 1.31653 8.07843 0
M  V30 3844 N 375.437 -1.54477 -0.31217 0
M  V30 3845 C 376.848 -1.64344 -0.885891 0
M  V30 3846 C 377.199 -0.54485 -1.88483 0
M  V30 3847 O 376.324 0.320387 -2.14015 0
M  V30 3848 C 376.919 -2.97908 -1.61357 0
M  V30 3849 C 375.478 -3.09933 -2.13585 0
M  V30 3850 C 374.625 -2.59971 -0.964897 0
M  V30 3851 H 377.576 -1.58448 -0.0894528 0
M  V30 3852 H 377.597 -2.88706 -2.47848 0
M  V30 3853 H 377.109 -3.77845 -0.886277 0
M  V30 3854 H 375.21 -2.34694 -2.89395 0
M  V30 3855 H 375.323 -4.15916 -2.37804 0
M  V30 3856 H 373.687 -2.16147 -1.34731 0
M  V30 3857 H 374.47 -3.42376 -0.251742 0
M  V30 3858 N 376.915 0.57481 -1.46744 0
M  V30 3859 C 378.143 1.35856 -1.56047 0
M  V30 3860 C 378.558 1.87691 -0.204365 0
M  V30 3861 O 377.915 1.64049 0.79963 0
M  V30 3862 C 377.966 2.54066 -2.57163 0
M  V30 3863 O 377.687 2.04377 -3.87507 0
M  V30 3864 C 379.188 3.46514 -2.76483 0
M  V30 3865 H 376.408 0.414754 -0.527466 0
M  V30 3866 H 378.952 0.698035 -1.92218 0
M  V30 3867 H 377.107 3.16092 -2.23974 0
M  V30 3868 H 377.521 2.81419 -4.4261 0
M  V30 3869 H 378.995 4.25919 -3.51137 0
M  V30 3870 H 379.472 3.98951 -1.83671 0
M  V30 3871 H 380.078 2.90318 -3.10799 0
M  V30 3872 N 378.394 1.34581 0.820102 0
M  V30 3873 C 379.805 1.24298 1.39309 0
M  V30 3874 C 380.156 -0.130351 1.95767 0
M  V30 3875 O 379.281 -1.0308 1.90272 0
M  V30 3876 C 379.876 2.25054 2.53251 0
M  V30 3877 C 378.435 2.18552 3.0645 0
M  V30 3878 C 377.582 2.11503 1.79337 0
M  V30 3879 H 380.533 1.45906 0.624262 0
M  V30 3880 H 380.554 1.86917 3.31425 0
M  V30 3881 H 380.066 3.24996 2.1213 0
M  V30 3882 H 378.167 1.21976 3.52069 0
M  V30 3883 H 378.28 3.0993 3.65349 0
M  V30 3884 H 376.644 1.57268 2.00347 0
M  V30 3885 H 377.427 3.13284 1.40386 0
M  V30 3886 N 379.872 -1.04064 1.18357 0
M  V30 3887 C 380.835 -2.10243 0.912707 0
M  V30 3888 C 381.835 -1.60477 -0.101928 0
M  V30 3889 O 383.025 -1.73703 0.131517 0
M  V30 3890 C 380.157 -3.38893 0.369387 0
M  V30 3891 H 381.35 -2.35706 1.85426 0
M  V30 3892 H 378.903 -1.20489 0.995594 0
M  V30 3893 H 379.638 -3.19094 -0.578776 0
M  V30 3894 H 379.423 -3.76331 1.1008 0
M  V30 3895 H 380.913 -4.17128 0.198575 0
M  V30 3896 N 381.35 -0.985608 -1.22978 0
M  V30 3897 C 382.575 -0.675254 -1.961 0
M  V30 3898 C 383 0.752154 -1.72407 0
M  V30 3899 O 382.358 1.5131 -0.998751 0
M  V30 3900 C 382.406 -0.977899 -3.47087 0
M  V30 3901 O 381.51 -0.072685 -4.12336 0
M  V30 3902 H 380.851 -0.253443 -0.613728 0
M  V30 3903 H 383.381 -1.32061 -1.56272 0
M  V30 3904 H 383.391 -0.916739 -3.97567 0
M  V30 3905 H 382.066 -2.01807 -3.63657 0
M  V30 3906 H 380.643 -0.188703 -3.72422 0
M  V30 3907 N 382.828 1.3818 -0.7579 0
M  V30 3908 C 384.244 1.5353 -0.435972 0
M  V30 3909 C 384.444 1.71961 1.05032 0
M  V30 3910 O 383.5 1.73307 1.83633 0
M  V30 3911 C 384.813 2.73989 -1.23898 0
M  V30 3912 C 386.361 2.87841 -1.22949 0
M  V30 3913 C 386.836 4.11266 -2.01554 0
M  V30 3914 N 388.327 4.18352 -1.98837 0
M  V30 3915 C 389.062 5.12856 -2.5645 0
M  V30 3916 N 388.558 6.13005 -3.22794 0
M  V30 3917 N 390.351 5.05238 -2.46356 0
M  V30 3918 H 382.502 1.24467 -1.7211 0
M  V30 3919 H 384.765 0.604982 -0.729864 0
M  V30 3920 H 384.471 2.66789 -2.29165 0
M  V30 3921 H 384.345 3.67294 -0.858764 0
M  V30 3922 H 386.732 2.9452 -0.184854 0
M  V30 3923 H 386.813 1.95534 -1.64924 0
M  V30 3924 H 386.457 4.05349 -3.06031 0
M  V30 3925 H 386.387 5.02661 -1.5697 0
M  V30 3926 H 388.878 3.46628 -1.50524 0
M  V30 3927 H 389.191 6.81619 -3.64165 0
M  V30 3928 H 387.536 6.13325 -3.2689 0
M  V30 3929 H 390.727 4.25938 -1.9415 0
M  V30 3930 H 390.9 5.78707 -2.91552 0
M  V30 3931 N 384.306 0.507319 1.49211 0
M  V30 3932 C 385.717 0.0611118 1.866 0
M  V30 3933 C 386.068 -1.35488 1.41907 0
M  V30 3934 O 385.193 -2.0108 0.799726 0
M  V30 3935 C 385.788 0.104125 3.3864 0
M  V30 3936 C 384.347 -0.28677 3.75306 0
M  V30 3937 C 383.494 0.473893 2.73221 0
M  V30 3938 H 386.445 0.719775 1.41439 0
M  V30 3939 H 386.466 -0.689672 3.74198 0
M  V30 3940 H 385.978 1.13482 3.71138 0
M  V30 3941 H 384.079 -1.32046 3.48417 0
M  V30 3942 H 384.192 0.0370745 4.79086 0
M  V30 3943 H 382.556 -0.0770644 2.54583 0
M  V30 3944 H 383.339 1.50478 3.08563 0
M  V30 3945 N 385.784 -1.5574 0.241426 0
M  V30 3946 C 387.032 -1.98417 -0.384075 0
M  V30 3947 C 387.353 -1.13078 -1.58866 0
M  V30 3948 O 386.623 -0.212312 -1.94746 0
M  V30 3949 H 385.203 -0.732813 -0.144894 0
M  V30 3950 H 387.865 -1.9193 0.338943 0
M  V30 3951 H 386.961 -3.04219 -0.696939 0
M  V30 3952 N 387.262 0.0317525 -1.57568 0
M  V30 3953 C 388.21 1.05165 -2.07468 0
M  V30 3954 C 389.204 1.3761 -0.98792 0
M  V30 3955 O 390.41 1.36546 -1.17282 0
M  V30 3956 H 386.785 0.35666 -0.66204 0
M  V30 3957 H 388.756 0.604958 -2.92203 0
M  V30 3958 C 387.505 2.34488 -2.56731 0
M  V30 3959 H 386.828 2.10383 -3.39969 0
M  V30 3960 H 388.268 3.04203 -2.95358 0
M  V30 3961 C 386.727 3.03266 -1.46736 0
M  V30 3962 O 387.257 3.92988 -0.832069 0
M  V30 3963 N 385.463 2.6455 -1.20256 0
M  V30 3964 H 385.01 1.91674 -1.72102 0
M  V30 3965 H 384.968 3.10886 -0.468737 0
M  V30 3966 N 388.74 1.54641 0.303973 0
M  V30 3967 C 389.965 1.78092 1.06292 0
M  V30 3968 C 390.39 0.537342 1.80262 0
M  V30 3969 O 389.748 -0.511993 1.7392 0
M  V30 3970 C 389.796 2.98612 2.02147 0
M  V30 3971 O 388.9 2.71528 3.10397 0
M  V30 3972 H 388.241 0.589548 0.305497 0
M  V30 3973 H 390.771 2.01716 0.3423 0
M  V30 3974 H 390.781 3.265 2.44667 0
M  V30 3975 H 389.456 3.88785 1.47714 0
M  V30 3976 H 388.033 2.54648 2.72413 0
M  V30 3977 N 390.218 -0.567019 1.47046 0
M  V30 3978 C 391.634 -0.891975 1.32348 0
M  V30 3979 C 391.834 -1.99154 0.306616 0
M  V30 3980 O 390.89 -2.50883 -0.28532 0
M  V30 3981 C 392.203 -1.29449 2.7141 0
M  V30 3982 C 393.751 -1.40646 2.79621 0
M  V30 3983 C 394.226 -1.84257 4.19301 0
M  V30 3984 N 395.717 -1.91424 4.21795 0
M  V30 3985 C 396.452 -2.26476 5.26779 0
M  V30 3986 N 395.948 -2.60211 6.42077 0
M  V30 3987 N 397.741 -2.27166 5.14152 0
M  V30 3988 H 389.892 0.159074 2.11803 0
M  V30 3989 H 392.155 0.00849752 0.947962 0
M  V30 3990 H 391.861 -0.560448 3.47206 0
M  V30 3991 H 391.735 -2.25273 3.02542 0
M  V30 3992 H 394.122 -2.13133 2.04104 0
M  V30 3993 H 394.203 -0.430339 2.52154 0
M  V30 3994 H 393.847 -1.12343 4.95319 0
M  V30 3995 H 393.777 -2.82855 4.44185 0
M  V30 3996 H 396.268 -1.6778 3.38612 0
M  V30 3997 H 396.581 -2.85956 7.17948 0
M  V30 3998 H 394.926 -2.57813 6.45413 0
M  V30 3999 H 398.117 -2.00244 4.23107 0
M  V30 4000 H 398.29 -2.54154 5.96079 0
M  V30 4001 N 391.696 -1.35014 -0.812953 0
M  V30 4002 C 392.626 -1.30069 -1.93919 0
M  V30 4003 C 393.607 -0.176275 -1.69184 0
M  V30 4004 O 394.792 -0.370227 -1.90638 0
M  V30 4005 C 391.922 -1.06547 -3.30552 0
M  V30 4006 C 390.876 -2.15561 -3.69753 0
M  V30 4007 C 390.202 -1.77214 -5.04479 0
M  V30 4008 C 391.502 -3.57476 -3.808 0
M  V30 4009 H 393.196 -2.24303 -1.98314 0
M  V30 4010 H 390.742 -1.07977 -0.952736 0
M  V30 4011 H 392.695 -1.01729 -4.08937 0
M  V30 4012 H 391.419 -0.0875719 -3.26483 0
M  V30 4013 H 390.078 -2.19466 -2.9365 0
M  V30 4014 H 389.726 -0.780589 -4.96906 0
M  V30 4015 H 389.426 -2.50184 -5.31678 0
M  V30 4016 H 390.95 -1.7391 -5.8531 0
M  V30 4017 H 392.364 -3.55929 -4.4943 0
M  V30 4018 H 390.761 -4.29152 -4.19462 0
M  V30 4019 H 391.831 -3.94091 -2.82525 0
M  V30 4020 N 393.175 1.03435 -1.18907 0
M  V30 4021 C 394.123 2.13703 -0.918353 0
M  V30 4022 C 395.117 1.68947 0.123767 0
M  V30 4023 O 396.323 1.79983 -0.0249701 0
M  V30 4024 H 392.698 0.698112 -0.279542 0
M  V30 4025 H 394.669 2.33731 -1.85506 0
M  V30 4026 C 393.418 3.44542 -0.467532 0
M  V30 4027 H 392.741 3.79394 -1.26095 0
M  V30 4028 H 394.181 4.22812 -0.317164 0
M  V30 4029 C 392.64 3.26829 0.817588 0
M  V30 4030 O 393.17 3.54975 1.88031 0
M  V30 4031 N 391.376 2.80139 0.772677 0
M  V30 4032 H 390.923 2.57434 -0.0923883 0
M  V30 4033 H 390.881 2.68668 1.63294 0
M  V30 4034 N 394.653 0.992116 1.22453 0
M  V30 4035 C 395.881 0.685944 1.95198 0
M  V30 4036 C 396.296 -0.749233 1.73297 0
M  V30 4037 O 395.653 -1.50549 1.03156 0
M  V30 4038 C 395.704 0.981395 3.47924 0
M  V30 4039 O 395.425 2.36018 3.6909 0
M  V30 4040 C 396.926 0.692815 4.37853 0
M  V30 4041 H 394.146 0.253821 0.621141 0
M  V30 4042 H 396.69 1.32668 1.55626 0
M  V30 4043 H 394.845 0.386481 3.85467 0
M  V30 4044 H 395.259 2.45884 4.63294 0
M  V30 4045 H 396.733 0.949818 5.43767 0
M  V30 4046 H 397.21 -0.373181 4.37612 0
M  V30 4047 H 397.816 1.26874 4.05935 0
M  V30 4048 N 396.131 -1.37776 0.765217 0
M  V30 4049 C 397.041 -2.34135 0.147666 0
M  V30 4050 C 398.057 -1.59854 -0.687215 0
M  V30 4051 O 399.233 -1.91983 -0.608659 0
M  V30 4052 C 396.298 -3.3901 -0.72617 0
M  V30 4053 C 395.359 -4.2912 0.124417 0
M  V30 4054 C 394.592 -5.28986 -0.707807 0
M  V30 4055 O 394.815 -5.36205 -1.94525 0
M  V30 4056 O 393.749 -6.01779 -0.12046 0
M  V30 4057 H 397.575 -2.88664 0.943758 0
M  V30 4058 H 395.16 -1.39824 0.526277 0
M  V30 4059 H 397.042 -4.03195 -1.22524 0
M  V30 4060 H 395.717 -2.86819 -1.50056 0
M  V30 4061 H 394.624 -3.68057 0.669696 0
M  V30 4062 H 395.957 -4.84598 0.861736 0
M  V30 4063 N 397.609 -0.515225 -1.4894 0
M  V30 4064 C 398.556 0.255567 -2.29381 0
M  V30 4065 C 399.526 0.947387 -1.36432 0
M  V30 4066 O 400.711 0.951288 -1.65394 0
M  V30 4067 C 397.851 1.30551 -3.19453 0
M  V30 4068 C 396.964 0.624029 -4.27469 0
M  V30 4069 C 396.099 1.65563 -5.0474 0
M  V30 4070 C 395.138 0.956802 -6.04576 0
M  V30 4071 N 394.275 1.93326 -6.74959 0
M  V30 4072 H 399.115 -0.436607 -2.94784 0
M  V30 4073 H 396.652 -0.227154 -1.45336 0
M  V30 4074 H 398.61 1.92639 -3.70062 0
M  V30 4075 H 397.24 1.96626 -2.56004 0
M  V30 4076 H 396.292 -0.110459 -3.8024 0
M  V30 4077 H 397.604 0.0746092 -4.98744 0
M  V30 4078 H 396.758 2.35119 -5.59289 0
M  V30 4079 H 395.497 2.23893 -4.3327 0
M  V30 4080 H 394.502 0.247097 -5.49244 0
M  V30 4081 H 395.727 0.379814 -6.78037 0
M  V30 4082 H 393.673 2.50591 -6.06251 0
M  V30 4083 H 393.59 1.43489 -7.42258 0
M  V30 4084 H 394.858 2.62126 -7.34105 0
M  V30 4085 N 399.087 1.5561 -0.249682 0
M  V30 4086 C 400.334 1.99011 0.374287 0
M  V30 4087 C 400.662 1.13785 1.57744 0
M  V30 4088 O 399.917 0.189326 1.94782 0
M  V30 4089 C 400.216 3.4775 0.824887 0
M  V30 4090 C 399.882 4.50086 -0.270819 0
M  V30 4091 C 398.544 4.77791 -0.571746 0
M  V30 4092 C 400.896 5.11312 -1.01041 0
M  V30 4093 C 398.224 5.63997 -1.61629 0
M  V30 4094 C 400.576 5.98651 -2.0445 0
M  V30 4095 C 399.24 6.24688 -2.35204 0
M  V30 4096 H 398.51 0.728233 0.136961 0
M  V30 4097 H 401.157 1.88122 -0.358087 0
M  V30 4098 H 399.462 3.55985 1.63651 0
M  V30 4099 H 401.159 3.78721 1.31799 0
M  V30 4100 H 397.749 4.28592 -0.026136 0
M  V30 4101 H 401.933 4.89953 -0.791177 0
M  V30 4102 H 397.189 5.82425 -1.85988 0
M  V30 4103 H 401.363 6.45135 -2.62248 0
M  V30 4104 H 398.99 6.91281 -3.16282 0
M  V30 4105 N 400.565 -0.0233959 1.57583 0
M  V30 4106 C 401.497 -1.04994 2.03737 0
M  V30 4107 C 402.51 -1.32125 0.951152 0
M  V30 4108 O 403.699 -1.29512 1.22837 0
M  V30 4109 C 400.799 -2.39026 2.40249 0
M  V30 4110 C 399.972 -2.31171 3.7132 0
M  V30 4111 C 399.031 -3.47698 3.94959 0
M  V30 4112 O 398.057 -3.26937 4.65941 0
M  V30 4113 N 399.259 -4.6976 3.41037 0
M  V30 4114 H 402.024 -0.656507 2.92421 0
M  V30 4115 H 399.585 -0.211235 1.60516 0
M  V30 4116 H 401.577 -3.15712 2.53196 0
M  V30 4117 H 400.147 -2.70194 1.57207 0
M  V30 4118 H 399.367 -1.39547 3.68674 0
M  V30 4119 H 400.655 -2.23071 4.57293 0
M  V30 4120 H 400.053 -4.89528 2.83512 0
M  V30 4121 H 398.61 -5.43791 3.59353 0
M  V30 4122 N 402.043 -1.548 -0.295768 0
M  V30 4123 C 403.459 -1.4613 -0.641722 0
M  V30 4124 C 403.659 -0.656771 -1.90496 0
M  V30 4125 O 402.715 -0.166547 -2.5195 0
M  V30 4126 C 404.028 -2.90141 -0.789852 0
M  V30 4127 C 405.576 -3.00216 -0.885396 0
M  V30 4128 C 406.051 -4.45434 -1.06548 0
M  V30 4129 N 407.542 -4.49166 -1.13156 0
M  V30 4130 C 408.277 -5.58717 -1.28929 0
M  V30 4131 N 407.773 -6.78182 -1.41567 0
M  V30 4132 N 409.566 -5.46415 -1.31859 0
M  V30 4133 H 401.717 -2.05574 0.534147 0
M  V30 4134 H 403.98 -0.931259 0.177372 0
M  V30 4135 H 403.686 -3.51635 0.0675598 0
M  V30 4136 H 403.56 -3.37859 -1.67724 0
M  V30 4137 H 405.947 -2.38833 -1.73329 0
M  V30 4138 H 406.028 -2.55787 0.0261185 0
M  V30 4139 H 405.672 -5.07413 -0.222335 0
M  V30 4140 H 405.602 -4.87499 -1.9913 0
M  V30 4141 H 408.093 -3.631 -1.04721 0
M  V30 4142 H 408.406 -7.57428 -1.53372 0
M  V30 4143 H 406.751 -6.81037 -1.38613 0
M  V30 4144 H 409.942 -4.5203 -1.21601 0
M  V30 4145 H 410.115 -6.31841 -1.43808 0
M  V30 4146 N 403.521 0.559213 -1.47345 0
M  V30 4147 C 404.469 1.68747 -1.60085 0
M  V30 4148 C 405.463 1.628 -0.46825 0
M  V30 4149 O 406.669 1.68009 -0.645977 0
M  V30 4150 H 403.044 0.558329 -0.503759 0
M  V30 4151 H 405.015 1.55138 -2.54902 0
M  V30 4152 C 403.764 3.07103 -1.63042 0
M  V30 4153 H 403.087 3.12361 -2.49541 0
M  V30 4154 H 404.527 3.85743 -1.76006 0
M  V30 4155 C 402.986 3.34935 -0.363357 0
M  V30 4156 O 403.516 3.98102 0.536416 0
M  V30 4157 N 401.722 2.89574 -0.244 0
M  V30 4158 H 401.269 2.38348 -0.977133 0
M  V30 4159 H 401.227 3.08566 0.602836 0
M  V30 4160 N 404.999 1.35443 0.805782 0
M  V30 4161 C 406.246 1.28761 1.56291 0
M  V30 4162 C 406.574 -0.137747 1.94012 0
M  V30 4163 O 405.829 -1.1032 1.61642 0
M  V30 4164 C 406.128 2.14045 2.86216 0
M  V30 4165 C 405.794 3.62826 2.67709 0
M  V30 4166 C 404.456 4.0338 2.6237 0
M  V30 4167 C 406.808 4.57227 2.50186 0
M  V30 4168 C 404.136 5.36501 2.37451 0
M  V30 4169 C 406.488 5.90547 2.26797 0
M  V30 4170 C 405.152 6.30245 2.1988 0
M  V30 4171 H 404.422 0.471171 0.571908 0
M  V30 4172 H 407.069 1.67347 0.930974 0
M  V30 4173 H 405.374 1.68342 3.53791 0
M  V30 4174 H 407.071 2.0621 3.43917 0
M  V30 4175 H 403.661 3.30644 2.72713 0
M  V30 4176 H 407.845 4.2678 2.53323 0
M  V30 4177 H 403.101 5.66259 2.30567 0
M  V30 4178 H 407.275 6.63274 2.12228 0
M  V30 4179 H 404.902 7.33328 2.00333 0
M  V30 4180 N 406.477 -1.02803 1.19454 0
M  V30 4181 C 407.754 -1.73299 0.907013 0
M  V30 4182 C 408.134 -2.02772 -0.587086 0
M  V30 4183 O 407.482 -1.68304 -1.54551 0
M  V30 4184 C 407.692 -3.00912 1.76785 0
M  V30 4185 C 409.04 -3.74403 2.00268 0
M  V30 4186 O 410.064 -3.10841 1.73943 0
M  V30 4187 O 408.923 -4.88675 2.4466 0
M  V30 4188 H 406.017 -0.754727 0.338106 0
M  V30 4189 H 408.563 -1.08754 1.30271 0
M  V30 4190 H 407.335 -2.75366 2.7801 0
M  V30 4191 H 406.958 -3.73197 1.37149 0
M  V30 4192 N 407.956 -0.998596 -1.21925 0
M  V30 4193 C 408.886 -0.573688 -2.26343 0
M  V30 4194 C 409.867 0.402296 -1.65274 0
M  V30 4195 O 411.052 0.291683 -1.91997 0
M  V30 4196 C 408.182 0.106839 -3.47136 0
M  V30 4197 C 407.136 -0.788269 -4.20678 0
M  V30 4198 C 406.462 0.0254927 -5.34694 0
M  V30 4199 C 407.762 -2.08784 -4.78755 0
M  V30 4200 H 409.456 -1.44651 -2.62138 0
M  V30 4201 H 407.002 -0.696975 -1.26009 0
M  V30 4202 H 408.955 0.415531 -4.19346 0
M  V30 4203 H 407.679 1.01424 -3.10452 0
M  V30 4204 H 406.338 -1.08069 -3.50309 0
M  V30 4205 H 405.986 0.933989 -4.94253 0
M  V30 4206 H 405.686 -0.570437 -5.84825 0
M  V30 4207 H 407.21 0.328147 -6.09718 0
M  V30 4208 H 408.624 -1.84272 -5.42878 0
M  V30 4209 H 407.021 -2.63307 -5.39249 0
M  V30 4210 H 408.091 -2.76284 -3.98491 0
M  V30 4211 N 409.434 1.37368 -0.772513 0
M  V30 4212 C 410.683 1.98918 -0.333861 0
M  V30 4213 C 410.996 1.62017 1.09589 0
M  V30 4214 O 412.202 2.16676 1.63596 0
M  V30 4215 C 410.658 3.55735 -0.545971 0
M  V30 4216 C 410.266 4.01573 -1.98603 0
M  V30 4217 C 412.01 4.24156 -0.170979 0
M  V30 4218 C 409.917 5.51102 -2.1457 0
M  V30 4219 H 408.847 0.744214 -0.121085 0
M  V30 4220 H 411.498 1.56888 -0.95175 0
M  V30 4221 H 409.88 3.95748 0.141387 0
M  V30 4222 H 411.054 3.72803 -2.7084 0
M  V30 4223 H 409.369 3.45937 -2.31769 0
M  V30 4224 H 411.966 5.34024 -0.26878 0
M  V30 4225 H 412.309 4.06917 0.878855 0
M  V30 4226 H 412.842 3.89447 -0.810914 0
M  V30 4227 H 409.581 5.73268 -3.17875 0
M  V30 4228 H 409.101 5.81554 -1.46817 0
M  V30 4229 H 410.78 6.17083 -1.94468 0
M  V30 4230 N 410.912 0.523116 1.48665 0
M  V30 4231 C 411.842 -0.23231 2.32342 0
M  V30 4232 C 412.823 -0.941637 1.41659 0
M  V30 4233 O 414.008 -0.928751 1.70552 0
M  V30 4234 C 411.138 -1.28387 3.22698 0
M  V30 4235 C 410.092 -0.693098 4.22351 0
M  V30 4236 C 409.418 -1.8468 5.01794 0
M  V30 4237 C 410.718 0.33063 5.21252 0
M  V30 4238 H 412.412 0.466192 2.95748 0
M  V30 4239 H 409.958 0.225643 1.42221 0
M  V30 4240 H 411.911 -1.82024 3.80059 0
M  V30 4241 H 410.635 -2.01186 2.57278 0
M  V30 4242 H 409.294 -0.178299 3.66166 0
M  V30 4243 H 408.942 -2.56301 4.32804 0
M  V30 4244 H 408.642 -1.45747 5.69238 0
M  V30 4245 H 410.166 -2.38709 5.62006 0
M  V30 4246 H 411.58 -0.118407 5.73178 0
M  V30 4247 H 409.977 0.636974 5.9671 0
M  V30 4248 H 411.047 1.23883 4.68808 0
M  V30 4249 N 412.39 -1.55475 0.257931 0
M  V30 4250 C 413.801 -1.8511 -0.243135 0
M  V30 4251 C 414.152 -1.17986 -1.5676 0
M  V30 4252 O 413.277 -0.462102 -2.11409 0
M  V30 4253 C 413.872 -3.35826 -0.447929 0
M  V30 4254 C 412.431 -3.65647 -0.893245 0
M  V30 4255 C 411.578 -2.7729 0.0232965 0
M  V30 4256 H 414.529 -1.51261 0.480199 0
M  V30 4257 H 414.55 -3.58002 -1.28898 0
M  V30 4258 H 414.062 -3.84652 0.516196 0
M  V30 4259 H 412.163 -3.22308 -1.86945 0
M  V30 4260 H 412.276 -4.73312 -0.742469 0
M  V30 4261 H 410.64 -2.49942 -0.490021 0
M  V30 4262 H 411.423 -3.28926 0.982994 0
M  V30 4263 N 413.868 0.0150385 -1.57593 0
M  V30 4264 C 414.8 1.03912 -2.04291 0
M  V30 4265 C 415.813 1.31618 -0.958146 0
M  V30 4266 O 417.002 1.28859 -1.23522 0
M  V30 4267 C 414.102 2.37749 -2.41514 0
M  V30 4268 C 413.275 2.29198 -3.72541 0
M  V30 4269 C 412.334 3.45598 -3.96797 0
M  V30 4270 O 411.36 3.24461 -4.67668 0
M  V30 4271 N 412.562 4.67945 -3.43523 0
M  V30 4272 H 415.327 0.64099 -2.92765 0
M  V30 4273 H 412.888 0.20272 -1.60626 0
M  V30 4274 H 414.88 3.14364 -2.54867 0
M  V30 4275 H 413.45 2.69357 -1.58637 0
M  V30 4276 H 412.67 1.3759 -3.69408 0
M  V30 4277 H 413.958 2.20642 -4.5847 0
M  V30 4278 H 413.356 4.88017 -2.86104 0
M  V30 4279 H 411.913 5.41878 -3.62232 0
M  V30 4280 N 415.346 1.54954 0.287554 0
M  V30 4281 C 416.592 1.76059 1.01856 0
M  V30 4282 C 416.947 0.547056 1.84459 0
M  V30 4283 O 416.24 -0.460442 1.85985 0
M  V30 4284 C 416.434 2.99833 1.94512 0
M  V30 4285 C 416.263 4.33108 1.21026 0
M  V30 4286 C 415.033 4.96632 0.931896 0
M  V30 4287 C 417.231 5.10694 0.607949 0
M  V30 4288 N 415.213 6.13668 0.168716 0
M  V30 4289 C 416.584 6.19996 -0.0217865 0
M  V30 4290 C 418.639 4.95236 0.514338 0
M  V30 4291 C 417.342 7.15524 -0.736092 0
M  V30 4292 C 419.368 5.91106 -0.186343 0
M  V30 4293 C 418.73 6.99786 -0.804875 0
M  V30 4294 H 414.829 0.696679 0.355193 0
M  V30 4295 H 417.413 1.92441 0.295741 0
M  V30 4296 H 415.584 2.84853 2.64033 0
M  V30 4297 H 417.316 3.09405 2.60865 0
M  V30 4298 H 414.071 4.57255 1.23348 0
M  V30 4299 H 414.495 6.76705 -0.199781 0
M  V30 4300 H 419.137 4.11328 0.978234 0
M  V30 4301 H 416.855 7.98964 -1.21172 0
M  V30 4302 H 420.441 5.81224 -0.258897 0
M  V30 4303 H 419.321 7.72694 -1.33843 0
M  V30 4304 N 416.824 -0.551391 1.4764 0
M  V30 4305 C 417.734 -1.68525 1.63207 0
M  V30 4306 C 418.75 -1.6621 0.514815 0
M  V30 4307 O 419.926 -1.85551 0.783113 0
M  V30 4308 C 416.991 -3.05025 1.64805 0
M  V30 4309 C 416.052 -3.18362 2.88 0
M  V30 4310 C 415.285 -4.4835 2.89513 0
M  V30 4311 O 415.508 -5.34163 2.00065 0
M  V30 4312 O 414.442 -4.65602 3.81443 0
M  V30 4313 H 418.268 -1.58333 2.59161 0
M  V30 4314 H 415.853 -0.722063 1.30792 0
M  V30 4315 H 417.735 -3.86245 1.68502 0
M  V30 4316 H 416.41 -3.15587 0.720197 0
M  V30 4317 H 415.317 -2.36518 2.89845 0
M  V30 4318 H 416.65 -3.12707 3.80099 0
M  V30 4319 N 418.302 -1.35869 -0.798587 0
M  V30 4320 C 419.232 -1.32118 -1.92528 0
M  V30 4321 C 420.213 -0.194209 -1.68988 0
M  V30 4322 O 421.398 -0.390426 -1.90235 0
M  V30 4323 C 418.528 -1.10047 -3.29404 0
M  V30 4324 C 417.482 -2.19471 -3.67446 0
M  V30 4325 C 416.808 -1.82555 -5.02571 0
M  V30 4326 C 418.108 -3.61495 -3.76987 0
M  V30 4327 H 419.802 -2.26394 -1.95924 0
M  V30 4328 H 417.348 -1.08981 -0.94123 0
M  V30 4329 H 419.301 -1.06061 -4.07835 0
M  V30 4330 H 418.025 -0.122195 -3.26371 0
M  V30 4331 H 416.684 -2.22568 -2.91306 0
M  V30 4332 H 416.332 -0.833249 -4.9605 0
M  V30 4333 H 416.032 -2.5581 -5.28995 0
M  V30 4334 H 417.556 -1.80108 -5.83432 0
M  V30 4335 H 418.97 -3.60676 -4.4563 0
M  V30 4336 H 417.367 -4.33577 -4.14887 0
M  V30 4337 H 418.437 -3.97065 -2.78329 0
M  V30 4338 N 419.78 1.02168 -1.19998 0
M  V30 4339 C 421.028 1.75338 -1.00504 0
M  V30 4340 C 421.349 1.89387 0.464506 0
M  V30 4341 O 420.619 1.43268 1.33608 0
M  V30 4342 H 419.199 0.649564 -0.368885 0
M  V30 4343 H 421.861 1.23205 -1.51018 0
M  V30 4344 H 420.957 2.75892 -1.45912 0
M  V30 4345 N 421.258 1.00505 1.21394 0
M  V30 4346 C 422.504 0.688793 1.90745 0
M  V30 4347 C 422.837 -0.778486 1.77914 0
M  V30 4348 O 422.112 -1.56433 1.15581 0
M  V30 4349 C 422.395 1.11063 3.42545 0
M  V30 4350 C 422.248 2.63737 3.64367 0
M  V30 4351 C 423.567 0.673059 4.34923 0
M  V30 4352 H 420.686 0.251702 0.692687 0
M  V30 4353 H 423.328 1.25074 1.43026 0
M  V30 4354 H 421.478 0.632508 3.83317 0
M  V30 4355 H 423.15 3.19313 3.32922 0
M  V30 4356 H 421.393 3.05248 3.08231 0
M  V30 4357 H 422.064 2.88305 4.70727 0
M  V30 4358 H 424.54 1.08392 4.01734 0
M  V30 4359 H 423.416 0.996383 5.39781 0
M  V30 4360 H 423.677 -0.425808 4.40045 0
M  V30 4361 N 422.737 -1.36956 0.779787 0
M  V30 4362 C 423.684 -2.30175 0.169697 0
M  V30 4363 C 424.654 -1.51501 -0.68094 0
M  V30 4364 O 425.839 -1.80042 -0.631629 0
M  V30 4365 C 422.979 -3.37985 -0.697131 0
M  V30 4366 C 422.092 -4.31661 0.170992 0
M  V30 4367 C 421.227 -5.2655 -0.701298 0
M  V30 4368 C 420.266 -6.11867 0.168869 0
M  V30 4369 N 419.403 -6.98973 -0.661855 0
M  V30 4370 H 424.243 -2.81767 0.970135 0
M  V30 4371 H 421.78 -1.38699 0.489994 0
M  V30 4372 H 423.738 -3.99128 -1.2146 0
M  V30 4373 H 422.368 -2.87739 -1.46309 0
M  V30 4374 H 421.42 -3.71756 0.80634 0
M  V30 4375 H 422.732 -4.91644 0.841875 0
M  V30 4376 H 421.886 -5.92937 -1.28494 0
M  V30 4377 H 420.625 -4.66998 -1.40584 0
M  V30 4378 H 419.63 -5.44452 0.764986 0
M  V30 4379 H 420.855 -6.73493 0.870863 0
M  V30 4380 H 418.801 -6.41941 -1.35086 0
M  V30 4381 H 418.718 -7.55984 -0.0484447 0
M  V30 4382 H 419.986 -7.6974 -1.22963 0
M  V30 4383 N 424.215 -0.530993 -1.48385 0
M  V30 4384 C 425.631 -0.188919 -1.58478 0
M  V30 4385 C 425.831 1.30786 -1.53288 0
M  V30 4386 O 424.887 2.08619 -1.42248 0
M  V30 4387 C 426.2 -0.792343 -2.90073 0
M  V30 4388 C 427.748 -0.76117 -3.03604 0
M  V30 4389 C 428.223 -1.34319 -4.37861 0
M  V30 4390 N 429.714 -1.3052 -4.44431 0
M  V30 4391 C 430.449 -1.72543 -5.46824 0
M  V30 4392 N 429.945 -2.22299 -6.56167 0
M  V30 4393 N 431.738 -1.63773 -5.37712 0
M  V30 4394 H 423.889 -1.50377 -1.50002 0
M  V30 4395 H 426.152 -0.625559 -0.712306 0
M  V30 4396 H 425.858 -1.84323 -2.99529 0
M  V30 4397 H 425.732 -0.270026 -3.76232 0
M  V30 4398 H 428.119 0.280957 -2.93759 0
M  V30 4399 H 428.2 -1.32097 -2.19053 0
M  V30 4400 H 427.844 -2.38425 -4.4846 0
M  V30 4401 H 427.774 -0.759064 -5.21101 0
M  V30 4402 H 430.265 -0.940973 -3.65997 0
M  V30 4403 H 430.578 -2.52356 -7.30436 0
M  V30 4404 H 428.923 -2.26293 -6.57127 0
M  V30 4405 H 432.114 -1.24698 -4.51185 0
M  V30 4406 H 432.287 -1.96844 -6.17379 0
M  V30 4407 N 425.693 1.55336 -0.266172 0
M  V30 4408 C 426.626 2.18256 0.666296 0
M  V30 4409 C 427.604 1.14064 1.1588 0
M  V30 4410 O 428.788 1.42546 1.23341 0
M  V30 4411 C 425.915 2.79867 1.90768 0
M  V30 4412 C 424.961 3.97283 1.55141 0
M  V30 4413 S 425.794 5.31694 0.637313 0
M  V30 4414 C 426.95 5.96769 1.88727 0
M  V30 4415 H 427.183 2.97008 0.131647 0
M  V30 4416 H 424.716 1.54317 -0.0504869 0
M  V30 4417 H 426.674 3.15996 2.62025 0
M  V30 4418 H 425.335 2.01025 2.41346 0
M  V30 4419 H 424.528 4.3905 2.4749 0
M  V30 4420 H 424.13 3.6253 0.919113 0
M  V30 4421 H 426.422 6.15458 2.83227 0
M  V30 4422 H 427.365 6.91752 1.51276 0
M  V30 4423 H 427.773 5.26034 2.04814 0
M  V30 4424 N 427.171 -0.0066808 1.57599 0
M  V30 4425 C 428.101 -0.999296 2.11036 0
M  V30 4426 C 429.082 -1.36278 1.01795 0
M  V30 4427 O 430.267 -1.4477 1.29442 0
M  V30 4428 C 427.397 -2.29328 2.60818 0
M  V30 4429 C 426.351 -2.07159 3.74525 0
M  V30 4430 C 425.677 -3.42512 4.10596 0
M  V30 4431 C 426.977 -1.43959 5.02069 0
M  V30 4432 H 428.671 -0.554382 2.94223 0
M  V30 4433 H 426.217 -0.265221 1.41536 0
M  V30 4434 H 428.17 -2.99117 2.96828 0
M  V30 4435 H 426.894 -2.7592 1.74745 0
M  V30 4436 H 425.553 -1.39797 3.38899 0
M  V30 4437 H 425.201 -3.86795 3.21556 0
M  V30 4438 H 424.901 -3.28498 4.87199 0
M  V30 4439 H 426.425 -4.13628 4.4916 0
M  V30 4440 H 427.839 -2.03696 5.35893 0
M  V30 4441 H 426.236 -1.40452 5.83432 0
M  V30 4442 H 427.306 -0.407992 4.83181 0
M  V30 4443 N 428.649 -1.55105 -0.279332 0
M  V30 4444 C 429.877 -1.7943 -1.03017 0
M  V30 4445 C 430.292 -0.564456 -1.80165 0
M  V30 4446 O 429.649 0.466326 -1.76442 0
M  V30 4447 C 429.7 -3.0155 -1.99374 0
M  V30 4448 O 429.421 -4.19784 -1.25352 0
M  V30 4449 C 430.922 -3.3843 -2.86321 0
M  V30 4450 H 428.142 -0.597882 -0.304594 0
M  V30 4451 H 430.686 -2.02105 -0.312035 0
M  V30 4452 H 428.841 -2.81019 -2.66659 0
M  V30 4453 H 429.255 -4.88781 -1.90246 0
M  V30 4454 H 430.729 -4.27066 -3.49741 0
M  V30 4455 H 431.206 -2.57549 -3.5576 0
M  V30 4456 H 431.812 -3.61197 -2.24536 0
M  V30 4457 N 430.127 0.543554 -1.4793 0
M  V30 4458 C 431.037 1.67657 -1.64098 0
M  V30 4459 C 432.053 1.65934 -0.523622 0
M  V30 4460 O 433.229 1.85133 -0.792943 0
M  V30 4461 C 430.294 3.04146 -1.66421 0
M  V30 4462 C 429.355 3.16831 -2.89684 0
M  V30 4463 C 428.588 4.46809 -2.91886 0
M  V30 4464 O 428.811 5.33095 -2.02895 0
M  V30 4465 O 427.745 4.63573 -3.83906 0
M  V30 4466 H 431.571 1.56957 -2.59997 0
M  V30 4467 H 429.156 0.715116 -1.31173 0
M  V30 4468 H 431.038 3.85346 -1.70548 0
M  V30 4469 H 429.713 3.152 -0.736923 0
M  V30 4470 H 428.62 2.34977 -2.91095 0
M  V30 4471 H 429.953 3.10687 -3.81752 0
M  V30 4472 N 431.605 1.3629 0.791371 0
M  V30 4473 C 432.538 1.24816 1.9104 0
M  V30 4474 C 433.516 0.132739 1.62057 0
M  V30 4475 O 434.7 0.303527 1.8604 0
M  V30 4476 C 431.827 0.925355 3.25814 0
M  V30 4477 C 430.873 2.05495 3.7373 0
M  V30 4478 S 431.706 3.67255 3.89723 0
M  V30 4479 C 432.862 3.37084 5.27376 0
M  V30 4480 H 433.095 2.19533 2.00481 0
M  V30 4481 H 430.628 1.21684 0.950393 0
M  V30 4482 H 432.586 0.745924 4.03666 0
M  V30 4483 H 431.247 -0.00400098 3.141 0
M  V30 4484 H 430.44 1.7836 4.71385 0
M  V30 4485 H 430.042 2.1935 3.02922 0
M  V30 4486 H 432.334 2.90856 6.1189 0
M  V30 4487 H 433.277 4.33995 5.59512 0
M  V30 4488 H 433.685 2.7248 4.94383 0
M  V30 4489 N 433.083 -1.0153 1.20538 0
M  V30 4490 C 434.33 -1.75149 1.01633 0
M  V30 4491 C 434.658 -1.89189 -0.451399 0
M  V30 4492 O 433.913 -1.41551 -1.35136 0
M  V30 4493 C 434.212 -3.17213 1.64654 0
M  V30 4494 C 433.878 -3.23146 3.14464 0
M  V30 4495 C 432.54 -3.24472 3.55347 0
M  V30 4496 C 434.892 -3.21207 4.10458 0
M  V30 4497 C 432.22 -3.21532 4.90748 0
M  V30 4498 C 434.572 -3.19808 5.45807 0
M  V30 4499 C 433.236 -3.19439 5.86102 0
M  V30 4500 H 432.506 -0.640914 0.3719 0
M  V30 4501 H 435.153 -1.19071 1.49981 0
M  V30 4502 H 433.458 -3.76457 1.08571 0
M  V30 4503 H 435.155 -3.72871 1.4754 0
M  V30 4504 H 431.745 -3.2285 2.81897 0
M  V30 4505 H 435.929 -3.19351 3.79906 0
M  V30 4506 H 431.185 -3.19578 5.21229 0
M  V30 4507 H 435.359 -3.1726 6.19935 0
M  V30 4508 H 432.986 -3.16915 6.90991 0
M  V30 4509 N 434.561 -1.01147 -1.20859 0
M  V30 4510 C 435.789 -0.716911 -1.94082 0
M  V30 4511 C 436.204 0.721568 -1.74467 0
M  V30 4512 O 435.561 1.48889 -1.05539 0
M  V30 4513 C 435.612 -1.03662 -3.46318 0
M  V30 4514 O 435.333 -2.4186 -3.65288 0
M  V30 4515 C 436.834 -0.762386 -4.36695 0
M  V30 4516 H 434.054 -0.26367 -0.617024 0
M  V30 4517 H 436.598 -1.35127 -1.53496 0
M  V30 4518 H 434.753 -0.447757 -3.84804 0
M  V30 4519 H 435.167 -2.53224 -4.59323 0
M  V30 4520 H 436.641 -1.03621 -5.42187 0
M  V30 4521 H 437.118 0.303514 -4.3815 0
M  V30 4522 H 437.724 -1.33316 -4.03865 0
M  V30 4523 N 436.039 1.36541 -0.78704 0
M  V30 4524 C 437.267 2.03561 -0.370199 0
M  V30 4525 C 437.682 1.59347 1.01263 0
M  V30 4526 O 437.039 0.781781 1.64907 0
M  V30 4527 C 437.09 3.59033 -0.421614 0
M  V30 4528 O 436.811 4.01634 -1.7499 0
M  V30 4529 C 438.312 4.433 0.00489763 0
M  V30 4530 H 435.532 0.653346 -0.152904 0
M  V30 4531 H 438.076 1.74566 -1.06522 0
M  V30 4532 H 436.231 3.86746 0.224971 0
M  V30 4533 H 436.645 4.96217 -1.69909 0
M  V30 4534 H 438.119 5.51939 -0.0822184 0
M  V30 4535 H 438.596 4.26285 1.05723 0
M  V30 4536 H 439.202 4.20843 -0.614085 0
M  V30 4537 N 437.518 0.538854 1.48102 0
M  V30 4538 C 438.746 0.0123136 2.06896 0
M  V30 4539 C 439.161 -1.27312 1.39417 0
M  V30 4540 O 438.518 -1.75949 0.484582 0
M  V30 4541 C 438.569 -0.206118 3.60912 0
M  V30 4542 O 438.29 1.0284 4.25859 0
M  V30 4543 C 439.791 -0.772033 4.36526 0
M  V30 4544 H 437.011 0.0375239 0.66995 0
M  V30 4545 H 439.555 0.747032 1.90367 0
M  V30 4546 H 437.71 -0.89091 3.77017 0
M  V30 4547 H 438.124 0.814654 5.18135 0
M  V30 4548 H 439.598 -0.874251 5.45033 0
M  V30 4549 H 440.075 -1.77904 4.01555 0
M  V30 4550 H 440.681 -0.123526 4.25121 0
M  V30 4551 N 438.996 -1.55193 0.274407 0
M  V30 4552 C 440.224 -2.03987 -0.345943 0
M  V30 4553 C 440.639 -1.15279 -1.4952 0
M  V30 4554 O 439.996 -0.172759 -1.8168 0
M  V30 4555 C 440.047 -3.51898 -0.827631 0
M  V30 4556 O 439.768 -4.37231 0.275855 0
M  V30 4557 C 441.269 -4.16577 -1.51587 0
M  V30 4558 H 438.489 -0.666335 -0.0789892 0
M  V30 4559 H 441.033 -2.00423 0.406294 0
M  V30 4560 H 439.188 -3.55909 -1.52996 0
M  V30 4561 H 439.602 -5.24415 -0.0943638 0
M  V30 4562 H 441.076 -5.21678 -1.80433 0
M  V30 4563 H 441.553 -3.64707 -2.44716 0
M  V30 4564 H 442.159 -4.16568 -0.857409 0
M  V30 4565 N 440.474 -0.00167713 -1.576 0
M  V30 4566 C 441.723 0.682021 -1.89819 0
M  V30 4567 C 442.036 1.74844 -0.876871 0
M  V30 4568 O 443.242 2.48688 -1.08934 0
M  V30 4569 C 441.698 1.26425 -3.36964 0
M  V30 4570 C 441.306 0.232568 -4.47396 0
M  V30 4571 C 443.05 1.92604 -3.78291 0
M  V30 4572 C 440.957 0.824882 -5.85619 0
M  V30 4573 H 439.887 0.258499 -0.708304 0
M  V30 4574 H 442.538 -0.0624957 -1.83394 0
M  V30 4575 H 440.92 2.05949 -3.38232 0
M  V30 4576 H 442.094 -0.5382 -4.57646 0
M  V30 4577 H 440.409 -0.32888 -4.15099 0
M  V30 4578 H 443.006 2.37827 -4.78897 0
M  V30 4579 H 443.349 2.75732 -3.11894 0
M  V30 4580 H 443.882 1.19812 -3.79328 0
M  V30 4581 H 440.621 0.0323542 -6.55492 0
M  V30 4582 H 440.141 1.56477 -5.79029 0
M  V30 4583 H 441.82 1.32301 -6.33329 0
M  V30 4584 O 441.991 1.60887 0.140552 0
M  V30 4585 H 442.682 1.77558 0.77413 0
M  V30 END ATOM
M  V30 BEGIN BOND
M  V30 END BOND
M  V30 END CTAB
M  END
$$$$
