drugbank_target|P26358 DNA (cytosine-5)-methyltransferase 1 (DB00721; DB00928; DB01035; DB01099; DB01262; DB05668; DB12116)
 OpenBabel12092119423D

  0  0  0     0  0            999 V3000
M  V30 BEGIN CTAB
M  V30 COUNTS 64347 69044 0 0 0
M  V30 BEGIN ATOM
M  V30 1 H -1.547 9.37743 -1.21644 0
M  V30 2 O -1.44 8.89599 -0.40059 0
M  V30 3 P 0 8.91 0 0
M  V30 4 O 0.22 10.1746 0.733838 0
M  V30 5 O 0.79 8.73346 -1.23964 0
M  V30 6 O 0.25 7.66872 0.971405 0
M  V30 7 C -0.69 7.42405 2.04668 0
M  V30 8 C 0.04 6.86059 3.24661 0
M  V30 9 O 0.25 5.42934 3.03695 0
M  V30 10 C 1.44 7.41287 3.50796 0
M  V30 11 O 1.83 7.27073 4.86816 0
M  V30 12 C 2.32 6.5273 2.63741 0
M  V30 13 C 1.61 5.1842 2.73198 0
M  V30 14 N 1.66 4.38762 1.4784 0
M  V30 15 H -1.178 8.36899 2.3252 0
M  V30 16 H -1.45 6.70391 1.71179 0
M  V30 17 H -0.582 7.03638 4.13219 0
M  V30 18 H 2.073 4.59931 3.54016 0
M  V30 19 H 2.353 6.88995 1.59871 0
M  V30 20 H 3.344 6.4684 3.0373 0
M  V30 21 H 1.51 8.47002 3.20749 0
M  V30 22 P 3.37998 7.20834 5.23717 0
M  V30 23 O 3.59998 7.79853 6.57286 0
M  V30 24 O 4.16998 7.79239 4.12957 0
M  V30 25 O 3.62998 5.63315 5.29344 0
M  V30 26 C 2.68998 4.80255 6.01876 0
M  V30 27 C 3.41998 3.64202 6.65911 0
M  V30 28 O 3.62998 2.60694 5.64732 0
M  V30 29 C 4.81998 3.93473 7.1943 0
M  V30 30 O 5.20998 3.02071 8.21205 0
M  V30 31 C 5.69998 3.73047 5.97036 0
M  V30 32 C 4.98998 2.58828 5.25741 0
M  V30 33 N 5.03998 2.68068 3.77503 0
M  V30 34 H 2.20098 5.40332 6.79951 0
M  V30 35 H 1.93098 4.41613 5.32378 0
M  V30 36 H 2.79798 3.26331 7.47797 0
M  V30 37 P 6.75996 2.75334 8.47391 0
M  V30 38 O 6.97996 2.44619 9.90336 0
M  V30 39 O 7.54996 3.87776 7.92294 0
M  V30 40 O 7.00996 1.4459 7.59357 0
M  V30 41 C 6.06996 0.347653 7.69315 0
M  V30 42 C 6.79996 -0.96767 7.52806 0
M  V30 43 O 7.00996 -1.21055 6.10208 0
M  V30 44 C 8.19996 -1.04557 8.13408 0
M  V30 45 O 8.58996 -2.38311 8.41922 0
M  V30 46 C 9.07996 -0.491279 7.02284 0
M  V30 47 C 8.36996 -0.996264 5.77469 0
M  V30 48 N 8.41996 -0.0501916 4.62973 0
M  V30 49 C 8.33996 1.31969 4.65661 0
M  V30 50 N 8.40996 1.86649 3.48119 0
M  V30 51 C 8.55996 0.792089 2.62406 0
M  V30 52 C 8.68996 0.705684 1.2207 0
M  V30 53 N 8.69996 1.76207 0.413762 0
M  V30 54 N 8.80996 -0.518981 0.685754 0
M  V30 55 C 8.79996 -1.57595 1.49174 0
M  V30 56 N 8.67996 -1.62909 2.80066 0
M  V30 57 C 8.55996 -0.388195 3.3073 0
M  V30 58 H 5.58196 0.374765 8.67791 0
M  V30 59 H 5.30996 0.443613 6.90476 0
M  V30 60 H 6.17796 -1.75559 7.96891 0
M  V30 61 H 8.83296 -1.94563 5.46818 0
M  V30 62 H 9.11296 0.608651 7.04676 0
M  V30 63 H 10.104 -0.889796 7.09039 0
M  V30 64 H 8.26996 -0.433128 9.04664 0
M  V30 65 H 8.22896 1.89246 5.57664 0
M  V30 66 H 8.60996 2.71005 0.804694 0
M  V30 67 H 8.79896 1.63189 -0.603768 0
M  V30 68 H 8.90696 -2.53475 0.997614 0
M  V30 69 P 10.1399 -2.75334 8.47391 0
M  V30 70 O 10.3599 -3.84128 9.44797 0
M  V30 71 O 10.9299 -1.51947 8.68712 0
M  V30 72 O 10.3899 -3.29363 6.99321 0
M  V30 73 C 9.44994 -4.24011 6.4274 0
M  V30 74 C 10.1799 -5.20775 5.52155 0
M  V30 75 O 10.3899 -4.56534 4.22446 0
M  V30 76 C 11.5799 -5.62629 5.96531 0
M  V30 77 O 11.9699 -6.87667 5.41053 0
M  V30 78 C 12.4599 -4.52537 5.39283 0
M  V30 79 C 11.7499 -4.20027 4.08623 0
M  V30 80 N 11.7999 -2.76189 3.71603 0
M  V30 81 C 11.7199 -1.64862 4.52822 0
M  V30 82 N 11.7999 -0.512671 3.88633 0
M  V30 83 C 11.9399 -0.888083 2.54977 0
M  V30 84 C 12.0699 -0.094668 1.38677 0
M  V30 85 N 12.1899 -0.890102 0.232633 0
M  V30 86 C 12.1899 -2.26958 0.21772 0
M  V30 87 N 12.3199 -2.84626 -0.97925 0
M  V30 88 N 12.0599 -3.0178 1.31033 0
M  V30 89 C 11.9399 -2.26781 2.43843 0
M  V30 90 H 8.96094 -4.797 7.24003 0
M  V30 91 H 8.69094 -3.69856 5.84513 0
M  V30 92 H 9.55794 -6.10356 5.41441 0
M  V30 93 P 13.5199 -7.20834 5.23717 0
M  V30 94 O 13.7399 -8.66189 5.38625 0
M  V30 95 O 14.3099 -6.33615 6.1356 0
M  V30 96 O 13.7699 -6.7751 3.72168 0
M  V30 97 C 12.8299 -7.20732 2.70725 0
M  V30 98 C 13.5599 -7.45864 1.40599 0
M  V30 99 O 13.7699 -6.17651 0.734225 0
M  V30 100 C 14.9599 -8.05808 1.51899 0
M  V30 101 O 15.3499 -8.74358 0.335205 0
M  V30 102 C 15.8399 -6.83093 1.70294 0
M  V30 103 C 15.1299 -5.79992 0.836974 0
M  V30 104 N 15.1799 -4.41769 1.38263 0
M  V30 105 C 15.3299 -3.38591 0.481702 0
M  V30 106 O 15.4199 -3.56839 -0.718452 0
M  V30 107 N 15.3699 -2.1206 1.03569 0
M  V30 108 C 15.2799 -1.80696 2.36966 0
M  V30 109 O 15.3299 -0.630473 2.74862 0
M  V30 110 C 15.1299 -2.94845 3.23898 0
M  V30 111 C 15.0199 -2.65253 4.70362 0
M  V30 112 C 15.0799 -4.19803 2.73435 0
M  V30 113 H 12.3399 -8.13644 3.0377 0
M  V30 114 H 12.0709 -6.42695 2.55448 0
M  V30 115 H 12.9379 -8.12039 0.792769 0
M  V30 116 H 15.5929 -5.79978 -0.160587 0
M  V30 117 H 15.8719 -6.51379 2.75643 0
M  V30 118 H 16.8639 -7.01734 1.34462 0
M  V30 119 H 15.0299 -8.73674 2.38337 0
M  V30 120 H 14.9589 -5.04492 3.4095 0
M  V30 121 H 15.9889 -2.83924 5.1913 0
M  V30 122 H 14.2519 -3.29824 5.15163 0
M  V30 123 H 14.7399 -1.59723 4.84449 0
M  V30 124 H 15.4759 -1.35644 0.399345 0
M  V30 125 P 16.8999 -8.91 1.09116e-15 0
M  V30 126 O 17.1199 -10.1746 -0.733838 0
M  V30 127 O 17.6899 -8.73346 1.23964 0
M  V30 128 O 17.1499 -7.66872 -0.971405 0
M  V30 129 C 16.2099 -7.42405 -2.04668 0
M  V30 130 C 16.9399 -6.86059 -3.24661 0
M  V30 131 O 17.1499 -5.42934 -3.03695 0
M  V30 132 C 18.3399 -7.41287 -3.50796 0
M  V30 133 O 18.7299 -7.27073 -4.86816 0
M  V30 134 C 19.2199 -6.5273 -2.63741 0
M  V30 135 C 18.5099 -5.1842 -2.73198 0
M  V30 136 N 18.5599 -4.38762 -1.4784 0
M  V30 137 C 18.4799 -4.83651 -0.183876 0
M  V30 138 N 18.5499 -3.88759 0.699393 0
M  V30 139 C 18.6999 -2.7404 -0.0575568 0
M  V30 140 C 18.8299 -1.37902 0.293928 0
M  V30 141 N 18.8399 -0.938021 1.54797 0
M  V30 142 N 18.9499 -0.491817 -0.70549 0
M  V30 143 C 18.9399 -0.931735 -1.95979 0
M  V30 144 N 18.8199 -2.16017 -2.41481 0
M  V30 145 C 18.6999 -3.02547 -1.39121 0
M  V30 146 H 15.7219 -8.36899 -2.3252 0
M  V30 147 H 15.4499 -6.70391 -1.71179 0
M  V30 148 H 16.3179 -7.03638 -4.13219 0
M  V30 149 H 18.9729 -4.59931 -3.54016 0
M  V30 150 H 19.2529 -6.88995 -1.59871 0
M  V30 151 H 20.2439 -6.4684 -3.0373 0
M  V30 152 H 18.4099 -8.47002 -3.20749 0
M  V30 153 H 18.3689 -5.8885 0.0765548 0
M  V30 154 H 18.7499 -1.60276 2.32875 0
M  V30 155 H 18.9389 0.0699355 1.73859 0
M  V30 156 H 19.0469 -0.165507 -2.71897 0
M  V30 157 P 20.2799 -7.20834 -5.23717 0
M  V30 158 O 20.4999 -7.79853 -6.57286 0
M  V30 159 O 21.0699 -7.79239 -4.12957 0
M  V30 160 O 20.5299 -5.63315 -5.29344 0
M  V30 161 C 19.5899 -4.80255 -6.01876 0
M  V30 162 C 20.3199 -3.64202 -6.65911 0
M  V30 163 O 20.5299 -2.60694 -5.64732 0
M  V30 164 C 21.7199 -3.93473 -7.1943 0
M  V30 165 O 22.1099 -3.02071 -8.21205 0
M  V30 166 C 22.5999 -3.73047 -5.97036 0
M  V30 167 C 21.8899 -2.58828 -5.25741 0
M  V30 168 N 21.9399 -2.68068 -3.77503 0
M  V30 169 H 19.1009 -5.40332 -6.79951 0
M  V30 170 H 18.8309 -4.41613 -5.32378 0
M  V30 171 H 19.6979 -3.26331 -7.47797 0
M  V30 172 P 23.6599 -2.75334 -8.47391 0
M  V30 173 O 23.8799 -2.44619 -9.90336 0
M  V30 174 O 24.4499 -3.87776 -7.92294 0
M  V30 175 O 23.9099 -1.4459 -7.59357 0
M  V30 176 C 22.9699 -0.347653 -7.69315 0
M  V30 177 C 23.6999 0.96767 -7.52806 0
M  V30 178 O 23.9099 1.21055 -6.10208 0
M  V30 179 C 25.0999 1.04557 -8.13408 0
M  V30 180 O 25.4899 2.38311 -8.41922 0
M  V30 181 C 25.9799 0.491279 -7.02284 0
M  V30 182 C 25.2699 0.996264 -5.77469 0
M  V30 183 N 25.3199 0.0501916 -4.62973 0
M  V30 184 C 25.2399 -1.31969 -4.65661 0
M  V30 185 N 25.3099 -1.86649 -3.48119 0
M  V30 186 C 25.4599 -0.792089 -2.62406 0
M  V30 187 C 25.5899 -0.705684 -1.2207 0
M  V30 188 N 25.5999 -1.76207 -0.413762 0
M  V30 189 N 25.7099 0.518981 -0.685754 0
M  V30 190 C 25.6999 1.57595 -1.49174 0
M  V30 191 N 25.5799 1.62909 -2.80066 0
M  V30 192 C 25.4599 0.388195 -3.3073 0
M  V30 193 H 22.4819 -0.374765 -8.67791 0
M  V30 194 H 22.2099 -0.443613 -6.90476 0
M  V30 195 H 23.0779 1.75559 -7.96891 0
M  V30 196 H 25.7329 1.94563 -5.46818 0
M  V30 197 H 26.0129 -0.608651 -7.04676 0
M  V30 198 H 27.0039 0.889796 -7.09039 0
M  V30 199 H 25.1699 0.433128 -9.04664 0
M  V30 200 H 25.1289 -1.89246 -5.57664 0
M  V30 201 H 25.5099 -2.71005 -0.804694 0
M  V30 202 H 25.6989 -1.63189 0.603768 0
M  V30 203 H 25.8069 2.53475 -0.997614 0
M  V30 204 P 27.0398 2.75334 -8.47391 0
M  V30 205 O 27.2598 3.84128 -9.44797 0
M  V30 206 O 27.8298 1.51947 -8.68712 0
M  V30 207 O 27.2898 3.29363 -6.99321 0
M  V30 208 C 26.3498 4.24011 -6.4274 0
M  V30 209 C 27.0798 5.20775 -5.52155 0
M  V30 210 O 27.2898 4.56534 -4.22446 0
M  V30 211 C 28.4798 5.62629 -5.96531 0
M  V30 212 O 28.8698 6.87667 -5.41053 0
M  V30 213 C 29.3598 4.52537 -5.39283 0
M  V30 214 C 28.6498 4.20027 -4.08623 0
M  V30 215 N 28.6998 2.76189 -3.71603 0
M  V30 216 C 28.6198 1.64862 -4.52822 0
M  V30 217 N 28.6998 0.512671 -3.88633 0
M  V30 218 C 28.8398 0.888083 -2.54977 0
M  V30 219 C 28.9698 0.094668 -1.38677 0
M  V30 220 N 29.0898 0.890102 -0.232633 0
M  V30 221 C 29.0898 2.26958 -0.21772 0
M  V30 222 N 29.2198 2.84626 0.97925 0
M  V30 223 N 28.9598 3.0178 -1.31033 0
M  V30 224 C 28.8398 2.26781 -2.43843 0
M  V30 225 H 25.8608 4.797 -7.24003 0
M  V30 226 H 25.5908 3.69856 -5.84513 0
M  V30 227 H 26.4578 6.10356 -5.41441 0
M  V30 228 P 30.4198 7.20834 -5.23717 0
M  V30 229 O 30.6398 8.66104 -5.38572 0
M  V30 230 O 31.2098 6.33544 -6.1349 0
M  V30 231 O 30.6698 6.7751 -3.72168 0
M  V30 232 C 29.7298 7.20825 -2.7076 0
M  V30 233 C 30.4598 7.45864 -1.40599 0
M  V30 234 O 30.6698 6.17651 -0.734225 0
M  V30 235 C 31.8598 8.05808 -1.51899 0
M  V30 236 O 32.2498 8.74358 -0.335205 0
M  V30 237 C 32.7398 6.83093 -1.70294 0
M  V30 238 C 32.0298 5.79992 -0.836974 0
M  V30 239 N 32.0798 4.41864 -1.38293 0
M  V30 240 H 29.2408 8.13644 -3.0377 0
M  V30 241 H 28.9708 6.42788 -2.55485 0
M  V30 242 H 29.8378 8.12039 -0.792769 0
M  V30 243 P 33.7998 8.91 -2.18232e-15 0
M  V30 244 O 34.0198 10.1726 0.733694 0
M  V30 245 O 34.5898 8.73148 -1.23936 0
M  V30 246 O 34.0498 7.66872 0.971405 0
M  V30 247 C 33.1098 7.42309 2.04641 0
M  V30 248 C 33.8398 6.86059 3.24661 0
M  V30 249 O 34.0498 5.42847 3.03646 0
M  V30 250 C 35.2398 7.41196 3.50753 0
M  V30 251 O 35.6298 7.27073 4.86816 0
M  V30 252 C 36.1198 6.5273 2.63741 0
M  V30 253 C 35.4098 5.1842 2.73198 0
M  V30 254 N 35.4598 4.38762 1.4784 0
M  V30 255 H 32.6208 8.36803 2.32493 0
M  V30 256 H 32.3508 6.70197 1.71129 0
M  V30 257 H 33.2178 7.03551 4.13168 0
M  V30 258 P 37.1798 7.20834 5.23717 0
M  V30 259 O 37.3998 7.7993 6.57351 0
M  V30 260 O 37.9698 7.79328 4.13004 0
M  V30 261 O 37.4298 5.63315 5.29344 0
M  V30 262 C 36.4898 4.80193 6.01798 0
M  V30 263 C 37.2198 3.64202 6.65911 0
M  V30 264 O 37.4298 2.60694 5.64732 0
M  V30 265 C 38.6198 3.93473 7.1943 0
M  V30 266 O 39.0098 3.02071 8.21205 0
M  V30 267 C 39.4998 3.73047 5.97036 0
M  V30 268 C 38.7898 2.58828 5.25741 0
M  V30 269 N 38.8398 2.6801 3.77422 0
M  V30 270 C 38.9898 1.50443 3.07133 0
M  V30 271 O 39.0798 0.419406 3.61576 0
M  V30 272 N 39.0298 1.6403 1.69677 0
M  V30 273 C 38.9398 2.81206 0.986255 0
M  V30 274 O 38.9898 2.80892 -0.249754 0
M  V30 275 C 38.7898 3.99158 1.80325 0
M  V30 276 C 38.6798 5.29309 1.06921 0
M  V30 277 C 38.7398 3.89779 3.1476 0
M  V30 278 H 35.9998 5.40332 6.79951 0
M  V30 279 H 35.7308 4.41549 5.32301 0
M  V30 280 H 36.5978 3.26331 7.47797 0
M  V30 281 H 39.2528 1.6395 5.56554 0
M  V30 282 H 39.5318 4.63439 5.3432 0
M  V30 283 H 40.5238 3.44728 6.25838 0
M  V30 284 H 38.6898 4.96652 7.57263 0
M  V30 285 H 38.6188 4.80159 3.74441 0
M  V30 286 H 39.6488 5.81459 1.09608 0
M  V30 287 H 37.9118 5.9187 1.54487 0
M  V30 288 H 38.3998 5.10095 0.0220288 0
M  V30 289 H 39.1358 0.798962 1.16664 0
M  V30 290 P 40.5598 2.75334 8.47391 0
M  V30 291 O 40.7798 2.44571 9.90142 0
M  V30 292 O 41.3498 3.87688 7.92115 0
M  V30 293 O 40.8098 1.4459 7.59357 0
M  V30 294 C 39.8698 0.347608 7.69215 0
M  V30 295 C 40.5998 -0.96767 7.52806 0
M  V30 296 O 40.8098 -1.21036 6.1011 0
M  V30 297 C 41.9998 -1.04544 8.13308 0
M  V30 298 O 42.3898 -2.38311 8.41922 0
M  V30 299 C 42.8798 -0.491279 7.02284 0
M  V30 300 C 42.1698 -0.996264 5.77469 0
M  V30 301 N 42.2198 -0.0501916 4.62973 0
M  V30 302 H 39.3808 0.374722 8.67691 0
M  V30 303 H 39.1108 0.443485 6.90277 0
M  V30 304 H 39.9778 -1.75537 7.96793 0
M  V30 305 P 43.9397 -2.75334 8.47391 0
M  V30 306 O 44.1597 -3.84204 9.44982 0
M  V30 307 O 44.7297 -1.51982 8.68909 0
M  V30 308 O 44.1897 -3.29363 6.99321 0
M  V30 309 C 43.2497 -4.24066 6.42823 0
M  V30 310 C 43.9797 -5.20775 5.52155 0
M  V30 311 O 44.1897 -4.56607 4.22514 0
M  V30 312 C 45.3797 -5.62697 5.96604 0
M  V30 313 O 45.7697 -6.87667 5.41053 0
M  V30 314 C 46.2597 -4.52537 5.39283 0
M  V30 315 C 45.5497 -4.20027 4.08623 0
M  V30 316 N 45.5997 -2.76189 3.71603 0
M  V30 317 C 45.5197 -1.66944 4.54297 0
M  V30 318 N 45.5897 -0.536169 3.91344 0
M  V30 319 C 45.7397 -0.901569 2.58849 0
M  V30 320 C 45.8697 -0.146599 1.40236 0
M  V30 321 N 45.8797 1.18234 1.37046 0
M  V30 322 N 45.9897 -0.822941 0.249738 0
M  V30 323 C 45.9797 -2.15179 0.280525 0
M  V30 324 N 45.8597 -2.96414 1.30822 0
M  V30 325 C 45.7397 -2.25804 2.44748 0
M  V30 326 H 42.7617 -4.79756 7.24086 0
M  V30 327 H 42.4897 -3.69963 5.84682 0
M  V30 328 H 43.3577 -6.10431 5.41508 0
M  V30 329 H 46.0127 -4.78816 3.28024 0
M  V30 330 H 46.2927 -3.64957 6.05871 0
M  V30 331 H 47.2837 -4.88748 5.21323 0
M  V30 332 H 45.4497 -5.66789 7.0643 0
M  V30 333 H 45.4087 -1.74684 5.62396 0
M  V30 334 H 45.7897 1.71949 2.24394 0
M  V30 335 H 45.9787 1.67511 0.470742 0
M  V30 336 H 46.0867 -2.63704 -0.6828 0
M  V30 337 P 47.3197 -7.20834 5.23717 0
M  V30 338 O 47.5397 -8.66104 5.38572 0
M  V30 339 O 48.1097 -6.33544 6.1349 0
M  V30 340 O 47.5697 -6.7751 3.72168 0
M  V30 341 C 46.6297 -7.20825 2.7076 0
M  V30 342 C 47.3597 -7.45864 1.40599 0
M  V30 343 O 47.5697 -6.17651 0.734225 0
M  V30 344 C 48.7597 -8.05808 1.51899 0
M  V30 345 O 49.1497 -8.74358 0.335205 0
M  V30 346 C 49.6397 -6.83093 1.70294 0
M  V30 347 C 48.9297 -5.79992 0.836974 0
M  V30 348 N 48.9797 -4.41864 1.38293 0
M  V30 349 H 46.1407 -8.13644 3.0377 0
M  V30 350 H 45.8707 -6.42788 2.55485 0
M  V30 351 H 46.7377 -8.12039 0.792769 0
M  V30 352 P 50.6997 -8.91 3.27348e-15 0
M  V30 353 O 50.9197 -10.1726 -0.733694 0
M  V30 354 O 51.4897 -8.73148 1.23936 0
M  V30 355 O 50.9497 -7.66872 -0.971405 0
M  V30 356 C 50.0097 -7.42309 -2.04641 0
M  V30 357 C 50.7397 -6.86059 -3.24661 0
M  V30 358 O 50.9497 -5.42847 -3.03646 0
M  V30 359 C 52.1397 -7.41196 -3.50753 0
M  V30 360 O 52.5297 -7.27073 -4.86816 0
M  V30 361 C 53.0197 -6.5273 -2.63741 0
M  V30 362 C 52.3097 -5.1842 -2.73198 0
M  V30 363 N 52.3597 -4.38762 -1.4784 0
M  V30 364 H 49.5207 -8.36803 -2.32493 0
M  V30 365 H 49.2507 -6.70197 -1.71129 0
M  V30 366 H 50.1177 -7.03551 -4.13168 0
M  V30 367 P 54.0797 -7.20834 -5.23717 0
M  V30 368 O 54.2997 -7.80006 -6.57415 0
M  V30 369 O 54.8697 -7.79416 -4.13051 0
M  V30 370 O 54.3297 -5.63315 -5.29344 0
M  V30 371 C 53.3897 -4.80318 -6.01954 0
M  V30 372 C 54.1197 -3.64202 -6.65911 0
M  V30 373 O 54.3297 -2.60736 -5.64823 0
M  V30 374 C 55.5197 -3.93521 -7.19518 0
M  V30 375 O 55.9097 -3.02071 -8.21205 0
M  V30 376 C 56.3997 -3.73047 -5.97036 0
M  V30 377 C 55.6897 -2.58828 -5.25741 0
M  V30 378 N 55.7397 -2.68068 -3.77503 0
M  V30 379 C 55.6597 -3.80474 -2.99159 0
M  V30 380 N 55.7297 -3.55622 -1.71925 0
M  V30 381 C 55.8797 -2.1832 -1.65733 0
M  V30 382 C 56.0097 -1.28842 -0.572777 0
M  V30 383 N 56.0197 -1.66875 0.70098 0
M  V30 384 N 56.1297 0.016788 -0.859836 0
M  V30 385 C 56.1197 0.398145 -2.13316 0
M  V30 386 N 55.9997 -0.328224 -3.22333 0
M  V30 387 C 55.8797 -1.62992 -2.90383 0
M  V30 388 H 52.9017 -5.40394 -6.8003 0
M  V30 389 H 52.6297 -4.41741 -5.32532 0
M  V30 390 H 53.4977 -3.26371 -7.47889 0
M  V30 391 H 56.1527 -1.64007 -5.56746 0
M  V30 392 H 56.4327 -4.63439 -5.3432 0
M  V30 393 H 57.4237 -3.44776 -6.25925 0
M  V30 394 H 55.5897 -4.96707 -7.57347 0
M  V30 395 H 55.5487 -4.8089 -3.39924 0
M  V30 396 H 55.9297 -2.66547 0.941919 0
M  V30 397 H 56.1187 -0.965341 1.44766 0
M  V30 398 H 56.2267 1.46427 -2.29697 0
M  V30 399 P 57.4597 -2.75334 -8.47391 0
M  V30 400 O 57.6797 -2.44571 -9.90142 0
M  V30 401 O 58.2497 -3.87688 -7.92115 0
M  V30 402 O 57.7097 -1.4459 -7.59357 0
M  V30 403 C 56.7697 -0.347608 -7.69215 0
M  V30 404 C 57.4997 0.96767 -7.52806 0
M  V30 405 O 57.7097 1.21036 -6.1011 0
M  V30 406 C 58.8997 1.04544 -8.13308 0
M  V30 407 O 59.2897 2.38311 -8.41922 0
M  V30 408 C 59.7797 0.491279 -7.02284 0
M  V30 409 C 59.0697 0.996264 -5.77469 0
M  V30 410 N 59.1197 0.0501916 -4.62973 0
M  V30 411 H 56.2807 -0.374722 -8.67691 0
M  V30 412 H 56.0107 -0.443485 -6.90277 0
M  V30 413 H 56.8777 1.75537 -7.96793 0
M  V30 414 P 60.8396 2.75334 -8.47391 0
M  V30 415 O 61.0596 3.84128 -9.44797 0
M  V30 416 O 61.6296 1.51947 -8.68712 0
M  V30 417 O 61.0896 3.29363 -6.99321 0
M  V30 418 C 60.1496 4.24011 -6.4274 0
M  V30 419 C 60.8796 5.20775 -5.52155 0
M  V30 420 O 61.0896 4.56534 -4.22446 0
M  V30 421 C 62.2796 5.62629 -5.96531 0
M  V30 422 O 62.6696 6.87667 -5.41053 0
M  V30 423 C 63.1596 4.52537 -5.39283 0
M  V30 424 C 62.4496 4.20027 -4.08623 0
M  V30 425 N 62.4996 2.76189 -3.71603 0
M  V30 426 H 59.6606 4.797 -7.24003 0
M  V30 427 H 59.3906 3.69856 -5.84513 0
M  V30 428 H 60.2576 6.10356 -5.41441 0
M  V30 429 P 64.2196 7.20834 -5.23717 0
M  V30 430 O 64.4396 8.66104 -5.38572 0
M  V30 431 O 65.0096 6.33544 -6.1349 0
M  V30 432 O 64.4696 6.7751 -3.72168 0
M  V30 433 C 63.5296 7.20825 -2.7076 0
M  V30 434 C 64.2596 7.45864 -1.40599 0
M  V30 435 O 64.4696 6.17651 -0.734225 0
M  V30 436 C 65.6596 8.05808 -1.51899 0
M  V30 437 O 66.0496 8.74358 -0.335205 0
M  V30 438 C 66.5396 6.83093 -1.70294 0
M  V30 439 C 65.8296 5.79992 -0.836974 0
M  V30 440 N 65.8796 4.41864 -1.38293 0
M  V30 441 H 63.0406 8.13644 -3.0377 0
M  V30 442 H 62.7706 6.42788 -2.55485 0
M  V30 443 H 63.6376 8.12039 -0.792769 0
M  V30 444 P 67.5996 8.91 -4.36464e-15 0
M  V30 445 O 67.8196 10.1726 0.733694 0
M  V30 446 O 68.3896 8.73148 -1.23936 0
M  V30 447 O 67.8496 7.66872 0.971405 0
M  V30 448 C 66.9096 7.42309 2.04641 0
M  V30 449 C 67.6396 6.86059 3.24661 0
M  V30 450 O 67.8496 5.42847 3.03646 0
M  V30 451 C 69.0396 7.41196 3.50753 0
M  V30 452 O 69.4296 7.27073 4.86816 0
M  V30 453 C 69.9196 6.5273 2.63741 0
M  V30 454 C 69.2096 5.1842 2.73198 0
M  V30 455 N 69.2596 4.38762 1.4784 0
M  V30 456 H 66.4206 8.36803 2.32493 0
M  V30 457 H 66.1506 6.70197 1.71129 0
M  V30 458 H 67.0176 7.03551 4.13168 0
M  V30 459 P 70.9796 7.20834 5.23717 0
M  V30 460 O 71.1996 7.79853 6.57286 0
M  V30 461 O 71.7696 7.79239 4.12957 0
M  V30 462 O 71.2296 5.63315 5.29344 0
M  V30 463 C 70.2896 4.80255 6.01876 0
M  V30 464 C 71.0196 3.64202 6.65911 0
M  V30 465 O 71.2296 2.60694 5.64732 0
M  V30 466 C 72.4196 3.93473 7.1943 0
M  V30 467 O 72.8096 3.02071 8.21205 0
M  V30 468 C 73.2996 3.73047 5.97036 0
M  V30 469 C 72.5896 2.58828 5.25741 0
M  V30 470 N 72.6396 2.68068 3.77503 0
M  V30 471 H 69.8006 5.40332 6.79951 0
M  V30 472 H 69.5306 4.41613 5.32378 0
M  V30 473 H 70.3976 3.26331 7.47797 0
M  V30 474 P 74.3596 2.75334 8.47391 0
M  V30 475 O 74.5796 2.44571 9.90142 0
M  V30 476 O 75.1496 3.87688 7.92115 0
M  V30 477 O 74.6096 1.4459 7.59357 0
M  V30 478 C 73.6696 0.347608 7.69215 0
M  V30 479 C 74.3996 -0.96767 7.52806 0
M  V30 480 O 74.6096 -1.21036 6.1011 0
M  V30 481 C 75.7996 -1.04544 8.13308 0
M  V30 482 O 76.1896 -2.38311 8.41922 0
M  V30 483 C 76.6796 -0.491279 7.02284 0
M  V30 484 C 75.9696 -0.996264 5.77469 0
M  V30 485 N 76.0196 -0.0501916 4.62973 0
M  V30 486 H 73.1806 0.374722 8.67691 0
M  V30 487 H 72.9106 0.443485 6.90277 0
M  V30 488 H 73.7776 -1.75537 7.96793 0
M  V30 489 P 77.7395 -2.75334 8.47391 0
M  V30 490 O 77.9595 -3.84128 9.44797 0
M  V30 491 O 78.5295 -1.51947 8.68712 0
M  V30 492 O 77.9895 -3.29363 6.99321 0
M  V30 493 C 77.0495 -4.24011 6.4274 0
M  V30 494 C 77.7795 -5.20775 5.52155 0
M  V30 495 O 77.9895 -4.56534 4.22446 0
M  V30 496 C 79.1795 -5.62629 5.96531 0
M  V30 497 O 79.5695 -6.87667 5.41053 0
M  V30 498 C 80.0595 -4.52537 5.39283 0
M  V30 499 C 79.3495 -4.20027 4.08623 0
M  V30 500 N 79.3995 -2.76189 3.71603 0
M  V30 501 H 76.5605 -4.797 7.24003 0
M  V30 502 H 76.2905 -3.69856 5.84513 0
M  V30 503 H 77.1575 -6.10356 5.41441 0
M  V30 504 P 81.1195 -7.20834 5.23717 0
M  V30 505 O 81.3395 -8.66104 5.38572 0
M  V30 506 O 81.9095 -6.33544 6.1349 0
M  V30 507 O 81.3695 -6.7751 3.72168 0
M  V30 508 C 80.4295 -7.20825 2.7076 0
M  V30 509 C 81.1595 -7.45864 1.40599 0
M  V30 510 O 81.3695 -6.17651 0.734225 0
M  V30 511 C 82.5595 -8.05808 1.51899 0
M  V30 512 O 82.9495 -8.74358 0.335205 0
M  V30 513 C 83.4395 -6.83093 1.70294 0
M  V30 514 C 82.7295 -5.79992 0.836974 0
M  V30 515 N 82.7795 -4.41864 1.38293 0
M  V30 516 C 82.6995 -3.99538 2.69438 0
M  V30 517 N 82.7795 -2.69909 2.84277 0
M  V30 518 C 82.9195 -2.21719 1.5408 0
M  V30 519 C 83.0495 -0.891712 1.06628 0
M  V30 520 N 83.1695 -0.856846 -0.334985 0
M  V30 521 C 83.1695 -1.9641 -1.15789 0
M  V30 522 N 83.2995 -1.72708 -2.46522 0
M  V30 523 N 83.0395 -3.21165 -0.713741 0
M  V30 524 C 82.9195 -3.26797 0.639748 0
M  V30 525 H 79.9405 -8.13644 3.0377 0
M  V30 526 H 79.6705 -6.42788 2.55485 0
M  V30 527 H 80.5375 -8.12039 0.792769 0
M  V30 528 P 84.4995 -8.91 5.4558e-15 0
M  V30 529 O 84.7195 -10.1726 -0.733694 0
M  V30 530 O 85.2895 -8.73148 1.23936 0
M  V30 531 O 84.7495 -7.66872 -0.971405 0
M  V30 532 C 83.8095 -7.42309 -2.04641 0
M  V30 533 C 84.5395 -6.86059 -3.24661 0
M  V30 534 O 84.7495 -5.42847 -3.03646 0
M  V30 535 C 85.9395 -7.41196 -3.50753 0
M  V30 536 O 86.3295 -7.27073 -4.86816 0
M  V30 537 C 86.8195 -6.5273 -2.63741 0
M  V30 538 C 86.1095 -5.1842 -2.73198 0
M  V30 539 N 86.1595 -4.38762 -1.4784 0
M  V30 540 C 86.0795 -4.81605 -0.168631 0
M  V30 541 N 86.1595 -3.85454 0.713363 0
M  V30 542 C 86.2995 -2.6994 -0.0566958 0
M  V30 543 C 86.4295 -1.34815 0.338502 0
M  V30 544 N 86.5495 -0.496304 -0.77465 0
M  V30 545 C 86.5495 -0.908403 -2.09122 0
M  V30 546 N 86.6795 0.0517805 -3.00955 0
M  V30 547 N 86.4195 -2.17875 -2.46519 0
M  V30 548 C 86.2995 -3.01988 -1.4033 0
M  V30 549 H 83.3205 -8.36803 -2.32493 0
M  V30 550 H 83.0505 -6.70197 -1.71129 0
M  V30 551 H 83.9175 -7.03551 -4.13168 0
M  V30 552 P 87.8795 -7.20834 -5.23717 0
M  V30 553 O 88.0995 -7.79853 -6.57286 0
M  V30 554 O 88.6695 -7.79239 -4.12957 0
M  V30 555 O 88.1295 -5.63315 -5.29344 0
M  V30 556 C 87.1895 -4.80255 -6.01876 0
M  V30 557 C 87.9195 -3.64202 -6.65911 0
M  V30 558 O 88.1295 -2.60694 -5.64732 0
M  V30 559 C 89.3195 -3.93473 -7.1943 0
M  V30 560 O 89.7095 -3.02071 -8.21205 0
M  V30 561 C 90.1995 -3.73047 -5.97036 0
M  V30 562 C 89.4895 -2.58828 -5.25741 0
M  V30 563 N 89.5395 -2.68068 -3.77503 0
M  V30 564 C 89.4595 -3.79715 -2.96723 0
M  V30 565 N 89.5395 -3.5377 -1.68852 0
M  V30 566 C 89.6795 -2.15054 -1.63254 0
M  V30 567 C 89.8095 -1.28964 -0.518571 0
M  V30 568 N 89.9295 0.0538097 -0.918425 0
M  V30 569 C 89.9295 0.494275 -2.22578 0
M  V30 570 N 90.0595 1.81086 -2.40434 0
M  V30 571 N 89.7995 -0.313645 -3.27502 0
M  V30 572 C 89.6795 -1.61829 -2.91033 0
M  V30 573 H 86.7005 -5.40332 -6.79951 0
M  V30 574 H 86.4305 -4.41613 -5.32378 0
M  V30 575 H 87.2975 -3.26331 -7.47797 0
M  V30 576 P 91.2595 -2.75334 -8.47391 0
M  V30 577 O 91.4795 -2.44571 -9.90142 0
M  V30 578 O 92.0495 -3.87688 -7.92115 0
M  V30 579 O 91.5095 -1.4459 -7.59357 0
M  V30 580 C 90.5695 -0.347608 -7.69215 0
M  V30 581 C 91.2995 0.96767 -7.52806 0
M  V30 582 O 91.5095 1.21036 -6.1011 0
M  V30 583 C 92.6995 1.04544 -8.13308 0
M  V30 584 O 93.0895 2.38311 -8.41922 0
M  V30 585 C 93.5795 0.491279 -7.02284 0
M  V30 586 C 92.8695 0.996264 -5.77469 0
M  V30 587 N 92.9195 0.0501916 -4.62973 0
M  V30 588 H 90.0805 -0.374722 -8.67691 0
M  V30 589 H 89.8105 -0.443485 -6.90277 0
M  V30 590 H 90.6775 1.75537 -7.96793 0
M  V30 591 P 94.6394 2.75334 -8.47391 0
M  V30 592 O 94.8594 3.84128 -9.44797 0
M  V30 593 O 95.4294 1.51947 -8.68712 0
M  V30 594 O 94.8894 3.29363 -6.99321 0
M  V30 595 C 93.9494 4.24011 -6.4274 0
M  V30 596 C 94.6794 5.20775 -5.52155 0
M  V30 597 O 94.8894 4.56534 -4.22446 0
M  V30 598 C 96.0794 5.62629 -5.96531 0
M  V30 599 O 96.4694 6.87667 -5.41053 0
M  V30 600 C 96.9594 4.52537 -5.39283 0
M  V30 601 C 96.2494 4.20027 -4.08623 0
M  V30 602 N 96.2994 2.76189 -3.71603 0
M  V30 603 H 93.4604 4.797 -7.24003 0
M  V30 604 H 93.1904 3.69856 -5.84513 0
M  V30 605 H 94.0574 6.10356 -5.41441 0
M  V30 606 P 98.0194 7.20834 -5.23717 0
M  V30 607 O 98.2394 8.66104 -5.38572 0
M  V30 608 O 98.8094 6.33544 -6.1349 0
M  V30 609 O 98.2694 6.7751 -3.72168 0
M  V30 610 C 97.3294 7.20825 -2.7076 0
M  V30 611 C 98.0594 7.45864 -1.40599 0
M  V30 612 O 98.2694 6.17651 -0.734225 0
M  V30 613 C 99.4594 8.05808 -1.51899 0
M  V30 614 O 99.8494 8.74358 -0.335205 0
M  V30 615 C 100.339 6.83093 -1.70294 0
M  V30 616 C 99.6294 5.79992 -0.836974 0
M  V30 617 N 99.6794 4.41864 -1.38293 0
M  V30 618 H 96.8404 8.13644 -3.0377 0
M  V30 619 H 96.5704 6.42788 -2.55485 0
M  V30 620 H 97.4374 8.12039 -0.792769 0
M  V30 621 P 101.399 8.91 -6.54696e-15 0
M  V30 622 O 101.619 10.1726 0.733694 0
M  V30 623 O 102.189 8.73148 -1.23936 0
M  V30 624 O 101.649 7.66872 0.971405 0
M  V30 625 C 100.709 7.42309 2.04641 0
M  V30 626 C 101.439 6.86059 3.24661 0
M  V30 627 O 101.649 5.42847 3.03646 0
M  V30 628 C 102.839 7.41196 3.50753 0
M  V30 629 O 103.229 7.27073 4.86816 0
M  V30 630 C 103.719 6.5273 2.63741 0
M  V30 631 C 103.009 5.1842 2.73198 0
M  V30 632 N 103.059 4.38762 1.4784 0
M  V30 633 H 100.22 8.36803 2.32493 0
M  V30 634 H 99.9504 6.70197 1.71129 0
M  V30 635 H 100.817 7.03551 4.13168 0
M  V30 636 P 104.779 7.20834 5.23717 0
M  V30 637 O 104.999 7.79853 6.57286 0
M  V30 638 O 105.569 7.79239 4.12957 0
M  V30 639 O 105.029 5.63315 5.29344 0
M  V30 640 C 104.089 4.80255 6.01876 0
M  V30 641 C 104.819 3.64202 6.65911 0
M  V30 642 O 105.029 2.60694 5.64732 0
M  V30 643 C 106.219 3.93473 7.1943 0
M  V30 644 O 106.609 3.02071 8.21205 0
M  V30 645 C 107.099 3.73047 5.97036 0
M  V30 646 C 106.389 2.58828 5.25741 0
M  V30 647 N 106.439 2.68068 3.77503 0
M  V30 648 H 103.6 5.40332 6.79951 0
M  V30 649 H 103.33 4.41613 5.32378 0
M  V30 650 H 104.197 3.26331 7.47797 0
M  V30 651 P 108.159 2.75334 8.47391 0
M  V30 652 O 108.379 2.44571 9.90142 0
M  V30 653 O 108.949 3.87688 7.92115 0
M  V30 654 O 108.409 1.4459 7.59357 0
M  V30 655 C 107.469 0.347608 7.69215 0
M  V30 656 C 108.199 -0.96767 7.52806 0
M  V30 657 O 108.409 -1.21036 6.1011 0
M  V30 658 C 109.599 -1.04544 8.13308 0
M  V30 659 O 109.989 -2.38311 8.41922 0
M  V30 660 C 110.479 -0.491279 7.02284 0
M  V30 661 C 109.769 -0.996264 5.77469 0
M  V30 662 N 109.819 -0.0501916 4.62973 0
M  V30 663 C 109.739 1.32786 4.63244 0
M  V30 664 N 109.819 1.86957 3.44545 0
M  V30 665 C 109.959 0.780241 2.58481 0
M  V30 666 C 110.089 0.738536 1.17757 0
M  V30 667 N 110.209 -0.58337 0.711393 0
M  V30 668 C 110.209 -1.70816 1.51017 0
M  V30 669 N 110.339 -2.87826 0.880757 0
M  V30 670 N 110.079 -1.67126 2.8339 0
M  V30 671 C 109.959 -0.401421 3.30572 0
M  V30 672 H 106.98 0.374722 8.67691 0
M  V30 673 H 106.71 0.443485 6.90277 0
M  V30 674 H 107.577 -1.75537 7.96793 0
M  V30 675 P 111.539 -2.75334 8.47391 0
M  V30 676 O 111.759 -3.84128 9.44797 0
M  V30 677 O 112.329 -1.51947 8.68712 0
M  V30 678 O 111.789 -3.29363 6.99321 0
M  V30 679 C 110.849 -4.24011 6.4274 0
M  V30 680 C 111.579 -5.20775 5.52155 0
M  V30 681 O 111.789 -4.56534 4.22446 0
M  V30 682 C 112.979 -5.62629 5.96531 0
M  V30 683 O 113.369 -6.87667 5.41053 0
M  V30 684 C 113.859 -4.52537 5.39283 0
M  V30 685 C 113.149 -4.20027 4.08623 0
M  V30 686 N 113.199 -2.76189 3.71603 0
M  V30 687 H 110.36 -4.797 7.24003 0
M  V30 688 H 110.09 -3.69856 5.84513 0
M  V30 689 H 110.957 -6.10356 5.41441 0
M  V30 690 P 114.919 -7.20834 5.23717 0
M  V30 691 O 115.139 -8.66104 5.38572 0
M  V30 692 O 115.709 -6.33544 6.1349 0
M  V30 693 O 115.169 -6.7751 3.72168 0
M  V30 694 C 114.229 -7.20825 2.7076 0
M  V30 695 C 114.959 -7.45864 1.40599 0
M  V30 696 O 115.169 -6.17651 0.734225 0
M  V30 697 C 116.359 -8.05808 1.51899 0
M  V30 698 O 116.749 -8.74358 0.335205 0
M  V30 699 C 117.239 -6.83093 1.70294 0
M  V30 700 C 116.529 -5.79992 0.836974 0
M  V30 701 N 116.579 -4.41864 1.38293 0
M  V30 702 H 113.74 -8.13644 3.0377 0
M  V30 703 H 113.47 -6.42788 2.55485 0
M  V30 704 H 114.337 -8.12039 0.792769 0
M  V30 705 P 118.299 -8.91 7.63812e-15 0
M  V30 706 O 118.519 -10.1726 -0.733694 0
M  V30 707 O 119.089 -8.73148 1.23936 0
M  V30 708 O 118.549 -7.66872 -0.971405 0
M  V30 709 C 117.609 -7.42309 -2.04641 0
M  V30 710 C 118.339 -6.86059 -3.24661 0
M  V30 711 O 118.549 -5.42847 -3.03646 0
M  V30 712 C 119.739 -7.41196 -3.50753 0
M  V30 713 O 120.129 -7.27073 -4.86816 0
M  V30 714 C 120.619 -6.5273 -2.63741 0
M  V30 715 C 119.909 -5.1842 -2.73198 0
M  V30 716 N 119.959 -4.38762 -1.4784 0
M  V30 717 H 117.12 -8.36803 -2.32493 0
M  V30 718 H 116.85 -6.70197 -1.71129 0
M  V30 719 H 117.717 -7.03551 -4.13168 0
M  V30 720 P 121.679 -7.20834 -5.23717 0
M  V30 721 O 121.899 -7.7993 -6.57351 0
M  V30 722 O 122.469 -7.79328 -4.13004 0
M  V30 723 O 121.929 -5.63315 -5.29344 0
M  V30 724 C 120.989 -4.80193 -6.01798 0
M  V30 725 C 121.719 -3.64202 -6.65911 0
M  V30 726 O 121.929 -2.60694 -5.64732 0
M  V30 727 C 123.119 -3.93473 -7.1943 0
M  V30 728 O 123.509 -3.02071 -8.21205 0
M  V30 729 C 123.999 -3.73047 -5.97036 0
M  V30 730 C 123.289 -2.58828 -5.25741 0
M  V30 731 N 123.339 -2.6801 -3.77422 0
M  V30 732 C 123.489 -1.50443 -3.07133 0
M  V30 733 O 123.579 -0.419406 -3.61576 0
M  V30 734 N 123.529 -1.6403 -1.69677 0
M  V30 735 C 123.439 -2.81206 -0.986255 0
M  V30 736 O 123.489 -2.80892 0.249754 0
M  V30 737 C 123.289 -3.99158 -1.80325 0
M  V30 738 C 123.179 -5.29309 -1.06921 0
M  V30 739 C 123.239 -3.89779 -3.1476 0
M  V30 740 H 120.499 -5.40332 -6.79951 0
M  V30 741 H 120.23 -4.41549 -5.32301 0
M  V30 742 H 121.097 -3.26331 -7.47797 0
M  V30 743 H 123.752 -1.6395 -5.56554 0
M  V30 744 H 124.031 -4.63439 -5.3432 0
M  V30 745 H 125.023 -3.44728 -6.25838 0
M  V30 746 H 123.189 -4.96652 -7.57263 0
M  V30 747 H 123.118 -4.80159 -3.74441 0
M  V30 748 H 124.148 -5.81459 -1.09608 0
M  V30 749 H 122.411 -5.9187 -1.54487 0
M  V30 750 H 122.899 -5.10095 -0.0220288 0
M  V30 751 H 123.635 -0.798962 -1.16664 0
M  V30 752 P 125.059 -2.75334 -8.47391 0
M  V30 753 O 125.279 -2.44571 -9.90142 0
M  V30 754 O 125.849 -3.87688 -7.92115 0
M  V30 755 O 125.309 -1.4459 -7.59357 0
M  V30 756 C 124.369 -0.347608 -7.69215 0
M  V30 757 C 125.099 0.96767 -7.52806 0
M  V30 758 O 125.309 1.21036 -6.1011 0
M  V30 759 C 126.499 1.04544 -8.13308 0
M  V30 760 O 126.889 2.38311 -8.41922 0
M  V30 761 C 127.379 0.491279 -7.02284 0
M  V30 762 C 126.669 0.996264 -5.77469 0
M  V30 763 N 126.719 0.0501916 -4.62973 0
M  V30 764 H 123.88 -0.374722 -8.67691 0
M  V30 765 H 123.61 -0.443485 -6.90277 0
M  V30 766 H 124.477 1.75537 -7.96793 0
M  V30 767 P 128.439 2.75334 -8.47391 0
M  V30 768 O 128.659 3.84128 -9.44797 0
M  V30 769 O 129.229 1.51947 -8.68712 0
M  V30 770 O 128.689 3.29363 -6.99321 0
M  V30 771 C 127.749 4.24011 -6.4274 0
M  V30 772 C 128.479 5.20775 -5.52155 0
M  V30 773 O 128.689 4.56534 -4.22446 0
M  V30 774 C 129.879 5.62629 -5.96531 0
M  V30 775 O 130.269 6.87667 -5.41053 0
M  V30 776 C 130.759 4.52537 -5.39283 0
M  V30 777 C 130.049 4.20027 -4.08623 0
M  V30 778 N 130.099 2.76189 -3.71603 0
M  V30 779 H 127.26 4.797 -7.24003 0
M  V30 780 H 126.99 3.69856 -5.84513 0
M  V30 781 H 127.857 6.10356 -5.41441 0
M  V30 782 P 131.819 7.20834 -5.23717 0
M  V30 783 O 132.039 8.66104 -5.38572 0
M  V30 784 O 132.609 6.33544 -6.1349 0
M  V30 785 O 132.069 6.7751 -3.72168 0
M  V30 786 C 131.129 7.20825 -2.7076 0
M  V30 787 C 131.859 7.45864 -1.40599 0
M  V30 788 O 132.069 6.17651 -0.734225 0
M  V30 789 C 133.259 8.05808 -1.51899 0
M  V30 790 O 133.649 8.74358 -0.335205 0
M  V30 791 C 134.139 6.83093 -1.70294 0
M  V30 792 C 133.429 5.79992 -0.836974 0
M  V30 793 N 133.479 4.41864 -1.38293 0
M  V30 794 H 130.64 8.13644 -3.0377 0
M  V30 795 H 130.37 6.42788 -2.55485 0
M  V30 796 H 131.237 8.12039 -0.792769 0
M  V30 797 P 135.199 8.91 -8.72928e-15 0
M  V30 798 O 135.419 10.1736 0.733766 0
M  V30 799 O 135.989 8.73247 -1.2395 0
M  V30 800 O 135.449 7.66872 0.971405 0
M  V30 801 C 134.509 7.42309 2.04641 0
M  V30 802 C 135.239 6.86059 3.24661 0
M  V30 803 O 135.449 5.42847 3.03646 0
M  V30 804 C 136.639 7.41196 3.50753 0
M  V30 805 O 137.029 7.27073 4.86816 0
M  V30 806 C 137.519 6.5273 2.63741 0
M  V30 807 C 136.809 5.1842 2.73198 0
M  V30 808 N 136.859 4.38668 1.47808 0
M  V30 809 C 137.009 3.00789 1.58511 0
M  V30 810 O 137.099 2.50116 2.71298 0
M  V30 811 N 137.059 2.29703 0.253698 0
M  V30 812 C 136.959 2.84269 -0.750133 0
M  V30 813 N 137.009 2.06951 -1.82612 0
M  V30 814 C 136.809 4.25803 -0.889776 0
M  V30 815 C 136.759 4.98326 0.259363 0
M  V30 816 H 134.019 8.36707 2.32466 0
M  V30 817 H 133.75 6.701 1.71105 0
M  V30 818 H 134.617 7.03638 4.13219 0
M  V30 819 H 137.272 4.59852 3.53955 0
M  V30 820 H 137.551 6.88995 1.59871 0
M  V30 821 H 138.543 6.46749 3.03687 0
M  V30 822 H 136.709 8.46908 3.20714 0
M  V30 823 H 136.637 6.06349 0.206238 0
M  V30 824 H 136.739 4.73163 -1.86796 0
M  V30 825 H 137.127 1.05099 -1.72271 0
M  V30 826 H 136.93 2.48716 -2.76361 0
M  V30 827 P 138.579 7.20834 5.23717 0
M  V30 828 O 138.799 7.79853 6.57286 0
M  V30 829 O 139.369 7.79239 4.12957 0
M  V30 830 O 138.829 5.63315 5.29344 0
M  V30 831 C 137.889 4.80255 6.01876 0
M  V30 832 C 138.619 3.64202 6.65911 0
M  V30 833 O 138.829 2.60694 5.64732 0
M  V30 834 C 140.019 3.93473 7.1943 0
M  V30 835 O 140.409 3.02071 8.21205 0
M  V30 836 C 140.899 3.73047 5.97036 0
M  V30 837 C 140.189 2.58828 5.25741 0
M  V30 838 N 140.239 2.68068 3.77503 0
M  V30 839 H 137.4 5.40332 6.79951 0
M  V30 840 H 137.13 4.41613 5.32378 0
M  V30 841 H 137.997 3.26331 7.47797 0
M  V30 842 P 141.959 2.75334 8.47391 0
M  V30 843 O 142.179 2.44571 9.90142 0
M  V30 844 O 142.749 3.87688 7.92115 0
M  V30 845 O 142.209 1.4459 7.59357 0
M  V30 846 C 141.269 0.347608 7.69215 0
M  V30 847 C 141.999 -0.96767 7.52806 0
M  V30 848 O 142.209 -1.21036 6.1011 0
M  V30 849 C 143.399 -1.04544 8.13308 0
M  V30 850 O 143.789 -2.38311 8.41922 0
M  V30 851 C 144.279 -0.491279 7.02284 0
M  V30 852 C 143.569 -0.996264 5.77469 0
M  V30 853 N 143.619 -0.0501916 4.62973 0
M  V30 854 H 140.78 0.374722 8.67691 0
M  V30 855 H 140.51 0.443485 6.90277 0
M  V30 856 H 141.377 -1.75537 7.96793 0
M  V30 857 P 145.339 -2.75334 8.47391 0
M  V30 858 O 145.559 -3.84128 9.44797 0
M  V30 859 O 146.129 -1.51947 8.68712 0
M  V30 860 O 145.589 -3.29363 6.99321 0
M  V30 861 C 144.649 -4.24011 6.4274 0
M  V30 862 C 145.379 -5.20775 5.52155 0
M  V30 863 O 145.589 -4.56534 4.22446 0
M  V30 864 C 146.779 -5.62629 5.96531 0
M  V30 865 O 147.169 -6.87667 5.41053 0
M  V30 866 C 147.659 -4.52537 5.39283 0
M  V30 867 C 146.949 -4.20027 4.08623 0
M  V30 868 N 146.999 -2.76189 3.71603 0
M  V30 869 H 144.16 -4.797 7.24003 0
M  V30 870 H 143.89 -3.69856 5.84513 0
M  V30 871 H 144.757 -6.10356 5.41441 0
M  V30 872 P 148.719 -7.20834 5.23717 0
M  V30 873 O 148.939 -8.66104 5.38572 0
M  V30 874 O 149.509 -6.33544 6.1349 0
M  V30 875 O 148.969 -6.7751 3.72168 0
M  V30 876 C 148.029 -7.20825 2.7076 0
M  V30 877 C 148.759 -7.45864 1.40599 0
M  V30 878 O 148.969 -6.17651 0.734225 0
M  V30 879 C 150.159 -8.05808 1.51899 0
M  V30 880 O 150.549 -8.74358 0.335205 0
M  V30 881 C 151.039 -6.83093 1.70294 0
M  V30 882 C 150.329 -5.79992 0.836974 0
M  V30 883 N 150.379 -4.41864 1.38293 0
M  V30 884 H 147.54 -8.13644 3.0377 0
M  V30 885 H 147.27 -6.42788 2.55485 0
M  V30 886 H 148.137 -8.12039 0.792769 0
M  V30 887 P 152.099 -8.91 9.82044e-15 0
M  V30 888 O 152.319 -10.1726 -0.733694 0
M  V30 889 O 152.889 -8.73148 1.23936 0
M  V30 890 O 152.349 -7.66872 -0.971405 0
M  V30 891 C 151.409 -7.42309 -2.04641 0
M  V30 892 C 152.139 -6.86059 -3.24661 0
M  V30 893 O 152.349 -5.42847 -3.03646 0
M  V30 894 C 153.539 -7.41196 -3.50753 0
M  V30 895 O 153.929 -7.27073 -4.86816 0
M  V30 896 C 154.419 -6.5273 -2.63741 0
M  V30 897 C 153.709 -5.1842 -2.73198 0
M  V30 898 N 153.759 -4.38762 -1.4784 0
M  V30 899 H 150.92 -8.36803 -2.32493 0
M  V30 900 H 150.65 -6.70197 -1.71129 0
M  V30 901 H 151.517 -7.03551 -4.13168 0
M  V30 902 P 155.479 -7.20834 -5.23717 0
M  V30 903 O 155.699 -7.79853 -6.57286 0
M  V30 904 O 156.269 -7.79239 -4.12957 0
M  V30 905 O 155.729 -5.63315 -5.29344 0
M  V30 906 C 154.789 -4.80255 -6.01876 0
M  V30 907 C 155.519 -3.64202 -6.65911 0
M  V30 908 O 155.729 -2.60694 -5.64732 0
M  V30 909 C 156.919 -3.93473 -7.1943 0
M  V30 910 O 157.309 -3.02071 -8.21205 0
M  V30 911 C 157.799 -3.73047 -5.97036 0
M  V30 912 C 157.089 -2.58828 -5.25741 0
M  V30 913 N 157.139 -2.68068 -3.77503 0
M  V30 914 H 154.3 -5.40332 -6.79951 0
M  V30 915 H 154.03 -4.41613 -5.32378 0
M  V30 916 H 154.897 -3.26331 -7.47797 0
M  V30 917 P 158.859 -2.75334 -8.47391 0
M  V30 918 O 159.079 -2.44571 -9.90142 0
M  V30 919 O 159.649 -3.87688 -7.92115 0
M  V30 920 O 159.109 -1.4459 -7.59357 0
M  V30 921 C 158.169 -0.347608 -7.69215 0
M  V30 922 C 158.899 0.96767 -7.52806 0
M  V30 923 O 159.109 1.21036 -6.1011 0
M  V30 924 C 160.299 1.04544 -8.13308 0
M  V30 925 O 160.689 2.38311 -8.41922 0
M  V30 926 C 161.179 0.491279 -7.02284 0
M  V30 927 C 160.469 0.996264 -5.77469 0
M  V30 928 N 160.519 0.0501916 -4.62973 0
M  V30 929 H 157.68 -0.374722 -8.67691 0
M  V30 930 H 157.41 -0.443485 -6.90277 0
M  V30 931 H 158.277 1.75537 -7.96793 0
M  V30 932 P 162.239 2.75334 -8.47391 0
M  V30 933 O 162.459 3.84128 -9.44797 0
M  V30 934 O 163.029 1.51947 -8.68712 0
M  V30 935 O 162.489 3.29363 -6.99321 0
M  V30 936 C 161.549 4.24011 -6.4274 0
M  V30 937 C 162.279 5.20775 -5.52155 0
M  V30 938 O 162.489 4.56534 -4.22446 0
M  V30 939 C 163.679 5.62629 -5.96531 0
M  V30 940 O 164.069 6.87667 -5.41053 0
M  V30 941 C 164.559 4.52537 -5.39283 0
M  V30 942 C 163.849 4.20027 -4.08623 0
M  V30 943 N 163.899 2.76189 -3.71603 0
M  V30 944 H 161.06 4.797 -7.24003 0
M  V30 945 H 160.79 3.69856 -5.84513 0
M  V30 946 H 161.657 6.10356 -5.41441 0
M  V30 947 P 165.619 7.20834 -5.23717 0
M  V30 948 O 165.839 8.66274 -5.38678 0
M  V30 949 O 166.409 6.33687 -6.13629 0
M  V30 950 O 165.869 6.7751 -3.72168 0
M  V30 951 C 164.929 7.20919 -2.70795 0
M  V30 952 C 165.659 7.45864 -1.40599 0
M  V30 953 O 165.869 6.17751 -0.734343 0
M  V30 954 C 167.059 8.05906 -1.51917 0
M  V30 955 O 167.449 8.74358 -0.335205 0
M  V30 956 C 167.939 6.83093 -1.70294 0
M  V30 957 C 167.229 5.79992 -0.836974 0
M  V30 958 N 167.279 4.41864 -1.38293 0
M  V30 959 H 164.441 8.13738 -3.03804 0
M  V30 960 H 164.169 6.42974 -2.55559 0
M  V30 961 H 165.037 8.12139 -0.792866 0
M  V30 962 H 167.692 5.80178 0.160643 0
M  V30 963 H 167.972 6.51379 -2.75643 0
M  V30 964 H 168.963 7.01832 -1.3448 0
M  V30 965 H 167.129 8.73771 -2.38364 0
M  V30 966 P 168.999 8.91 -1.09116e-14 0
M  V30 967 O 169.219 10.1726 0.733694 0
M  V30 968 O 169.789 8.73148 -1.23936 0
M  V30 969 O 169.249 7.66872 0.971405 0
M  V30 970 C 168.309 7.42309 2.04641 0
M  V30 971 C 169.039 6.86059 3.24661 0
M  V30 972 O 169.249 5.42847 3.03646 0
M  V30 973 C 170.439 7.41196 3.50753 0
M  V30 974 O 170.829 7.27073 4.86816 0
M  V30 975 C 171.319 6.5273 2.63741 0
M  V30 976 C 170.609 5.1842 2.73198 0
M  V30 977 N 170.659 4.38762 1.4784 0
M  V30 978 H 167.82 8.36803 2.32493 0
M  V30 979 H 167.55 6.70197 1.71129 0
M  V30 980 H 168.417 7.03551 4.13168 0
M  V30 981 P 172.379 7.20834 5.23717 0
M  V30 982 O 172.599 7.79853 6.57286 0
M  V30 983 O 173.169 7.79239 4.12957 0
M  V30 984 O 172.629 5.63315 5.29344 0
M  V30 985 C 171.689 4.80255 6.01876 0
M  V30 986 C 172.419 3.64202 6.65911 0
M  V30 987 O 172.629 2.60694 5.64732 0
M  V30 988 C 173.819 3.93473 7.1943 0
M  V30 989 O 174.209 3.02071 8.21205 0
M  V30 990 C 174.699 3.73047 5.97036 0
M  V30 991 C 173.989 2.58828 5.25741 0
M  V30 992 N 174.039 2.68068 3.77503 0
M  V30 993 H 171.2 5.40332 6.79951 0
M  V30 994 H 170.93 4.41613 5.32378 0
M  V30 995 H 171.797 3.26331 7.47797 0
M  V30 996 P 175.759 2.75334 8.47391 0
M  V30 997 O 175.979 2.44571 9.90142 0
M  V30 998 O 176.549 3.87688 7.92115 0
M  V30 999 O 176.009 1.4459 7.59357 0
M  V30 1000 C 175.069 0.347608 7.69215 0
M  V30 1001 C 175.799 -0.96767 7.52806 0
M  V30 1002 O 176.009 -1.21036 6.1011 0
M  V30 1003 C 177.199 -1.04544 8.13308 0
M  V30 1004 O 177.589 -2.38311 8.41922 0
M  V30 1005 C 178.079 -0.491279 7.02284 0
M  V30 1006 C 177.369 -0.996264 5.77469 0
M  V30 1007 N 177.419 -0.0501916 4.62973 0
M  V30 1008 H 174.58 0.374722 8.67691 0
M  V30 1009 H 174.31 0.443485 6.90277 0
M  V30 1010 H 175.177 -1.75537 7.96793 0
M  V30 1011 P 179.139 -2.75334 8.47391 0
M  V30 1012 O 179.359 -3.84128 9.44797 0
M  V30 1013 O 179.929 -1.51947 8.68712 0
M  V30 1014 O 179.389 -3.29363 6.99321 0
M  V30 1015 C 178.449 -4.24011 6.4274 0
M  V30 1016 C 179.179 -5.20775 5.52155 0
M  V30 1017 O 179.389 -4.56534 4.22446 0
M  V30 1018 C 180.579 -5.62629 5.96531 0
M  V30 1019 O 180.969 -6.87667 5.41053 0
M  V30 1020 C 181.459 -4.52537 5.39283 0
M  V30 1021 C 180.749 -4.20027 4.08623 0
M  V30 1022 N 180.799 -2.76189 3.71603 0
M  V30 1023 H 177.96 -4.797 7.24003 0
M  V30 1024 H 177.69 -3.69856 5.84513 0
M  V30 1025 H 178.557 -6.10356 5.41441 0
M  V30 1026 P 182.519 -7.20834 5.23717 0
M  V30 1027 O 182.739 -8.66189 5.38625 0
M  V30 1028 O 183.309 -6.33615 6.1356 0
M  V30 1029 O 182.769 -6.7751 3.72168 0
M  V30 1030 C 181.829 -7.20732 2.70725 0
M  V30 1031 C 182.559 -7.45864 1.40599 0
M  V30 1032 O 182.769 -6.17651 0.734225 0
M  V30 1033 C 183.959 -8.05808 1.51899 0
M  V30 1034 O 184.349 -8.74358 0.335205 0
M  V30 1035 C 184.839 -6.83093 1.70294 0
M  V30 1036 C 184.129 -5.79992 0.836974 0
M  V30 1037 N 184.179 -4.41769 1.38263 0
M  V30 1038 C 184.329 -3.38591 0.481702 0
M  V30 1039 O 184.419 -3.56839 -0.718452 0
M  V30 1040 N 184.369 -2.1206 1.03569 0
M  V30 1041 C 184.279 -1.80696 2.36966 0
M  V30 1042 O 184.329 -0.630473 2.74862 0
M  V30 1043 C 184.129 -2.94845 3.23898 0
M  V30 1044 C 184.019 -2.65253 4.70362 0
M  V30 1045 C 184.079 -4.19803 2.73435 0
M  V30 1046 H 181.339 -8.13644 3.0377 0
M  V30 1047 H 181.07 -6.42695 2.55448 0
M  V30 1048 H 181.937 -8.12039 0.792769 0
M  V30 1049 H 184.592 -5.79978 -0.160587 0
M  V30 1050 H 184.871 -6.51379 2.75643 0
M  V30 1051 H 185.863 -7.01734 1.34462 0
M  V30 1052 H 184.029 -8.73674 2.38337 0
M  V30 1053 H 183.958 -5.04492 3.4095 0
M  V30 1054 H 184.988 -2.83924 5.1913 0
M  V30 1055 H 183.251 -3.29824 5.15163 0
M  V30 1056 H 183.739 -1.59723 4.84449 0
M  V30 1057 H 184.475 -1.35644 0.399345 0
M  V30 1058 P 185.899 -8.91 -8.29613e-14 0
M  V30 1059 O 186.119 -10.1726 -0.733694 0
M  V30 1060 O 186.689 -8.73148 1.23936 0
M  V30 1061 O 186.149 -7.66872 -0.971405 0
M  V30 1062 C 185.209 -7.42309 -2.04641 0
M  V30 1063 C 185.939 -6.86059 -3.24661 0
M  V30 1064 O 186.149 -5.42847 -3.03646 0
M  V30 1065 C 187.339 -7.41196 -3.50753 0
M  V30 1066 O 187.729 -7.27073 -4.86816 0
M  V30 1067 C 188.219 -6.5273 -2.63741 0
M  V30 1068 C 187.509 -5.1842 -2.73198 0
M  V30 1069 N 187.559 -4.38762 -1.4784 0
M  V30 1070 H 184.72 -8.36803 -2.32493 0
M  V30 1071 H 184.45 -6.70197 -1.71129 0
M  V30 1072 H 185.317 -7.03551 -4.13168 0
M  V30 1073 P 189.279 -7.20834 -5.23717 0
M  V30 1074 O 189.499 -7.79853 -6.57286 0
M  V30 1075 O 190.069 -7.79239 -4.12957 0
M  V30 1076 O 189.529 -5.63315 -5.29344 0
M  V30 1077 C 188.589 -4.80255 -6.01876 0
M  V30 1078 C 189.319 -3.64202 -6.65911 0
M  V30 1079 O 189.529 -2.60694 -5.64732 0
M  V30 1080 C 190.719 -3.93473 -7.1943 0
M  V30 1081 O 191.109 -3.02071 -8.21205 0
M  V30 1082 C 191.599 -3.73047 -5.97036 0
M  V30 1083 C 190.889 -2.58828 -5.25741 0
M  V30 1084 N 190.939 -2.68068 -3.77503 0
M  V30 1085 H 188.1 -5.40332 -6.79951 0
M  V30 1086 H 187.83 -4.41613 -5.32378 0
M  V30 1087 H 188.697 -3.26331 -7.47797 0
M  V30 1088 P 192.659 -2.75334 -8.47391 0
M  V30 1089 O 192.879 -2.44571 -9.90142 0
M  V30 1090 O 193.449 -3.87688 -7.92115 0
M  V30 1091 O 192.909 -1.4459 -7.59357 0
M  V30 1092 C 191.969 -0.347608 -7.69215 0
M  V30 1093 C 192.699 0.96767 -7.52806 0
M  V30 1094 O 192.909 1.21036 -6.1011 0
M  V30 1095 C 194.099 1.04544 -8.13308 0
M  V30 1096 O 194.489 2.38311 -8.41922 0
M  V30 1097 C 194.979 0.491279 -7.02284 0
M  V30 1098 C 194.269 0.996264 -5.77469 0
M  V30 1099 N 194.319 0.0501916 -4.62973 0
M  V30 1100 H 191.48 -0.374722 -8.67691 0
M  V30 1101 H 191.21 -0.443485 -6.90277 0
M  V30 1102 H 192.077 1.75537 -7.96793 0
M  V30 1103 P 196.039 2.75334 -8.47391 0
M  V30 1104 O 196.259 3.84128 -9.44797 0
M  V30 1105 O 196.829 1.51947 -8.68712 0
M  V30 1106 O 196.289 3.29363 -6.99321 0
M  V30 1107 C 195.349 4.24011 -6.4274 0
M  V30 1108 C 196.079 5.20775 -5.52155 0
M  V30 1109 O 196.289 4.56534 -4.22446 0
M  V30 1110 C 197.479 5.62629 -5.96531 0
M  V30 1111 O 197.869 6.87667 -5.41053 0
M  V30 1112 C 198.359 4.52537 -5.39283 0
M  V30 1113 C 197.649 4.20027 -4.08623 0
M  V30 1114 N 197.699 2.76189 -3.71603 0
M  V30 1115 H 194.86 4.797 -7.24003 0
M  V30 1116 H 194.59 3.69856 -5.84513 0
M  V30 1117 H 195.457 6.10356 -5.41441 0
M  V30 1118 P 199.419 7.20834 -5.23717 0
M  V30 1119 O 199.639 8.66104 -5.38572 0
M  V30 1120 O 200.209 6.33544 -6.1349 0
M  V30 1121 O 199.669 6.7751 -3.72168 0
M  V30 1122 C 198.729 7.20825 -2.7076 0
M  V30 1123 C 199.459 7.45864 -1.40599 0
M  V30 1124 O 199.669 6.17651 -0.734225 0
M  V30 1125 C 200.859 8.05808 -1.51899 0
M  V30 1126 O 201.249 8.74358 -0.335205 0
M  V30 1127 C 201.739 6.83093 -1.70294 0
M  V30 1128 C 201.029 5.79992 -0.836974 0
M  V30 1129 N 201.079 4.41864 -1.38293 0
M  V30 1130 H 198.24 8.13644 -3.0377 0
M  V30 1131 H 197.97 6.42788 -2.55485 0
M  V30 1132 H 198.837 8.12039 -0.792769 0
M  V30 1133 P 202.799 8.91 2.40144e-13 0
M  V30 1134 O 203.019 10.1726 0.733694 0
M  V30 1135 O 203.589 8.73148 -1.23936 0
M  V30 1136 O 203.049 7.66872 0.971405 0
M  V30 1137 C 202.109 7.42309 2.04641 0
M  V30 1138 C 202.839 6.86059 3.24661 0
M  V30 1139 O 203.049 5.42847 3.03646 0
M  V30 1140 C 204.239 7.41196 3.50753 0
M  V30 1141 O 204.629 7.27073 4.86816 0
M  V30 1142 C 205.119 6.5273 2.63741 0
M  V30 1143 C 204.409 5.1842 2.73198 0
M  V30 1144 N 204.459 4.38762 1.4784 0
M  V30 1145 H 201.62 8.36803 2.32493 0
M  V30 1146 H 201.35 6.70197 1.71129 0
M  V30 1147 H 202.217 7.03551 4.13168 0
M  V30 1148 P 206.179 7.20834 5.23717 0
M  V30 1149 O 206.399 7.7993 6.57351 0
M  V30 1150 O 206.969 7.79328 4.13004 0
M  V30 1151 O 206.429 5.63315 5.29344 0
M  V30 1152 C 205.489 4.80255 6.01876 0
M  V30 1153 C 206.219 3.64202 6.65911 0
M  V30 1154 O 206.429 2.60694 5.64732 0
M  V30 1155 C 207.619 3.93473 7.1943 0
M  V30 1156 O 208.009 3.02071 8.21205 0
M  V30 1157 C 208.499 3.73047 5.97036 0
M  V30 1158 C 207.789 2.58828 5.25741 0
M  V30 1159 N 207.839 2.6801 3.77422 0
M  V30 1160 C 207.989 1.50173 3.05038 0
M  V30 1161 O 208.079 0.428832 3.665 0
M  V30 1162 N 208.039 1.70922 1.55541 0
M  V30 1163 C 207.939 2.7407 1.06402 0
M  V30 1164 N 207.989 2.74764 -0.260931 0
M  V30 1165 C 207.789 3.96781 1.78296 0
M  V30 1166 C 207.739 3.87909 3.13891 0
M  V30 1167 H 204.999 5.4027 6.79873 0
M  V30 1168 H 204.73 4.41549 5.32301 0
M  V30 1169 H 205.597 3.26371 7.47889 0
M  V30 1170 H 208.252 1.63978 5.5665 0
M  V30 1171 H 208.531 4.63439 5.3432 0
M  V30 1172 H 209.523 3.44728 6.25838 0
M  V30 1173 H 207.689 4.96652 7.57263 0
M  V30 1174 H 207.617 4.78425 3.73088 0
M  V30 1175 H 207.719 4.92593 1.26997 0
M  V30 1176 H 208.107 1.86285 -0.77595 0
M  V30 1177 H 207.91 3.63657 -0.773896 0
M  V30 1178 P 209.559 2.75334 8.47391 0
M  V30 1179 O 209.779 2.44571 9.90142 0
M  V30 1180 O 210.349 3.87688 7.92115 0
M  V30 1181 O 209.809 1.4459 7.59357 0
M  V30 1182 C 208.869 0.347608 7.69215 0
M  V30 1183 C 209.599 -0.96767 7.52806 0
M  V30 1184 O 209.809 -1.21036 6.1011 0
M  V30 1185 C 210.999 -1.04544 8.13308 0
M  V30 1186 O 211.389 -2.38311 8.41922 0
M  V30 1187 C 211.879 -0.491279 7.02284 0
M  V30 1188 C 211.169 -0.996264 5.77469 0
M  V30 1189 N 211.219 -0.0501916 4.62973 0
M  V30 1190 H 208.38 0.374722 8.67691 0
M  V30 1191 H 208.11 0.443485 6.90277 0
M  V30 1192 H 208.977 -1.75537 7.96793 0
M  V30 1193 P 212.939 -2.75334 8.47391 0
M  V30 1194 O 213.159 -3.84128 9.44797 0
M  V30 1195 O 213.729 -1.51947 8.68712 0
M  V30 1196 O 213.189 -3.29363 6.99321 0
M  V30 1197 C 212.249 -4.24011 6.4274 0
M  V30 1198 C 212.979 -5.20775 5.52155 0
M  V30 1199 O 213.189 -4.56534 4.22446 0
M  V30 1200 C 214.379 -5.62629 5.96531 0
M  V30 1201 O 214.769 -6.87667 5.41053 0
M  V30 1202 C 215.259 -4.52537 5.39283 0
M  V30 1203 C 214.549 -4.20027 4.08623 0
M  V30 1204 N 214.599 -2.76189 3.71603 0
M  V30 1205 H 211.76 -4.797 7.24003 0
M  V30 1206 H 211.49 -3.69856 5.84513 0
M  V30 1207 H 212.357 -6.10356 5.41441 0
M  V30 1208 P 216.319 -7.20834 5.23717 0
M  V30 1209 O 216.539 -8.66104 5.38572 0
M  V30 1210 O 217.109 -6.33544 6.1349 0
M  V30 1211 O 216.569 -6.7751 3.72168 0
M  V30 1212 C 215.629 -7.20825 2.7076 0
M  V30 1213 C 216.359 -7.45864 1.40599 0
M  V30 1214 O 216.569 -6.17651 0.734225 0
M  V30 1215 C 217.759 -8.05808 1.51899 0
M  V30 1216 O 218.149 -8.74358 0.335205 0
M  V30 1217 C 218.639 -6.83093 1.70294 0
M  V30 1218 C 217.929 -5.79992 0.836974 0
M  V30 1219 N 217.979 -4.41864 1.38293 0
M  V30 1220 H 215.14 -8.13644 3.0377 0
M  V30 1221 H 214.87 -6.42788 2.55485 0
M  V30 1222 H 215.737 -8.12039 0.792769 0
M  V30 1223 P 219.699 -8.91 -3.97326e-13 0
M  V30 1224 O 219.919 -10.1736 -0.733766 0
M  V30 1225 O 220.489 -8.73247 1.2395 0
M  V30 1226 O 219.949 -7.66872 -0.971405 0
M  V30 1227 C 219.009 -7.42212 -2.04614 0
M  V30 1228 C 219.739 -6.86059 -3.24661 0
M  V30 1229 O 219.949 -5.42847 -3.03646 0
M  V30 1230 C 221.139 -7.41196 -3.50753 0
M  V30 1231 O 221.529 -7.27073 -4.86816 0
M  V30 1232 C 222.019 -6.5273 -2.63741 0
M  V30 1233 C 221.309 -5.1842 -2.73198 0
M  V30 1234 N 221.359 -4.38668 -1.47808 0
M  V30 1235 C 221.509 -3.02239 -1.60048 0
M  V30 1236 O 221.599 -2.46459 -2.67869 0
M  V30 1237 N 221.549 -2.32436 -0.408571 0
M  V30 1238 C 221.459 -2.85471 0.854993 0
M  V30 1239 O 221.509 -2.12566 1.8531 0
M  V30 1240 C 221.309 -4.28918 0.887335 0
M  V30 1241 C 221.199 -4.91066 2.24619 0
M  V30 1242 C 221.259 -5.00349 -0.255399 0
M  V30 1243 H 218.519 -8.36803 -2.32493 0
M  V30 1244 H 218.25 -6.701 -1.71105 0
M  V30 1245 H 219.117 -7.03551 -4.13168 0
M  V30 1246 H 221.772 -4.59773 -3.53894 0
M  V30 1247 H 222.051 -6.88995 -1.59871 0
M  V30 1248 H 223.043 -6.46749 -3.03687 0
M  V30 1249 H 221.209 -8.46908 -3.20714 0
M  V30 1250 H 221.138 -6.08548 -0.206986 0
M  V30 1251 H 222.168 -5.34836 2.53099 0
M  V30 1252 H 220.431 -5.69638 2.2291 0
M  V30 1253 H 220.919 -4.13971 2.98044 0
M  V30 1254 H 221.655 -1.33211 -0.474216 0
M  V30 1255 P 223.079 -7.20834 -5.23717 0
M  V30 1256 O 223.299 -7.79853 -6.57286 0
M  V30 1257 O 223.869 -7.79239 -4.12957 0
M  V30 1258 O 223.329 -5.63315 -5.29344 0
M  V30 1259 C 222.389 -4.80255 -6.01876 0
M  V30 1260 C 223.119 -3.64202 -6.65911 0
M  V30 1261 O 223.329 -2.60694 -5.64732 0
M  V30 1262 C 224.519 -3.93473 -7.1943 0
M  V30 1263 O 224.909 -3.02071 -8.21205 0
M  V30 1264 C 225.399 -3.73047 -5.97036 0
M  V30 1265 C 224.689 -2.58828 -5.25741 0
M  V30 1266 N 224.739 -2.68068 -3.77503 0
M  V30 1267 H 221.9 -5.40332 -6.79951 0
M  V30 1268 H 221.63 -4.41613 -5.32378 0
M  V30 1269 H 222.497 -3.26331 -7.47797 0
M  V30 1270 P 226.459 -2.75334 -8.47391 0
M  V30 1271 O 226.679 -2.44571 -9.90142 0
M  V30 1272 O 227.249 -3.87688 -7.92115 0
M  V30 1273 O 226.709 -1.4459 -7.59357 0
M  V30 1274 C 225.769 -0.347608 -7.69215 0
M  V30 1275 C 226.499 0.96767 -7.52806 0
M  V30 1276 O 226.709 1.21036 -6.1011 0
M  V30 1277 C 227.899 1.04544 -8.13308 0
M  V30 1278 O 228.289 2.38311 -8.41922 0
M  V30 1279 C 228.779 0.491279 -7.02284 0
M  V30 1280 C 228.069 0.996264 -5.77469 0
M  V30 1281 N 228.119 0.0501916 -4.62973 0
M  V30 1282 H 225.28 -0.374722 -8.67691 0
M  V30 1283 H 225.01 -0.443485 -6.90277 0
M  V30 1284 H 225.877 1.75537 -7.96793 0
M  V30 1285 P 229.839 2.75334 -8.47391 0
M  V30 1286 O 230.059 3.84128 -9.44797 0
M  V30 1287 O 230.629 1.51947 -8.68712 0
M  V30 1288 O 230.089 3.29363 -6.99321 0
M  V30 1289 C 229.149 4.24011 -6.4274 0
M  V30 1290 C 229.879 5.20775 -5.52155 0
M  V30 1291 O 230.089 4.56534 -4.22446 0
M  V30 1292 C 231.279 5.62629 -5.96531 0
M  V30 1293 O 231.669 6.87667 -5.41053 0
M  V30 1294 C 232.159 4.52537 -5.39283 0
M  V30 1295 C 231.449 4.20027 -4.08623 0
M  V30 1296 N 231.499 2.76189 -3.71603 0
M  V30 1297 C 231.419 1.64862 -4.52822 0
M  V30 1298 N 231.499 0.512671 -3.88633 0
M  V30 1299 C 231.639 0.888083 -2.54977 0
M  V30 1300 C 231.769 0.094668 -1.38677 0
M  V30 1301 N 231.889 0.890102 -0.232633 0
M  V30 1302 C 231.889 2.26958 -0.21772 0
M  V30 1303 N 232.019 2.84626 0.97925 0
M  V30 1304 N 231.759 3.0178 -1.31033 0
M  V30 1305 C 231.639 2.26781 -2.43843 0
M  V30 1306 H 228.66 4.797 -7.24003 0
M  V30 1307 H 228.39 3.69856 -5.84513 0
M  V30 1308 H 229.257 6.10356 -5.41441 0
M  V30 1309 P 233.219 7.20834 -5.23717 0
M  V30 1310 O 233.439 8.66104 -5.38572 0
M  V30 1311 O 234.009 6.33544 -6.1349 0
M  V30 1312 O 233.469 6.7751 -3.72168 0
M  V30 1313 C 232.529 7.20825 -2.7076 0
M  V30 1314 C 233.259 7.45864 -1.40599 0
M  V30 1315 O 233.469 6.17651 -0.734225 0
M  V30 1316 C 234.659 8.05808 -1.51899 0
M  V30 1317 O 235.049 8.74358 -0.335205 0
M  V30 1318 C 235.539 6.83093 -1.70294 0
M  V30 1319 C 234.829 5.79992 -0.836974 0
M  V30 1320 N 234.879 4.41864 -1.38293 0
M  V30 1321 H 232.04 8.13644 -3.0377 0
M  V30 1322 H 231.77 6.42788 -2.55485 0
M  V30 1323 H 232.637 8.12039 -0.792769 0
M  V30 1324 P 236.599 8.91 5.54508e-13 0
M  V30 1325 O 236.819 10.1726 0.733694 0
M  V30 1326 O 237.389 8.73148 -1.23936 0
M  V30 1327 O 236.849 7.66872 0.971405 0
M  V30 1328 C 235.909 7.42309 2.04641 0
M  V30 1329 C 236.639 6.86059 3.24661 0
M  V30 1330 O 236.849 5.42847 3.03646 0
M  V30 1331 C 238.039 7.41196 3.50753 0
M  V30 1332 O 238.429 7.27073 4.86816 0
M  V30 1333 C 238.919 6.5273 2.63741 0
M  V30 1334 C 238.209 5.1842 2.73198 0
M  V30 1335 N 238.259 4.38762 1.4784 0
M  V30 1336 H 235.42 8.36803 2.32493 0
M  V30 1337 H 235.15 6.70197 1.71129 0
M  V30 1338 H 236.017 7.03551 4.13168 0
M  V30 1339 P 239.979 7.20834 5.23717 0
M  V30 1340 O 240.199 7.79853 6.57286 0
M  V30 1341 O 240.769 7.79239 4.12957 0
M  V30 1342 O 240.229 5.63315 5.29344 0
M  V30 1343 C 239.289 4.80255 6.01876 0
M  V30 1344 C 240.019 3.64202 6.65911 0
M  V30 1345 O 240.229 2.60694 5.64732 0
M  V30 1346 C 241.419 3.93473 7.1943 0
M  V30 1347 O 241.809 3.02071 8.21205 0
M  V30 1348 C 242.299 3.73047 5.97036 0
M  V30 1349 C 241.589 2.58828 5.25741 0
M  V30 1350 N 241.639 2.68068 3.77503 0
M  V30 1351 H 238.8 5.40332 6.79951 0
M  V30 1352 H 238.53 4.41613 5.32378 0
M  V30 1353 H 239.397 3.26331 7.47797 0
M  V30 1354 P 243.359 2.75334 8.47391 0
M  V30 1355 O 243.579 2.44571 9.90142 0
M  V30 1356 O 244.149 3.87688 7.92115 0
M  V30 1357 O 243.609 1.4459 7.59357 0
M  V30 1358 C 242.669 0.347608 7.69215 0
M  V30 1359 C 243.399 -0.96767 7.52806 0
M  V30 1360 O 243.609 -1.21036 6.1011 0
M  V30 1361 C 244.799 -1.04544 8.13308 0
M  V30 1362 O 245.189 -2.38311 8.41922 0
M  V30 1363 C 245.679 -0.491279 7.02284 0
M  V30 1364 C 244.969 -0.996264 5.77469 0
M  V30 1365 N 245.019 -0.0501916 4.62973 0
M  V30 1366 H 242.18 0.374722 8.67691 0
M  V30 1367 H 241.91 0.443485 6.90277 0
M  V30 1368 H 242.777 -1.75537 7.96793 0
M  V30 1369 P 246.739 -2.75334 8.47391 0
M  V30 1370 O 246.959 -3.84128 9.44797 0
M  V30 1371 O 247.529 -1.51947 8.68712 0
M  V30 1372 O 246.989 -3.29363 6.99321 0
M  V30 1373 C 246.049 -4.24011 6.4274 0
M  V30 1374 C 246.779 -5.20775 5.52155 0
M  V30 1375 O 246.989 -4.56534 4.22446 0
M  V30 1376 C 248.179 -5.62629 5.96531 0
M  V30 1377 O 248.569 -6.87667 5.41053 0
M  V30 1378 C 249.059 -4.52537 5.39283 0
M  V30 1379 C 248.349 -4.20027 4.08623 0
M  V30 1380 N 248.399 -2.76189 3.71603 0
M  V30 1381 H 245.56 -4.797 7.24003 0
M  V30 1382 H 245.29 -3.69856 5.84513 0
M  V30 1383 H 246.157 -6.10356 5.41441 0
M  V30 1384 P 250.119 -7.20834 5.23717 0
M  V30 1385 O 250.339 -8.66104 5.38572 0
M  V30 1386 O 250.909 -6.33544 6.1349 0
M  V30 1387 O 250.369 -6.7751 3.72168 0
M  V30 1388 C 249.429 -7.20825 2.7076 0
M  V30 1389 C 250.159 -7.45864 1.40599 0
M  V30 1390 O 250.369 -6.17651 0.734225 0
M  V30 1391 C 251.559 -8.05808 1.51899 0
M  V30 1392 O 251.949 -8.74358 0.335205 0
M  V30 1393 C 252.439 -6.83093 1.70294 0
M  V30 1394 C 251.729 -5.79992 0.836974 0
M  V30 1395 N 251.779 -4.41864 1.38293 0
M  V30 1396 H 248.94 -8.13644 3.0377 0
M  V30 1397 H 248.67 -6.42788 2.55485 0
M  V30 1398 H 249.537 -8.12039 0.792769 0
M  V30 1399 P 253.498 -8.91 -7.1169e-13 0
M  V30 1400 O 253.718 -10.1726 -0.733694 0
M  V30 1401 O 254.288 -8.73148 1.23936 0
M  V30 1402 O 253.748 -7.66872 -0.971405 0
M  V30 1403 C 252.808 -7.42309 -2.04641 0
M  V30 1404 C 253.538 -6.86059 -3.24661 0
M  V30 1405 O 253.748 -5.42847 -3.03646 0
M  V30 1406 C 254.938 -7.41196 -3.50753 0
M  V30 1407 O 255.328 -7.27073 -4.86816 0
M  V30 1408 C 255.818 -6.5273 -2.63741 0
M  V30 1409 C 255.108 -5.1842 -2.73198 0
M  V30 1410 N 255.158 -4.38762 -1.4784 0
M  V30 1411 H 252.319 -8.36803 -2.32493 0
M  V30 1412 H 252.049 -6.70197 -1.71129 0
M  V30 1413 H 252.916 -7.03551 -4.13168 0
M  V30 1414 P 256.878 -7.20834 -5.23717 0
M  V30 1415 O 257.098 -7.79853 -6.57286 0
M  V30 1416 O 257.668 -7.79239 -4.12957 0
M  V30 1417 O 257.128 -5.63315 -5.29344 0
M  V30 1418 C 256.188 -4.80255 -6.01876 0
M  V30 1419 C 256.918 -3.64202 -6.65911 0
M  V30 1420 O 257.128 -2.60694 -5.64732 0
M  V30 1421 C 258.318 -3.93473 -7.1943 0
M  V30 1422 O 258.708 -3.02071 -8.21205 0
M  V30 1423 C 259.198 -3.73047 -5.97036 0
M  V30 1424 C 258.488 -2.58828 -5.25741 0
M  V30 1425 N 258.538 -2.68068 -3.77503 0
M  V30 1426 C 258.458 -3.79715 -2.96723 0
M  V30 1427 N 258.538 -3.5377 -1.68852 0
M  V30 1428 C 258.678 -2.15054 -1.63254 0
M  V30 1429 C 258.808 -1.28964 -0.518571 0
M  V30 1430 O 258.828 -1.56826 0.679156 0
M  V30 1431 N 258.928 0.0538097 -0.918425 0
M  V30 1432 C 258.928 0.494275 -2.22578 0
M  V30 1433 N 259.058 1.81086 -2.40434 0
M  V30 1434 N 258.798 -0.313645 -3.27502 0
M  V30 1435 C 258.678 -1.61829 -2.91033 0
M  V30 1436 H 255.699 -5.40332 -6.79951 0
M  V30 1437 H 255.429 -4.41613 -5.32378 0
M  V30 1438 H 256.296 -3.26331 -7.47797 0
M  V30 1439 H 258.951 -1.63422 -5.56814 0
M  V30 1440 H 259.23 -4.63374 -5.34244 0
M  V30 1441 H 260.222 -3.44728 -6.25838 0
M  V30 1442 H 258.388 -4.96652 -7.57263 0
M  V30 1443 H 258.339 -4.80617 -3.3614 0
M  V30 1444 H 259.021 0.742702 -0.199384 0
M  V30 1445 H 259.058 2.20598 -3.35588 0
M  V30 1446 H 259.159 2.43518 -1.58945 0
M  V30 1447 P 260.258 -2.75334 -8.47391 0
M  V30 1448 O 260.478 -2.44595 -9.90239 0
M  V30 1449 O 261.048 -3.87732 -7.92204 0
M  V30 1450 O 260.508 -1.4459 -7.59357 0
M  V30 1451 C 259.568 -0.347563 -7.69115 0
M  V30 1452 C 260.298 0.96767 -7.52806 0
M  V30 1453 O 260.508 1.21036 -6.1011 0
M  V30 1454 C 261.698 1.04544 -8.13308 0
M  V30 1455 O 262.088 2.38311 -8.41922 0
M  V30 1456 C 262.578 0.491279 -7.02284 0
M  V30 1457 C 261.868 0.996264 -5.77469 0
M  V30 1458 N 261.918 0.0501808 -4.62873 0
M  V30 1459 C 262.068 0.588177 -3.36904 0
M  V30 1460 O 262.158 1.78598 -3.17173 0
M  V30 1461 N 262.108 -0.329694 -2.33686 0
M  V30 1462 C 262.018 -1.6953 -2.45079 0
M  V30 1463 C 261.868 -2.16933 -3.80505 0
M  V30 1464 C 261.818 -1.30326 -4.83752 0
M  V30 1465 H 259.078 -0.374722 -8.67691 0
M  V30 1466 H 258.809 -0.443421 -6.90177 0
M  V30 1467 H 259.676 1.75537 -7.96793 0
M  V30 1468 H 262.331 1.94496 -5.46629 0
M  V30 1469 H 262.61 -0.608651 -7.04676 0
M  V30 1470 H 263.602 0.889672 -7.08939 0
M  V30 1471 H 261.768 0.43308 -9.04564 0
M  V30 1472 H 261.697 -1.68366 -5.8516 0
M  V30 1473 P 263.638 2.75334 -8.47391 0
M  V30 1474 O 263.858 3.84128 -9.44797 0
M  V30 1475 O 264.428 1.51947 -8.68712 0
M  V30 1476 O 263.888 3.29363 -6.99321 0
M  V30 1477 C 262.948 4.24011 -6.4274 0
M  V30 1478 C 263.678 5.20775 -5.52155 0
M  V30 1479 O 263.888 4.56534 -4.22446 0
M  V30 1480 C 265.078 5.62629 -5.96531 0
M  V30 1481 O 265.468 6.87667 -5.41053 0
M  V30 1482 C 265.958 4.52537 -5.39283 0
M  V30 1483 C 265.248 4.20027 -4.08623 0
M  V30 1484 N 265.298 2.76189 -3.71603 0
M  V30 1485 H 262.459 4.797 -7.24003 0
M  V30 1486 H 262.189 3.69856 -5.84513 0
M  V30 1487 H 263.056 6.10356 -5.41441 0
M  V30 1488 P 267.018 7.20834 -5.23717 0
M  V30 1489 O 267.238 8.66274 -5.38678 0
M  V30 1490 O 267.808 6.33687 -6.13629 0
M  V30 1491 O 267.268 6.7751 -3.72168 0
M  V30 1492 C 266.328 7.20919 -2.70795 0
M  V30 1493 C 267.058 7.45864 -1.40599 0
M  V30 1494 O 267.268 6.17751 -0.734343 0
M  V30 1495 C 268.458 8.05906 -1.51917 0
M  V30 1496 O 268.848 8.74358 -0.335205 0
M  V30 1497 C 269.338 6.83093 -1.70294 0
M  V30 1498 C 268.628 5.79992 -0.836974 0
M  V30 1499 N 268.678 4.41864 -1.38293 0
M  V30 1500 C 268.598 4.02089 -2.69407 0
M  V30 1501 N 268.668 2.73403 -2.85089 0
M  V30 1502 C 268.818 2.25086 -1.5642 0
M  V30 1503 C 268.948 0.942887 -1.04836 0
M  V30 1504 N 268.958 -0.150999 -1.80369 0
M  V30 1505 N 269.068 0.812565 0.28167 0
M  V30 1506 C 269.058 1.90572 1.03784 0
M  V30 1507 N 268.938 3.167 0.683905 0
M  V30 1508 C 268.818 3.26538 -0.652815 0
M  V30 1509 H 265.84 8.13738 -3.03804 0
M  V30 1510 H 265.568 6.42974 -2.55559 0
M  V30 1511 H 266.436 8.12139 -0.792866 0
M  V30 1512 H 269.091 5.80178 0.160643 0
M  V30 1513 H 269.371 6.51379 -2.75643 0
M  V30 1514 H 270.362 7.01832 -1.3448 0
M  V30 1515 H 268.528 8.73771 -2.38364 0
M  V30 1516 H 268.487 4.7189 -3.52311 0
M  V30 1517 H 268.868 -0.0721434 -2.82608 0
M  V30 1518 H 269.057 -1.0785 -1.36544 0
M  V30 1519 H 269.165 1.73207 2.10241 0
M  V30 1520 P 270.398 8.91 8.68872e-13 0
M  V30 1521 O 270.618 10.1726 0.733694 0
M  V30 1522 O 271.188 8.73148 -1.23936 0
M  V30 1523 O 270.648 7.66872 0.971405 0
M  V30 1524 C 269.708 7.42309 2.04641 0
M  V30 1525 C 270.438 6.86059 3.24661 0
M  V30 1526 O 270.648 5.42847 3.03646 0
M  V30 1527 C 271.838 7.41196 3.50753 0
M  V30 1528 O 272.228 7.27073 4.86816 0
M  V30 1529 C 272.718 6.5273 2.63741 0
M  V30 1530 C 272.008 5.1842 2.73198 0
M  V30 1531 N 272.058 4.38762 1.4784 0
M  V30 1532 H 269.219 8.36803 2.32493 0
M  V30 1533 H 268.949 6.70197 1.71129 0
M  V30 1534 H 269.816 7.03551 4.13168 0
M  V30 1535 P 273.778 7.20834 5.23717 0
M  V30 1536 O 273.998 7.79853 6.57286 0
M  V30 1537 O 274.568 7.79239 4.12957 0
M  V30 1538 O 274.028 5.63315 5.29344 0
M  V30 1539 C 273.088 4.80255 6.01876 0
M  V30 1540 C 273.818 3.64202 6.65911 0
M  V30 1541 O 274.028 2.60694 5.64732 0
M  V30 1542 C 275.218 3.93473 7.1943 0
M  V30 1543 O 275.608 3.02071 8.21205 0
M  V30 1544 C 276.098 3.73047 5.97036 0
M  V30 1545 C 275.388 2.58828 5.25741 0
M  V30 1546 N 275.438 2.68068 3.77503 0
M  V30 1547 H 272.599 5.40332 6.79951 0
M  V30 1548 H 272.329 4.41613 5.32378 0
M  V30 1549 H 273.196 3.26331 7.47797 0
M  V30 1550 P 277.158 2.75334 8.47391 0
M  V30 1551 O 277.378 2.44571 9.90142 0
M  V30 1552 O 277.948 3.87688 7.92115 0
M  V30 1553 O 277.408 1.4459 7.59357 0
M  V30 1554 C 276.468 0.347608 7.69215 0
M  V30 1555 C 277.198 -0.96767 7.52806 0
M  V30 1556 O 277.408 -1.21036 6.1011 0
M  V30 1557 C 278.598 -1.04544 8.13308 0
M  V30 1558 O 278.988 -2.38311 8.41922 0
M  V30 1559 C 279.478 -0.491279 7.02284 0
M  V30 1560 C 278.768 -0.996264 5.77469 0
M  V30 1561 N 278.818 -0.0501916 4.62973 0
M  V30 1562 H 275.979 0.374722 8.67691 0
M  V30 1563 H 275.709 0.443485 6.90277 0
M  V30 1564 H 276.576 -1.75537 7.96793 0
M  V30 1565 P 280.538 -2.75334 8.47391 0
M  V30 1566 O 280.758 -3.84128 9.44797 0
M  V30 1567 O 281.328 -1.51947 8.68712 0
M  V30 1568 O 280.788 -3.29363 6.99321 0
M  V30 1569 C 279.848 -4.24011 6.4274 0
M  V30 1570 C 280.578 -5.20775 5.52155 0
M  V30 1571 O 280.788 -4.56534 4.22446 0
M  V30 1572 C 281.978 -5.62629 5.96531 0
M  V30 1573 O 282.368 -6.87667 5.41053 0
M  V30 1574 C 282.858 -4.52537 5.39283 0
M  V30 1575 C 282.148 -4.20027 4.08623 0
M  V30 1576 N 282.198 -2.76189 3.71603 0
M  V30 1577 H 279.359 -4.797 7.24003 0
M  V30 1578 H 279.089 -3.69856 5.84513 0
M  V30 1579 H 279.956 -6.10356 5.41441 0
M  V30 1580 P 283.918 -7.20834 5.23717 0
M  V30 1581 O 284.138 -8.66104 5.38572 0
M  V30 1582 O 284.708 -6.33544 6.1349 0
M  V30 1583 O 284.168 -6.7751 3.72168 0
M  V30 1584 C 283.228 -7.20825 2.7076 0
M  V30 1585 C 283.958 -7.45864 1.40599 0
M  V30 1586 O 284.168 -6.17651 0.734225 0
M  V30 1587 C 285.358 -8.05808 1.51899 0
M  V30 1588 O 285.748 -8.74358 0.335205 0
M  V30 1589 C 286.238 -6.83093 1.70294 0
M  V30 1590 C 285.528 -5.79992 0.836974 0
M  V30 1591 N 285.578 -4.41864 1.38293 0
M  V30 1592 H 282.739 -8.13644 3.0377 0
M  V30 1593 H 282.469 -6.42788 2.55485 0
M  V30 1594 H 283.336 -8.12039 0.792769 0
M  V30 1595 P 287.298 -8.91 -1.02605e-12 0
M  V30 1596 O 287.518 -10.1726 -0.733694 0
M  V30 1597 O 288.088 -8.73148 1.23936 0
M  V30 1598 O 287.548 -7.66872 -0.971405 0
M  V30 1599 C 286.608 -7.42309 -2.04641 0
M  V30 1600 C 287.338 -6.86059 -3.24661 0
M  V30 1601 O 287.548 -5.42847 -3.03646 0
M  V30 1602 C 288.738 -7.41196 -3.50753 0
M  V30 1603 O 289.128 -7.27073 -4.86816 0
M  V30 1604 C 289.618 -6.5273 -2.63741 0
M  V30 1605 C 288.908 -5.1842 -2.73198 0
M  V30 1606 N 288.958 -4.38762 -1.4784 0
M  V30 1607 H 286.119 -8.36803 -2.32493 0
M  V30 1608 H 285.849 -6.70197 -1.71129 0
M  V30 1609 H 286.716 -7.03551 -4.13168 0
M  V30 1610 P 290.678 -7.20834 -5.23717 0
M  V30 1611 O 290.898 -7.79853 -6.57286 0
M  V30 1612 O 291.468 -7.79239 -4.12957 0
M  V30 1613 O 290.928 -5.63315 -5.29344 0
M  V30 1614 C 289.988 -4.80255 -6.01876 0
M  V30 1615 C 290.718 -3.64202 -6.65911 0
M  V30 1616 O 290.928 -2.60694 -5.64732 0
M  V30 1617 C 292.118 -3.93473 -7.1943 0
M  V30 1618 O 292.508 -3.02071 -8.21205 0
M  V30 1619 C 292.998 -3.73047 -5.97036 0
M  V30 1620 C 292.288 -2.58828 -5.25741 0
M  V30 1621 N 292.338 -2.68068 -3.77503 0
M  V30 1622 H 289.499 -5.40332 -6.79951 0
M  V30 1623 H 289.229 -4.41613 -5.32378 0
M  V30 1624 H 290.096 -3.26331 -7.47797 0
M  V30 1625 P 294.058 -2.75334 -8.47391 0
M  V30 1626 O 294.278 -2.44571 -9.90142 0
M  V30 1627 O 294.848 -3.87688 -7.92115 0
M  V30 1628 O 294.308 -1.4459 -7.59357 0
M  V30 1629 C 293.368 -0.347608 -7.69215 0
M  V30 1630 C 294.098 0.96767 -7.52806 0
M  V30 1631 O 294.308 1.21036 -6.1011 0
M  V30 1632 C 295.498 1.04544 -8.13308 0
M  V30 1633 O 295.888 2.38311 -8.41922 0
M  V30 1634 C 296.378 0.491279 -7.02284 0
M  V30 1635 C 295.668 0.996264 -5.77469 0
M  V30 1636 N 295.718 0.0501916 -4.62973 0
M  V30 1637 H 292.879 -0.374722 -8.67691 0
M  V30 1638 H 292.609 -0.443485 -6.90277 0
M  V30 1639 H 293.476 1.75537 -7.96793 0
M  V30 1640 P 297.438 2.75334 -8.47391 0
M  V30 1641 O 297.658 3.84128 -9.44797 0
M  V30 1642 O 298.228 1.51947 -8.68712 0
M  V30 1643 O 297.688 3.29363 -6.99321 0
M  V30 1644 C 296.748 4.24011 -6.4274 0
M  V30 1645 C 297.478 5.20775 -5.52155 0
M  V30 1646 O 297.688 4.56534 -4.22446 0
M  V30 1647 C 298.878 5.62629 -5.96531 0
M  V30 1648 O 299.268 6.87667 -5.41053 0
M  V30 1649 C 299.758 4.52537 -5.39283 0
M  V30 1650 C 299.048 4.20027 -4.08623 0
M  V30 1651 N 299.098 2.76189 -3.71603 0
M  V30 1652 H 296.259 4.797 -7.24003 0
M  V30 1653 H 295.989 3.69856 -5.84513 0
M  V30 1654 H 296.856 6.10356 -5.41441 0
M  V30 1655 P 300.818 7.20834 -5.23717 0
M  V30 1656 O 301.038 8.66104 -5.38572 0
M  V30 1657 O 301.608 6.33544 -6.1349 0
M  V30 1658 O 301.068 6.7751 -3.72168 0
M  V30 1659 C 300.128 7.20825 -2.7076 0
M  V30 1660 C 300.858 7.45864 -1.40599 0
M  V30 1661 O 301.068 6.17651 -0.734225 0
M  V30 1662 C 302.258 8.05808 -1.51899 0
M  V30 1663 O 302.648 8.74358 -0.335205 0
M  V30 1664 C 303.138 6.83093 -1.70294 0
M  V30 1665 C 302.428 5.79992 -0.836974 0
M  V30 1666 N 302.478 4.41864 -1.38293 0
M  V30 1667 H 299.639 8.13644 -3.0377 0
M  V30 1668 H 299.369 6.42788 -2.55485 0
M  V30 1669 H 300.236 8.12039 -0.792769 0
M  V30 1670 P 304.198 8.91 1.18324e-12 0
M  V30 1671 O 304.418 10.1726 0.733694 0
M  V30 1672 O 304.988 8.73148 -1.23936 0
M  V30 1673 O 304.448 7.66872 0.971405 0
M  V30 1674 C 303.508 7.42309 2.04641 0
M  V30 1675 C 304.238 6.86059 3.24661 0
M  V30 1676 O 304.448 5.42847 3.03646 0
M  V30 1677 C 305.638 7.41196 3.50753 0
M  V30 1678 O 306.028 7.27073 4.86816 0
M  V30 1679 C 306.518 6.5273 2.63741 0
M  V30 1680 C 305.808 5.1842 2.73198 0
M  V30 1681 N 305.858 4.38762 1.4784 0
M  V30 1682 H 303.019 8.36803 2.32493 0
M  V30 1683 H 302.749 6.70197 1.71129 0
M  V30 1684 H 303.616 7.03551 4.13168 0
M  V30 1685 P 307.578 7.20834 5.23717 0
M  V30 1686 O 307.798 7.79853 6.57286 0
M  V30 1687 O 308.368 7.79239 4.12957 0
M  V30 1688 O 307.828 5.63315 5.29344 0
M  V30 1689 C 306.888 4.80255 6.01876 0
M  V30 1690 C 307.618 3.64202 6.65911 0
M  V30 1691 O 307.828 2.60694 5.64732 0
M  V30 1692 C 309.018 3.93473 7.1943 0
M  V30 1693 O 309.408 3.02071 8.21205 0
M  V30 1694 C 309.898 3.73047 5.97036 0
M  V30 1695 C 309.188 2.58828 5.25741 0
M  V30 1696 N 309.238 2.68068 3.77503 0
M  V30 1697 H 306.399 5.40332 6.79951 0
M  V30 1698 H 306.129 4.41613 5.32378 0
M  V30 1699 H 306.996 3.26331 7.47797 0
M  V30 1700 P 310.958 2.75334 8.47391 0
M  V30 1701 O 311.178 2.44571 9.90142 0
M  V30 1702 O 311.748 3.87688 7.92115 0
M  V30 1703 O 311.208 1.4459 7.59357 0
M  V30 1704 C 310.268 0.347608 7.69215 0
M  V30 1705 C 310.998 -0.96767 7.52806 0
M  V30 1706 O 311.208 -1.21036 6.1011 0
M  V30 1707 C 312.398 -1.04544 8.13308 0
M  V30 1708 O 312.788 -2.38311 8.41922 0
M  V30 1709 C 313.278 -0.491279 7.02284 0
M  V30 1710 C 312.568 -0.996264 5.77469 0
M  V30 1711 N 312.618 -0.0501916 4.62973 0
M  V30 1712 H 309.779 0.374722 8.67691 0
M  V30 1713 H 309.509 0.443485 6.90277 0
M  V30 1714 H 310.376 -1.75537 7.96793 0
M  V30 1715 P 314.338 -2.75334 8.47391 0
M  V30 1716 O 314.558 -3.84128 9.44797 0
M  V30 1717 O 315.128 -1.51947 8.68712 0
M  V30 1718 O 314.588 -3.29363 6.99321 0
M  V30 1719 C 313.648 -4.24011 6.4274 0
M  V30 1720 C 314.378 -5.20775 5.52155 0
M  V30 1721 O 314.588 -4.56534 4.22446 0
M  V30 1722 C 315.778 -5.62629 5.96531 0
M  V30 1723 O 316.168 -6.87667 5.41053 0
M  V30 1724 C 316.658 -4.52537 5.39283 0
M  V30 1725 C 315.948 -4.20027 4.08623 0
M  V30 1726 N 315.998 -2.76189 3.71603 0
M  V30 1727 H 313.159 -4.797 7.24003 0
M  V30 1728 H 312.889 -3.69856 5.84513 0
M  V30 1729 H 313.756 -6.10356 5.41441 0
M  V30 1730 P 317.718 -7.20834 5.23717 0
M  V30 1731 O 317.938 -8.66104 5.38572 0
M  V30 1732 O 318.508 -6.33544 6.1349 0
M  V30 1733 O 317.968 -6.7751 3.72168 0
M  V30 1734 C 317.028 -7.20825 2.7076 0
M  V30 1735 C 317.758 -7.45864 1.40599 0
M  V30 1736 O 317.968 -6.17651 0.734225 0
M  V30 1737 C 319.158 -8.05808 1.51899 0
M  V30 1738 O 319.548 -8.74358 0.335205 0
M  V30 1739 C 320.038 -6.83093 1.70294 0
M  V30 1740 C 319.328 -5.79992 0.836974 0
M  V30 1741 N 319.378 -4.41864 1.38293 0
M  V30 1742 C 319.298 -3.99538 2.69438 0
M  V30 1743 N 319.378 -2.69909 2.84277 0
M  V30 1744 C 319.518 -2.21719 1.5408 0
M  V30 1745 C 319.648 -0.891712 1.06628 0
M  V30 1746 O 319.668 0.161298 1.70137 0
M  V30 1747 N 319.768 -0.856846 -0.334985 0
M  V30 1748 C 319.768 -1.9641 -1.15789 0
M  V30 1749 N 319.898 -1.72708 -2.46522 0
M  V30 1750 N 319.638 -3.21165 -0.713741 0
M  V30 1751 C 319.518 -3.26797 0.639748 0
M  V30 1752 H 316.539 -8.13644 3.0377 0
M  V30 1753 H 316.269 -6.42788 2.55485 0
M  V30 1754 H 317.136 -8.12039 0.792769 0
M  V30 1755 H 319.791 -5.80061 -0.166416 0
M  V30 1756 H 320.07 -6.51287 2.75604 0
M  V30 1757 H 321.062 -7.01734 1.34462 0
M  V30 1758 H 319.228 -8.73674 2.38337 0
M  V30 1759 H 319.179 -4.68207 3.53221 0
M  V30 1760 H 319.861 0.0398818 -0.767965 0
M  V30 1761 H 319.898 -2.50995 -3.13503 0
M  V30 1762 H 319.999 -0.759148 -2.80716 0
M  V30 1763 P 321.098 -8.91 -1.34042e-12 0
M  V30 1764 O 321.318 -10.1746 -0.733838 0
M  V30 1765 O 321.888 -8.73346 1.23964 0
M  V30 1766 O 321.348 -7.66872 -0.971405 0
M  V30 1767 C 320.408 -7.42405 -2.04668 0
M  V30 1768 C 321.138 -6.86059 -3.24661 0
M  V30 1769 O 321.348 -5.42934 -3.03695 0
M  V30 1770 C 322.538 -7.41287 -3.50796 0
M  V30 1771 O 322.928 -7.27073 -4.86816 0
M  V30 1772 C 323.418 -6.5273 -2.63741 0
M  V30 1773 C 322.708 -5.1842 -2.73198 0
M  V30 1774 N 322.758 -4.38762 -1.4784 0
M  V30 1775 C 322.678 -4.83651 -0.183876 0
M  V30 1776 N 322.748 -3.88759 0.699393 0
M  V30 1777 C 322.898 -2.7404 -0.0575568 0
M  V30 1778 C 323.028 -1.37902 0.293928 0
M  V30 1779 N 323.038 -0.938021 1.54797 0
M  V30 1780 N 323.148 -0.491817 -0.70549 0
M  V30 1781 C 323.138 -0.931735 -1.95979 0
M  V30 1782 N 323.018 -2.16017 -2.41481 0
M  V30 1783 C 322.898 -3.02547 -1.39121 0
M  V30 1784 H 319.92 -8.36899 -2.3252 0
M  V30 1785 H 319.648 -6.70391 -1.71179 0
M  V30 1786 H 320.516 -7.03638 -4.13219 0
M  V30 1787 H 323.171 -4.59931 -3.54016 0
M  V30 1788 H 323.451 -6.88995 -1.59871 0
M  V30 1789 H 324.442 -6.4684 -3.0373 0
M  V30 1790 H 322.608 -8.47002 -3.20749 0
M  V30 1791 H 322.567 -5.8885 0.0765548 0
M  V30 1792 H 322.948 -1.60276 2.32875 0
M  V30 1793 H 323.137 0.0699355 1.73859 0
M  V30 1794 H 323.245 -0.165507 -2.71897 0
M  V30 1795 P 324.478 -7.20834 -5.23717 0
M  V30 1796 O 324.698 -7.80006 -6.57415 0
M  V30 1797 O 325.268 -7.79416 -4.13051 0
M  V30 1798 O 324.728 -5.63315 -5.29344 0
M  V30 1799 C 323.788 -4.80318 -6.01954 0
M  V30 1800 C 324.518 -3.64202 -6.65911 0
M  V30 1801 O 324.728 -2.60736 -5.64823 0
M  V30 1802 C 325.918 -3.93521 -7.19518 0
M  V30 1803 O 326.308 -3.02071 -8.21205 0
M  V30 1804 C 326.798 -3.73047 -5.97036 0
M  V30 1805 C 326.088 -2.58828 -5.25741 0
M  V30 1806 N 326.138 -2.68068 -3.77503 0
M  V30 1807 H 323.3 -5.40394 -6.8003 0
M  V30 1808 H 323.028 -4.41741 -5.32532 0
M  V30 1809 H 323.896 -3.26371 -7.47889 0
M  V30 1810 H 326.551 -1.64007 -5.56746 0
M  V30 1811 H 326.831 -4.63439 -5.3432 0
M  V30 1812 H 327.822 -3.44776 -6.25925 0
M  V30 1813 H 325.988 -4.96707 -7.57347 0
M  V30 1814 P 327.858 -2.75334 -8.47391 0
M  V30 1815 O 328.078 -2.44619 -9.90336 0
M  V30 1816 O 328.648 -3.87776 -7.92294 0
M  V30 1817 O 328.108 -1.4459 -7.59357 0
M  V30 1818 C 327.168 -0.347653 -7.69315 0
M  V30 1819 C 327.898 0.96767 -7.52806 0
M  V30 1820 O 328.108 1.21055 -6.10208 0
M  V30 1821 C 329.298 1.04557 -8.13408 0
M  V30 1822 O 329.688 2.38311 -8.41922 0
M  V30 1823 C 330.178 0.491279 -7.02284 0
M  V30 1824 C 329.468 0.996264 -5.77469 0
M  V30 1825 N 329.518 0.0501916 -4.62973 0
M  V30 1826 C 329.438 -1.31969 -4.65661 0
M  V30 1827 N 329.508 -1.86649 -3.48119 0
M  V30 1828 C 329.658 -0.792089 -2.62406 0
M  V30 1829 C 329.788 -0.705684 -1.2207 0
M  V30 1830 N 329.798 -1.76207 -0.413762 0
M  V30 1831 N 329.908 0.518981 -0.685754 0
M  V30 1832 C 329.898 1.57595 -1.49174 0
M  V30 1833 N 329.778 1.62909 -2.80066 0
M  V30 1834 C 329.658 0.388195 -3.3073 0
M  V30 1835 H 326.68 -0.374765 -8.67791 0
M  V30 1836 H 326.408 -0.443613 -6.90476 0
M  V30 1837 H 327.276 1.75559 -7.96891 0
M  V30 1838 H 329.931 1.94563 -5.46818 0
M  V30 1839 H 330.211 -0.608651 -7.04676 0
M  V30 1840 H 331.202 0.889796 -7.09039 0
M  V30 1841 H 329.368 0.433128 -9.04664 0
M  V30 1842 H 329.327 -1.89246 -5.57664 0
M  V30 1843 H 329.708 -2.71005 -0.804694 0
M  V30 1844 H 329.897 -1.63189 0.603768 0
M  V30 1845 H 330.005 2.53475 -0.997614 0
M  V30 1846 P 331.238 2.75334 -8.47391 0
M  V30 1847 O 331.458 3.84166 -9.4489 0
M  V30 1848 O 332.028 1.51964 -8.6881 0
M  V30 1849 O 331.488 3.29363 -6.99321 0
M  V30 1850 C 330.548 4.23956 -6.42656 0
M  V30 1851 C 331.278 5.20775 -5.52155 0
M  V30 1852 O 331.488 4.56534 -4.22446 0
M  V30 1853 C 332.678 5.62629 -5.96531 0
M  V30 1854 O 333.068 6.87667 -5.41053 0
M  V30 1855 C 333.558 4.52537 -5.39283 0
M  V30 1856 C 332.848 4.20027 -4.08623 0
M  V30 1857 N 332.898 2.7613 -3.71522 0
M  V30 1858 C 333.048 2.45612 -2.37989 0
M  V30 1859 O 333.138 3.30919 -1.51621 0
M  V30 1860 N 333.088 1.10684 -2.08435 0
M  V30 1861 C 332.998 0.0690084 -2.9792 0
M  V30 1862 C 332.848 0.481522 -4.35345 0
M  V30 1863 C 332.798 1.78906 -4.67968 0
M  V30 1864 H 330.058 4.797 -7.24003 0
M  V30 1865 H 329.789 3.69802 -5.84429 0
M  V30 1866 H 330.656 6.10356 -5.41441 0
M  V30 1867 H 333.311 4.78651 -3.27911 0
M  V30 1868 H 333.59 3.64957 -6.05871 0
M  V30 1869 H 334.582 4.8868 -5.2125 0
M  V30 1870 H 332.748 5.66726 -7.06352 0
M  V30 1871 H 332.677 2.07737 -5.72367 0
M  V30 1872 P 334.618 7.20834 -5.23717 0
M  V30 1873 O 334.838 8.66104 -5.38572 0
M  V30 1874 O 335.408 6.33544 -6.1349 0
M  V30 1875 O 334.868 6.7751 -3.72168 0
M  V30 1876 C 333.928 7.20825 -2.7076 0
M  V30 1877 C 334.658 7.45864 -1.40599 0
M  V30 1878 O 334.868 6.17651 -0.734225 0
M  V30 1879 C 336.058 8.05808 -1.51899 0
M  V30 1880 O 336.448 8.74358 -0.335205 0
M  V30 1881 C 336.938 6.83093 -1.70294 0
M  V30 1882 C 336.228 5.79992 -0.836974 0
M  V30 1883 N 336.278 4.41864 -1.38293 0
M  V30 1884 H 333.439 8.13644 -3.0377 0
M  V30 1885 H 333.169 6.42788 -2.55485 0
M  V30 1886 H 334.036 8.12039 -0.792769 0
M  V30 1887 P 337.998 8.91 1.4976e-12 0
M  V30 1888 O 338.218 10.1726 0.733694 0
M  V30 1889 O 338.788 8.73148 -1.23936 0
M  V30 1890 O 338.248 7.66872 0.971405 0
M  V30 1891 C 337.308 7.42309 2.04641 0
M  V30 1892 C 338.038 6.86059 3.24661 0
M  V30 1893 O 338.248 5.42847 3.03646 0
M  V30 1894 C 339.438 7.41196 3.50753 0
M  V30 1895 O 339.828 7.27073 4.86816 0
M  V30 1896 C 340.318 6.5273 2.63741 0
M  V30 1897 C 339.608 5.1842 2.73198 0
M  V30 1898 N 339.658 4.38762 1.4784 0
M  V30 1899 C 339.578 4.81605 0.168631 0
M  V30 1900 N 339.658 3.85454 -0.713363 0
M  V30 1901 C 339.798 2.6994 0.0566958 0
M  V30 1902 C 339.928 1.34815 -0.338502 0
M  V30 1903 N 340.048 0.496304 0.77465 0
M  V30 1904 C 340.048 0.908403 2.09122 0
M  V30 1905 N 340.178 -0.0517805 3.00955 0
M  V30 1906 N 339.918 2.17875 2.46519 0
M  V30 1907 C 339.798 3.01988 1.4033 0
M  V30 1908 H 336.819 8.36803 2.32493 0
M  V30 1909 H 336.549 6.70197 1.71129 0
M  V30 1910 H 337.416 7.03551 4.13168 0
M  V30 1911 P 341.378 7.20834 5.23717 0
M  V30 1912 O 341.598 7.79853 6.57286 0
M  V30 1913 O 342.168 7.79239 4.12957 0
M  V30 1914 O 341.628 5.63315 5.29344 0
M  V30 1915 C 340.688 4.80255 6.01876 0
M  V30 1916 C 341.418 3.64202 6.65911 0
M  V30 1917 O 341.628 2.60694 5.64732 0
M  V30 1918 C 342.818 3.93473 7.1943 0
M  V30 1919 O 343.208 3.02071 8.21205 0
M  V30 1920 C 343.698 3.73047 5.97036 0
M  V30 1921 C 342.988 2.58828 5.25741 0
M  V30 1922 N 343.038 2.68068 3.77503 0
M  V30 1923 H 340.199 5.40332 6.79951 0
M  V30 1924 H 339.929 4.41613 5.32378 0
M  V30 1925 H 340.796 3.26331 7.47797 0
M  V30 1926 P 344.758 2.75334 8.47391 0
M  V30 1927 O 344.978 2.44571 9.90142 0
M  V30 1928 O 345.548 3.87688 7.92115 0
M  V30 1929 O 345.008 1.4459 7.59357 0
M  V30 1930 C 344.068 0.347608 7.69215 0
M  V30 1931 C 344.798 -0.96767 7.52806 0
M  V30 1932 O 345.008 -1.21036 6.1011 0
M  V30 1933 C 346.198 -1.04544 8.13308 0
M  V30 1934 O 346.588 -2.38311 8.41922 0
M  V30 1935 C 347.078 -0.491279 7.02284 0
M  V30 1936 C 346.368 -0.996264 5.77469 0
M  V30 1937 N 346.418 -0.0501916 4.62973 0
M  V30 1938 H 343.579 0.374722 8.67691 0
M  V30 1939 H 343.309 0.443485 6.90277 0
M  V30 1940 H 344.176 -1.75537 7.96793 0
M  V30 1941 P 348.138 -2.75334 8.47391 0
M  V30 1942 O 348.358 -3.84128 9.44797 0
M  V30 1943 O 348.928 -1.51947 8.68712 0
M  V30 1944 O 348.388 -3.29363 6.99321 0
M  V30 1945 C 347.448 -4.24011 6.4274 0
M  V30 1946 C 348.178 -5.20775 5.52155 0
M  V30 1947 O 348.388 -4.56534 4.22446 0
M  V30 1948 C 349.578 -5.62629 5.96531 0
M  V30 1949 O 349.968 -6.87667 5.41053 0
M  V30 1950 C 350.458 -4.52537 5.39283 0
M  V30 1951 C 349.748 -4.20027 4.08623 0
M  V30 1952 N 349.798 -2.76189 3.71603 0
M  V30 1953 H 346.959 -4.797 7.24003 0
M  V30 1954 H 346.689 -3.69856 5.84513 0
M  V30 1955 H 347.556 -6.10356 5.41441 0
M  V30 1956 P 351.518 -7.20834 5.23717 0
M  V30 1957 O 351.738 -8.66104 5.38572 0
M  V30 1958 O 352.308 -6.33544 6.1349 0
M  V30 1959 O 351.768 -6.7751 3.72168 0
M  V30 1960 C 350.828 -7.20825 2.7076 0
M  V30 1961 C 351.558 -7.45864 1.40599 0
M  V30 1962 O 351.768 -6.17651 0.734225 0
M  V30 1963 C 352.958 -8.05808 1.51899 0
M  V30 1964 O 353.348 -8.74358 0.335205 0
M  V30 1965 C 353.838 -6.83093 1.70294 0
M  V30 1966 C 353.128 -5.79992 0.836974 0
M  V30 1967 N 353.178 -4.41864 1.38293 0
M  V30 1968 C 353.098 -3.99538 2.69438 0
M  V30 1969 N 353.178 -2.69909 2.84277 0
M  V30 1970 C 353.318 -2.21719 1.5408 0
M  V30 1971 C 353.448 -0.891712 1.06628 0
M  V30 1972 O 353.468 0.161298 1.70137 0
M  V30 1973 N 353.568 -0.856846 -0.334985 0
M  V30 1974 C 353.568 -1.9641 -1.15789 0
M  V30 1975 N 353.698 -1.72708 -2.46522 0
M  V30 1976 N 353.438 -3.21165 -0.713741 0
M  V30 1977 C 353.318 -3.26797 0.639748 0
M  V30 1978 H 350.339 -8.13644 3.0377 0
M  V30 1979 H 350.069 -6.42788 2.55485 0
M  V30 1980 H 350.936 -8.12039 0.792769 0
M  V30 1981 H 353.591 -5.80061 -0.166416 0
M  V30 1982 H 353.87 -6.51287 2.75604 0
M  V30 1983 H 354.862 -7.01734 1.34462 0
M  V30 1984 H 353.028 -8.73674 2.38337 0
M  V30 1985 H 352.979 -4.68207 3.53221 0
M  V30 1986 H 353.661 0.0398818 -0.767965 0
M  V30 1987 H 353.698 -2.50995 -3.13503 0
M  V30 1988 H 353.799 -0.759148 -2.80716 0
M  V30 1989 P 354.898 -8.91 -1.65478e-12 0
M  V30 1990 O 355.118 -10.1726 -0.733694 0
M  V30 1991 O 355.688 -8.73148 1.23936 0
M  V30 1992 O 355.148 -7.66872 -0.971405 0
M  V30 1993 C 354.208 -7.42309 -2.04641 0
M  V30 1994 C 354.938 -6.86059 -3.24661 0
M  V30 1995 O 355.148 -5.42847 -3.03646 0
M  V30 1996 C 356.338 -7.41196 -3.50753 0
M  V30 1997 O 356.728 -7.27073 -4.86816 0
M  V30 1998 C 357.218 -6.5273 -2.63741 0
M  V30 1999 C 356.508 -5.1842 -2.73198 0
M  V30 2000 N 356.558 -4.38762 -1.4784 0
M  V30 2001 C 356.478 -4.81605 -0.168631 0
M  V30 2002 N 356.558 -3.85454 0.713363 0
M  V30 2003 C 356.698 -2.6994 -0.0566958 0
M  V30 2004 C 356.828 -1.34815 0.338502 0
M  V30 2005 N 356.948 -0.496304 -0.77465 0
M  V30 2006 C 356.948 -0.908403 -2.09122 0
M  V30 2007 N 357.078 0.0517805 -3.00955 0
M  V30 2008 N 356.818 -2.17875 -2.46519 0
M  V30 2009 C 356.698 -3.01988 -1.4033 0
M  V30 2010 H 353.719 -8.36803 -2.32493 0
M  V30 2011 H 353.449 -6.70197 -1.71129 0
M  V30 2012 H 354.316 -7.03551 -4.13168 0
M  V30 2013 P 358.278 -7.20834 -5.23717 0
M  V30 2014 O 358.498 -7.79853 -6.57286 0
M  V30 2015 O 359.068 -7.79239 -4.12957 0
M  V30 2016 O 358.528 -5.63315 -5.29344 0
M  V30 2017 C 357.588 -4.80255 -6.01876 0
M  V30 2018 C 358.318 -3.64202 -6.65911 0
M  V30 2019 O 358.528 -2.60694 -5.64732 0
M  V30 2020 C 359.718 -3.93473 -7.1943 0
M  V30 2021 O 360.108 -3.02071 -8.21205 0
M  V30 2022 C 360.598 -3.73047 -5.97036 0
M  V30 2023 C 359.888 -2.58828 -5.25741 0
M  V30 2024 N 359.938 -2.68068 -3.77503 0
M  V30 2025 H 357.099 -5.40332 -6.79951 0
M  V30 2026 H 356.829 -4.41613 -5.32378 0
M  V30 2027 H 357.696 -3.26331 -7.47797 0
M  V30 2028 P 361.658 -2.75334 -8.47391 0
M  V30 2029 O 361.878 -2.44571 -9.90142 0
M  V30 2030 O 362.448 -3.87688 -7.92115 0
M  V30 2031 O 361.908 -1.4459 -7.59357 0
M  V30 2032 C 360.968 -0.347608 -7.69215 0
M  V30 2033 C 361.698 0.96767 -7.52806 0
M  V30 2034 O 361.908 1.21036 -6.1011 0
M  V30 2035 C 363.098 1.04544 -8.13308 0
M  V30 2036 O 363.488 2.38311 -8.41922 0
M  V30 2037 C 363.978 0.491279 -7.02284 0
M  V30 2038 C 363.268 0.996264 -5.77469 0
M  V30 2039 N 363.318 0.0501916 -4.62973 0
M  V30 2040 H 360.479 -0.374722 -8.67691 0
M  V30 2041 H 360.209 -0.443485 -6.90277 0
M  V30 2042 H 361.076 1.75537 -7.96793 0
M  V30 2043 P 365.038 2.75334 -8.47391 0
M  V30 2044 O 365.258 3.84128 -9.44797 0
M  V30 2045 O 365.828 1.51947 -8.68712 0
M  V30 2046 O 365.288 3.29363 -6.99321 0
M  V30 2047 C 364.348 4.24011 -6.4274 0
M  V30 2048 C 365.078 5.20775 -5.52155 0
M  V30 2049 O 365.288 4.56534 -4.22446 0
M  V30 2050 C 366.478 5.62629 -5.96531 0
M  V30 2051 O 366.868 6.87667 -5.41053 0
M  V30 2052 C 367.358 4.52537 -5.39283 0
M  V30 2053 C 366.648 4.20027 -4.08623 0
M  V30 2054 N 366.698 2.76189 -3.71603 0
M  V30 2055 H 363.859 4.797 -7.24003 0
M  V30 2056 H 363.589 3.69856 -5.84513 0
M  V30 2057 H 364.456 6.10356 -5.41441 0
M  V30 2058 P 368.418 7.20834 -5.23717 0
M  V30 2059 O 368.638 8.66104 -5.38572 0
M  V30 2060 O 369.208 6.33544 -6.1349 0
M  V30 2061 O 368.668 6.7751 -3.72168 0
M  V30 2062 C 367.728 7.20825 -2.7076 0
M  V30 2063 C 368.458 7.45864 -1.40599 0
M  V30 2064 O 368.668 6.17651 -0.734225 0
M  V30 2065 C 369.858 8.05808 -1.51899 0
M  V30 2066 O 370.248 8.74358 -0.335205 0
M  V30 2067 C 370.738 6.83093 -1.70294 0
M  V30 2068 C 370.028 5.79992 -0.836974 0
M  V30 2069 N 370.078 4.41864 -1.38293 0
M  V30 2070 C 369.998 3.99538 -2.69438 0
M  V30 2071 N 370.078 2.69909 -2.84277 0
M  V30 2072 C 370.218 2.21719 -1.5408 0
M  V30 2073 C 370.348 0.891712 -1.06628 0
M  V30 2074 O 370.368 -0.161298 -1.70137 0
M  V30 2075 N 370.468 0.856846 0.334985 0
M  V30 2076 C 370.468 1.9641 1.15789 0
M  V30 2077 N 370.598 1.72708 2.46522 0
M  V30 2078 N 370.338 3.21165 0.713741 0
M  V30 2079 C 370.218 3.26797 -0.639748 0
M  V30 2080 H 367.239 8.13644 -3.0377 0
M  V30 2081 H 366.969 6.42788 -2.55485 0
M  V30 2082 H 367.836 8.12039 -0.792769 0
M  V30 2083 H 370.491 5.80061 0.166416 0
M  V30 2084 H 370.77 6.51287 -2.75604 0
M  V30 2085 H 371.762 7.01734 -1.34462 0
M  V30 2086 H 369.928 8.73674 -2.38337 0
M  V30 2087 H 369.879 4.68207 -3.53221 0
M  V30 2088 H 370.561 -0.0398818 0.767965 0
M  V30 2089 H 370.598 2.50995 3.13503 0
M  V30 2090 H 370.699 0.759148 2.80716 0
M  V30 2091 P 371.798 8.91 1.81197e-12 0
M  V30 2092 O 372.018 10.1726 0.733694 0
M  V30 2093 O 372.588 8.73148 -1.23936 0
M  V30 2094 O 372.048 7.66872 0.971405 0
M  V30 2095 C 371.108 7.42309 2.04641 0
M  V30 2096 C 371.838 6.86059 3.24661 0
M  V30 2097 O 372.048 5.42847 3.03646 0
M  V30 2098 C 373.238 7.41196 3.50753 0
M  V30 2099 O 373.628 7.27073 4.86816 0
M  V30 2100 C 374.118 6.5273 2.63741 0
M  V30 2101 C 373.408 5.1842 2.73198 0
M  V30 2102 N 373.458 4.38762 1.4784 0
M  V30 2103 H 370.619 8.36803 2.32493 0
M  V30 2104 H 370.349 6.70197 1.71129 0
M  V30 2105 H 371.216 7.03551 4.13168 0
M  V30 2106 P 375.178 7.20834 5.23717 0
M  V30 2107 O 375.398 7.79853 6.57286 0
M  V30 2108 O 375.968 7.79239 4.12957 0
M  V30 2109 O 375.428 5.63315 5.29344 0
M  V30 2110 C 374.488 4.80255 6.01876 0
M  V30 2111 C 375.218 3.64202 6.65911 0
M  V30 2112 O 375.428 2.60694 5.64732 0
M  V30 2113 C 376.618 3.93473 7.1943 0
M  V30 2114 O 377.008 3.02071 8.21205 0
M  V30 2115 C 377.498 3.73047 5.97036 0
M  V30 2116 C 376.788 2.58828 5.25741 0
M  V30 2117 N 376.838 2.68068 3.77503 0
M  V30 2118 H 373.999 5.40332 6.79951 0
M  V30 2119 H 373.729 4.41613 5.32378 0
M  V30 2120 H 374.596 3.26331 7.47797 0
M  V30 2121 P 378.558 2.75334 8.47391 0
M  V30 2122 O 378.778 2.44619 9.90336 0
M  V30 2123 O 379.348 3.87776 7.92294 0
M  V30 2124 O 378.808 1.4459 7.59357 0
M  V30 2125 C 377.868 0.347653 7.69315 0
M  V30 2126 C 378.598 -0.96767 7.52806 0
M  V30 2127 O 378.808 -1.21055 6.10208 0
M  V30 2128 C 379.998 -1.04557 8.13408 0
M  V30 2129 O 380.388 -2.38311 8.41922 0
M  V30 2130 C 380.878 -0.491279 7.02284 0
M  V30 2131 C 380.168 -0.996264 5.77469 0
M  V30 2132 N 380.218 -0.0501916 4.62973 0
M  V30 2133 C 380.138 1.31969 4.65661 0
M  V30 2134 N 380.208 1.86649 3.48119 0
M  V30 2135 C 380.358 0.792089 2.62406 0
M  V30 2136 C 380.488 0.705684 1.2207 0
M  V30 2137 N 380.498 1.76207 0.413762 0
M  V30 2138 N 380.608 -0.518981 0.685754 0
M  V30 2139 C 380.598 -1.57595 1.49174 0
M  V30 2140 N 380.478 -1.62909 2.80066 0
M  V30 2141 C 380.358 -0.388195 3.3073 0
M  V30 2142 H 377.38 0.374765 8.67791 0
M  V30 2143 H 377.108 0.443613 6.90476 0
M  V30 2144 H 377.976 -1.75559 7.96891 0
M  V30 2145 H 380.631 -1.94563 5.46818 0
M  V30 2146 H 380.911 0.608651 7.04676 0
M  V30 2147 H 381.902 -0.889796 7.09039 0
M  V30 2148 H 380.068 -0.433128 9.04664 0
M  V30 2149 H 380.027 1.89246 5.57664 0
M  V30 2150 H 380.408 2.71005 0.804694 0
M  V30 2151 H 380.597 1.63189 -0.603768 0
M  V30 2152 H 380.705 -2.53475 0.997614 0
M  V30 2153 P 381.938 -2.75334 8.47391 0
M  V30 2154 O 382.158 -3.84128 9.44797 0
M  V30 2155 O 382.728 -1.51947 8.68712 0
M  V30 2156 O 382.188 -3.29363 6.99321 0
M  V30 2157 C 381.248 -4.24011 6.4274 0
M  V30 2158 C 381.978 -5.20775 5.52155 0
M  V30 2159 O 382.188 -4.56534 4.22446 0
M  V30 2160 C 383.378 -5.62629 5.96531 0
M  V30 2161 O 383.768 -6.87667 5.41053 0
M  V30 2162 C 384.258 -4.52537 5.39283 0
M  V30 2163 C 383.548 -4.20027 4.08623 0
M  V30 2164 N 383.598 -2.76189 3.71603 0
M  V30 2165 C 383.518 -1.64862 4.52822 0
M  V30 2166 N 383.598 -0.512671 3.88633 0
M  V30 2167 C 383.738 -0.888083 2.54977 0
M  V30 2168 C 383.868 -0.094668 1.38677 0
M  V30 2169 N 383.988 -0.890102 0.232633 0
M  V30 2170 C 383.988 -2.26958 0.21772 0
M  V30 2171 N 384.118 -2.84626 -0.97925 0
M  V30 2172 N 383.858 -3.0178 1.31033 0
M  V30 2173 C 383.738 -2.26781 2.43843 0
M  V30 2174 H 380.759 -4.797 7.24003 0
M  V30 2175 H 380.489 -3.69856 5.84513 0
M  V30 2176 H 381.356 -6.10356 5.41441 0
M  V30 2177 P 385.318 -7.20834 5.23717 0
M  V30 2178 O 385.538 -8.66104 5.38572 0
M  V30 2179 O 386.108 -6.33544 6.1349 0
M  V30 2180 O 385.568 -6.7751 3.72168 0
M  V30 2181 C 384.628 -7.20825 2.7076 0
M  V30 2182 C 385.358 -7.45864 1.40599 0
M  V30 2183 O 385.568 -6.17651 0.734225 0
M  V30 2184 C 386.758 -8.05808 1.51899 0
M  V30 2185 O 387.148 -8.74358 0.335205 0
M  V30 2186 C 387.638 -6.83093 1.70294 0
M  V30 2187 C 386.928 -5.79992 0.836974 0
M  V30 2188 N 386.978 -4.41864 1.38293 0
M  V30 2189 H 384.139 -8.13644 3.0377 0
M  V30 2190 H 383.869 -6.42788 2.55485 0
M  V30 2191 H 384.736 -8.12039 0.792769 0
M  V30 2192 P 388.698 -8.91 -1.96915e-12 0
M  V30 2193 O 388.918 -10.1726 -0.733694 0
M  V30 2194 O 389.488 -8.73148 1.23936 0
M  V30 2195 O 388.948 -7.66872 -0.971405 0
M  V30 2196 C 388.008 -7.42309 -2.04641 0
M  V30 2197 C 388.738 -6.86059 -3.24661 0
M  V30 2198 O 388.948 -5.42847 -3.03646 0
M  V30 2199 C 390.138 -7.41196 -3.50753 0
M  V30 2200 O 390.528 -7.27073 -4.86816 0
M  V30 2201 C 391.018 -6.5273 -2.63741 0
M  V30 2202 C 390.308 -5.1842 -2.73198 0
M  V30 2203 N 390.358 -4.38762 -1.4784 0
M  V30 2204 H 387.519 -8.36803 -2.32493 0
M  V30 2205 H 387.249 -6.70197 -1.71129 0
M  V30 2206 H 388.116 -7.03551 -4.13168 0
M  V30 2207 P 392.078 -7.20834 -5.23717 0
M  V30 2208 O 392.298 -7.80006 -6.57415 0
M  V30 2209 O 392.868 -7.79416 -4.13051 0
M  V30 2210 O 392.328 -5.63315 -5.29344 0
M  V30 2211 C 391.388 -4.80318 -6.01954 0
M  V30 2212 C 392.118 -3.64202 -6.65911 0
M  V30 2213 O 392.328 -2.60736 -5.64823 0
M  V30 2214 C 393.518 -3.93521 -7.19518 0
M  V30 2215 O 393.908 -3.02071 -8.21205 0
M  V30 2216 C 394.398 -3.73047 -5.97036 0
M  V30 2217 C 393.688 -2.58828 -5.25741 0
M  V30 2218 N 393.738 -2.68068 -3.77503 0
M  V30 2219 C 393.658 -3.80474 -2.99159 0
M  V30 2220 N 393.728 -3.55622 -1.71925 0
M  V30 2221 C 393.878 -2.1832 -1.65733 0
M  V30 2222 C 394.008 -1.28842 -0.572777 0
M  V30 2223 N 394.018 -1.66875 0.70098 0
M  V30 2224 N 394.128 0.016788 -0.859836 0
M  V30 2225 C 394.118 0.398145 -2.13316 0
M  V30 2226 N 393.998 -0.328224 -3.22333 0
M  V30 2227 C 393.878 -1.62992 -2.90383 0
M  V30 2228 H 390.9 -5.40394 -6.8003 0
M  V30 2229 H 390.628 -4.41741 -5.32532 0
M  V30 2230 H 391.496 -3.26371 -7.47889 0
M  V30 2231 H 394.151 -1.64007 -5.56746 0
M  V30 2232 H 394.431 -4.63439 -5.3432 0
M  V30 2233 H 395.422 -3.44776 -6.25925 0
M  V30 2234 H 393.588 -4.96707 -7.57347 0
M  V30 2235 H 393.547 -4.8089 -3.39924 0
M  V30 2236 H 393.928 -2.66547 0.941919 0
M  V30 2237 H 394.117 -0.965341 1.44766 0
M  V30 2238 H 394.225 1.46427 -2.29697 0
M  V30 2239 P 395.458 -2.75334 -8.47391 0
M  V30 2240 O 395.678 -2.44571 -9.90142 0
M  V30 2241 O 396.248 -3.87688 -7.92115 0
M  V30 2242 O 395.708 -1.4459 -7.59357 0
M  V30 2243 C 394.768 -0.347608 -7.69215 0
M  V30 2244 C 395.498 0.96767 -7.52806 0
M  V30 2245 O 395.708 1.21036 -6.1011 0
M  V30 2246 C 396.898 1.04544 -8.13308 0
M  V30 2247 O 397.288 2.38311 -8.41922 0
M  V30 2248 C 397.778 0.491279 -7.02284 0
M  V30 2249 C 397.068 0.996264 -5.77469 0
M  V30 2250 N 397.118 0.0501916 -4.62973 0
M  V30 2251 C 397.038 -1.32786 -4.63244 0
M  V30 2252 N 397.118 -1.86957 -3.44545 0
M  V30 2253 C 397.258 -0.780241 -2.58481 0
M  V30 2254 C 397.388 -0.738536 -1.17757 0
M  V30 2255 N 397.508 0.58337 -0.711393 0
M  V30 2256 C 397.508 1.70816 -1.51017 0
M  V30 2257 N 397.638 2.87826 -0.880757 0
M  V30 2258 N 397.378 1.67126 -2.8339 0
M  V30 2259 C 397.258 0.401421 -3.30572 0
M  V30 2260 H 394.279 -0.374722 -8.67691 0
M  V30 2261 H 394.009 -0.443485 -6.90277 0
M  V30 2262 H 394.876 1.75537 -7.96793 0
M  V30 2263 P 398.838 2.75334 -8.47391 0
M  V30 2264 O 399.058 3.84128 -9.44797 0
M  V30 2265 O 399.628 1.51947 -8.68712 0
M  V30 2266 O 399.088 3.29363 -6.99321 0
M  V30 2267 C 398.148 4.24011 -6.4274 0
M  V30 2268 C 398.878 5.20775 -5.52155 0
M  V30 2269 O 399.088 4.56534 -4.22446 0
M  V30 2270 C 400.278 5.62629 -5.96531 0
M  V30 2271 O 400.668 6.87667 -5.41053 0
M  V30 2272 C 401.158 4.52537 -5.39283 0
M  V30 2273 C 400.448 4.20027 -4.08623 0
M  V30 2274 N 400.498 2.76189 -3.71603 0
M  V30 2275 C 400.418 1.64862 -4.52822 0
M  V30 2276 N 400.498 0.512671 -3.88633 0
M  V30 2277 C 400.638 0.888083 -2.54977 0
M  V30 2278 C 400.768 0.094668 -1.38677 0
M  V30 2279 N 400.888 0.890102 -0.232633 0
M  V30 2280 C 400.888 2.26958 -0.21772 0
M  V30 2281 N 401.018 2.84626 0.97925 0
M  V30 2282 N 400.758 3.0178 -1.31033 0
M  V30 2283 C 400.638 2.26781 -2.43843 0
M  V30 2284 H 397.659 4.797 -7.24003 0
M  V30 2285 H 397.389 3.69856 -5.84513 0
M  V30 2286 H 398.256 6.10356 -5.41441 0
M  V30 2287 P 402.218 7.20834 -5.23717 0
M  V30 2288 O 402.438 8.66104 -5.38572 0
M  V30 2289 O 403.008 6.33544 -6.1349 0
M  V30 2290 O 402.468 6.7751 -3.72168 0
M  V30 2291 C 401.528 7.20825 -2.7076 0
M  V30 2292 C 402.258 7.45864 -1.40599 0
M  V30 2293 O 402.468 6.17651 -0.734225 0
M  V30 2294 C 403.658 8.05808 -1.51899 0
M  V30 2295 O 404.048 8.74358 -0.335205 0
M  V30 2296 C 404.538 6.83093 -1.70294 0
M  V30 2297 C 403.828 5.79992 -0.836974 0
M  V30 2298 N 403.878 4.41864 -1.38293 0
M  V30 2299 H 401.039 8.13644 -3.0377 0
M  V30 2300 H 400.769 6.42788 -2.55485 0
M  V30 2301 H 401.636 8.12039 -0.792769 0
M  V30 2302 P 405.598 8.91 2.12633e-12 0
M  V30 2303 O 405.818 10.1726 0.733694 0
M  V30 2304 O 406.388 8.73148 -1.23936 0
M  V30 2305 O 405.848 7.66872 0.971405 0
M  V30 2306 C 404.908 7.42309 2.04641 0
M  V30 2307 C 405.638 6.86059 3.24661 0
M  V30 2308 O 405.848 5.42847 3.03646 0
M  V30 2309 C 407.038 7.41196 3.50753 0
M  V30 2310 O 407.428 7.27073 4.86816 0
M  V30 2311 C 407.918 6.5273 2.63741 0
M  V30 2312 C 407.208 5.1842 2.73198 0
M  V30 2313 N 407.258 4.38762 1.4784 0
M  V30 2314 C 407.178 4.81605 0.168631 0
M  V30 2315 N 407.258 3.85454 -0.713363 0
M  V30 2316 C 407.398 2.6994 0.0566958 0
M  V30 2317 C 407.528 1.34815 -0.338502 0
M  V30 2318 O 407.548 0.869548 -1.47125 0
M  V30 2319 N 407.648 0.496304 0.77465 0
M  V30 2320 C 407.648 0.908403 2.09122 0
M  V30 2321 N 407.778 -0.0517805 3.00955 0
M  V30 2322 N 407.518 2.17875 2.46519 0
M  V30 2323 C 407.398 3.01988 1.4033 0
M  V30 2324 H 404.419 8.36803 2.32493 0
M  V30 2325 H 404.149 6.70197 1.71129 0
M  V30 2326 H 405.016 7.03551 4.13168 0
M  V30 2327 H 407.671 4.59498 3.54415 0
M  V30 2328 H 407.95 6.88898 1.59848 0
M  V30 2329 H 408.942 6.46749 3.03687 0
M  V30 2330 H 407.108 8.46908 3.20714 0
M  V30 2331 H 407.059 5.86405 -0.105564 0
M  V30 2332 H 407.741 -0.483664 0.597855 0
M  V30 2333 H 407.778 0.187865 4.0116 0
M  V30 2334 H 407.879 -1.03585 2.71726 0
M  V30 2335 P 408.978 7.20834 5.23717 0
M  V30 2336 O 409.198 7.80006 6.57415 0
M  V30 2337 O 409.768 7.79416 4.13051 0
M  V30 2338 O 409.228 5.63315 5.29344 0
M  V30 2339 C 408.288 4.80318 6.01954 0
M  V30 2340 C 409.018 3.64202 6.65911 0
M  V30 2341 O 409.228 2.60736 5.64823 0
M  V30 2342 C 410.418 3.93521 7.19518 0
M  V30 2343 O 410.808 3.02071 8.21205 0
M  V30 2344 C 411.298 3.73047 5.97036 0
M  V30 2345 C 410.588 2.58828 5.25741 0
M  V30 2346 N 410.638 2.68068 3.77503 0
M  V30 2347 H 407.8 5.40394 6.8003 0
M  V30 2348 H 407.528 4.41741 5.32532 0
M  V30 2349 H 408.396 3.26371 7.47889 0
M  V30 2350 H 411.051 1.64007 5.56746 0
M  V30 2351 H 411.331 4.63439 5.3432 0
M  V30 2352 H 412.322 3.44776 6.25925 0
M  V30 2353 H 410.488 4.96707 7.57347 0
M  V30 2354 P 412.358 2.75334 8.47391 0
M  V30 2355 O 412.578 2.44619 9.90336 0
M  V30 2356 O 413.148 3.87776 7.92294 0
M  V30 2357 O 412.608 1.4459 7.59357 0
M  V30 2358 C 411.668 0.347653 7.69315 0
M  V30 2359 C 412.398 -0.96767 7.52806 0
M  V30 2360 O 412.608 -1.21055 6.10208 0
M  V30 2361 C 413.798 -1.04557 8.13408 0
M  V30 2362 O 414.188 -2.38311 8.41922 0
M  V30 2363 C 414.678 -0.491279 7.02284 0
M  V30 2364 C 413.968 -0.996264 5.77469 0
M  V30 2365 N 414.018 -0.0501916 4.62973 0
M  V30 2366 C 413.938 1.31969 4.65661 0
M  V30 2367 N 414.008 1.86649 3.48119 0
M  V30 2368 C 414.158 0.792089 2.62406 0
M  V30 2369 C 414.288 0.705684 1.2207 0
M  V30 2370 N 414.298 1.76207 0.413762 0
M  V30 2371 N 414.408 -0.518981 0.685754 0
M  V30 2372 C 414.398 -1.57595 1.49174 0
M  V30 2373 N 414.278 -1.62909 2.80066 0
M  V30 2374 C 414.158 -0.388195 3.3073 0
M  V30 2375 H 411.18 0.374765 8.67791 0
M  V30 2376 H 410.908 0.443613 6.90476 0
M  V30 2377 H 411.776 -1.75559 7.96891 0
M  V30 2378 H 414.431 -1.94563 5.46818 0
M  V30 2379 H 414.711 0.608651 7.04676 0
M  V30 2380 H 415.702 -0.889796 7.09039 0
M  V30 2381 H 413.868 -0.433128 9.04664 0
M  V30 2382 H 413.827 1.89246 5.57664 0
M  V30 2383 H 414.208 2.71005 0.804694 0
M  V30 2384 H 414.397 1.63189 -0.603768 0
M  V30 2385 H 414.505 -2.53475 0.997614 0
M  V30 2386 P 415.738 -2.75334 8.47391 0
M  V30 2387 O 415.958 -3.84128 9.44797 0
M  V30 2388 O 416.528 -1.51947 8.68712 0
M  V30 2389 O 415.988 -3.29363 6.99321 0
M  V30 2390 C 415.048 -4.24011 6.4274 0
M  V30 2391 C 415.778 -5.20775 5.52155 0
M  V30 2392 O 415.988 -4.56534 4.22446 0
M  V30 2393 C 417.178 -5.62629 5.96531 0
M  V30 2394 O 417.568 -6.87667 5.41053 0
M  V30 2395 C 418.058 -4.52537 5.39283 0
M  V30 2396 C 417.348 -4.20027 4.08623 0
M  V30 2397 N 417.398 -2.76189 3.71603 0
M  V30 2398 H 414.559 -4.797 7.24003 0
M  V30 2399 H 414.289 -3.69856 5.84513 0
M  V30 2400 H 415.156 -6.10356 5.41441 0
M  V30 2401 P 419.118 -7.20834 5.23717 0
M  V30 2402 O 419.338 -8.66274 5.38678 0
M  V30 2403 O 419.908 -6.33687 6.13629 0
M  V30 2404 O 419.368 -6.7751 3.72168 0
M  V30 2405 C 418.428 -7.20919 2.70795 0
M  V30 2406 C 419.158 -7.45864 1.40599 0
M  V30 2407 O 419.368 -6.17751 0.734343 0
M  V30 2408 C 420.558 -8.05906 1.51917 0
M  V30 2409 O 420.948 -8.74358 0.335205 0
M  V30 2410 C 421.438 -6.83093 1.70294 0
M  V30 2411 C 420.728 -5.79992 0.836974 0
M  V30 2412 N 420.778 -4.41864 1.38293 0
M  V30 2413 C 420.698 -4.02089 2.69407 0
M  V30 2414 N 420.768 -2.73403 2.85089 0
M  V30 2415 C 420.918 -2.25086 1.5642 0
M  V30 2416 C 421.048 -0.942887 1.04836 0
M  V30 2417 N 421.058 0.150999 1.80369 0
M  V30 2418 N 421.168 -0.812565 -0.28167 0
M  V30 2419 C 421.158 -1.90572 -1.03784 0
M  V30 2420 N 421.038 -3.167 -0.683905 0
M  V30 2421 C 420.918 -3.26538 0.652815 0
M  V30 2422 H 417.94 -8.13738 3.03804 0
M  V30 2423 H 417.668 -6.42974 2.55559 0
M  V30 2424 H 418.536 -8.12139 0.792866 0
M  V30 2425 H 421.191 -5.80178 -0.160643 0
M  V30 2426 H 421.471 -6.51379 2.75643 0
M  V30 2427 H 422.462 -7.01832 1.3448 0
M  V30 2428 H 420.628 -8.73771 2.38364 0
M  V30 2429 H 420.587 -4.7189 3.52311 0
M  V30 2430 H 420.968 0.0721434 2.82608 0
M  V30 2431 H 421.157 1.0785 1.36544 0
M  V30 2432 H 421.265 -1.73207 -2.10241 0
M  V30 2433 P 422.497 -8.91 -2.28351e-12 0
M  V30 2434 O 422.717 -10.1726 -0.733694 0
M  V30 2435 O 423.287 -8.73148 1.23936 0
M  V30 2436 O 422.747 -7.66872 -0.971405 0
M  V30 2437 C 421.807 -7.42309 -2.04641 0
M  V30 2438 C 422.537 -6.86059 -3.24661 0
M  V30 2439 O 422.747 -5.42847 -3.03646 0
M  V30 2440 C 423.937 -7.41196 -3.50753 0
M  V30 2441 O 424.327 -7.27073 -4.86816 0
M  V30 2442 C 424.817 -6.5273 -2.63741 0
M  V30 2443 C 424.107 -5.1842 -2.73198 0
M  V30 2444 N 424.157 -4.38762 -1.4784 0
M  V30 2445 H 421.318 -8.36803 -2.32493 0
M  V30 2446 H 421.048 -6.70197 -1.71129 0
M  V30 2447 H 421.915 -7.03551 -4.13168 0
M  V30 2448 P 425.877 -7.20834 -5.23717 0
M  V30 2449 O 426.097 -7.79853 -6.57286 0
M  V30 2450 O 426.667 -7.79239 -4.12957 0
M  V30 2451 O 426.127 -5.63315 -5.29344 0
M  V30 2452 C 425.187 -4.80255 -6.01876 0
M  V30 2453 C 425.917 -3.64202 -6.65911 0
M  V30 2454 O 426.127 -2.60694 -5.64732 0
M  V30 2455 C 427.317 -3.93473 -7.1943 0
M  V30 2456 O 427.707 -3.02071 -8.21205 0
M  V30 2457 C 428.197 -3.73047 -5.97036 0
M  V30 2458 C 427.487 -2.58828 -5.25741 0
M  V30 2459 N 427.537 -2.68068 -3.77503 0
M  V30 2460 H 424.698 -5.40332 -6.79951 0
M  V30 2461 H 424.428 -4.41613 -5.32378 0
M  V30 2462 H 425.295 -3.26331 -7.47797 0
M  V30 2463 P 429.257 -2.75334 -8.47391 0
M  V30 2464 O 429.477 -2.44571 -9.90142 0
M  V30 2465 O 430.047 -3.87688 -7.92115 0
M  V30 2466 O 429.507 -1.4459 -7.59357 0
M  V30 2467 C 428.567 -0.347608 -7.69215 0
M  V30 2468 C 429.297 0.96767 -7.52806 0
M  V30 2469 O 429.507 1.21036 -6.1011 0
M  V30 2470 C 430.697 1.04544 -8.13308 0
M  V30 2471 O 431.087 2.38311 -8.41922 0
M  V30 2472 C 431.577 0.491279 -7.02284 0
M  V30 2473 C 430.867 0.996264 -5.77469 0
M  V30 2474 N 430.917 0.0501916 -4.62973 0
M  V30 2475 H 428.078 -0.374722 -8.67691 0
M  V30 2476 H 427.808 -0.443485 -6.90277 0
M  V30 2477 H 428.675 1.75537 -7.96793 0
M  V30 2478 P 432.637 2.75334 -8.47391 0
M  V30 2479 O 432.857 3.84128 -9.44797 0
M  V30 2480 O 433.427 1.51947 -8.68712 0
M  V30 2481 O 432.887 3.29363 -6.99321 0
M  V30 2482 C 431.947 4.24011 -6.4274 0
M  V30 2483 C 432.677 5.20775 -5.52155 0
M  V30 2484 O 432.887 4.56534 -4.22446 0
M  V30 2485 C 434.077 5.62629 -5.96531 0
M  V30 2486 O 434.467 6.87667 -5.41053 0
M  V30 2487 C 434.957 4.52537 -5.39283 0
M  V30 2488 C 434.247 4.20027 -4.08623 0
M  V30 2489 N 434.297 2.76189 -3.71603 0
M  V30 2490 H 431.458 4.797 -7.24003 0
M  V30 2491 H 431.188 3.69856 -5.84513 0
M  V30 2492 H 432.055 6.10356 -5.41441 0
M  V30 2493 P 436.017 7.20834 -5.23717 0
M  V30 2494 O 436.237 8.66104 -5.38572 0
M  V30 2495 O 436.807 6.33544 -6.1349 0
M  V30 2496 O 436.267 6.7751 -3.72168 0
M  V30 2497 C 435.327 7.20825 -2.7076 0
M  V30 2498 C 436.057 7.45864 -1.40599 0
M  V30 2499 O 436.267 6.17651 -0.734225 0
M  V30 2500 C 437.457 8.05808 -1.51899 0
M  V30 2501 O 437.847 8.74358 -0.335205 0
M  V30 2502 C 438.337 6.83093 -1.70294 0
M  V30 2503 C 437.627 5.79992 -0.836974 0
M  V30 2504 N 437.677 4.41864 -1.38293 0
M  V30 2505 H 434.838 8.13644 -3.0377 0
M  V30 2506 H 434.568 6.42788 -2.55485 0
M  V30 2507 H 435.435 8.12039 -0.792769 0
M  V30 2508 P 439.397 8.91 2.44069e-12 0
M  V30 2509 O 439.617 10.1726 0.733694 0
M  V30 2510 O 440.187 8.73148 -1.23936 0
M  V30 2511 O 439.647 7.66872 0.971405 0
M  V30 2512 C 438.707 7.42309 2.04641 0
M  V30 2513 C 439.437 6.86059 3.24661 0
M  V30 2514 O 439.647 5.42847 3.03646 0
M  V30 2515 C 440.837 7.41196 3.50753 0
M  V30 2516 O 441.227 7.27073 4.86816 0
M  V30 2517 C 441.717 6.5273 2.63741 0
M  V30 2518 C 441.007 5.1842 2.73198 0
M  V30 2519 N 441.057 4.38762 1.4784 0
M  V30 2520 H 438.218 8.36803 2.32493 0
M  V30 2521 H 437.948 6.70197 1.71129 0
M  V30 2522 H 438.815 7.03551 4.13168 0
M  V30 2523 P 442.777 7.20834 5.23717 0
M  V30 2524 O 442.997 7.79853 6.57286 0
M  V30 2525 O 443.567 7.79239 4.12957 0
M  V30 2526 O 443.027 5.63315 5.29344 0
M  V30 2527 C 442.087 4.80255 6.01876 0
M  V30 2528 C 442.817 3.64202 6.65911 0
M  V30 2529 O 443.027 2.60694 5.64732 0
M  V30 2530 C 444.217 3.93473 7.1943 0
M  V30 2531 O 444.607 3.02071 8.21205 0
M  V30 2532 C 445.097 3.73047 5.97036 0
M  V30 2533 C 444.387 2.58828 5.25741 0
M  V30 2534 N 444.437 2.68068 3.77503 0
M  V30 2535 H 441.598 5.40332 6.79951 0
M  V30 2536 H 441.328 4.41613 5.32378 0
M  V30 2537 H 442.195 3.26331 7.47797 0
M  V30 2538 P 446.157 2.75334 8.47391 0
M  V30 2539 O 446.377 2.44571 9.90142 0
M  V30 2540 O 446.947 3.87688 7.92115 0
M  V30 2541 O 446.407 1.4459 7.59357 0
M  V30 2542 C 445.467 0.347608 7.69215 0
M  V30 2543 C 446.197 -0.96767 7.52806 0
M  V30 2544 O 446.407 -1.21036 6.1011 0
M  V30 2545 C 447.597 -1.04544 8.13308 0
M  V30 2546 O 447.987 -2.38311 8.41922 0
M  V30 2547 C 448.477 -0.491279 7.02284 0
M  V30 2548 C 447.767 -0.996264 5.77469 0
M  V30 2549 N 447.817 -0.0501916 4.62973 0
M  V30 2550 H 444.978 0.374722 8.67691 0
M  V30 2551 H 444.708 0.443485 6.90277 0
M  V30 2552 H 445.575 -1.75537 7.96793 0
M  V30 2553 P 449.537 -2.75334 8.47391 0
M  V30 2554 O 449.757 -3.84128 9.44797 0
M  V30 2555 O 450.327 -1.51947 8.68712 0
M  V30 2556 O 449.787 -3.29363 6.99321 0
M  V30 2557 C 448.847 -4.24011 6.4274 0
M  V30 2558 C 449.577 -5.20775 5.52155 0
M  V30 2559 O 449.787 -4.56534 4.22446 0
M  V30 2560 C 450.977 -5.62629 5.96531 0
M  V30 2561 O 451.367 -6.87667 5.41053 0
M  V30 2562 C 451.857 -4.52537 5.39283 0
M  V30 2563 C 451.147 -4.20027 4.08623 0
M  V30 2564 N 451.197 -2.76189 3.71603 0
M  V30 2565 H 448.358 -4.797 7.24003 0
M  V30 2566 H 448.088 -3.69856 5.84513 0
M  V30 2567 H 448.955 -6.10356 5.41441 0
M  V30 2568 P 452.917 -7.20834 5.23717 0
M  V30 2569 O 453.137 -8.66104 5.38572 0
M  V30 2570 O 453.707 -6.33544 6.1349 0
M  V30 2571 O 453.167 -6.7751 3.72168 0
M  V30 2572 C 452.227 -7.20825 2.7076 0
M  V30 2573 C 452.957 -7.45864 1.40599 0
M  V30 2574 O 453.167 -6.17651 0.734225 0
M  V30 2575 C 454.357 -8.05808 1.51899 0
M  V30 2576 O 454.747 -8.74358 0.335205 0
M  V30 2577 C 455.237 -6.83093 1.70294 0
M  V30 2578 C 454.527 -5.79992 0.836974 0
M  V30 2579 N 454.577 -4.41864 1.38293 0
M  V30 2580 H 451.738 -8.13644 3.0377 0
M  V30 2581 H 451.468 -6.42788 2.55485 0
M  V30 2582 H 452.335 -8.12039 0.792769 0
M  V30 2583 P 456.297 -8.91 -2.59788e-12 0
M  V30 2584 O 456.517 -10.1726 -0.733694 0
M  V30 2585 O 457.087 -8.73148 1.23936 0
M  V30 2586 O 456.547 -7.66872 -0.971405 0
M  V30 2587 C 455.607 -7.42309 -2.04641 0
M  V30 2588 C 456.337 -6.86059 -3.24661 0
M  V30 2589 O 456.547 -5.42847 -3.03646 0
M  V30 2590 C 457.737 -7.41196 -3.50753 0
M  V30 2591 O 458.127 -7.27073 -4.86816 0
M  V30 2592 C 458.617 -6.5273 -2.63741 0
M  V30 2593 C 457.907 -5.1842 -2.73198 0
M  V30 2594 N 457.957 -4.38762 -1.4784 0
M  V30 2595 C 457.877 -4.81605 -0.168631 0
M  V30 2596 N 457.957 -3.85454 0.713363 0
M  V30 2597 C 458.097 -2.6994 -0.0566958 0
M  V30 2598 C 458.227 -1.34815 0.338502 0
M  V30 2599 N 458.347 -0.496304 -0.77465 0
M  V30 2600 C 458.347 -0.908403 -2.09122 0
M  V30 2601 N 458.477 0.0517805 -3.00955 0
M  V30 2602 N 458.217 -2.17875 -2.46519 0
M  V30 2603 C 458.097 -3.01988 -1.4033 0
M  V30 2604 H 455.118 -8.36803 -2.32493 0
M  V30 2605 H 454.848 -6.70197 -1.71129 0
M  V30 2606 H 455.715 -7.03551 -4.13168 0
M  V30 2607 P 459.677 -7.20834 -5.23717 0
M  V30 2608 O 459.897 -7.7993 -6.57351 0
M  V30 2609 O 460.467 -7.79328 -4.13004 0
M  V30 2610 O 459.927 -5.63315 -5.29344 0
M  V30 2611 C 458.987 -4.80193 -6.01798 0
M  V30 2612 C 459.717 -3.64202 -6.65911 0
M  V30 2613 O 459.927 -2.60694 -5.64732 0
M  V30 2614 C 461.117 -3.93473 -7.1943 0
M  V30 2615 O 461.507 -3.02071 -8.21205 0
M  V30 2616 C 461.997 -3.73047 -5.97036 0
M  V30 2617 C 461.287 -2.58828 -5.25741 0
M  V30 2618 N 461.337 -2.6801 -3.77422 0
M  V30 2619 C 461.487 -1.50443 -3.07133 0
M  V30 2620 O 461.577 -0.419406 -3.61576 0
M  V30 2621 N 461.527 -1.6403 -1.69677 0
M  V30 2622 C 461.437 -2.81206 -0.986255 0
M  V30 2623 O 461.487 -2.80892 0.249754 0
M  V30 2624 C 461.287 -3.99158 -1.80325 0
M  V30 2625 C 461.177 -5.29309 -1.06921 0
M  V30 2626 C 461.237 -3.89779 -3.1476 0
M  V30 2627 H 458.497 -5.40332 -6.79951 0
M  V30 2628 H 458.228 -4.41549 -5.32301 0
M  V30 2629 H 459.095 -3.26331 -7.47797 0
M  V30 2630 H 461.75 -1.6395 -5.56554 0
M  V30 2631 H 462.029 -4.63439 -5.3432 0
M  V30 2632 H 463.021 -3.44728 -6.25838 0
M  V30 2633 H 461.187 -4.96652 -7.57263 0
M  V30 2634 H 461.116 -4.80159 -3.74441 0
M  V30 2635 H 462.146 -5.81459 -1.09608 0
M  V30 2636 H 460.409 -5.9187 -1.54487 0
M  V30 2637 H 460.897 -5.10095 -0.0220288 0
M  V30 2638 H 461.633 -0.798962 -1.16664 0
M  V30 2639 P 463.057 -2.75334 -8.47391 0
M  V30 2640 O 463.277 -2.44571 -9.90142 0
M  V30 2641 O 463.847 -3.87688 -7.92115 0
M  V30 2642 O 463.307 -1.4459 -7.59357 0
M  V30 2643 C 462.367 -0.347608 -7.69215 0
M  V30 2644 C 463.097 0.96767 -7.52806 0
M  V30 2645 O 463.307 1.21036 -6.1011 0
M  V30 2646 C 464.497 1.04544 -8.13308 0
M  V30 2647 O 464.887 2.38311 -8.41922 0
M  V30 2648 C 465.377 0.491279 -7.02284 0
M  V30 2649 C 464.667 0.996264 -5.77469 0
M  V30 2650 N 464.717 0.0501916 -4.62973 0
M  V30 2651 H 461.878 -0.374722 -8.67691 0
M  V30 2652 H 461.608 -0.443485 -6.90277 0
M  V30 2653 H 462.475 1.75537 -7.96793 0
M  V30 2654 P 466.437 2.75334 -8.47391 0
M  V30 2655 O 466.657 3.84128 -9.44797 0
M  V30 2656 O 467.227 1.51947 -8.68712 0
M  V30 2657 O 466.687 3.29363 -6.99321 0
M  V30 2658 C 465.747 4.24011 -6.4274 0
M  V30 2659 C 466.477 5.20775 -5.52155 0
M  V30 2660 O 466.687 4.56534 -4.22446 0
M  V30 2661 C 467.877 5.62629 -5.96531 0
M  V30 2662 O 468.267 6.87667 -5.41053 0
M  V30 2663 C 468.757 4.52537 -5.39283 0
M  V30 2664 C 468.047 4.20027 -4.08623 0
M  V30 2665 N 468.097 2.76189 -3.71603 0
M  V30 2666 C 468.017 1.64862 -4.52822 0
M  V30 2667 N 468.097 0.512671 -3.88633 0
M  V30 2668 C 468.237 0.888083 -2.54977 0
M  V30 2669 C 468.367 0.094668 -1.38677 0
M  V30 2670 N 468.487 0.890102 -0.232633 0
M  V30 2671 C 468.487 2.26958 -0.21772 0
M  V30 2672 N 468.617 2.84626 0.97925 0
M  V30 2673 N 468.357 3.0178 -1.31033 0
M  V30 2674 C 468.237 2.26781 -2.43843 0
M  V30 2675 H 465.258 4.797 -7.24003 0
M  V30 2676 H 464.988 3.69856 -5.84513 0
M  V30 2677 H 465.855 6.10356 -5.41441 0
M  V30 2678 P 469.817 7.20834 -5.23717 0
M  V30 2679 O 470.037 8.66104 -5.38572 0
M  V30 2680 O 470.607 6.33544 -6.1349 0
M  V30 2681 O 470.067 6.7751 -3.72168 0
M  V30 2682 C 469.127 7.20825 -2.7076 0
M  V30 2683 C 469.857 7.45864 -1.40599 0
M  V30 2684 O 470.067 6.17651 -0.734225 0
M  V30 2685 C 471.257 8.05808 -1.51899 0
M  V30 2686 O 471.647 8.74358 -0.335205 0
M  V30 2687 C 472.137 6.83093 -1.70294 0
M  V30 2688 C 471.427 5.79992 -0.836974 0
M  V30 2689 N 471.477 4.41864 -1.38293 0
M  V30 2690 C 471.397 3.99538 -2.69438 0
M  V30 2691 N 471.477 2.69909 -2.84277 0
M  V30 2692 C 471.617 2.21719 -1.5408 0
M  V30 2693 C 471.747 0.891712 -1.06628 0
M  V30 2694 N 471.867 0.856846 0.334985 0
M  V30 2695 C 471.867 1.9641 1.15789 0
M  V30 2696 N 471.997 1.72708 2.46522 0
M  V30 2697 N 471.737 3.21165 0.713741 0
M  V30 2698 C 471.617 3.26797 -0.639748 0
M  V30 2699 H 468.638 8.13644 -3.0377 0
M  V30 2700 H 468.368 6.42788 -2.55485 0
M  V30 2701 H 469.235 8.12039 -0.792769 0
M  V30 2702 P 473.197 8.91 2.75506e-12 0
M  V30 2703 O 473.417 10.1726 0.733694 0
M  V30 2704 O 473.987 8.73148 -1.23936 0
M  V30 2705 O 473.447 7.66872 0.971405 0
M  V30 2706 C 472.507 7.42309 2.04641 0
M  V30 2707 C 473.237 6.86059 3.24661 0
M  V30 2708 O 473.447 5.42847 3.03646 0
M  V30 2709 C 474.637 7.41196 3.50753 0
M  V30 2710 O 475.027 7.27073 4.86816 0
M  V30 2711 C 475.517 6.5273 2.63741 0
M  V30 2712 C 474.807 5.1842 2.73198 0
M  V30 2713 N 474.857 4.38762 1.4784 0
M  V30 2714 H 472.018 8.36803 2.32493 0
M  V30 2715 H 471.748 6.70197 1.71129 0
M  V30 2716 H 472.615 7.03551 4.13168 0
M  V30 2717 P 476.577 7.20834 5.23717 0
M  V30 2718 O 476.797 7.79853 6.57286 0
M  V30 2719 O 477.367 7.79239 4.12957 0
M  V30 2720 O 476.827 5.63315 5.29344 0
M  V30 2721 C 475.887 4.80255 6.01876 0
M  V30 2722 C 476.617 3.64202 6.65911 0
M  V30 2723 O 476.827 2.60694 5.64732 0
M  V30 2724 C 478.017 3.93473 7.1943 0
M  V30 2725 O 478.407 3.02071 8.21205 0
M  V30 2726 C 478.897 3.73047 5.97036 0
M  V30 2727 C 478.187 2.58828 5.25741 0
M  V30 2728 N 478.237 2.68068 3.77503 0
M  V30 2729 H 475.398 5.40332 6.79951 0
M  V30 2730 H 475.128 4.41613 5.32378 0
M  V30 2731 H 475.995 3.26331 7.47797 0
M  V30 2732 P 479.957 2.75334 8.47391 0
M  V30 2733 O 480.177 2.44571 9.90142 0
M  V30 2734 O 480.747 3.87688 7.92115 0
M  V30 2735 O 480.207 1.4459 7.59357 0
M  V30 2736 C 479.267 0.347608 7.69215 0
M  V30 2737 C 479.997 -0.96767 7.52806 0
M  V30 2738 O 480.207 -1.21036 6.1011 0
M  V30 2739 C 481.397 -1.04544 8.13308 0
M  V30 2740 O 481.787 -2.38311 8.41922 0
M  V30 2741 C 482.277 -0.491279 7.02284 0
M  V30 2742 C 481.567 -0.996264 5.77469 0
M  V30 2743 N 481.617 -0.0501916 4.62973 0
M  V30 2744 H 478.778 0.374722 8.67691 0
M  V30 2745 H 478.508 0.443485 6.90277 0
M  V30 2746 H 479.375 -1.75537 7.96793 0
M  V30 2747 P 483.337 -2.75334 8.47391 0
M  V30 2748 O 483.557 -3.84128 9.44797 0
M  V30 2749 O 484.127 -1.51947 8.68712 0
M  V30 2750 O 483.587 -3.29363 6.99321 0
M  V30 2751 C 482.647 -4.24011 6.4274 0
M  V30 2752 C 483.377 -5.20775 5.52155 0
M  V30 2753 O 483.587 -4.56534 4.22446 0
M  V30 2754 C 484.777 -5.62629 5.96531 0
M  V30 2755 O 485.167 -6.87667 5.41053 0
M  V30 2756 C 485.657 -4.52537 5.39283 0
M  V30 2757 C 484.947 -4.20027 4.08623 0
M  V30 2758 N 484.997 -2.76189 3.71603 0
M  V30 2759 H 482.158 -4.797 7.24003 0
M  V30 2760 H 481.888 -3.69856 5.84513 0
M  V30 2761 H 482.755 -6.10356 5.41441 0
M  V30 2762 P 486.717 -7.20834 5.23717 0
M  V30 2763 O 486.937 -8.66104 5.38572 0
M  V30 2764 O 487.507 -6.33544 6.1349 0
M  V30 2765 O 486.967 -6.7751 3.72168 0
M  V30 2766 C 486.027 -7.20825 2.7076 0
M  V30 2767 C 486.757 -7.45864 1.40599 0
M  V30 2768 O 486.967 -6.17651 0.734225 0
M  V30 2769 C 488.157 -8.05808 1.51899 0
M  V30 2770 O 488.547 -8.74358 0.335205 0
M  V30 2771 C 489.037 -6.83093 1.70294 0
M  V30 2772 C 488.327 -5.79992 0.836974 0
M  V30 2773 N 488.377 -4.41864 1.38293 0
M  V30 2774 C 488.297 -3.99538 2.69438 0
M  V30 2775 N 488.377 -2.69909 2.84277 0
M  V30 2776 C 488.517 -2.21719 1.5408 0
M  V30 2777 C 488.647 -0.891712 1.06628 0
M  V30 2778 O 488.667 0.161298 1.70137 0
M  V30 2779 N 488.767 -0.856846 -0.334985 0
M  V30 2780 C 488.767 -1.9641 -1.15789 0
M  V30 2781 N 488.897 -1.72708 -2.46522 0
M  V30 2782 N 488.637 -3.21165 -0.713741 0
M  V30 2783 C 488.517 -3.26797 0.639748 0
M  V30 2784 H 485.538 -8.13644 3.0377 0
M  V30 2785 H 485.268 -6.42788 2.55485 0
M  V30 2786 H 486.135 -8.12039 0.792769 0
M  V30 2787 H 488.79 -5.80061 -0.166416 0
M  V30 2788 H 489.069 -6.51287 2.75604 0
M  V30 2789 H 490.061 -7.01734 1.34462 0
M  V30 2790 H 488.227 -8.73674 2.38337 0
M  V30 2791 H 488.178 -4.68207 3.53221 0
M  V30 2792 H 488.86 0.0398818 -0.767965 0
M  V30 2793 H 488.897 -2.50995 -3.13503 0
M  V30 2794 H 488.998 -0.759148 -2.80716 0
M  V30 2795 P 490.097 -8.91 -2.91224e-12 0
M  V30 2796 O 490.317 -10.1726 -0.733694 0
M  V30 2797 O 490.887 -8.73148 1.23936 0
M  V30 2798 O 490.347 -7.66872 -0.971405 0
M  V30 2799 C 489.407 -7.42309 -2.04641 0
M  V30 2800 C 490.137 -6.86059 -3.24661 0
M  V30 2801 O 490.347 -5.42847 -3.03646 0
M  V30 2802 C 491.537 -7.41196 -3.50753 0
M  V30 2803 O 491.927 -7.27073 -4.86816 0
M  V30 2804 C 492.417 -6.5273 -2.63741 0
M  V30 2805 C 491.707 -5.1842 -2.73198 0
M  V30 2806 N 491.757 -4.38762 -1.4784 0
M  V30 2807 H 488.918 -8.36803 -2.32493 0
M  V30 2808 H 488.648 -6.70197 -1.71129 0
M  V30 2809 H 489.515 -7.03551 -4.13168 0
M  V30 2810 P 493.477 -7.20834 -5.23717 0
M  V30 2811 O 493.697 -7.80006 -6.57415 0
M  V30 2812 O 494.267 -7.79416 -4.13051 0
M  V30 2813 O 493.727 -5.63315 -5.29344 0
M  V30 2814 C 492.787 -4.80318 -6.01954 0
M  V30 2815 C 493.517 -3.64202 -6.65911 0
M  V30 2816 O 493.727 -2.60736 -5.64823 0
M  V30 2817 C 494.917 -3.93521 -7.19518 0
M  V30 2818 O 495.307 -3.02071 -8.21205 0
M  V30 2819 C 495.797 -3.73047 -5.97036 0
M  V30 2820 C 495.087 -2.58828 -5.25741 0
M  V30 2821 N 495.137 -2.68068 -3.77503 0
M  V30 2822 C 495.057 -3.80474 -2.99159 0
M  V30 2823 N 495.127 -3.55622 -1.71925 0
M  V30 2824 C 495.277 -2.1832 -1.65733 0
M  V30 2825 C 495.407 -1.28842 -0.572777 0
M  V30 2826 N 495.417 -1.66875 0.70098 0
M  V30 2827 N 495.527 0.016788 -0.859836 0
M  V30 2828 C 495.517 0.398145 -2.13316 0
M  V30 2829 N 495.397 -0.328224 -3.22333 0
M  V30 2830 C 495.277 -1.62992 -2.90383 0
M  V30 2831 H 492.299 -5.40394 -6.8003 0
M  V30 2832 H 492.027 -4.41741 -5.32532 0
M  V30 2833 H 492.895 -3.26371 -7.47889 0
M  V30 2834 H 495.55 -1.64007 -5.56746 0
M  V30 2835 H 495.83 -4.63439 -5.3432 0
M  V30 2836 H 496.821 -3.44776 -6.25925 0
M  V30 2837 H 494.987 -4.96707 -7.57347 0
M  V30 2838 H 494.946 -4.8089 -3.39924 0
M  V30 2839 H 495.327 -2.66547 0.941919 0
M  V30 2840 H 495.516 -0.965341 1.44766 0
M  V30 2841 H 495.624 1.46427 -2.29697 0
M  V30 2842 P 496.857 -2.75334 -8.47391 0
M  V30 2843 O 497.077 -2.44571 -9.90142 0
M  V30 2844 O 497.647 -3.87688 -7.92115 0
M  V30 2845 O 497.107 -1.4459 -7.59357 0
M  V30 2846 C 496.167 -0.347608 -7.69215 0
M  V30 2847 C 496.897 0.96767 -7.52806 0
M  V30 2848 O 497.107 1.21036 -6.1011 0
M  V30 2849 C 498.297 1.04544 -8.13308 0
M  V30 2850 O 498.687 2.38311 -8.41922 0
M  V30 2851 C 499.177 0.491279 -7.02284 0
M  V30 2852 C 498.467 0.996264 -5.77469 0
M  V30 2853 N 498.517 0.0501916 -4.62973 0
M  V30 2854 H 495.678 -0.374722 -8.67691 0
M  V30 2855 H 495.408 -0.443485 -6.90277 0
M  V30 2856 H 496.275 1.75537 -7.96793 0
M  V30 2857 P 500.237 2.75334 -8.47391 0
M  V30 2858 O 500.457 3.84128 -9.44797 0
M  V30 2859 O 501.027 1.51947 -8.68712 0
M  V30 2860 O 500.487 3.29363 -6.99321 0
M  V30 2861 C 499.547 4.24011 -6.4274 0
M  V30 2862 C 500.277 5.20775 -5.52155 0
M  V30 2863 O 500.487 4.56534 -4.22446 0
M  V30 2864 C 501.677 5.62629 -5.96531 0
M  V30 2865 O 502.067 6.87667 -5.41053 0
M  V30 2866 C 502.557 4.52537 -5.39283 0
M  V30 2867 C 501.847 4.20027 -4.08623 0
M  V30 2868 N 501.897 2.76189 -3.71603 0
M  V30 2869 H 499.058 4.797 -7.24003 0
M  V30 2870 H 498.788 3.69856 -5.84513 0
M  V30 2871 H 499.655 6.10356 -5.41441 0
M  V30 2872 P 503.617 7.20834 -5.23717 0
M  V30 2873 O 503.837 8.66104 -5.38572 0
M  V30 2874 O 504.407 6.33544 -6.1349 0
M  V30 2875 O 503.867 6.7751 -3.72168 0
M  V30 2876 C 502.927 7.20825 -2.7076 0
M  V30 2877 C 503.657 7.45864 -1.40599 0
M  V30 2878 O 503.867 6.17651 -0.734225 0
M  V30 2879 C 505.057 8.05808 -1.51899 0
M  V30 2880 O 505.447 8.74358 -0.335205 0
M  V30 2881 C 505.937 6.83093 -1.70294 0
M  V30 2882 C 505.227 5.79992 -0.836974 0
M  V30 2883 N 505.277 4.41864 -1.38293 0
M  V30 2884 H 502.438 8.13644 -3.0377 0
M  V30 2885 H 502.168 6.42788 -2.55485 0
M  V30 2886 H 503.035 8.12039 -0.792769 0
M  V30 2887 P 506.997 8.91 3.06942e-12 0
M  V30 2888 O 507.217 10.1726 0.733694 0
M  V30 2889 O 507.787 8.73148 -1.23936 0
M  V30 2890 O 507.247 7.66872 0.971405 0
M  V30 2891 C 506.307 7.42309 2.04641 0
M  V30 2892 C 507.037 6.86059 3.24661 0
M  V30 2893 O 507.247 5.42847 3.03646 0
M  V30 2894 C 508.437 7.41196 3.50753 0
M  V30 2895 O 508.827 7.27073 4.86816 0
M  V30 2896 C 509.317 6.5273 2.63741 0
M  V30 2897 C 508.607 5.1842 2.73198 0
M  V30 2898 N 508.657 4.38762 1.4784 0
M  V30 2899 H 505.818 8.36803 2.32493 0
M  V30 2900 H 505.548 6.70197 1.71129 0
M  V30 2901 H 506.415 7.03551 4.13168 0
M  V30 2902 P 510.377 7.20834 5.23717 0
M  V30 2903 O 510.597 7.79853 6.57286 0
M  V30 2904 O 511.167 7.79239 4.12957 0
M  V30 2905 O 510.627 5.63315 5.29344 0
M  V30 2906 C 509.687 4.80255 6.01876 0
M  V30 2907 C 510.417 3.64202 6.65911 0
M  V30 2908 O 510.627 2.60694 5.64732 0
M  V30 2909 C 511.817 3.93473 7.1943 0
M  V30 2910 O 512.207 3.02071 8.21205 0
M  V30 2911 C 512.697 3.73047 5.97036 0
M  V30 2912 C 511.987 2.58828 5.25741 0
M  V30 2913 N 512.037 2.68068 3.77503 0
M  V30 2914 H 509.198 5.40332 6.79951 0
M  V30 2915 H 508.928 4.41613 5.32378 0
M  V30 2916 H 509.795 3.26331 7.47797 0
M  V30 2917 P 513.757 2.75334 8.47391 0
M  V30 2918 O 513.977 2.44571 9.90142 0
M  V30 2919 O 514.547 3.87688 7.92115 0
M  V30 2920 O 514.007 1.4459 7.59357 0
M  V30 2921 C 513.067 0.347608 7.69215 0
M  V30 2922 C 513.797 -0.96767 7.52806 0
M  V30 2923 O 514.007 -1.21036 6.1011 0
M  V30 2924 C 515.197 -1.04544 8.13308 0
M  V30 2925 O 515.587 -2.38311 8.41922 0
M  V30 2926 C 516.077 -0.491279 7.02284 0
M  V30 2927 C 515.367 -0.996264 5.77469 0
M  V30 2928 N 515.417 -0.0501916 4.62973 0
M  V30 2929 H 512.578 0.374722 8.67691 0
M  V30 2930 H 512.308 0.443485 6.90277 0
M  V30 2931 H 513.175 -1.75537 7.96793 0
M  V30 2932 P 517.137 -2.75334 8.47391 0
M  V30 2933 O 517.357 -3.84128 9.44797 0
M  V30 2934 O 517.927 -1.51947 8.68712 0
M  V30 2935 O 517.387 -3.29363 6.99321 0
M  V30 2936 C 516.447 -4.24011 6.4274 0
M  V30 2937 C 517.177 -5.20775 5.52155 0
M  V30 2938 O 517.387 -4.56534 4.22446 0
M  V30 2939 C 518.577 -5.62629 5.96531 0
M  V30 2940 O 518.967 -6.87667 5.41053 0
M  V30 2941 C 519.457 -4.52537 5.39283 0
M  V30 2942 C 518.747 -4.20027 4.08623 0
M  V30 2943 N 518.797 -2.76189 3.71603 0
M  V30 2944 H 515.958 -4.797 7.24003 0
M  V30 2945 H 515.688 -3.69856 5.84513 0
M  V30 2946 H 516.555 -6.10356 5.41441 0
M  V30 2947 P 520.517 -7.20834 5.23717 0
M  V30 2948 O 520.737 -8.66104 5.38572 0
M  V30 2949 O 521.307 -6.33544 6.1349 0
M  V30 2950 O 520.767 -6.7751 3.72168 0
M  V30 2951 C 519.827 -7.20825 2.7076 0
M  V30 2952 C 520.557 -7.45864 1.40599 0
M  V30 2953 O 520.767 -6.17651 0.734225 0
M  V30 2954 C 521.957 -8.05808 1.51899 0
M  V30 2955 O 522.347 -8.74358 0.335205 0
M  V30 2956 C 522.837 -6.83093 1.70294 0
M  V30 2957 C 522.127 -5.79992 0.836974 0
M  V30 2958 N 522.177 -4.41864 1.38293 0
M  V30 2959 H 519.338 -8.13644 3.0377 0
M  V30 2960 H 519.068 -6.42788 2.55485 0
M  V30 2961 H 519.935 -8.12039 0.792769 0
M  V30 2962 P 523.897 -8.91 -3.22661e-12 0
M  V30 2963 O 524.117 -10.1726 -0.733694 0
M  V30 2964 O 524.687 -8.73148 1.23936 0
M  V30 2965 O 524.147 -7.66872 -0.971405 0
M  V30 2966 C 523.207 -7.42309 -2.04641 0
M  V30 2967 C 523.937 -6.86059 -3.24661 0
M  V30 2968 O 524.147 -5.42847 -3.03646 0
M  V30 2969 C 525.337 -7.41196 -3.50753 0
M  V30 2970 O 525.727 -7.27073 -4.86816 0
M  V30 2971 C 526.217 -6.5273 -2.63741 0
M  V30 2972 C 525.507 -5.1842 -2.73198 0
M  V30 2973 N 525.557 -4.38762 -1.4784 0
M  V30 2974 C 525.477 -4.81605 -0.168631 0
M  V30 2975 N 525.557 -3.85454 0.713363 0
M  V30 2976 C 525.697 -2.6994 -0.0566958 0
M  V30 2977 C 525.827 -1.34815 0.338502 0
M  V30 2978 N 525.947 -0.496304 -0.77465 0
M  V30 2979 C 525.947 -0.908403 -2.09122 0
M  V30 2980 N 526.077 0.0517805 -3.00955 0
M  V30 2981 N 525.817 -2.17875 -2.46519 0
M  V30 2982 C 525.697 -3.01988 -1.4033 0
M  V30 2983 H 522.718 -8.36803 -2.32493 0
M  V30 2984 H 522.448 -6.70197 -1.71129 0
M  V30 2985 H 523.315 -7.03551 -4.13168 0
M  V30 2986 P 527.277 -7.20834 -5.23717 0
M  V30 2987 O 527.497 -7.79853 -6.57286 0
M  V30 2988 O 528.067 -7.79239 -4.12957 0
M  V30 2989 O 527.527 -5.63315 -5.29344 0
M  V30 2990 C 526.587 -4.80255 -6.01876 0
M  V30 2991 C 527.317 -3.64202 -6.65911 0
M  V30 2992 O 527.527 -2.60694 -5.64732 0
M  V30 2993 C 528.717 -3.93473 -7.1943 0
M  V30 2994 O 529.107 -3.02071 -8.21205 0
M  V30 2995 C 529.597 -3.73047 -5.97036 0
M  V30 2996 C 528.887 -2.58828 -5.25741 0
M  V30 2997 N 528.937 -2.68068 -3.77503 0
M  V30 2998 H 526.098 -5.40332 -6.79951 0
M  V30 2999 H 525.828 -4.41613 -5.32378 0
M  V30 3000 H 526.695 -3.26331 -7.47797 0
M  V30 3001 P 530.657 -2.75334 -8.47391 0
M  V30 3002 O 530.877 -2.44595 -9.90239 0
M  V30 3003 O 531.447 -3.87732 -7.92204 0
M  V30 3004 O 530.907 -1.4459 -7.59357 0
M  V30 3005 C 529.967 -0.347563 -7.69115 0
M  V30 3006 C 530.697 0.96767 -7.52806 0
M  V30 3007 O 530.907 1.21036 -6.1011 0
M  V30 3008 C 532.097 1.04544 -8.13308 0
M  V30 3009 O 532.487 2.38311 -8.41922 0
M  V30 3010 C 532.977 0.491279 -7.02284 0
M  V30 3011 C 532.267 0.996264 -5.77469 0
M  V30 3012 N 532.317 0.0501808 -4.62873 0
M  V30 3013 C 532.467 0.588177 -3.36904 0
M  V30 3014 O 532.557 1.78598 -3.17173 0
M  V30 3015 N 532.507 -0.329694 -2.33686 0
M  V30 3016 C 532.417 -1.6953 -2.45079 0
M  V30 3017 O 532.467 -2.41926 -1.44899 0
M  V30 3018 C 532.267 -2.16933 -3.80505 0
M  V30 3019 C 532.157 -3.65373 -3.97621 0
M  V30 3020 C 532.217 -1.30326 -4.83752 0
M  V30 3021 H 529.477 -0.374722 -8.67691 0
M  V30 3022 H 529.208 -0.443421 -6.90177 0
M  V30 3023 H 530.075 1.75537 -7.96793 0
M  V30 3024 H 532.73 1.94496 -5.46629 0
M  V30 3025 H 533.009 -0.608651 -7.04676 0
M  V30 3026 H 534.001 0.889672 -7.08939 0
M  V30 3027 H 532.167 0.43308 -9.04564 0
M  V30 3028 H 532.096 -1.68366 -5.8516 0
M  V30 3029 H 533.126 -4.05985 -4.30448 0
M  V30 3030 H 531.389 -3.88028 -4.72875 0
M  V30 3031 H 531.877 -4.11381 -3.01609 0
M  V30 3032 H 532.613 0.0393617 -1.41345 0
M  V30 3033 P 534.037 2.75334 -8.47391 0
M  V30 3034 O 534.257 3.84128 -9.44797 0
M  V30 3035 O 534.827 1.51947 -8.68712 0
M  V30 3036 O 534.287 3.29363 -6.99321 0
M  V30 3037 C 533.347 4.24011 -6.4274 0
M  V30 3038 C 534.077 5.20775 -5.52155 0
M  V30 3039 O 534.287 4.56534 -4.22446 0
M  V30 3040 C 535.477 5.62629 -5.96531 0
M  V30 3041 O 535.867 6.87667 -5.41053 0
M  V30 3042 C 536.357 4.52537 -5.39283 0
M  V30 3043 C 535.647 4.20027 -4.08623 0
M  V30 3044 N 535.697 2.76189 -3.71603 0
M  V30 3045 C 535.617 1.64862 -4.52822 0
M  V30 3046 N 535.697 0.512671 -3.88633 0
M  V30 3047 C 535.837 0.888083 -2.54977 0
M  V30 3048 C 535.967 0.094668 -1.38677 0
M  V30 3049 N 536.087 0.890102 -0.232633 0
M  V30 3050 C 536.087 2.26958 -0.21772 0
M  V30 3051 N 536.217 2.84626 0.97925 0
M  V30 3052 N 535.957 3.0178 -1.31033 0
M  V30 3053 C 535.837 2.26781 -2.43843 0
M  V30 3054 H 532.858 4.797 -7.24003 0
M  V30 3055 H 532.588 3.69856 -5.84513 0
M  V30 3056 H 533.455 6.10356 -5.41441 0
M  V30 3057 P 537.417 7.20834 -5.23717 0
M  V30 3058 O 537.637 8.66104 -5.38572 0
M  V30 3059 O 538.207 6.33544 -6.1349 0
M  V30 3060 O 537.667 6.7751 -3.72168 0
M  V30 3061 C 536.727 7.20825 -2.7076 0
M  V30 3062 C 537.457 7.45864 -1.40599 0
M  V30 3063 O 537.667 6.17651 -0.734225 0
M  V30 3064 C 538.857 8.05808 -1.51899 0
M  V30 3065 O 539.247 8.74358 -0.335205 0
M  V30 3066 C 539.737 6.83093 -1.70294 0
M  V30 3067 C 539.027 5.79992 -0.836974 0
M  V30 3068 N 539.077 4.41864 -1.38293 0
M  V30 3069 H 536.238 8.13644 -3.0377 0
M  V30 3070 H 535.968 6.42788 -2.55485 0
M  V30 3071 H 536.835 8.12039 -0.792769 0
M  V30 3072 P 540.797 8.91 3.38379e-12 0
M  V30 3073 O 541.017 10.1726 0.733694 0
M  V30 3074 O 541.587 8.73148 -1.23936 0
M  V30 3075 O 541.047 7.66872 0.971405 0
M  V30 3076 C 540.107 7.42309 2.04641 0
M  V30 3077 C 540.837 6.86059 3.24661 0
M  V30 3078 O 541.047 5.42847 3.03646 0
M  V30 3079 C 542.237 7.41196 3.50753 0
M  V30 3080 O 542.627 7.27073 4.86816 0
M  V30 3081 C 543.117 6.5273 2.63741 0
M  V30 3082 C 542.407 5.1842 2.73198 0
M  V30 3083 N 542.457 4.38762 1.4784 0
M  V30 3084 H 539.618 8.36803 2.32493 0
M  V30 3085 H 539.348 6.70197 1.71129 0
M  V30 3086 H 540.215 7.03551 4.13168 0
M  V30 3087 P 544.177 7.20834 5.23717 0
M  V30 3088 O 544.397 7.7993 6.57351 0
M  V30 3089 O 544.967 7.79328 4.13004 0
M  V30 3090 O 544.427 5.63315 5.29344 0
M  V30 3091 C 543.487 4.80193 6.01798 0
M  V30 3092 C 544.217 3.64202 6.65911 0
M  V30 3093 O 544.427 2.60694 5.64732 0
M  V30 3094 C 545.617 3.93473 7.1943 0
M  V30 3095 O 546.007 3.02071 8.21205 0
M  V30 3096 C 546.497 3.73047 5.97036 0
M  V30 3097 C 545.787 2.58828 5.25741 0
M  V30 3098 N 545.837 2.6801 3.77422 0
M  V30 3099 C 545.987 1.50443 3.07133 0
M  V30 3100 O 546.077 0.419406 3.61576 0
M  V30 3101 N 546.027 1.6403 1.69677 0
M  V30 3102 C 545.937 2.81206 0.986255 0
M  V30 3103 O 545.987 2.80892 -0.249754 0
M  V30 3104 C 545.787 3.99158 1.80325 0
M  V30 3105 C 545.677 5.29309 1.06921 0
M  V30 3106 C 545.737 3.89779 3.1476 0
M  V30 3107 H 542.997 5.40332 6.79951 0
M  V30 3108 H 542.728 4.41549 5.32301 0
M  V30 3109 H 543.595 3.26331 7.47797 0
M  V30 3110 H 546.25 1.6395 5.56554 0
M  V30 3111 H 546.529 4.63439 5.3432 0
M  V30 3112 H 547.521 3.44728 6.25838 0
M  V30 3113 H 545.687 4.96652 7.57263 0
M  V30 3114 H 545.616 4.80159 3.74441 0
M  V30 3115 H 546.646 5.81459 1.09608 0
M  V30 3116 H 544.909 5.9187 1.54487 0
M  V30 3117 H 545.397 5.10095 0.0220288 0
M  V30 3118 H 546.133 0.798962 1.16664 0
M  V30 3119 P 547.557 2.75334 8.47391 0
M  V30 3120 O 547.777 2.44571 9.90142 0
M  V30 3121 O 548.347 3.87688 7.92115 0
M  V30 3122 O 547.807 1.4459 7.59357 0
M  V30 3123 C 546.867 0.347608 7.69215 0
M  V30 3124 C 547.597 -0.96767 7.52806 0
M  V30 3125 O 547.807 -1.21036 6.1011 0
M  V30 3126 C 548.997 -1.04544 8.13308 0
M  V30 3127 O 549.387 -2.38311 8.41922 0
M  V30 3128 C 549.877 -0.491279 7.02284 0
M  V30 3129 C 549.167 -0.996264 5.77469 0
M  V30 3130 N 549.217 -0.0501916 4.62973 0
M  V30 3131 C 549.137 1.32786 4.63244 0
M  V30 3132 N 549.217 1.86957 3.44545 0
M  V30 3133 C 549.357 0.780241 2.58481 0
M  V30 3134 C 549.487 0.738536 1.17757 0
M  V30 3135 N 549.607 -0.58337 0.711393 0
M  V30 3136 C 549.607 -1.70816 1.51017 0
M  V30 3137 N 549.737 -2.87826 0.880757 0
M  V30 3138 N 549.477 -1.67126 2.8339 0
M  V30 3139 C 549.357 -0.401421 3.30572 0
M  V30 3140 H 546.378 0.374722 8.67691 0
M  V30 3141 H 546.108 0.443485 6.90277 0
M  V30 3142 H 546.975 -1.75537 7.96793 0
M  V30 3143 P 550.937 -2.75334 8.47391 0
M  V30 3144 O 551.157 -3.84128 9.44797 0
M  V30 3145 O 551.727 -1.51947 8.68712 0
M  V30 3146 O 551.187 -3.29363 6.99321 0
M  V30 3147 C 550.247 -4.24011 6.4274 0
M  V30 3148 C 550.977 -5.20775 5.52155 0
M  V30 3149 O 551.187 -4.56534 4.22446 0
M  V30 3150 C 552.377 -5.62629 5.96531 0
M  V30 3151 O 552.767 -6.87667 5.41053 0
M  V30 3152 C 553.257 -4.52537 5.39283 0
M  V30 3153 C 552.547 -4.20027 4.08623 0
M  V30 3154 N 552.597 -2.76189 3.71603 0
M  V30 3155 H 549.758 -4.797 7.24003 0
M  V30 3156 H 549.488 -3.69856 5.84513 0
M  V30 3157 H 550.355 -6.10356 5.41441 0
M  V30 3158 P 554.317 -7.20834 5.23717 0
M  V30 3159 O 554.537 -8.66189 5.38625 0
M  V30 3160 O 555.107 -6.33615 6.1356 0
M  V30 3161 O 554.567 -6.7751 3.72168 0
M  V30 3162 C 553.627 -7.20732 2.70725 0
M  V30 3163 C 554.357 -7.45864 1.40599 0
M  V30 3164 O 554.567 -6.17651 0.734225 0
M  V30 3165 C 555.757 -8.05808 1.51899 0
M  V30 3166 O 556.147 -8.74358 0.335205 0
M  V30 3167 C 556.637 -6.83093 1.70294 0
M  V30 3168 C 555.927 -5.79992 0.836974 0
M  V30 3169 N 555.977 -4.41769 1.38263 0
M  V30 3170 C 556.127 -3.38591 0.481702 0
M  V30 3171 O 556.217 -3.56839 -0.718452 0
M  V30 3172 N 556.167 -2.1206 1.03569 0
M  V30 3173 C 556.077 -1.80696 2.36966 0
M  V30 3174 O 556.127 -0.630473 2.74862 0
M  V30 3175 C 555.927 -2.94845 3.23898 0
M  V30 3176 C 555.817 -2.65253 4.70362 0
M  V30 3177 C 555.877 -4.19803 2.73435 0
M  V30 3178 H 553.137 -8.13644 3.0377 0
M  V30 3179 H 552.868 -6.42695 2.55448 0
M  V30 3180 H 553.735 -8.12039 0.792769 0
M  V30 3181 H 556.39 -5.79978 -0.160587 0
M  V30 3182 H 556.669 -6.51379 2.75643 0
M  V30 3183 H 557.661 -7.01734 1.34462 0
M  V30 3184 H 555.827 -8.73674 2.38337 0
M  V30 3185 H 555.756 -5.04492 3.4095 0
M  V30 3186 H 556.786 -2.83924 5.1913 0
M  V30 3187 H 555.049 -3.29824 5.15163 0
M  V30 3188 H 555.537 -1.59723 4.84449 0
M  V30 3189 H 556.273 -1.35644 0.399345 0
M  V30 3190 P 557.697 -8.91 -3.54097e-12 0
M  V30 3191 O 557.917 -10.1736 -0.733766 0
M  V30 3192 O 558.487 -8.73247 1.2395 0
M  V30 3193 O 557.947 -7.66872 -0.971405 0
M  V30 3194 C 557.007 -7.42212 -2.04614 0
M  V30 3195 C 557.737 -6.86059 -3.24661 0
M  V30 3196 O 557.947 -5.42847 -3.03646 0
M  V30 3197 C 559.137 -7.41196 -3.50753 0
M  V30 3198 O 559.527 -7.27073 -4.86816 0
M  V30 3199 C 560.017 -6.5273 -2.63741 0
M  V30 3200 C 559.307 -5.1842 -2.73198 0
M  V30 3201 N 559.357 -4.38668 -1.47808 0
M  V30 3202 C 559.507 -3.02239 -1.60048 0
M  V30 3203 O 559.597 -2.46459 -2.67869 0
M  V30 3204 N 559.547 -2.32436 -0.408571 0
M  V30 3205 C 559.457 -2.85471 0.854993 0
M  V30 3206 O 559.507 -2.12566 1.8531 0
M  V30 3207 C 559.307 -4.28918 0.887335 0
M  V30 3208 C 559.197 -4.91066 2.24619 0
M  V30 3209 C 559.257 -5.00349 -0.255399 0
M  V30 3210 H 556.517 -8.36803 -2.32493 0
M  V30 3211 H 556.248 -6.701 -1.71105 0
M  V30 3212 H 557.115 -7.03551 -4.13168 0
M  V30 3213 H 559.77 -4.59773 -3.53894 0
M  V30 3214 H 560.049 -6.88995 -1.59871 0
M  V30 3215 H 561.041 -6.46749 -3.03687 0
M  V30 3216 H 559.207 -8.46908 -3.20714 0
M  V30 3217 H 559.136 -6.08548 -0.206986 0
M  V30 3218 H 560.166 -5.34836 2.53099 0
M  V30 3219 H 558.429 -5.69638 2.2291 0
M  V30 3220 H 558.917 -4.13971 2.98044 0
M  V30 3221 H 559.653 -1.33211 -0.474216 0
M  V30 3222 P 561.077 -7.20834 -5.23717 0
M  V30 3223 O 561.297 -7.79853 -6.57286 0
M  V30 3224 O 561.867 -7.79239 -4.12957 0
M  V30 3225 O 561.327 -5.63315 -5.29344 0
M  V30 3226 C 560.387 -4.80255 -6.01876 0
M  V30 3227 C 561.117 -3.64202 -6.65911 0
M  V30 3228 O 561.327 -2.60694 -5.64732 0
M  V30 3229 C 562.517 -3.93473 -7.1943 0
M  V30 3230 O 562.907 -3.02071 -8.21205 0
M  V30 3231 C 563.397 -3.73047 -5.97036 0
M  V30 3232 C 562.687 -2.58828 -5.25741 0
M  V30 3233 N 562.737 -2.68068 -3.77503 0
M  V30 3234 H 559.898 -5.40332 -6.79951 0
M  V30 3235 H 559.628 -4.41613 -5.32378 0
M  V30 3236 H 560.495 -3.26331 -7.47797 0
M  V30 3237 P 564.457 -2.75334 -8.47391 0
M  V30 3238 O 564.677 -2.44595 -9.90239 0
M  V30 3239 O 565.247 -3.87732 -7.92204 0
M  V30 3240 O 564.707 -1.4459 -7.59357 0
M  V30 3241 C 563.767 -0.347563 -7.69115 0
M  V30 3242 C 564.497 0.96767 -7.52806 0
M  V30 3243 O 564.707 1.21036 -6.1011 0
M  V30 3244 C 565.897 1.04544 -8.13308 0
M  V30 3245 O 566.287 2.38311 -8.41922 0
M  V30 3246 C 566.777 0.491279 -7.02284 0
M  V30 3247 C 566.067 0.996264 -5.77469 0
M  V30 3248 N 566.117 0.0501808 -4.62873 0
M  V30 3249 C 566.267 0.588177 -3.36904 0
M  V30 3250 O 566.357 1.78598 -3.17173 0
M  V30 3251 N 566.307 -0.329694 -2.33686 0
M  V30 3252 C 566.217 -1.6953 -2.45079 0
M  V30 3253 O 566.267 -2.41926 -1.44899 0
M  V30 3254 C 566.067 -2.16933 -3.80505 0
M  V30 3255 C 565.957 -3.65373 -3.97621 0
M  V30 3256 C 566.017 -1.30326 -4.83752 0
M  V30 3257 H 563.277 -0.374722 -8.67691 0
M  V30 3258 H 563.008 -0.443421 -6.90177 0
M  V30 3259 H 563.875 1.75537 -7.96793 0
M  V30 3260 H 566.53 1.94496 -5.46629 0
M  V30 3261 H 566.809 -0.608651 -7.04676 0
M  V30 3262 H 567.801 0.889672 -7.08939 0
M  V30 3263 H 565.967 0.43308 -9.04564 0
M  V30 3264 H 565.896 -1.68366 -5.8516 0
M  V30 3265 H 566.926 -4.05985 -4.30448 0
M  V30 3266 H 565.189 -3.88028 -4.72875 0
M  V30 3267 H 565.677 -4.11381 -3.01609 0
M  V30 3268 H 566.413 0.0393617 -1.41345 0
M  V30 3269 P 567.837 2.75334 -8.47391 0
M  V30 3270 O 568.057 3.84128 -9.44797 0
M  V30 3271 O 568.627 1.51947 -8.68712 0
M  V30 3272 O 568.087 3.29363 -6.99321 0
M  V30 3273 C 567.147 4.24011 -6.4274 0
M  V30 3274 C 567.877 5.20775 -5.52155 0
M  V30 3275 O 568.087 4.56534 -4.22446 0
M  V30 3276 C 569.277 5.62629 -5.96531 0
M  V30 3277 O 569.667 6.87667 -5.41053 0
M  V30 3278 C 570.157 4.52537 -5.39283 0
M  V30 3279 C 569.447 4.20027 -4.08623 0
M  V30 3280 N 569.497 2.76189 -3.71603 0
M  V30 3281 H 566.658 4.797 -7.24003 0
M  V30 3282 H 566.388 3.69856 -5.84513 0
M  V30 3283 H 567.255 6.10356 -5.41441 0
M  V30 3284 P 571.217 7.20834 -5.23717 0
M  V30 3285 O 571.437 8.66274 -5.38678 0
M  V30 3286 O 572.007 6.33687 -6.13629 0
M  V30 3287 O 571.467 6.7751 -3.72168 0
M  V30 3288 C 570.527 7.20919 -2.70795 0
M  V30 3289 C 571.257 7.45864 -1.40599 0
M  V30 3290 O 571.467 6.17751 -0.734343 0
M  V30 3291 C 572.657 8.05906 -1.51917 0
M  V30 3292 O 573.047 8.74358 -0.335205 0
M  V30 3293 C 573.537 6.83093 -1.70294 0
M  V30 3294 C 572.827 5.79992 -0.836974 0
M  V30 3295 N 572.877 4.41864 -1.38293 0
M  V30 3296 H 570.039 8.13738 -3.03804 0
M  V30 3297 H 569.767 6.42974 -2.55559 0
M  V30 3298 H 570.635 8.12139 -0.792866 0
M  V30 3299 H 573.29 5.80178 0.160643 0
M  V30 3300 H 573.57 6.51379 -2.75643 0
M  V30 3301 H 574.561 7.01832 -1.3448 0
M  V30 3302 H 572.727 8.73771 -2.38364 0
M  V30 3303 P 574.597 8.91 3.69815e-12 0
M  V30 3304 O 574.817 10.1726 0.733694 0
M  V30 3305 O 575.387 8.73148 -1.23936 0
M  V30 3306 O 574.847 7.66872 0.971405 0
M  V30 3307 C 573.907 7.42309 2.04641 0
M  V30 3308 C 574.637 6.86059 3.24661 0
M  V30 3309 O 574.847 5.42847 3.03646 0
M  V30 3310 C 576.037 7.41196 3.50753 0
M  V30 3311 O 576.427 7.27073 4.86816 0
M  V30 3312 C 576.917 6.5273 2.63741 0
M  V30 3313 C 576.207 5.1842 2.73198 0
M  V30 3314 N 576.257 4.38762 1.4784 0
M  V30 3315 H 573.418 8.36803 2.32493 0
M  V30 3316 H 573.148 6.70197 1.71129 0
M  V30 3317 H 574.015 7.03551 4.13168 0
M  V30 3318 P 577.977 7.20834 5.23717 0
M  V30 3319 O 578.197 7.80006 6.57415 0
M  V30 3320 O 578.767 7.79416 4.13051 0
M  V30 3321 O 578.227 5.63315 5.29344 0
M  V30 3322 C 577.287 4.80318 6.01954 0
M  V30 3323 C 578.017 3.64202 6.65911 0
M  V30 3324 O 578.227 2.60736 5.64823 0
M  V30 3325 C 579.417 3.93521 7.19518 0
M  V30 3326 O 579.807 3.02071 8.21205 0
M  V30 3327 C 580.297 3.73047 5.97036 0
M  V30 3328 C 579.587 2.58828 5.25741 0
M  V30 3329 N 579.637 2.68068 3.77503 0
M  V30 3330 C 579.557 3.80474 2.99159 0
M  V30 3331 N 579.627 3.55622 1.71925 0
M  V30 3332 C 579.777 2.1832 1.65733 0
M  V30 3333 C 579.907 1.28842 0.572777 0
M  V30 3334 N 579.917 1.66875 -0.70098 0
M  V30 3335 N 580.027 -0.016788 0.859836 0
M  V30 3336 C 580.017 -0.398145 2.13316 0
M  V30 3337 N 579.897 0.328224 3.22333 0
M  V30 3338 C 579.777 1.62992 2.90383 0
M  V30 3339 H 576.799 5.40394 6.8003 0
M  V30 3340 H 576.527 4.41741 5.32532 0
M  V30 3341 H 577.395 3.26371 7.47889 0
M  V30 3342 H 580.05 1.64007 5.56746 0
M  V30 3343 H 580.33 4.63439 5.3432 0
M  V30 3344 H 581.321 3.44776 6.25925 0
M  V30 3345 H 579.487 4.96707 7.57347 0
M  V30 3346 H 579.446 4.8089 3.39924 0
M  V30 3347 H 579.827 2.66547 -0.941919 0
M  V30 3348 H 580.016 0.965341 -1.44766 0
M  V30 3349 H 580.124 -1.46427 2.29697 0
M  V30 3350 P 581.357 2.75334 8.47391 0
M  V30 3351 O 581.577 2.44571 9.90142 0
M  V30 3352 O 582.147 3.87688 7.92115 0
M  V30 3353 O 581.607 1.4459 7.59357 0
M  V30 3354 C 580.667 0.347608 7.69215 0
M  V30 3355 C 581.397 -0.96767 7.52806 0
M  V30 3356 O 581.607 -1.21036 6.1011 0
M  V30 3357 C 582.797 -1.04544 8.13308 0
M  V30 3358 O 583.187 -2.38311 8.41922 0
M  V30 3359 C 583.677 -0.491279 7.02284 0
M  V30 3360 C 582.967 -0.996264 5.77469 0
M  V30 3361 N 583.017 -0.0501916 4.62973 0
M  V30 3362 H 580.178 0.374722 8.67691 0
M  V30 3363 H 579.908 0.443485 6.90277 0
M  V30 3364 H 580.775 -1.75537 7.96793 0
M  V30 3365 P 584.737 -2.75334 8.47391 0
M  V30 3366 O 584.957 -3.84128 9.44797 0
M  V30 3367 O 585.527 -1.51947 8.68712 0
M  V30 3368 O 584.987 -3.29363 6.99321 0
M  V30 3369 C 584.047 -4.24011 6.4274 0
M  V30 3370 C 584.777 -5.20775 5.52155 0
M  V30 3371 O 584.987 -4.56534 4.22446 0
M  V30 3372 C 586.177 -5.62629 5.96531 0
M  V30 3373 O 586.567 -6.87667 5.41053 0
M  V30 3374 C 587.057 -4.52537 5.39283 0
M  V30 3375 C 586.347 -4.20027 4.08623 0
M  V30 3376 N 586.397 -2.76189 3.71603 0
M  V30 3377 C 586.317 -1.64862 4.52822 0
M  V30 3378 N 586.397 -0.512671 3.88633 0
M  V30 3379 C 586.537 -0.888083 2.54977 0
M  V30 3380 C 586.667 -0.094668 1.38677 0
M  V30 3381 O 586.687 1.13053 1.28163 0
M  V30 3382 N 586.787 -0.890102 0.232633 0
M  V30 3383 C 586.787 -2.26958 0.21772 0
M  V30 3384 N 586.917 -2.84626 -0.97925 0
M  V30 3385 N 586.657 -3.0178 1.31033 0
M  V30 3386 C 586.537 -2.26781 2.43843 0
M  V30 3387 H 583.558 -4.797 7.24003 0
M  V30 3388 H 583.288 -3.69856 5.84513 0
M  V30 3389 H 584.155 -6.10356 5.41441 0
M  V30 3390 H 586.81 -4.79061 3.27488 0
M  V30 3391 H 587.089 -3.64906 6.05785 0
M  V30 3392 H 588.081 -4.8868 5.2125 0
M  V30 3393 H 586.247 -5.66726 7.06352 0
M  V30 3394 H 586.198 -1.71169 5.60966 0
M  V30 3395 H 586.88 -0.419134 -0.644739 0
M  V30 3396 H 586.917 -3.87332 -1.06098 0
M  V30 3397 H 587.018 -2.26417 -1.82483 0
M  V30 3398 P 588.117 -7.20834 5.23717 0
M  V30 3399 O 588.337 -8.66104 5.38572 0
M  V30 3400 O 588.907 -6.33544 6.1349 0
M  V30 3401 O 588.367 -6.7751 3.72168 0
M  V30 3402 C 587.427 -7.20825 2.7076 0
M  V30 3403 C 588.157 -7.45864 1.40599 0
M  V30 3404 O 588.367 -6.17651 0.734225 0
M  V30 3405 C 589.557 -8.05808 1.51899 0
M  V30 3406 O 589.947 -8.74358 0.335205 0
M  V30 3407 C 590.437 -6.83093 1.70294 0
M  V30 3408 C 589.727 -5.79992 0.836974 0
M  V30 3409 N 589.777 -4.41864 1.38293 0
M  V30 3410 H 586.938 -8.13644 3.0377 0
M  V30 3411 H 586.668 -6.42788 2.55485 0
M  V30 3412 H 587.535 -8.12039 0.792769 0
M  V30 3413 P 591.496 -8.91 -3.85533e-12 0
M  V30 3414 O 591.716 -10.1746 -0.733838 0
M  V30 3415 O 592.286 -8.73346 1.23964 0
M  V30 3416 O 591.746 -7.66872 -0.971405 0
M  V30 3417 C 590.806 -7.42405 -2.04668 0
M  V30 3418 C 591.536 -6.86059 -3.24661 0
M  V30 3419 O 591.746 -5.42934 -3.03695 0
M  V30 3420 C 592.937 -7.41287 -3.50796 0
M  V30 3421 O 593.327 -7.27073 -4.86816 0
M  V30 3422 C 593.817 -6.5273 -2.63741 0
M  V30 3423 C 593.106 -5.1842 -2.73198 0
M  V30 3424 N 593.156 -4.38762 -1.4784 0
M  V30 3425 C 593.077 -4.83651 -0.183876 0
M  V30 3426 N 593.146 -3.88759 0.699393 0
M  V30 3427 C 593.296 -2.7404 -0.0575568 0
M  V30 3428 C 593.426 -1.37902 0.293928 0
M  V30 3429 N 593.437 -0.938021 1.54797 0
M  V30 3430 N 593.546 -0.491817 -0.70549 0
M  V30 3431 C 593.536 -0.931735 -1.95979 0
M  V30 3432 N 593.416 -2.16017 -2.41481 0
M  V30 3433 C 593.296 -3.02547 -1.39121 0
M  V30 3434 H 590.318 -8.36899 -2.3252 0
M  V30 3435 H 590.046 -6.70391 -1.71179 0
M  V30 3436 H 590.914 -7.03638 -4.13219 0
M  V30 3437 H 593.569 -4.59931 -3.54016 0
M  V30 3438 H 593.849 -6.88995 -1.59871 0
M  V30 3439 H 594.841 -6.4684 -3.0373 0
M  V30 3440 H 593.006 -8.47002 -3.20749 0
M  V30 3441 H 592.966 -5.8885 0.0765548 0
M  V30 3442 H 593.346 -1.60276 2.32875 0
M  V30 3443 H 593.535 0.0699355 1.73859 0
M  V30 3444 H 593.644 -0.165507 -2.71897 0
M  V30 3445 P 594.876 -7.20834 -5.23717 0
M  V30 3446 O 595.096 -7.79853 -6.57286 0
M  V30 3447 O 595.666 -7.79239 -4.12957 0
M  V30 3448 O 595.126 -5.63315 -5.29344 0
M  V30 3449 C 594.186 -4.80255 -6.01876 0
M  V30 3450 C 594.916 -3.64202 -6.65911 0
M  V30 3451 O 595.126 -2.60694 -5.64732 0
M  V30 3452 C 596.316 -3.93473 -7.1943 0
M  V30 3453 O 596.706 -3.02071 -8.21205 0
M  V30 3454 C 597.196 -3.73047 -5.97036 0
M  V30 3455 C 596.486 -2.58828 -5.25741 0
M  V30 3456 N 596.536 -2.68068 -3.77503 0
M  V30 3457 H 593.697 -5.40332 -6.79951 0
M  V30 3458 H 593.427 -4.41613 -5.32378 0
M  V30 3459 H 594.294 -3.26331 -7.47797 0
M  V30 3460 P 598.256 -2.75334 -8.47391 0
M  V30 3461 O 598.476 -2.44571 -9.90142 0
M  V30 3462 O 599.046 -3.87688 -7.92115 0
M  V30 3463 O 598.506 -1.4459 -7.59357 0
M  V30 3464 C 597.566 -0.347608 -7.69215 0
M  V30 3465 C 598.296 0.96767 -7.52806 0
M  V30 3466 O 598.506 1.21036 -6.1011 0
M  V30 3467 C 599.696 1.04544 -8.13308 0
M  V30 3468 O 600.086 2.38311 -8.41922 0
M  V30 3469 C 600.576 0.491279 -7.02284 0
M  V30 3470 C 599.866 0.996264 -5.77469 0
M  V30 3471 N 599.916 0.0501916 -4.62973 0
M  V30 3472 C 599.836 -1.32786 -4.63244 0
M  V30 3473 N 599.916 -1.86957 -3.44545 0
M  V30 3474 C 600.056 -0.780241 -2.58481 0
M  V30 3475 C 600.186 -0.738536 -1.17757 0
M  V30 3476 N 600.306 0.58337 -0.711393 0
M  V30 3477 C 600.306 1.70816 -1.51017 0
M  V30 3478 N 600.436 2.87826 -0.880757 0
M  V30 3479 N 600.176 1.67126 -2.8339 0
M  V30 3480 C 600.056 0.401421 -3.30572 0
M  V30 3481 H 597.077 -0.374722 -8.67691 0
M  V30 3482 H 596.807 -0.443485 -6.90277 0
M  V30 3483 H 597.674 1.75537 -7.96793 0
M  V30 3484 P 601.636 2.75334 -8.47391 0
M  V30 3485 O 601.856 3.84128 -9.44797 0
M  V30 3486 O 602.426 1.51947 -8.68712 0
M  V30 3487 O 601.886 3.29363 -6.99321 0
M  V30 3488 C 600.946 4.24011 -6.4274 0
M  V30 3489 C 601.676 5.20775 -5.52155 0
M  V30 3490 O 601.886 4.56534 -4.22446 0
M  V30 3491 C 603.076 5.62629 -5.96531 0
M  V30 3492 O 603.466 6.87667 -5.41053 0
M  V30 3493 C 603.956 4.52537 -5.39283 0
M  V30 3494 C 603.246 4.20027 -4.08623 0
M  V30 3495 N 603.296 2.76189 -3.71603 0
M  V30 3496 H 600.457 4.797 -7.24003 0
M  V30 3497 H 600.187 3.69856 -5.84513 0
M  V30 3498 H 601.054 6.10356 -5.41441 0
M  V30 3499 P 605.016 7.20834 -5.23717 0
M  V30 3500 O 605.236 8.66104 -5.38572 0
M  V30 3501 O 605.806 6.33544 -6.1349 0
M  V30 3502 O 605.266 6.7751 -3.72168 0
M  V30 3503 C 604.326 7.20825 -2.7076 0
M  V30 3504 C 605.056 7.45864 -1.40599 0
M  V30 3505 O 605.266 6.17651 -0.734225 0
M  V30 3506 C 606.456 8.05808 -1.51899 0
M  V30 3507 O 606.846 8.74358 -0.335205 0
M  V30 3508 C 607.336 6.83093 -1.70294 0
M  V30 3509 C 606.626 5.79992 -0.836974 0
M  V30 3510 N 606.676 4.41864 -1.38293 0
M  V30 3511 H 603.837 8.13644 -3.0377 0
M  V30 3512 H 603.567 6.42788 -2.55485 0
M  V30 3513 H 604.434 8.12039 -0.792769 0
M  V30 3514 P 608.396 8.91 4.01252e-12 0
M  V30 3515 O 608.616 10.1726 0.733694 0
M  V30 3516 O 609.186 8.73148 -1.23936 0
M  V30 3517 O 608.646 7.66872 0.971405 0
M  V30 3518 C 607.706 7.42309 2.04641 0
M  V30 3519 C 608.436 6.86059 3.24661 0
M  V30 3520 O 608.646 5.42847 3.03646 0
M  V30 3521 C 609.836 7.41196 3.50753 0
M  V30 3522 O 610.226 7.27073 4.86816 0
M  V30 3523 C 610.716 6.5273 2.63741 0
M  V30 3524 C 610.006 5.1842 2.73198 0
M  V30 3525 N 610.056 4.38762 1.4784 0
M  V30 3526 H 607.217 8.36803 2.32493 0
M  V30 3527 H 606.947 6.70197 1.71129 0
M  V30 3528 H 607.814 7.03551 4.13168 0
M  V30 3529 P 611.776 7.20834 5.23717 0
M  V30 3530 O 611.996 7.79853 6.57286 0
M  V30 3531 O 612.566 7.79239 4.12957 0
M  V30 3532 O 612.026 5.63315 5.29344 0
M  V30 3533 C 611.086 4.80255 6.01876 0
M  V30 3534 C 611.816 3.64202 6.65911 0
M  V30 3535 O 612.026 2.60694 5.64732 0
M  V30 3536 C 613.216 3.93473 7.1943 0
M  V30 3537 O 613.606 3.02071 8.21205 0
M  V30 3538 C 614.096 3.73047 5.97036 0
M  V30 3539 C 613.386 2.58828 5.25741 0
M  V30 3540 N 613.436 2.68068 3.77503 0
M  V30 3541 H 610.597 5.40332 6.79951 0
M  V30 3542 H 610.327 4.41613 5.32378 0
M  V30 3543 H 611.194 3.26331 7.47797 0
M  V30 3544 P 615.156 2.75334 8.47391 0
M  V30 3545 O 615.376 2.44571 9.90142 0
M  V30 3546 O 615.946 3.87688 7.92115 0
M  V30 3547 O 615.406 1.4459 7.59357 0
M  V30 3548 C 614.466 0.347608 7.69215 0
M  V30 3549 C 615.196 -0.96767 7.52806 0
M  V30 3550 O 615.406 -1.21036 6.1011 0
M  V30 3551 C 616.596 -1.04544 8.13308 0
M  V30 3552 O 616.986 -2.38311 8.41922 0
M  V30 3553 C 617.476 -0.491279 7.02284 0
M  V30 3554 C 616.766 -0.996264 5.77469 0
M  V30 3555 N 616.816 -0.0501916 4.62973 0
M  V30 3556 H 613.977 0.374722 8.67691 0
M  V30 3557 H 613.707 0.443485 6.90277 0
M  V30 3558 H 614.574 -1.75537 7.96793 0
M  V30 3559 P 618.536 -2.75334 8.47391 0
M  V30 3560 O 618.756 -3.84128 9.44797 0
M  V30 3561 O 619.326 -1.51947 8.68712 0
M  V30 3562 O 618.786 -3.29363 6.99321 0
M  V30 3563 C 617.846 -4.24011 6.4274 0
M  V30 3564 C 618.576 -5.20775 5.52155 0
M  V30 3565 O 618.786 -4.56534 4.22446 0
M  V30 3566 C 619.976 -5.62629 5.96531 0
M  V30 3567 O 620.366 -6.87667 5.41053 0
M  V30 3568 C 620.856 -4.52537 5.39283 0
M  V30 3569 C 620.146 -4.20027 4.08623 0
M  V30 3570 N 620.196 -2.76189 3.71603 0
M  V30 3571 H 617.357 -4.797 7.24003 0
M  V30 3572 H 617.087 -3.69856 5.84513 0
M  V30 3573 H 617.954 -6.10356 5.41441 0
M  V30 3574 P 621.916 -7.20834 5.23717 0
M  V30 3575 O 622.136 -8.66104 5.38572 0
M  V30 3576 O 622.706 -6.33544 6.1349 0
M  V30 3577 O 622.166 -6.7751 3.72168 0
M  V30 3578 C 621.226 -7.20825 2.7076 0
M  V30 3579 C 621.956 -7.45864 1.40599 0
M  V30 3580 O 622.166 -6.17651 0.734225 0
M  V30 3581 C 623.356 -8.05808 1.51899 0
M  V30 3582 O 623.746 -8.74358 0.335205 0
M  V30 3583 C 624.236 -6.83093 1.70294 0
M  V30 3584 C 623.526 -5.79992 0.836974 0
M  V30 3585 N 623.576 -4.41864 1.38293 0
M  V30 3586 H 620.737 -8.13644 3.0377 0
M  V30 3587 H 620.467 -6.42788 2.55485 0
M  V30 3588 H 621.334 -8.12039 0.792769 0
M  V30 3589 P 625.296 -8.91 -4.1697e-12 0
M  V30 3590 O 625.516 -10.1726 -0.733694 0
M  V30 3591 O 626.086 -8.73148 1.23936 0
M  V30 3592 O 625.546 -7.66872 -0.971405 0
M  V30 3593 C 624.606 -7.42309 -2.04641 0
M  V30 3594 C 625.336 -6.86059 -3.24661 0
M  V30 3595 O 625.546 -5.42847 -3.03646 0
M  V30 3596 C 626.736 -7.41196 -3.50753 0
M  V30 3597 O 627.126 -7.27073 -4.86816 0
M  V30 3598 C 627.616 -6.5273 -2.63741 0
M  V30 3599 C 626.906 -5.1842 -2.73198 0
M  V30 3600 N 626.956 -4.38762 -1.4784 0
M  V30 3601 C 626.876 -4.81605 -0.168631 0
M  V30 3602 N 626.956 -3.85454 0.713363 0
M  V30 3603 C 627.096 -2.6994 -0.0566958 0
M  V30 3604 C 627.226 -1.34815 0.338502 0
M  V30 3605 N 627.346 -0.496304 -0.77465 0
M  V30 3606 C 627.346 -0.908403 -2.09122 0
M  V30 3607 N 627.476 0.0517805 -3.00955 0
M  V30 3608 N 627.216 -2.17875 -2.46519 0
M  V30 3609 C 627.096 -3.01988 -1.4033 0
M  V30 3610 H 624.117 -8.36803 -2.32493 0
M  V30 3611 H 623.847 -6.70197 -1.71129 0
M  V30 3612 H 624.714 -7.03551 -4.13168 0
M  V30 3613 P 628.676 -7.20834 -5.23717 0
M  V30 3614 O 628.896 -7.80006 -6.57415 0
M  V30 3615 O 629.466 -7.79416 -4.13051 0
M  V30 3616 O 628.926 -5.63315 -5.29344 0
M  V30 3617 C 627.986 -4.80318 -6.01954 0
M  V30 3618 C 628.716 -3.64202 -6.65911 0
M  V30 3619 O 628.926 -2.60736 -5.64823 0
M  V30 3620 C 630.116 -3.93521 -7.19518 0
M  V30 3621 O 630.506 -3.02071 -8.21205 0
M  V30 3622 C 630.996 -3.73047 -5.97036 0
M  V30 3623 C 630.286 -2.58828 -5.25741 0
M  V30 3624 N 630.336 -2.68068 -3.77503 0
M  V30 3625 C 630.256 -3.80474 -2.99159 0
M  V30 3626 N 630.326 -3.55622 -1.71925 0
M  V30 3627 C 630.476 -2.1832 -1.65733 0
M  V30 3628 C 630.606 -1.28842 -0.572777 0
M  V30 3629 N 630.616 -1.66875 0.70098 0
M  V30 3630 N 630.726 0.016788 -0.859836 0
M  V30 3631 C 630.716 0.398145 -2.13316 0
M  V30 3632 N 630.596 -0.328224 -3.22333 0
M  V30 3633 C 630.476 -1.62992 -2.90383 0
M  V30 3634 H 627.498 -5.40394 -6.8003 0
M  V30 3635 H 627.226 -4.41741 -5.32532 0
M  V30 3636 H 628.094 -3.26371 -7.47889 0
M  V30 3637 H 630.749 -1.64007 -5.56746 0
M  V30 3638 H 631.029 -4.63439 -5.3432 0
M  V30 3639 H 632.02 -3.44776 -6.25925 0
M  V30 3640 H 630.186 -4.96707 -7.57347 0
M  V30 3641 H 630.145 -4.8089 -3.39924 0
M  V30 3642 H 630.526 -2.66547 0.941919 0
M  V30 3643 H 630.715 -0.965341 1.44766 0
M  V30 3644 H 630.823 1.46427 -2.29697 0
M  V30 3645 P 632.056 -2.75334 -8.47391 0
M  V30 3646 O 632.276 -2.44571 -9.90142 0
M  V30 3647 O 632.846 -3.87688 -7.92115 0
M  V30 3648 O 632.306 -1.4459 -7.59357 0
M  V30 3649 C 631.366 -0.347608 -7.69215 0
M  V30 3650 C 632.096 0.96767 -7.52806 0
M  V30 3651 O 632.306 1.21036 -6.1011 0
M  V30 3652 C 633.496 1.04544 -8.13308 0
M  V30 3653 O 633.886 2.38311 -8.41922 0
M  V30 3654 C 634.376 0.491279 -7.02284 0
M  V30 3655 C 633.666 0.996264 -5.77469 0
M  V30 3656 N 633.716 0.0501916 -4.62973 0
M  V30 3657 H 630.877 -0.374722 -8.67691 0
M  V30 3658 H 630.607 -0.443485 -6.90277 0
M  V30 3659 H 631.474 1.75537 -7.96793 0
M  V30 3660 P 635.436 2.75334 -8.47391 0
M  V30 3661 O 635.656 3.84128 -9.44797 0
M  V30 3662 O 636.226 1.51947 -8.68712 0
M  V30 3663 O 635.686 3.29363 -6.99321 0
M  V30 3664 C 634.746 4.24011 -6.4274 0
M  V30 3665 C 635.476 5.20775 -5.52155 0
M  V30 3666 O 635.686 4.56534 -4.22446 0
M  V30 3667 C 636.876 5.62629 -5.96531 0
M  V30 3668 O 637.266 6.87667 -5.41053 0
M  V30 3669 C 637.756 4.52537 -5.39283 0
M  V30 3670 C 637.046 4.20027 -4.08623 0
M  V30 3671 N 637.096 2.76189 -3.71603 0
M  V30 3672 H 634.257 4.797 -7.24003 0
M  V30 3673 H 633.987 3.69856 -5.84513 0
M  V30 3674 H 634.854 6.10356 -5.41441 0
M  V30 3675 P 638.816 7.20834 -5.23717 0
M  V30 3676 O 639.036 8.66104 -5.38572 0
M  V30 3677 O 639.606 6.33544 -6.1349 0
M  V30 3678 O 639.066 6.7751 -3.72168 0
M  V30 3679 C 638.126 7.20825 -2.7076 0
M  V30 3680 C 638.856 7.45864 -1.40599 0
M  V30 3681 O 639.066 6.17651 -0.734225 0
M  V30 3682 C 640.256 8.05808 -1.51899 0
M  V30 3683 O 640.646 8.74358 -0.335205 0
M  V30 3684 C 641.136 6.83093 -1.70294 0
M  V30 3685 C 640.426 5.79992 -0.836974 0
M  V30 3686 N 640.476 4.41864 -1.38293 0
M  V30 3687 H 637.637 8.13644 -3.0377 0
M  V30 3688 H 637.367 6.42788 -2.55485 0
M  V30 3689 H 638.234 8.12039 -0.792769 0
M  V30 3690 P 642.196 8.91 4.32688e-12 0
M  V30 3691 O 642.416 10.1726 0.733694 0
M  V30 3692 O 642.986 8.73148 -1.23936 0
M  V30 3693 O 642.446 7.66872 0.971405 0
M  V30 3694 C 641.506 7.42309 2.04641 0
M  V30 3695 C 642.236 6.86059 3.24661 0
M  V30 3696 O 642.446 5.42847 3.03646 0
M  V30 3697 C 643.636 7.41196 3.50753 0
M  V30 3698 O 644.026 7.27073 4.86816 0
M  V30 3699 C 644.516 6.5273 2.63741 0
M  V30 3700 C 643.806 5.1842 2.73198 0
M  V30 3701 N 643.856 4.38762 1.4784 0
M  V30 3702 H 641.017 8.36803 2.32493 0
M  V30 3703 H 640.747 6.70197 1.71129 0
M  V30 3704 H 641.614 7.03551 4.13168 0
M  V30 3705 P 645.576 7.20834 5.23717 0
M  V30 3706 O 645.796 7.79853 6.57286 0
M  V30 3707 O 646.366 7.79239 4.12957 0
M  V30 3708 O 645.826 5.63315 5.29344 0
M  V30 3709 C 644.886 4.80255 6.01876 0
M  V30 3710 C 645.616 3.64202 6.65911 0
M  V30 3711 O 645.826 2.60694 5.64732 0
M  V30 3712 C 647.016 3.93473 7.1943 0
M  V30 3713 O 647.406 3.02071 8.21205 0
M  V30 3714 C 647.896 3.73047 5.97036 0
M  V30 3715 C 647.186 2.58828 5.25741 0
M  V30 3716 N 647.236 2.68068 3.77503 0
M  V30 3717 H 644.397 5.40332 6.79951 0
M  V30 3718 H 644.127 4.41613 5.32378 0
M  V30 3719 H 644.994 3.26331 7.47797 0
M  V30 3720 P 648.956 2.75334 8.47391 0
M  V30 3721 O 649.176 2.44571 9.90142 0
M  V30 3722 O 649.746 3.87688 7.92115 0
M  V30 3723 O 649.206 1.4459 7.59357 0
M  V30 3724 C 648.266 0.347608 7.69215 0
M  V30 3725 C 648.996 -0.96767 7.52806 0
M  V30 3726 O 649.206 -1.21036 6.1011 0
M  V30 3727 C 650.396 -1.04544 8.13308 0
M  V30 3728 O 650.786 -2.38311 8.41922 0
M  V30 3729 C 651.276 -0.491279 7.02284 0
M  V30 3730 C 650.566 -0.996264 5.77469 0
M  V30 3731 N 650.616 -0.0501916 4.62973 0
M  V30 3732 H 647.777 0.374722 8.67691 0
M  V30 3733 H 647.507 0.443485 6.90277 0
M  V30 3734 H 648.374 -1.75537 7.96793 0
M  V30 3735 P 652.336 -2.75334 8.47391 0
M  V30 3736 O 652.556 -3.84128 9.44797 0
M  V30 3737 O 653.126 -1.51947 8.68712 0
M  V30 3738 O 652.586 -3.29363 6.99321 0
M  V30 3739 C 651.646 -4.24011 6.4274 0
M  V30 3740 C 652.376 -5.20775 5.52155 0
M  V30 3741 O 652.586 -4.56534 4.22446 0
M  V30 3742 C 653.776 -5.62629 5.96531 0
M  V30 3743 O 654.166 -6.87667 5.41053 0
M  V30 3744 C 654.656 -4.52537 5.39283 0
M  V30 3745 C 653.946 -4.20027 4.08623 0
M  V30 3746 N 653.996 -2.76189 3.71603 0
M  V30 3747 H 651.157 -4.797 7.24003 0
M  V30 3748 H 650.887 -3.69856 5.84513 0
M  V30 3749 H 651.754 -6.10356 5.41441 0
M  V30 3750 P 655.716 -7.20834 5.23717 0
M  V30 3751 O 655.936 -8.66104 5.38572 0
M  V30 3752 O 656.506 -6.33544 6.1349 0
M  V30 3753 O 655.966 -6.7751 3.72168 0
M  V30 3754 C 655.026 -7.20825 2.7076 0
M  V30 3755 C 655.756 -7.45864 1.40599 0
M  V30 3756 O 655.966 -6.17651 0.734225 0
M  V30 3757 C 657.156 -8.05808 1.51899 0
M  V30 3758 O 657.546 -8.74358 0.335205 0
M  V30 3759 C 658.036 -6.83093 1.70294 0
M  V30 3760 C 657.326 -5.79992 0.836974 0
M  V30 3761 N 657.376 -4.41864 1.38293 0
M  V30 3762 H 654.537 -8.13644 3.0377 0
M  V30 3763 H 654.267 -6.42788 2.55485 0
M  V30 3764 H 655.134 -8.12039 0.792769 0
M  V30 3765 P 659.096 -8.91 -4.48406e-12 0
M  V30 3766 O 659.316 -10.1726 -0.733694 0
M  V30 3767 O 659.886 -8.73148 1.23936 0
M  V30 3768 O 659.346 -7.66872 -0.971405 0
M  V30 3769 C 658.406 -7.42309 -2.04641 0
M  V30 3770 C 659.136 -6.86059 -3.24661 0
M  V30 3771 O 659.346 -5.42847 -3.03646 0
M  V30 3772 C 660.536 -7.41196 -3.50753 0
M  V30 3773 O 660.926 -7.27073 -4.86816 0
M  V30 3774 C 661.416 -6.5273 -2.63741 0
M  V30 3775 C 660.706 -5.1842 -2.73198 0
M  V30 3776 N 660.756 -4.38762 -1.4784 0
M  V30 3777 H 657.917 -8.36803 -2.32493 0
M  V30 3778 H 657.647 -6.70197 -1.71129 0
M  V30 3779 H 658.514 -7.03551 -4.13168 0
M  V30 3780 P 662.476 -7.20834 -5.23717 0
M  V30 3781 O 662.696 -7.79853 -6.57286 0
M  V30 3782 O 663.266 -7.79239 -4.12957 0
M  V30 3783 O 662.726 -5.63315 -5.29344 0
M  V30 3784 C 661.786 -4.80255 -6.01876 0
M  V30 3785 C 662.516 -3.64202 -6.65911 0
M  V30 3786 O 662.726 -2.60694 -5.64732 0
M  V30 3787 C 663.916 -3.93473 -7.1943 0
M  V30 3788 O 664.306 -3.02071 -8.21205 0
M  V30 3789 C 664.796 -3.73047 -5.97036 0
M  V30 3790 C 664.086 -2.58828 -5.25741 0
M  V30 3791 N 664.136 -2.68068 -3.77503 0
M  V30 3792 H 661.297 -5.40332 -6.79951 0
M  V30 3793 H 661.027 -4.41613 -5.32378 0
M  V30 3794 H 661.894 -3.26331 -7.47797 0
M  V30 3795 P 665.856 -2.75334 -8.47391 0
M  V30 3796 O 666.076 -2.44571 -9.90142 0
M  V30 3797 O 666.646 -3.87688 -7.92115 0
M  V30 3798 O 666.106 -1.4459 -7.59357 0
M  V30 3799 C 665.166 -0.347608 -7.69215 0
M  V30 3800 C 665.896 0.96767 -7.52806 0
M  V30 3801 O 666.106 1.21036 -6.1011 0
M  V30 3802 C 667.296 1.04544 -8.13308 0
M  V30 3803 O 667.686 2.38311 -8.41922 0
M  V30 3804 C 668.176 0.491279 -7.02284 0
M  V30 3805 C 667.466 0.996264 -5.77469 0
M  V30 3806 N 667.516 0.0501916 -4.62973 0
M  V30 3807 H 664.677 -0.374722 -8.67691 0
M  V30 3808 H 664.407 -0.443485 -6.90277 0
M  V30 3809 H 665.274 1.75537 -7.96793 0
M  V30 3810 P 669.236 2.75334 -8.47391 0
M  V30 3811 O 669.456 3.84128 -9.44797 0
M  V30 3812 O 670.026 1.51947 -8.68712 0
M  V30 3813 O 669.486 3.29363 -6.99321 0
M  V30 3814 C 668.546 4.24011 -6.4274 0
M  V30 3815 C 669.276 5.20775 -5.52155 0
M  V30 3816 O 669.486 4.56534 -4.22446 0
M  V30 3817 C 670.676 5.62629 -5.96531 0
M  V30 3818 O 671.066 6.87667 -5.41053 0
M  V30 3819 C 671.556 4.52537 -5.39283 0
M  V30 3820 C 670.846 4.20027 -4.08623 0
M  V30 3821 N 670.896 2.76189 -3.71603 0
M  V30 3822 H 668.057 4.797 -7.24003 0
M  V30 3823 H 667.787 3.69856 -5.84513 0
M  V30 3824 H 668.654 6.10356 -5.41441 0
M  V30 3825 P 672.616 7.20834 -5.23717 0
M  V30 3826 O 672.836 8.66104 -5.38572 0
M  V30 3827 O 673.406 6.33544 -6.1349 0
M  V30 3828 O 672.866 6.7751 -3.72168 0
M  V30 3829 C 671.926 7.20825 -2.7076 0
M  V30 3830 C 672.656 7.45864 -1.40599 0
M  V30 3831 O 672.866 6.17651 -0.734225 0
M  V30 3832 C 674.056 8.05808 -1.51899 0
M  V30 3833 O 674.446 8.74358 -0.335205 0
M  V30 3834 C 674.936 6.83093 -1.70294 0
M  V30 3835 C 674.226 5.79992 -0.836974 0
M  V30 3836 N 674.276 4.41864 -1.38293 0
M  V30 3837 H 671.437 8.13644 -3.0377 0
M  V30 3838 H 671.167 6.42788 -2.55485 0
M  V30 3839 H 672.034 8.12039 -0.792769 0
M  V30 3840 P 675.996 8.91 4.64125e-12 0
M  V30 3841 O 676.216 10.1726 0.733694 0
M  V30 3842 O 676.786 8.73148 -1.23936 0
M  V30 3843 O 676.246 7.66872 0.971405 0
M  V30 3844 C 675.306 7.42309 2.04641 0
M  V30 3845 C 676.036 6.86059 3.24661 0
M  V30 3846 O 676.246 5.42847 3.03646 0
M  V30 3847 C 677.436 7.41196 3.50753 0
M  V30 3848 O 677.826 7.27073 4.86816 0
M  V30 3849 C 678.316 6.5273 2.63741 0
M  V30 3850 C 677.606 5.1842 2.73198 0
M  V30 3851 N 677.656 4.38762 1.4784 0
M  V30 3852 H 674.817 8.36803 2.32493 0
M  V30 3853 H 674.547 6.70197 1.71129 0
M  V30 3854 H 675.414 7.03551 4.13168 0
M  V30 3855 P 679.376 7.20834 5.23717 0
M  V30 3856 O 679.596 7.79853 6.57286 0
M  V30 3857 O 680.166 7.79239 4.12957 0
M  V30 3858 O 679.626 5.63315 5.29344 0
M  V30 3859 C 678.686 4.80255 6.01876 0
M  V30 3860 C 679.416 3.64202 6.65911 0
M  V30 3861 O 679.626 2.60694 5.64732 0
M  V30 3862 C 680.816 3.93473 7.1943 0
M  V30 3863 O 681.206 3.02071 8.21205 0
M  V30 3864 C 681.696 3.73047 5.97036 0
M  V30 3865 C 680.986 2.58828 5.25741 0
M  V30 3866 N 681.036 2.68068 3.77503 0
M  V30 3867 H 678.197 5.40332 6.79951 0
M  V30 3868 H 677.927 4.41613 5.32378 0
M  V30 3869 H 678.794 3.26331 7.47797 0
M  V30 3870 P 682.756 2.75334 8.47391 0
M  V30 3871 O 682.976 2.44571 9.90142 0
M  V30 3872 O 683.546 3.87688 7.92115 0
M  V30 3873 O 683.006 1.4459 7.59357 0
M  V30 3874 C 682.066 0.347608 7.69215 0
M  V30 3875 C 682.796 -0.96767 7.52806 0
M  V30 3876 O 683.006 -1.21036 6.1011 0
M  V30 3877 C 684.196 -1.04544 8.13308 0
M  V30 3878 O 684.586 -2.38311 8.41922 0
M  V30 3879 C 685.076 -0.491279 7.02284 0
M  V30 3880 C 684.366 -0.996264 5.77469 0
M  V30 3881 N 684.416 -0.0501916 4.62973 0
M  V30 3882 H 681.577 0.374722 8.67691 0
M  V30 3883 H 681.307 0.443485 6.90277 0
M  V30 3884 H 682.174 -1.75537 7.96793 0
M  V30 3885 P 686.136 -2.75334 8.47391 0
M  V30 3886 O 686.356 -3.84128 9.44797 0
M  V30 3887 O 686.926 -1.51947 8.68712 0
M  V30 3888 O 686.386 -3.29363 6.99321 0
M  V30 3889 C 685.446 -4.24011 6.4274 0
M  V30 3890 C 686.176 -5.20775 5.52155 0
M  V30 3891 O 686.386 -4.56534 4.22446 0
M  V30 3892 C 687.576 -5.62629 5.96531 0
M  V30 3893 O 687.966 -6.87667 5.41053 0
M  V30 3894 C 688.456 -4.52537 5.39283 0
M  V30 3895 C 687.746 -4.20027 4.08623 0
M  V30 3896 N 687.796 -2.76189 3.71603 0
M  V30 3897 C 687.716 -1.64862 4.52822 0
M  V30 3898 N 687.796 -0.512671 3.88633 0
M  V30 3899 C 687.936 -0.888083 2.54977 0
M  V30 3900 C 688.066 -0.094668 1.38677 0
M  V30 3901 N 688.186 -0.890102 0.232633 0
M  V30 3902 C 688.186 -2.26958 0.21772 0
M  V30 3903 N 688.316 -2.84626 -0.97925 0
M  V30 3904 N 688.056 -3.0178 1.31033 0
M  V30 3905 C 687.936 -2.26781 2.43843 0
M  V30 3906 H 684.957 -4.797 7.24003 0
M  V30 3907 H 684.687 -3.69856 5.84513 0
M  V30 3908 H 685.554 -6.10356 5.41441 0
M  V30 3909 P 689.516 -7.20834 5.23717 0
M  V30 3910 O 689.736 -8.66104 5.38572 0
M  V30 3911 O 690.306 -6.33544 6.1349 0
M  V30 3912 O 689.766 -6.7751 3.72168 0
M  V30 3913 C 688.826 -7.20825 2.7076 0
M  V30 3914 C 689.556 -7.45864 1.40599 0
M  V30 3915 O 689.766 -6.17651 0.734225 0
M  V30 3916 C 690.956 -8.05808 1.51899 0
M  V30 3917 O 691.346 -8.74358 0.335205 0
M  V30 3918 C 691.836 -6.83093 1.70294 0
M  V30 3919 C 691.126 -5.79992 0.836974 0
M  V30 3920 N 691.176 -4.41864 1.38293 0
M  V30 3921 C 691.096 -3.99538 2.69438 0
M  V30 3922 N 691.176 -2.69909 2.84277 0
M  V30 3923 C 691.316 -2.21719 1.5408 0
M  V30 3924 C 691.446 -0.891712 1.06628 0
M  V30 3925 N 691.566 -0.856846 -0.334985 0
M  V30 3926 C 691.566 -1.9641 -1.15789 0
M  V30 3927 N 691.696 -1.72708 -2.46522 0
M  V30 3928 N 691.436 -3.21165 -0.713741 0
M  V30 3929 C 691.316 -3.26797 0.639748 0
M  V30 3930 H 688.337 -8.13644 3.0377 0
M  V30 3931 H 688.067 -6.42788 2.55485 0
M  V30 3932 H 688.934 -8.12039 0.792769 0
M  V30 3933 P 692.896 -8.91 -4.67181e-12 0
M  V30 3934 O 693.116 -10.1726 -0.733694 0
M  V30 3935 O 693.686 -8.73148 1.23936 0
M  V30 3936 O 693.146 -7.66872 -0.971405 0
M  V30 3937 C 692.206 -7.42309 -2.04641 0
M  V30 3938 C 692.936 -6.86059 -3.24661 0
M  V30 3939 O 693.146 -5.42847 -3.03646 0
M  V30 3940 C 694.336 -7.41196 -3.50753 0
M  V30 3941 O 694.726 -7.27073 -4.86816 0
M  V30 3942 C 695.216 -6.5273 -2.63741 0
M  V30 3943 C 694.506 -5.1842 -2.73198 0
M  V30 3944 N 694.556 -4.38762 -1.4784 0
M  V30 3945 C 694.476 -4.81605 -0.168631 0
M  V30 3946 N 694.556 -3.85454 0.713363 0
M  V30 3947 C 694.696 -2.6994 -0.0566958 0
M  V30 3948 C 694.826 -1.34815 0.338502 0
M  V30 3949 N 694.946 -0.496304 -0.77465 0
M  V30 3950 C 694.946 -0.908403 -2.09122 0
M  V30 3951 N 695.076 0.0517805 -3.00955 0
M  V30 3952 N 694.816 -2.17875 -2.46519 0
M  V30 3953 C 694.696 -3.01988 -1.4033 0
M  V30 3954 H 691.717 -8.36803 -2.32493 0
M  V30 3955 H 691.447 -6.70197 -1.71129 0
M  V30 3956 H 692.314 -7.03551 -4.13168 0
M  V30 3957 P 696.276 -7.20834 -5.23717 0
M  V30 3958 O 696.496 -7.79853 -6.57286 0
M  V30 3959 O 697.066 -7.79239 -4.12957 0
M  V30 3960 O 696.526 -5.63315 -5.29344 0
M  V30 3961 C 695.586 -4.80255 -6.01876 0
M  V30 3962 C 696.316 -3.64202 -6.65911 0
M  V30 3963 O 696.526 -2.60694 -5.64732 0
M  V30 3964 C 697.716 -3.93473 -7.1943 0
M  V30 3965 O 698.106 -3.02071 -8.21205 0
M  V30 3966 C 698.596 -3.73047 -5.97036 0
M  V30 3967 C 697.886 -2.58828 -5.25741 0
M  V30 3968 N 697.936 -2.68068 -3.77503 0
M  V30 3969 H 695.097 -5.40332 -6.79951 0
M  V30 3970 H 694.827 -4.41613 -5.32378 0
M  V30 3971 H 695.694 -3.26331 -7.47797 0
M  V30 3972 P 699.656 -2.75334 -8.47391 0
M  V30 3973 O 699.876 -2.44595 -9.90239 0
M  V30 3974 O 700.446 -3.87732 -7.92204 0
M  V30 3975 O 699.906 -1.4459 -7.59357 0
M  V30 3976 C 698.966 -0.347563 -7.69115 0
M  V30 3977 C 699.696 0.96767 -7.52806 0
M  V30 3978 O 699.906 1.21036 -6.1011 0
M  V30 3979 C 701.096 1.04544 -8.13308 0
M  V30 3980 O 701.486 2.38311 -8.41922 0
M  V30 3981 C 701.976 0.491279 -7.02284 0
M  V30 3982 C 701.266 0.996264 -5.77469 0
M  V30 3983 N 701.316 0.0501808 -4.62873 0
M  V30 3984 C 701.466 0.588177 -3.36904 0
M  V30 3985 O 701.556 1.78598 -3.17173 0
M  V30 3986 N 701.506 -0.329694 -2.33686 0
M  V30 3987 C 701.416 -1.6953 -2.45079 0
M  V30 3988 O 701.466 -2.41926 -1.44899 0
M  V30 3989 C 701.266 -2.16933 -3.80505 0
M  V30 3990 C 701.156 -3.65373 -3.97621 0
M  V30 3991 C 701.216 -1.30326 -4.83752 0
M  V30 3992 H 698.476 -0.374722 -8.67691 0
M  V30 3993 H 698.207 -0.443421 -6.90177 0
M  V30 3994 H 699.074 1.75537 -7.96793 0
M  V30 3995 H 701.729 1.94496 -5.46629 0
M  V30 3996 H 702.008 -0.608651 -7.04676 0
M  V30 3997 H 703 0.889672 -7.08939 0
M  V30 3998 H 701.166 0.43308 -9.04564 0
M  V30 3999 H 701.095 -1.68366 -5.8516 0
M  V30 4000 H 702.125 -4.05985 -4.30448 0
M  V30 4001 H 700.388 -3.88028 -4.72875 0
M  V30 4002 H 700.876 -4.11381 -3.01609 0
M  V30 4003 H 701.612 0.0393617 -1.41345 0
M  V30 4004 P 703.036 2.75334 -8.47391 0
M  V30 4005 O 703.256 3.84128 -9.44797 0
M  V30 4006 O 703.826 1.51947 -8.68712 0
M  V30 4007 O 703.286 3.29363 -6.99321 0
M  V30 4008 C 702.346 4.24011 -6.4274 0
M  V30 4009 C 703.076 5.20775 -5.52155 0
M  V30 4010 O 703.286 4.56534 -4.22446 0
M  V30 4011 C 704.476 5.62629 -5.96531 0
M  V30 4012 O 704.866 6.87667 -5.41053 0
M  V30 4013 C 705.356 4.52537 -5.39283 0
M  V30 4014 C 704.646 4.20027 -4.08623 0
M  V30 4015 N 704.696 2.76189 -3.71603 0
M  V30 4016 H 701.857 4.797 -7.24003 0
M  V30 4017 H 701.587 3.69856 -5.84513 0
M  V30 4018 H 702.454 6.10356 -5.41441 0
M  V30 4019 P 706.416 7.20834 -5.23717 0
M  V30 4020 O 706.636 8.66104 -5.38572 0
M  V30 4021 O 707.206 6.33544 -6.1349 0
M  V30 4022 O 706.666 6.7751 -3.72168 0
M  V30 4023 C 705.726 7.20825 -2.7076 0
M  V30 4024 C 706.456 7.45864 -1.40599 0
M  V30 4025 O 706.666 6.17651 -0.734225 0
M  V30 4026 C 707.856 8.05808 -1.51899 0
M  V30 4027 O 708.246 8.74358 -0.335205 0
M  V30 4028 C 708.736 6.83093 -1.70294 0
M  V30 4029 C 708.026 5.79992 -0.836974 0
M  V30 4030 N 708.076 4.41864 -1.38293 0
M  V30 4031 C 707.996 3.99538 -2.69438 0
M  V30 4032 N 708.076 2.69909 -2.84277 0
M  V30 4033 C 708.216 2.21719 -1.5408 0
M  V30 4034 C 708.346 0.891712 -1.06628 0
M  V30 4035 N 708.466 0.856846 0.334985 0
M  V30 4036 C 708.466 1.9641 1.15789 0
M  V30 4037 N 708.596 1.72708 2.46522 0
M  V30 4038 N 708.336 3.21165 0.713741 0
M  V30 4039 C 708.216 3.26797 -0.639748 0
M  V30 4040 H 705.237 8.13644 -3.0377 0
M  V30 4041 H 704.967 6.42788 -2.55485 0
M  V30 4042 H 705.834 8.12039 -0.792769 0
M  V30 4043 P 709.796 8.91 4.82899e-12 0
M  V30 4044 O 710.016 10.1726 0.733694 0
M  V30 4045 O 710.586 8.73148 -1.23936 0
M  V30 4046 O 710.046 7.66872 0.971405 0
M  V30 4047 C 709.106 7.42309 2.04641 0
M  V30 4048 C 709.836 6.86059 3.24661 0
M  V30 4049 O 710.046 5.42847 3.03646 0
M  V30 4050 C 711.236 7.41196 3.50753 0
M  V30 4051 O 711.626 7.27073 4.86816 0
M  V30 4052 C 712.116 6.5273 2.63741 0
M  V30 4053 C 711.406 5.1842 2.73198 0
M  V30 4054 N 711.456 4.38762 1.4784 0
M  V30 4055 H 708.617 8.36803 2.32493 0
M  V30 4056 H 708.347 6.70197 1.71129 0
M  V30 4057 H 709.214 7.03551 4.13168 0
M  V30 4058 P 713.176 7.20834 5.23717 0
M  V30 4059 O 713.396 7.79853 6.57286 0
M  V30 4060 O 713.966 7.79239 4.12957 0
M  V30 4061 O 713.426 5.63315 5.29344 0
M  V30 4062 C 712.486 4.80255 6.01876 0
M  V30 4063 C 713.216 3.64202 6.65911 0
M  V30 4064 O 713.426 2.60694 5.64732 0
M  V30 4065 C 714.616 3.93473 7.1943 0
M  V30 4066 O 715.006 3.02071 8.21205 0
M  V30 4067 C 715.496 3.73047 5.97036 0
M  V30 4068 C 714.786 2.58828 5.25741 0
M  V30 4069 N 714.836 2.68068 3.77503 0
M  V30 4070 C 714.756 3.79715 2.96723 0
M  V30 4071 N 714.836 3.5377 1.68852 0
M  V30 4072 C 714.976 2.15054 1.63254 0
M  V30 4073 C 715.106 1.28964 0.518571 0
M  V30 4074 N 715.226 -0.0538097 0.918425 0
M  V30 4075 C 715.226 -0.494275 2.22578 0
M  V30 4076 N 715.356 -1.81086 2.40434 0
M  V30 4077 N 715.096 0.313645 3.27502 0
M  V30 4078 C 714.976 1.61829 2.91033 0
M  V30 4079 H 711.997 5.40332 6.79951 0
M  V30 4080 H 711.727 4.41613 5.32378 0
M  V30 4081 H 712.594 3.26331 7.47797 0
M  V30 4082 P 716.556 2.75334 8.47391 0
M  V30 4083 O 716.776 2.44571 9.90142 0
M  V30 4084 O 717.346 3.87688 7.92115 0
M  V30 4085 O 716.806 1.4459 7.59357 0
M  V30 4086 C 715.866 0.347608 7.69215 0
M  V30 4087 C 716.596 -0.96767 7.52806 0
M  V30 4088 O 716.806 -1.21036 6.1011 0
M  V30 4089 C 717.996 -1.04544 8.13308 0
M  V30 4090 O 718.386 -2.38311 8.41922 0
M  V30 4091 C 718.876 -0.491279 7.02284 0
M  V30 4092 C 718.166 -0.996264 5.77469 0
M  V30 4093 N 718.216 -0.0501916 4.62973 0
M  V30 4094 H 715.377 0.374722 8.67691 0
M  V30 4095 H 715.107 0.443485 6.90277 0
M  V30 4096 H 715.974 -1.75537 7.96793 0
M  V30 4097 P 719.936 -2.75334 8.47391 0
M  V30 4098 O 720.156 -3.84204 9.44982 0
M  V30 4099 O 720.726 -1.51982 8.68909 0
M  V30 4100 O 720.186 -3.29363 6.99321 0
M  V30 4101 C 719.246 -4.24066 6.42823 0
M  V30 4102 C 719.976 -5.20775 5.52155 0
M  V30 4103 O 720.186 -4.56607 4.22514 0
M  V30 4104 C 721.376 -5.62697 5.96604 0
M  V30 4105 O 721.766 -6.87667 5.41053 0
M  V30 4106 C 722.256 -4.52537 5.39283 0
M  V30 4107 C 721.546 -4.20027 4.08623 0
M  V30 4108 N 721.596 -2.76189 3.71603 0
M  V30 4109 C 721.516 -1.66944 4.54297 0
M  V30 4110 N 721.586 -0.536169 3.91344 0
M  V30 4111 C 721.736 -0.901569 2.58849 0
M  V30 4112 C 721.866 -0.146599 1.40236 0
M  V30 4113 N 721.876 1.18234 1.37046 0
M  V30 4114 N 721.986 -0.822941 0.249738 0
M  V30 4115 C 721.976 -2.15179 0.280525 0
M  V30 4116 N 721.856 -2.96414 1.30822 0
M  V30 4117 C 721.736 -2.25804 2.44748 0
M  V30 4118 H 718.758 -4.79756 7.24086 0
M  V30 4119 H 718.486 -3.69963 5.84682 0
M  V30 4120 H 719.354 -6.10431 5.41508 0
M  V30 4121 H 722.009 -4.78816 3.28024 0
M  V30 4122 H 722.289 -3.64957 6.05871 0
M  V30 4123 H 723.28 -4.88748 5.21323 0
M  V30 4124 H 721.446 -5.66789 7.0643 0
M  V30 4125 H 721.405 -1.74684 5.62396 0
M  V30 4126 H 721.786 1.71949 2.24394 0
M  V30 4127 H 721.975 1.67511 0.470742 0
M  V30 4128 H 722.083 -2.63704 -0.6828 0
M  V30 4129 P 723.316 -7.20834 5.23717 0
M  V30 4130 O 723.536 -8.66104 5.38572 0
M  V30 4131 O 724.106 -6.33544 6.1349 0
M  V30 4132 O 723.566 -6.7751 3.72168 0
M  V30 4133 C 722.626 -7.20825 2.7076 0
M  V30 4134 C 723.356 -7.45864 1.40599 0
M  V30 4135 O 723.566 -6.17651 0.734225 0
M  V30 4136 C 724.756 -8.05808 1.51899 0
M  V30 4137 O 725.146 -8.74358 0.335205 0
M  V30 4138 C 725.636 -6.83093 1.70294 0
M  V30 4139 C 724.926 -5.79992 0.836974 0
M  V30 4140 N 724.976 -4.41864 1.38293 0
M  V30 4141 C 724.896 -3.99538 2.69438 0
M  V30 4142 N 724.976 -2.69909 2.84277 0
M  V30 4143 C 725.116 -2.21719 1.5408 0
M  V30 4144 C 725.246 -0.891712 1.06628 0
M  V30 4145 N 725.366 -0.856846 -0.334985 0
M  V30 4146 C 725.366 -1.9641 -1.15789 0
M  V30 4147 N 725.496 -1.72708 -2.46522 0
M  V30 4148 N 725.236 -3.21165 -0.713741 0
M  V30 4149 C 725.116 -3.26797 0.639748 0
M  V30 4150 H 722.137 -8.13644 3.0377 0
M  V30 4151 H 721.867 -6.42788 2.55485 0
M  V30 4152 H 722.734 -8.12039 0.792769 0
M  V30 4153 P 726.696 -8.91 -4.98617e-12 0
M  V30 4154 O 726.916 -10.1726 -0.733694 0
M  V30 4155 O 727.486 -8.73148 1.23936 0
M  V30 4156 O 726.946 -7.66872 -0.971405 0
M  V30 4157 C 726.006 -7.42309 -2.04641 0
M  V30 4158 C 726.736 -6.86059 -3.24661 0
M  V30 4159 O 726.946 -5.42847 -3.03646 0
M  V30 4160 C 728.136 -7.41196 -3.50753 0
M  V30 4161 O 728.526 -7.27073 -4.86816 0
M  V30 4162 C 729.016 -6.5273 -2.63741 0
M  V30 4163 C 728.306 -5.1842 -2.73198 0
M  V30 4164 N 728.356 -4.38762 -1.4784 0
M  V30 4165 H 725.517 -8.36803 -2.32493 0
M  V30 4166 H 725.247 -6.70197 -1.71129 0
M  V30 4167 H 726.114 -7.03551 -4.13168 0
M  V30 4168 P 730.076 -7.20834 -5.23717 0
M  V30 4169 O 730.296 -7.79853 -6.57286 0
M  V30 4170 O 730.866 -7.79239 -4.12957 0
M  V30 4171 O 730.326 -5.63315 -5.29344 0
M  V30 4172 C 729.386 -4.80255 -6.01876 0
M  V30 4173 C 730.116 -3.64202 -6.65911 0
M  V30 4174 O 730.326 -2.60694 -5.64732 0
M  V30 4175 C 731.516 -3.93473 -7.1943 0
M  V30 4176 O 731.906 -3.02071 -8.21205 0
M  V30 4177 C 732.396 -3.73047 -5.97036 0
M  V30 4178 C 731.686 -2.58828 -5.25741 0
M  V30 4179 N 731.736 -2.68068 -3.77503 0
M  V30 4180 H 728.897 -5.40332 -6.79951 0
M  V30 4181 H 728.627 -4.41613 -5.32378 0
M  V30 4182 H 729.494 -3.26331 -7.47797 0
M  V30 4183 P 733.456 -2.75334 -8.47391 0
M  V30 4184 O 733.676 -2.44571 -9.90142 0
M  V30 4185 O 734.246 -3.87688 -7.92115 0
M  V30 4186 O 733.706 -1.4459 -7.59357 0
M  V30 4187 C 732.766 -0.347608 -7.69215 0
M  V30 4188 C 733.496 0.96767 -7.52806 0
M  V30 4189 O 733.706 1.21036 -6.1011 0
M  V30 4190 C 734.896 1.04544 -8.13308 0
M  V30 4191 O 735.286 2.38311 -8.41922 0
M  V30 4192 C 735.776 0.491279 -7.02284 0
M  V30 4193 C 735.066 0.996264 -5.77469 0
M  V30 4194 N 735.116 0.0501916 -4.62973 0
M  V30 4195 H 732.277 -0.374722 -8.67691 0
M  V30 4196 H 732.007 -0.443485 -6.90277 0
M  V30 4197 H 732.874 1.75537 -7.96793 0
M  V30 4198 P 736.836 2.75334 -8.47391 0
M  V30 4199 O 737.056 3.84204 -9.44982 0
M  V30 4200 O 737.626 1.51982 -8.68909 0
M  V30 4201 O 737.086 3.29363 -6.99321 0
M  V30 4202 C 736.146 4.24066 -6.42823 0
M  V30 4203 C 736.876 5.20775 -5.52155 0
M  V30 4204 O 737.086 4.56607 -4.22514 0
M  V30 4205 C 738.276 5.62697 -5.96604 0
M  V30 4206 O 738.666 6.87667 -5.41053 0
M  V30 4207 C 739.156 4.52537 -5.39283 0
M  V30 4208 C 738.446 4.20027 -4.08623 0
M  V30 4209 N 738.496 2.76189 -3.71603 0
M  V30 4210 C 738.416 1.66944 -4.54297 0
M  V30 4211 N 738.486 0.536169 -3.91344 0
M  V30 4212 C 738.636 0.901569 -2.58849 0
M  V30 4213 C 738.766 0.146599 -1.40236 0
M  V30 4214 N 738.776 -1.18234 -1.37046 0
M  V30 4215 N 738.886 0.822941 -0.249738 0
M  V30 4216 C 738.876 2.15179 -0.280525 0
M  V30 4217 N 738.756 2.96414 -1.30822 0
M  V30 4218 C 738.636 2.25804 -2.44748 0
M  V30 4219 H 735.658 4.79756 -7.24086 0
M  V30 4220 H 735.386 3.69963 -5.84682 0
M  V30 4221 H 736.254 6.10431 -5.41508 0
M  V30 4222 H 738.909 4.78816 -3.28024 0
M  V30 4223 H 739.189 3.64957 -6.05871 0
M  V30 4224 H 740.18 4.88748 -5.21323 0
M  V30 4225 H 738.346 5.66789 -7.0643 0
M  V30 4226 H 738.305 1.74684 -5.62396 0
M  V30 4227 H 738.686 -1.71949 -2.24394 0
M  V30 4228 H 738.875 -1.67511 -0.470742 0
M  V30 4229 H 738.983 2.63704 0.6828 0
M  V30 4230 P 740.216 7.20834 -5.23717 0
M  V30 4231 O 740.436 8.66104 -5.38572 0
M  V30 4232 O 741.006 6.33544 -6.1349 0
M  V30 4233 O 740.466 6.7751 -3.72168 0
M  V30 4234 C 739.526 7.20825 -2.7076 0
M  V30 4235 C 740.256 7.45864 -1.40599 0
M  V30 4236 O 740.466 6.17651 -0.734225 0
M  V30 4237 C 741.656 8.05808 -1.51899 0
M  V30 4238 O 742.046 8.74358 -0.335205 0
M  V30 4239 C 742.536 6.83093 -1.70294 0
M  V30 4240 C 741.826 5.79992 -0.836974 0
M  V30 4241 N 741.876 4.41864 -1.38293 0
M  V30 4242 H 739.037 8.13644 -3.0377 0
M  V30 4243 H 738.767 6.42788 -2.55485 0
M  V30 4244 H 739.634 8.12039 -0.792769 0
M  V30 4245 P 743.596 8.91 5.14336e-12 0
M  V30 4246 O 743.816 10.1726 0.733694 0
M  V30 4247 O 744.386 8.73148 -1.23936 0
M  V30 4248 O 743.846 7.66872 0.971405 0
M  V30 4249 C 742.906 7.42309 2.04641 0
M  V30 4250 C 743.636 6.86059 3.24661 0
M  V30 4251 O 743.846 5.42847 3.03646 0
M  V30 4252 C 745.036 7.41196 3.50753 0
M  V30 4253 O 745.426 7.27073 4.86816 0
M  V30 4254 C 745.916 6.5273 2.63741 0
M  V30 4255 C 745.206 5.1842 2.73198 0
M  V30 4256 N 745.256 4.38762 1.4784 0
M  V30 4257 H 742.417 8.36803 2.32493 0
M  V30 4258 H 742.147 6.70197 1.71129 0
M  V30 4259 H 743.014 7.03551 4.13168 0
M  V30 4260 P 746.976 7.20834 5.23717 0
M  V30 4261 O 747.196 7.79853 6.57286 0
M  V30 4262 O 747.766 7.79239 4.12957 0
M  V30 4263 O 747.226 5.63315 5.29344 0
M  V30 4264 C 746.286 4.80255 6.01876 0
M  V30 4265 C 747.016 3.64202 6.65911 0
M  V30 4266 O 747.226 2.60694 5.64732 0
M  V30 4267 C 748.416 3.93473 7.1943 0
M  V30 4268 O 748.806 3.02071 8.21205 0
M  V30 4269 C 749.296 3.73047 5.97036 0
M  V30 4270 C 748.586 2.58828 5.25741 0
M  V30 4271 N 748.636 2.68068 3.77503 0
M  V30 4272 H 745.797 5.40332 6.79951 0
M  V30 4273 H 745.527 4.41613 5.32378 0
M  V30 4274 H 746.394 3.26331 7.47797 0
M  V30 4275 P 750.356 2.75334 8.47391 0
M  V30 4276 O 750.576 2.44571 9.90142 0
M  V30 4277 O 751.146 3.87688 7.92115 0
M  V30 4278 O 750.606 1.4459 7.59357 0
M  V30 4279 C 749.666 0.347608 7.69215 0
M  V30 4280 C 750.396 -0.96767 7.52806 0
M  V30 4281 O 750.606 -1.21036 6.1011 0
M  V30 4282 C 751.796 -1.04544 8.13308 0
M  V30 4283 O 752.186 -2.38311 8.41922 0
M  V30 4284 C 752.676 -0.491279 7.02284 0
M  V30 4285 C 751.966 -0.996264 5.77469 0
M  V30 4286 N 752.016 -0.0501916 4.62973 0
M  V30 4287 H 749.177 0.374722 8.67691 0
M  V30 4288 H 748.907 0.443485 6.90277 0
M  V30 4289 H 749.774 -1.75537 7.96793 0
M  V30 4290 P 753.736 -2.75334 8.47391 0
M  V30 4291 O 753.956 -3.84128 9.44797 0
M  V30 4292 O 754.526 -1.51947 8.68712 0
M  V30 4293 O 753.986 -3.29363 6.99321 0
M  V30 4294 C 753.046 -4.24011 6.4274 0
M  V30 4295 C 753.776 -5.20775 5.52155 0
M  V30 4296 O 753.986 -4.56534 4.22446 0
M  V30 4297 C 755.176 -5.62629 5.96531 0
M  V30 4298 O 755.566 -6.87667 5.41053 0
M  V30 4299 C 756.056 -4.52537 5.39283 0
M  V30 4300 C 755.346 -4.20027 4.08623 0
M  V30 4301 N 755.396 -2.76189 3.71603 0
M  V30 4302 C 755.316 -1.64862 4.52822 0
M  V30 4303 N 755.396 -0.512671 3.88633 0
M  V30 4304 C 755.536 -0.888083 2.54977 0
M  V30 4305 C 755.666 -0.094668 1.38677 0
M  V30 4306 N 755.786 -0.890102 0.232633 0
M  V30 4307 C 755.786 -2.26958 0.21772 0
M  V30 4308 N 755.916 -2.84626 -0.97925 0
M  V30 4309 N 755.656 -3.0178 1.31033 0
M  V30 4310 C 755.536 -2.26781 2.43843 0
M  V30 4311 H 752.557 -4.797 7.24003 0
M  V30 4312 H 752.287 -3.69856 5.84513 0
M  V30 4313 H 753.154 -6.10356 5.41441 0
M  V30 4314 P 757.116 -7.20834 5.23717 0
M  V30 4315 O 757.336 -8.66274 5.38678 0
M  V30 4316 O 757.906 -6.33687 6.13629 0
M  V30 4317 O 757.366 -6.7751 3.72168 0
M  V30 4318 C 756.426 -7.20919 2.70795 0
M  V30 4319 C 757.156 -7.45864 1.40599 0
M  V30 4320 O 757.366 -6.17751 0.734343 0
M  V30 4321 C 758.556 -8.05906 1.51917 0
M  V30 4322 O 758.946 -8.74358 0.335205 0
M  V30 4323 C 759.436 -6.83093 1.70294 0
M  V30 4324 C 758.726 -5.79992 0.836974 0
M  V30 4325 N 758.776 -4.41864 1.38293 0
M  V30 4326 C 758.696 -4.02089 2.69407 0
M  V30 4327 N 758.766 -2.73403 2.85089 0
M  V30 4328 C 758.916 -2.25086 1.5642 0
M  V30 4329 C 759.046 -0.942887 1.04836 0
M  V30 4330 N 759.056 0.150999 1.80369 0
M  V30 4331 N 759.166 -0.812565 -0.28167 0
M  V30 4332 C 759.156 -1.90572 -1.03784 0
M  V30 4333 N 759.036 -3.167 -0.683905 0
M  V30 4334 C 758.916 -3.26538 0.652815 0
M  V30 4335 H 755.938 -8.13738 3.03804 0
M  V30 4336 H 755.666 -6.42974 2.55559 0
M  V30 4337 H 756.534 -8.12139 0.792866 0
M  V30 4338 H 759.189 -5.80178 -0.160643 0
M  V30 4339 H 759.469 -6.51379 2.75643 0
M  V30 4340 H 760.46 -7.01832 1.3448 0
M  V30 4341 H 758.626 -8.73771 2.38364 0
M  V30 4342 H 758.585 -4.7189 3.52311 0
M  V30 4343 H 758.966 0.0721434 2.82608 0
M  V30 4344 H 759.155 1.0785 1.36544 0
M  V30 4345 H 759.263 -1.73207 -2.10241 0
M  V30 4346 P 760.496 -8.91 -5.30054e-12 0
M  V30 4347 O 760.716 -10.1726 -0.733694 0
M  V30 4348 O 761.286 -8.73148 1.23936 0
M  V30 4349 O 760.746 -7.66872 -0.971405 0
M  V30 4350 C 759.806 -7.42309 -2.04641 0
M  V30 4351 C 760.536 -6.86059 -3.24661 0
M  V30 4352 O 760.746 -5.42847 -3.03646 0
M  V30 4353 C 761.936 -7.41196 -3.50753 0
M  V30 4354 O 762.326 -7.27073 -4.86816 0
M  V30 4355 C 762.816 -6.5273 -2.63741 0
M  V30 4356 C 762.106 -5.1842 -2.73198 0
M  V30 4357 N 762.156 -4.38762 -1.4784 0
M  V30 4358 H 759.317 -8.36803 -2.32493 0
M  V30 4359 H 759.047 -6.70197 -1.71129 0
M  V30 4360 H 759.914 -7.03551 -4.13168 0
M  V30 4361 P 763.875 -7.20834 -5.23717 0
M  V30 4362 O 764.095 -7.79853 -6.57286 0
M  V30 4363 O 764.665 -7.79239 -4.12957 0
M  V30 4364 O 764.125 -5.63315 -5.29344 0
M  V30 4365 C 763.185 -4.80255 -6.01876 0
M  V30 4366 C 763.915 -3.64202 -6.65911 0
M  V30 4367 O 764.125 -2.60694 -5.64732 0
M  V30 4368 C 765.315 -3.93473 -7.1943 0
M  V30 4369 O 765.705 -3.02071 -8.21205 0
M  V30 4370 C 766.195 -3.73047 -5.97036 0
M  V30 4371 C 765.485 -2.58828 -5.25741 0
M  V30 4372 N 765.535 -2.68068 -3.77503 0
M  V30 4373 H 762.696 -5.40332 -6.79951 0
M  V30 4374 H 762.426 -4.41613 -5.32378 0
M  V30 4375 H 763.293 -3.26331 -7.47797 0
M  V30 4376 P 767.255 -2.75334 -8.47391 0
M  V30 4377 O 767.475 -2.44571 -9.90142 0
M  V30 4378 O 768.045 -3.87688 -7.92115 0
M  V30 4379 O 767.505 -1.4459 -7.59357 0
M  V30 4380 C 766.565 -0.347608 -7.69215 0
M  V30 4381 C 767.295 0.96767 -7.52806 0
M  V30 4382 O 767.505 1.21036 -6.1011 0
M  V30 4383 C 768.695 1.04544 -8.13308 0
M  V30 4384 O 769.085 2.38311 -8.41922 0
M  V30 4385 C 769.575 0.491279 -7.02284 0
M  V30 4386 C 768.865 0.996264 -5.77469 0
M  V30 4387 N 768.915 0.0501916 -4.62973 0
M  V30 4388 C 768.835 -1.32786 -4.63244 0
M  V30 4389 N 768.915 -1.86957 -3.44545 0
M  V30 4390 C 769.055 -0.780241 -2.58481 0
M  V30 4391 C 769.185 -0.738536 -1.17757 0
M  V30 4392 O 769.205 -1.66794 -0.372349 0
M  V30 4393 N 769.305 0.58337 -0.711393 0
M  V30 4394 C 769.305 1.70816 -1.51017 0
M  V30 4395 N 769.435 2.87826 -0.880757 0
M  V30 4396 N 769.175 1.67126 -2.8339 0
M  V30 4397 C 769.055 0.401421 -3.30572 0
M  V30 4398 H 766.076 -0.374722 -8.67691 0
M  V30 4399 H 765.806 -0.443485 -6.90277 0
M  V30 4400 H 766.673 1.75537 -7.96793 0
M  V30 4401 H 769.328 1.95076 -5.46529 0
M  V30 4402 H 769.607 -0.608565 -7.04577 0
M  V30 4403 H 770.599 0.889672 -7.08939 0
M  V30 4404 H 768.765 0.43308 -9.04564 0
M  V30 4405 H 768.716 -1.91249 -5.54442 0
M  V30 4406 H 769.398 0.718054 0.275244 0
M  V30 4407 H 769.435 3.75721 -1.41832 0
M  V30 4408 H 769.536 2.90436 0.145468 0
M  V30 4409 P 770.635 2.75334 -8.47391 0
M  V30 4410 O 770.855 3.84166 -9.4489 0
M  V30 4411 O 771.425 1.51964 -8.6881 0
M  V30 4412 O 770.885 3.29363 -6.99321 0
M  V30 4413 C 769.945 4.23956 -6.42656 0
M  V30 4414 C 770.675 5.20775 -5.52155 0
M  V30 4415 O 770.885 4.56534 -4.22446 0
M  V30 4416 C 772.075 5.62629 -5.96531 0
M  V30 4417 O 772.465 6.87667 -5.41053 0
M  V30 4418 C 772.955 4.52537 -5.39283 0
M  V30 4419 C 772.245 4.20027 -4.08623 0
M  V30 4420 N 772.295 2.7613 -3.71522 0
M  V30 4421 C 772.445 2.45612 -2.37989 0
M  V30 4422 O 772.535 3.30919 -1.51621 0
M  V30 4423 N 772.485 1.10684 -2.08435 0
M  V30 4424 C 772.395 0.0690084 -2.9792 0
M  V30 4425 O 772.445 -1.10553 -2.59426 0
M  V30 4426 C 772.245 0.481522 -4.35345 0
M  V30 4427 C 772.135 -0.618778 -5.36443 0
M  V30 4428 C 772.195 1.78906 -4.67968 0
M  V30 4429 H 769.455 4.797 -7.24003 0
M  V30 4430 H 769.186 3.69802 -5.84429 0
M  V30 4431 H 770.053 6.10356 -5.41441 0
M  V30 4432 H 772.708 4.78651 -3.27911 0
M  V30 4433 H 772.987 3.64957 -6.05871 0
M  V30 4434 H 773.979 4.8868 -5.2125 0
M  V30 4435 H 772.145 5.66726 -7.06352 0
M  V30 4436 H 772.074 2.07737 -5.72367 0
M  V30 4437 H 773.104 -0.754375 -5.86871 0
M  V30 4438 H 771.367 -0.359721 -6.10641 0
M  V30 4439 H 771.855 -1.55533 -4.8581 0
M  V30 4440 H 772.591 0.862651 -1.12037 0
M  V30 4441 P 774.015 7.20834 -5.23717 0
M  V30 4442 O 774.235 8.66104 -5.38572 0
M  V30 4443 O 774.805 6.33544 -6.1349 0
M  V30 4444 O 774.265 6.7751 -3.72168 0
M  V30 4445 C 773.325 7.20825 -2.7076 0
M  V30 4446 C 774.055 7.45864 -1.40599 0
M  V30 4447 O 774.265 6.17651 -0.734225 0
M  V30 4448 C 775.455 8.05808 -1.51899 0
M  V30 4449 O 775.845 8.74358 -0.335205 0
M  V30 4450 C 776.335 6.83093 -1.70294 0
M  V30 4451 C 775.625 5.79992 -0.836974 0
M  V30 4452 N 775.675 4.41864 -1.38293 0
M  V30 4453 C 775.595 3.99538 -2.69438 0
M  V30 4454 N 775.675 2.69909 -2.84277 0
M  V30 4455 C 775.815 2.21719 -1.5408 0
M  V30 4456 C 775.945 0.891712 -1.06628 0
M  V30 4457 N 776.065 0.856846 0.334985 0
M  V30 4458 C 776.065 1.9641 1.15789 0
M  V30 4459 N 776.195 1.72708 2.46522 0
M  V30 4460 N 775.935 3.21165 0.713741 0
M  V30 4461 C 775.815 3.26797 -0.639748 0
M  V30 4462 H 772.836 8.13644 -3.0377 0
M  V30 4463 H 772.566 6.42788 -2.55485 0
M  V30 4464 H 773.433 8.12039 -0.792769 0
M  V30 4465 P 777.395 8.91 5.45772e-12 0
M  V30 4466 O 777.615 10.1736 0.733766 0
M  V30 4467 O 778.185 8.73247 -1.2395 0
M  V30 4468 O 777.645 7.66872 0.971405 0
M  V30 4469 C 776.705 7.42212 2.04614 0
M  V30 4470 C 777.435 6.86059 3.24661 0
M  V30 4471 O 777.645 5.42847 3.03646 0
M  V30 4472 C 778.835 7.41196 3.50753 0
M  V30 4473 O 779.225 7.27073 4.86816 0
M  V30 4474 C 779.715 6.5273 2.63741 0
M  V30 4475 C 779.005 5.1842 2.73198 0
M  V30 4476 N 779.055 4.38668 1.47808 0
M  V30 4477 C 779.205 3.02239 1.60048 0
M  V30 4478 O 779.295 2.46459 2.67869 0
M  V30 4479 N 779.245 2.32436 0.408571 0
M  V30 4480 C 779.155 2.85471 -0.854993 0
M  V30 4481 O 779.205 2.12566 -1.8531 0
M  V30 4482 C 779.005 4.28918 -0.887335 0
M  V30 4483 C 778.895 4.91066 -2.24619 0
M  V30 4484 C 778.955 5.00349 0.255399 0
M  V30 4485 H 776.215 8.36803 2.32493 0
M  V30 4486 H 775.946 6.701 1.71105 0
M  V30 4487 H 776.813 7.03551 4.13168 0
M  V30 4488 H 779.468 4.59773 3.53894 0
M  V30 4489 H 779.747 6.88995 1.59871 0
M  V30 4490 H 780.739 6.46749 3.03687 0
M  V30 4491 H 778.905 8.46908 3.20714 0
M  V30 4492 H 778.834 6.08548 0.206986 0
M  V30 4493 H 779.864 5.34836 -2.53099 0
M  V30 4494 H 778.127 5.69638 -2.2291 0
M  V30 4495 H 778.615 4.13971 -2.98044 0
M  V30 4496 H 779.351 1.33211 0.474216 0
M  V30 4497 P 780.775 7.20834 5.23717 0
M  V30 4498 O 780.995 7.79853 6.57286 0
M  V30 4499 O 781.565 7.79239 4.12957 0
M  V30 4500 O 781.025 5.63315 5.29344 0
M  V30 4501 C 780.085 4.80255 6.01876 0
M  V30 4502 C 780.815 3.64202 6.65911 0
M  V30 4503 O 781.025 2.60694 5.64732 0
M  V30 4504 C 782.215 3.93473 7.1943 0
M  V30 4505 O 782.605 3.02071 8.21205 0
M  V30 4506 C 783.095 3.73047 5.97036 0
M  V30 4507 C 782.385 2.58828 5.25741 0
M  V30 4508 N 782.435 2.68068 3.77503 0
M  V30 4509 H 779.596 5.40332 6.79951 0
M  V30 4510 H 779.326 4.41613 5.32378 0
M  V30 4511 H 780.193 3.26331 7.47797 0
M  V30 4512 P 784.155 2.75334 8.47391 0
M  V30 4513 O 784.375 2.44571 9.90142 0
M  V30 4514 O 784.945 3.87688 7.92115 0
M  V30 4515 O 784.405 1.4459 7.59357 0
M  V30 4516 C 783.465 0.347608 7.69215 0
M  V30 4517 C 784.195 -0.96767 7.52806 0
M  V30 4518 O 784.405 -1.21036 6.1011 0
M  V30 4519 C 785.595 -1.04544 8.13308 0
M  V30 4520 O 785.985 -2.38311 8.41922 0
M  V30 4521 C 786.475 -0.491279 7.02284 0
M  V30 4522 C 785.765 -0.996264 5.77469 0
M  V30 4523 N 785.815 -0.0501916 4.62973 0
M  V30 4524 H 782.976 0.374722 8.67691 0
M  V30 4525 H 782.706 0.443485 6.90277 0
M  V30 4526 H 783.573 -1.75537 7.96793 0
M  V30 4527 P 787.535 -2.75334 8.47391 0
M  V30 4528 O 787.755 -3.84128 9.44797 0
M  V30 4529 O 788.325 -1.51947 8.68712 0
M  V30 4530 O 787.785 -3.29363 6.99321 0
M  V30 4531 C 786.845 -4.24011 6.4274 0
M  V30 4532 C 787.575 -5.20775 5.52155 0
M  V30 4533 O 787.785 -4.56534 4.22446 0
M  V30 4534 C 788.975 -5.62629 5.96531 0
M  V30 4535 O 789.365 -6.87667 5.41053 0
M  V30 4536 C 789.855 -4.52537 5.39283 0
M  V30 4537 C 789.145 -4.20027 4.08623 0
M  V30 4538 N 789.195 -2.76189 3.71603 0
M  V30 4539 H 786.356 -4.797 7.24003 0
M  V30 4540 H 786.086 -3.69856 5.84513 0
M  V30 4541 H 786.953 -6.10356 5.41441 0
M  V30 4542 P 790.915 -7.20834 5.23717 0
M  V30 4543 O 791.135 -8.66104 5.38572 0
M  V30 4544 O 791.705 -6.33544 6.1349 0
M  V30 4545 O 791.165 -6.7751 3.72168 0
M  V30 4546 C 790.225 -7.20825 2.7076 0
M  V30 4547 C 790.955 -7.45864 1.40599 0
M  V30 4548 O 791.165 -6.17651 0.734225 0
M  V30 4549 C 792.355 -8.05808 1.51899 0
M  V30 4550 O 792.745 -8.74358 0.335205 0
M  V30 4551 C 793.235 -6.83093 1.70294 0
M  V30 4552 C 792.525 -5.79992 0.836974 0
M  V30 4553 N 792.575 -4.41864 1.38293 0
M  V30 4554 H 789.736 -8.13644 3.0377 0
M  V30 4555 H 789.466 -6.42788 2.55485 0
M  V30 4556 H 790.333 -8.12039 0.792769 0
M  V30 4557 P 794.295 -8.91 -5.6149e-12 0
M  V30 4558 O 794.515 -10.1726 -0.733694 0
M  V30 4559 O 795.085 -8.73148 1.23936 0
M  V30 4560 O 794.545 -7.66872 -0.971405 0
M  V30 4561 C 793.605 -7.42309 -2.04641 0
M  V30 4562 C 794.335 -6.86059 -3.24661 0
M  V30 4563 O 794.545 -5.42847 -3.03646 0
M  V30 4564 C 795.735 -7.41196 -3.50753 0
M  V30 4565 O 796.125 -7.27073 -4.86816 0
M  V30 4566 C 796.615 -6.5273 -2.63741 0
M  V30 4567 C 795.905 -5.1842 -2.73198 0
M  V30 4568 N 795.955 -4.38762 -1.4784 0
M  V30 4569 H 793.116 -8.36803 -2.32493 0
M  V30 4570 H 792.846 -6.70197 -1.71129 0
M  V30 4571 H 793.713 -7.03551 -4.13168 0
M  V30 4572 P 797.675 -7.20834 -5.23717 0
M  V30 4573 O 797.895 -7.79853 -6.57286 0
M  V30 4574 O 798.465 -7.79239 -4.12957 0
M  V30 4575 O 797.925 -5.63315 -5.29344 0
M  V30 4576 C 796.985 -4.80255 -6.01876 0
M  V30 4577 C 797.715 -3.64202 -6.65911 0
M  V30 4578 O 797.925 -2.60694 -5.64732 0
M  V30 4579 C 799.115 -3.93473 -7.1943 0
M  V30 4580 O 799.505 -3.02071 -8.21205 0
M  V30 4581 C 799.995 -3.73047 -5.97036 0
M  V30 4582 C 799.285 -2.58828 -5.25741 0
M  V30 4583 N 799.335 -2.68068 -3.77503 0
M  V30 4584 C 799.255 -3.79715 -2.96723 0
M  V30 4585 N 799.335 -3.5377 -1.68852 0
M  V30 4586 C 799.475 -2.15054 -1.63254 0
M  V30 4587 C 799.605 -1.28964 -0.518571 0
M  V30 4588 N 799.725 0.0538097 -0.918425 0
M  V30 4589 C 799.725 0.494275 -2.22578 0
M  V30 4590 N 799.855 1.81086 -2.40434 0
M  V30 4591 N 799.595 -0.313645 -3.27502 0
M  V30 4592 C 799.475 -1.61829 -2.91033 0
M  V30 4593 H 796.496 -5.40332 -6.79951 0
M  V30 4594 H 796.226 -4.41613 -5.32378 0
M  V30 4595 H 797.093 -3.26331 -7.47797 0
M  V30 4596 P 801.055 -2.75334 -8.47391 0
M  V30 4597 O 801.275 -2.44571 -9.90142 0
M  V30 4598 O 801.845 -3.87688 -7.92115 0
M  V30 4599 O 801.305 -1.4459 -7.59357 0
M  V30 4600 C 800.365 -0.347608 -7.69215 0
M  V30 4601 C 801.095 0.96767 -7.52806 0
M  V30 4602 O 801.305 1.21036 -6.1011 0
M  V30 4603 C 802.495 1.04544 -8.13308 0
M  V30 4604 O 802.885 2.38311 -8.41922 0
M  V30 4605 C 803.375 0.491279 -7.02284 0
M  V30 4606 C 802.665 0.996264 -5.77469 0
M  V30 4607 N 802.715 0.0501916 -4.62973 0
M  V30 4608 H 799.876 -0.374722 -8.67691 0
M  V30 4609 H 799.606 -0.443485 -6.90277 0
M  V30 4610 H 800.473 1.75537 -7.96793 0
M  V30 4611 P 804.435 2.75334 -8.47391 0
M  V30 4612 O 804.655 3.84128 -9.44797 0
M  V30 4613 O 805.225 1.51947 -8.68712 0
M  V30 4614 O 804.685 3.29363 -6.99321 0
M  V30 4615 C 803.745 4.24011 -6.4274 0
M  V30 4616 C 804.475 5.20775 -5.52155 0
M  V30 4617 O 804.685 4.56534 -4.22446 0
M  V30 4618 C 805.875 5.62629 -5.96531 0
M  V30 4619 O 806.265 6.87667 -5.41053 0
M  V30 4620 C 806.755 4.52537 -5.39283 0
M  V30 4621 C 806.045 4.20027 -4.08623 0
M  V30 4622 N 806.095 2.76189 -3.71603 0
M  V30 4623 H 803.256 4.797 -7.24003 0
M  V30 4624 H 802.986 3.69856 -5.84513 0
M  V30 4625 H 803.853 6.10356 -5.41441 0
M  V30 4626 P 807.815 7.20834 -5.23717 0
M  V30 4627 O 808.035 8.66104 -5.38572 0
M  V30 4628 O 808.605 6.33544 -6.1349 0
M  V30 4629 O 808.065 6.7751 -3.72168 0
M  V30 4630 C 807.125 7.20825 -2.7076 0
M  V30 4631 C 807.855 7.45864 -1.40599 0
M  V30 4632 O 808.065 6.17651 -0.734225 0
M  V30 4633 C 809.255 8.05808 -1.51899 0
M  V30 4634 O 809.645 8.74358 -0.335205 0
M  V30 4635 C 810.135 6.83093 -1.70294 0
M  V30 4636 C 809.425 5.79992 -0.836974 0
M  V30 4637 N 809.475 4.41864 -1.38293 0
M  V30 4638 H 806.636 8.13644 -3.0377 0
M  V30 4639 H 806.366 6.42788 -2.55485 0
M  V30 4640 H 807.233 8.12039 -0.792769 0
M  V30 4641 P 811.195 8.91 5.77209e-12 0
M  V30 4642 O 811.415 10.1726 0.733694 0
M  V30 4643 O 811.985 8.73148 -1.23936 0
M  V30 4644 O 811.445 7.66872 0.971405 0
M  V30 4645 C 810.505 7.42309 2.04641 0
M  V30 4646 C 811.235 6.86059 3.24661 0
M  V30 4647 O 811.445 5.42847 3.03646 0
M  V30 4648 C 812.635 7.41196 3.50753 0
M  V30 4649 O 813.025 7.27073 4.86816 0
M  V30 4650 C 813.515 6.5273 2.63741 0
M  V30 4651 C 812.805 5.1842 2.73198 0
M  V30 4652 N 812.855 4.38762 1.4784 0
M  V30 4653 H 810.016 8.36803 2.32493 0
M  V30 4654 H 809.746 6.70197 1.71129 0
M  V30 4655 H 810.613 7.03551 4.13168 0
M  V30 4656 P 814.575 7.20834 5.23717 0
M  V30 4657 O 814.795 7.79853 6.57286 0
M  V30 4658 O 815.365 7.79239 4.12957 0
M  V30 4659 O 814.825 5.63315 5.29344 0
M  V30 4660 C 813.885 4.80255 6.01876 0
M  V30 4661 C 814.615 3.64202 6.65911 0
M  V30 4662 O 814.825 2.60694 5.64732 0
M  V30 4663 C 816.015 3.93473 7.1943 0
M  V30 4664 O 816.405 3.02071 8.21205 0
M  V30 4665 C 816.895 3.73047 5.97036 0
M  V30 4666 C 816.185 2.58828 5.25741 0
M  V30 4667 N 816.235 2.68068 3.77503 0
M  V30 4668 H 813.396 5.40332 6.79951 0
M  V30 4669 H 813.126 4.41613 5.32378 0
M  V30 4670 H 813.993 3.26331 7.47797 0
M  V30 4671 P 817.955 2.75334 8.47391 0
M  V30 4672 O 818.175 2.44571 9.90142 0
M  V30 4673 O 818.745 3.87688 7.92115 0
M  V30 4674 O 818.205 1.4459 7.59357 0
M  V30 4675 C 817.265 0.347608 7.69215 0
M  V30 4676 C 817.995 -0.96767 7.52806 0
M  V30 4677 O 818.205 -1.21036 6.1011 0
M  V30 4678 C 819.395 -1.04544 8.13308 0
M  V30 4679 O 819.785 -2.38311 8.41922 0
M  V30 4680 C 820.275 -0.491279 7.02284 0
M  V30 4681 C 819.565 -0.996264 5.77469 0
M  V30 4682 N 819.615 -0.0501916 4.62973 0
M  V30 4683 H 816.776 0.374722 8.67691 0
M  V30 4684 H 816.506 0.443485 6.90277 0
M  V30 4685 H 817.373 -1.75537 7.96793 0
M  V30 4686 P 821.335 -2.75334 8.47391 0
M  V30 4687 O 821.555 -3.84128 9.44797 0
M  V30 4688 O 822.125 -1.51947 8.68712 0
M  V30 4689 O 821.585 -3.29363 6.99321 0
M  V30 4690 C 820.645 -4.24011 6.4274 0
M  V30 4691 C 821.375 -5.20775 5.52155 0
M  V30 4692 O 821.585 -4.56534 4.22446 0
M  V30 4693 C 822.775 -5.62629 5.96531 0
M  V30 4694 O 823.165 -6.87667 5.41053 0
M  V30 4695 C 823.655 -4.52537 5.39283 0
M  V30 4696 C 822.945 -4.20027 4.08623 0
M  V30 4697 N 822.995 -2.76189 3.71603 0
M  V30 4698 C 822.915 -1.64862 4.52822 0
M  V30 4699 N 822.995 -0.512671 3.88633 0
M  V30 4700 C 823.135 -0.888083 2.54977 0
M  V30 4701 C 823.265 -0.094668 1.38677 0
M  V30 4702 N 823.385 -0.890102 0.232633 0
M  V30 4703 C 823.385 -2.26958 0.21772 0
M  V30 4704 N 823.515 -2.84626 -0.97925 0
M  V30 4705 N 823.255 -3.0178 1.31033 0
M  V30 4706 C 823.135 -2.26781 2.43843 0
M  V30 4707 H 820.156 -4.797 7.24003 0
M  V30 4708 H 819.886 -3.69856 5.84513 0
M  V30 4709 H 820.753 -6.10356 5.41441 0
M  V30 4710 P 824.715 -7.20834 5.23717 0
M  V30 4711 O 824.935 -8.66104 5.38572 0
M  V30 4712 O 825.505 -6.33544 6.1349 0
M  V30 4713 O 824.965 -6.7751 3.72168 0
M  V30 4714 C 824.025 -7.20825 2.7076 0
M  V30 4715 C 824.755 -7.45864 1.40599 0
M  V30 4716 O 824.965 -6.17651 0.734225 0
M  V30 4717 C 826.155 -8.05808 1.51899 0
M  V30 4718 O 826.545 -8.74358 0.335205 0
M  V30 4719 C 827.035 -6.83093 1.70294 0
M  V30 4720 C 826.325 -5.79992 0.836974 0
M  V30 4721 N 826.375 -4.41864 1.38293 0
M  V30 4722 H 823.536 -8.13644 3.0377 0
M  V30 4723 H 823.266 -6.42788 2.55485 0
M  V30 4724 H 824.133 -8.12039 0.792769 0
M  V30 4725 P 828.095 -8.91 -5.92927e-12 0
M  V30 4726 O 828.315 -10.1726 -0.733694 0
M  V30 4727 O 828.885 -8.73148 1.23936 0
M  V30 4728 O 828.345 -7.66872 -0.971405 0
M  V30 4729 C 827.405 -7.42309 -2.04641 0
M  V30 4730 C 828.135 -6.86059 -3.24661 0
M  V30 4731 O 828.345 -5.42847 -3.03646 0
M  V30 4732 C 829.535 -7.41196 -3.50753 0
M  V30 4733 O 829.925 -7.27073 -4.86816 0
M  V30 4734 C 830.415 -6.5273 -2.63741 0
M  V30 4735 C 829.705 -5.1842 -2.73198 0
M  V30 4736 N 829.755 -4.38762 -1.4784 0
M  V30 4737 C 829.675 -4.81605 -0.168631 0
M  V30 4738 N 829.755 -3.85454 0.713363 0
M  V30 4739 C 829.895 -2.6994 -0.0566958 0
M  V30 4740 C 830.025 -1.34815 0.338502 0
M  V30 4741 N 830.145 -0.496304 -0.77465 0
M  V30 4742 C 830.145 -0.908403 -2.09122 0
M  V30 4743 N 830.275 0.0517805 -3.00955 0
M  V30 4744 N 830.015 -2.17875 -2.46519 0
M  V30 4745 C 829.895 -3.01988 -1.4033 0
M  V30 4746 H 826.916 -8.36803 -2.32493 0
M  V30 4747 H 826.646 -6.70197 -1.71129 0
M  V30 4748 H 827.513 -7.03551 -4.13168 0
M  V30 4749 P 831.475 -7.20834 -5.23717 0
M  V30 4750 O 831.695 -7.79853 -6.57286 0
M  V30 4751 O 832.265 -7.79239 -4.12957 0
M  V30 4752 O 831.725 -5.63315 -5.29344 0
M  V30 4753 C 830.785 -4.80255 -6.01876 0
M  V30 4754 C 831.515 -3.64202 -6.65911 0
M  V30 4755 O 831.725 -2.60694 -5.64732 0
M  V30 4756 C 832.915 -3.93473 -7.1943 0
M  V30 4757 O 833.305 -3.02071 -8.21205 0
M  V30 4758 C 833.795 -3.73047 -5.97036 0
M  V30 4759 C 833.085 -2.58828 -5.25741 0
M  V30 4760 N 833.135 -2.68068 -3.77503 0
M  V30 4761 H 830.296 -5.40332 -6.79951 0
M  V30 4762 H 830.026 -4.41613 -5.32378 0
M  V30 4763 H 830.893 -3.26331 -7.47797 0
M  V30 4764 P 834.855 -2.75334 -8.47391 0
M  V30 4765 O 835.075 -2.44571 -9.90142 0
M  V30 4766 O 835.645 -3.87688 -7.92115 0
M  V30 4767 O 835.105 -1.4459 -7.59357 0
M  V30 4768 C 834.165 -0.347608 -7.69215 0
M  V30 4769 C 834.895 0.96767 -7.52806 0
M  V30 4770 O 835.105 1.21036 -6.1011 0
M  V30 4771 C 836.295 1.04544 -8.13308 0
M  V30 4772 O 836.685 2.38311 -8.41922 0
M  V30 4773 C 837.175 0.491279 -7.02284 0
M  V30 4774 C 836.465 0.996264 -5.77469 0
M  V30 4775 N 836.515 0.0501916 -4.62973 0
M  V30 4776 H 833.676 -0.374722 -8.67691 0
M  V30 4777 H 833.406 -0.443485 -6.90277 0
M  V30 4778 H 834.273 1.75537 -7.96793 0
M  V30 4779 P 838.235 2.75334 -8.47391 0
M  V30 4780 O 838.455 3.84166 -9.4489 0
M  V30 4781 O 839.025 1.51964 -8.6881 0
M  V30 4782 O 838.485 3.29363 -6.99321 0
M  V30 4783 C 837.545 4.23956 -6.42656 0
M  V30 4784 C 838.275 5.20775 -5.52155 0
M  V30 4785 O 838.485 4.56534 -4.22446 0
M  V30 4786 C 839.675 5.62629 -5.96531 0
M  V30 4787 O 840.065 6.87667 -5.41053 0
M  V30 4788 C 840.555 4.52537 -5.39283 0
M  V30 4789 C 839.845 4.20027 -4.08623 0
M  V30 4790 N 839.895 2.7613 -3.71522 0
M  V30 4791 C 840.045 2.45612 -2.37989 0
M  V30 4792 O 840.135 3.30919 -1.51621 0
M  V30 4793 N 840.085 1.10684 -2.08435 0
M  V30 4794 C 839.995 0.0690084 -2.9792 0
M  V30 4795 O 840.045 -1.10553 -2.59426 0
M  V30 4796 C 839.845 0.481522 -4.35345 0
M  V30 4797 C 839.735 -0.618778 -5.36443 0
M  V30 4798 C 839.795 1.78906 -4.67968 0
M  V30 4799 H 837.055 4.797 -7.24003 0
M  V30 4800 H 836.786 3.69802 -5.84429 0
M  V30 4801 H 837.653 6.10356 -5.41441 0
M  V30 4802 H 840.308 4.78651 -3.27911 0
M  V30 4803 H 840.587 3.64957 -6.05871 0
M  V30 4804 H 841.579 4.8868 -5.2125 0
M  V30 4805 H 839.745 5.66726 -7.06352 0
M  V30 4806 H 839.674 2.07737 -5.72367 0
M  V30 4807 H 840.704 -0.754375 -5.86871 0
M  V30 4808 H 838.967 -0.359721 -6.10641 0
M  V30 4809 H 839.455 -1.55533 -4.8581 0
M  V30 4810 H 840.191 0.862651 -1.12037 0
M  V30 4811 P 841.615 7.20834 -5.23717 0
M  V30 4812 O 841.835 8.66104 -5.38572 0
M  V30 4813 O 842.405 6.33544 -6.1349 0
M  V30 4814 O 841.865 6.7751 -3.72168 0
M  V30 4815 C 840.925 7.20825 -2.7076 0
M  V30 4816 C 841.655 7.45864 -1.40599 0
M  V30 4817 O 841.865 6.17651 -0.734225 0
M  V30 4818 C 843.055 8.05808 -1.51899 0
M  V30 4819 O 843.445 8.74358 -0.335205 0
M  V30 4820 C 843.935 6.83093 -1.70294 0
M  V30 4821 C 843.225 5.79992 -0.836974 0
M  V30 4822 N 843.275 4.41864 -1.38293 0
M  V30 4823 H 840.436 8.13644 -3.0377 0
M  V30 4824 H 840.166 6.42788 -2.55485 0
M  V30 4825 H 841.033 8.12039 -0.792769 0
M  V30 4826 P 844.995 8.91 6.08645e-12 0
M  V30 4827 O 845.215 10.1726 0.733694 0
M  V30 4828 O 845.785 8.73148 -1.23936 0
M  V30 4829 O 845.245 7.66872 0.971405 0
M  V30 4830 C 844.305 7.42309 2.04641 0
M  V30 4831 C 845.035 6.86059 3.24661 0
M  V30 4832 O 845.245 5.42847 3.03646 0
M  V30 4833 C 846.435 7.41196 3.50753 0
M  V30 4834 O 846.825 7.27073 4.86816 0
M  V30 4835 C 847.315 6.5273 2.63741 0
M  V30 4836 C 846.605 5.1842 2.73198 0
M  V30 4837 N 846.655 4.38762 1.4784 0
M  V30 4838 H 843.816 8.36803 2.32493 0
M  V30 4839 H 843.546 6.70197 1.71129 0
M  V30 4840 H 844.413 7.03551 4.13168 0
M  V30 4841 P 848.375 7.20834 5.23717 0
M  V30 4842 O 848.595 7.79853 6.57286 0
M  V30 4843 O 849.165 7.79239 4.12957 0
M  V30 4844 O 848.625 5.63315 5.29344 0
M  V30 4845 C 847.685 4.80255 6.01876 0
M  V30 4846 C 848.415 3.64202 6.65911 0
M  V30 4847 O 848.625 2.60694 5.64732 0
M  V30 4848 C 849.815 3.93473 7.1943 0
M  V30 4849 O 850.205 3.02071 8.21205 0
M  V30 4850 C 850.695 3.73047 5.97036 0
M  V30 4851 C 849.985 2.58828 5.25741 0
M  V30 4852 N 850.035 2.68068 3.77503 0
M  V30 4853 H 847.196 5.40332 6.79951 0
M  V30 4854 H 846.926 4.41613 5.32378 0
M  V30 4855 H 847.793 3.26331 7.47797 0
M  V30 4856 P 851.755 2.75334 8.47391 0
M  V30 4857 O 851.975 2.44595 9.90239 0
M  V30 4858 O 852.545 3.87732 7.92204 0
M  V30 4859 O 852.005 1.4459 7.59357 0
M  V30 4860 C 851.065 0.347563 7.69115 0
M  V30 4861 C 851.795 -0.96767 7.52806 0
M  V30 4862 O 852.005 -1.21036 6.1011 0
M  V30 4863 C 853.195 -1.04544 8.13308 0
M  V30 4864 O 853.585 -2.38311 8.41922 0
M  V30 4865 C 854.075 -0.491279 7.02284 0
M  V30 4866 C 853.365 -0.996264 5.77469 0
M  V30 4867 N 853.415 -0.0501808 4.62873 0
M  V30 4868 C 853.565 -0.588177 3.36904 0
M  V30 4869 O 853.655 -1.78598 3.17173 0
M  V30 4870 N 853.605 0.329694 2.33686 0
M  V30 4871 C 853.515 1.6953 2.45079 0
M  V30 4872 O 853.565 2.41926 1.44899 0
M  V30 4873 C 853.365 2.16933 3.80505 0
M  V30 4874 C 853.255 3.65373 3.97621 0
M  V30 4875 C 853.315 1.30326 4.83752 0
M  V30 4876 H 850.575 0.374722 8.67691 0
M  V30 4877 H 850.306 0.443421 6.90177 0
M  V30 4878 H 851.173 -1.75537 7.96793 0
M  V30 4879 H 853.828 -1.94496 5.46629 0
M  V30 4880 H 854.107 0.608651 7.04676 0
M  V30 4881 H 855.099 -0.889672 7.08939 0
M  V30 4882 H 853.265 -0.43308 9.04564 0
M  V30 4883 H 853.194 1.68366 5.8516 0
M  V30 4884 H 854.224 4.05985 4.30448 0
M  V30 4885 H 852.487 3.88028 4.72875 0
M  V30 4886 H 852.975 4.11381 3.01609 0
M  V30 4887 H 853.711 -0.0393617 1.41345 0
M  V30 4888 P 855.135 -2.75334 8.47391 0
M  V30 4889 O 855.355 -3.84128 9.44797 0
M  V30 4890 O 855.925 -1.51947 8.68712 0
M  V30 4891 O 855.385 -3.29363 6.99321 0
M  V30 4892 C 854.445 -4.24011 6.4274 0
M  V30 4893 C 855.175 -5.20775 5.52155 0
M  V30 4894 O 855.385 -4.56534 4.22446 0
M  V30 4895 C 856.575 -5.62629 5.96531 0
M  V30 4896 O 856.965 -6.87667 5.41053 0
M  V30 4897 C 857.455 -4.52537 5.39283 0
M  V30 4898 C 856.745 -4.20027 4.08623 0
M  V30 4899 N 856.795 -2.76189 3.71603 0
M  V30 4900 H 853.956 -4.797 7.24003 0
M  V30 4901 H 853.686 -3.69856 5.84513 0
M  V30 4902 H 854.553 -6.10356 5.41441 0
M  V30 4903 P 858.515 -7.20834 5.23717 0
M  V30 4904 O 858.735 -8.66104 5.38572 0
M  V30 4905 O 859.305 -6.33544 6.1349 0
M  V30 4906 O 858.765 -6.7751 3.72168 0
M  V30 4907 C 857.825 -7.20825 2.7076 0
M  V30 4908 C 858.555 -7.45864 1.40599 0
M  V30 4909 O 858.765 -6.17651 0.734225 0
M  V30 4910 C 859.955 -8.05808 1.51899 0
M  V30 4911 O 860.345 -8.74358 0.335205 0
M  V30 4912 C 860.835 -6.83093 1.70294 0
M  V30 4913 C 860.125 -5.79992 0.836974 0
M  V30 4914 N 860.175 -4.41864 1.38293 0
M  V30 4915 H 857.336 -8.13644 3.0377 0
M  V30 4916 H 857.066 -6.42788 2.55485 0
M  V30 4917 H 857.933 -8.12039 0.792769 0
M  V30 4918 P 861.895 -8.91 -6.24363e-12 0
M  V30 4919 O 862.115 -10.1726 -0.733694 0
M  V30 4920 O 862.685 -8.73148 1.23936 0
M  V30 4921 O 862.145 -7.66872 -0.971405 0
M  V30 4922 C 861.205 -7.42309 -2.04641 0
M  V30 4923 C 861.935 -6.86059 -3.24661 0
M  V30 4924 O 862.145 -5.42847 -3.03646 0
M  V30 4925 C 863.335 -7.41196 -3.50753 0
M  V30 4926 O 863.725 -7.27073 -4.86816 0
M  V30 4927 C 864.215 -6.5273 -2.63741 0
M  V30 4928 C 863.505 -5.1842 -2.73198 0
M  V30 4929 N 863.555 -4.38762 -1.4784 0
M  V30 4930 H 860.716 -8.36803 -2.32493 0
M  V30 4931 H 860.446 -6.70197 -1.71129 0
M  V30 4932 H 861.313 -7.03551 -4.13168 0
M  V30 4933 P 865.275 -7.20834 -5.23717 0
M  V30 4934 O 865.495 -7.79853 -6.57286 0
M  V30 4935 O 866.065 -7.79239 -4.12957 0
M  V30 4936 O 865.525 -5.63315 -5.29344 0
M  V30 4937 C 864.585 -4.80255 -6.01876 0
M  V30 4938 C 865.315 -3.64202 -6.65911 0
M  V30 4939 O 865.525 -2.60694 -5.64732 0
M  V30 4940 C 866.715 -3.93473 -7.1943 0
M  V30 4941 O 867.105 -3.02071 -8.21205 0
M  V30 4942 C 867.595 -3.73047 -5.97036 0
M  V30 4943 C 866.885 -2.58828 -5.25741 0
M  V30 4944 N 866.935 -2.68068 -3.77503 0
M  V30 4945 H 864.096 -5.40332 -6.79951 0
M  V30 4946 H 863.826 -4.41613 -5.32378 0
M  V30 4947 H 864.693 -3.26331 -7.47797 0
M  V30 4948 P 868.655 -2.75334 -8.47391 0
M  V30 4949 O 868.875 -2.44571 -9.90142 0
M  V30 4950 O 869.445 -3.87688 -7.92115 0
M  V30 4951 O 868.905 -1.4459 -7.59357 0
M  V30 4952 C 867.965 -0.347608 -7.69215 0
M  V30 4953 C 868.695 0.96767 -7.52806 0
M  V30 4954 O 868.905 1.21036 -6.1011 0
M  V30 4955 C 870.095 1.04544 -8.13308 0
M  V30 4956 O 870.485 2.38311 -8.41922 0
M  V30 4957 C 870.975 0.491279 -7.02284 0
M  V30 4958 C 870.265 0.996264 -5.77469 0
M  V30 4959 N 870.315 0.0501916 -4.62973 0
M  V30 4960 H 867.476 -0.374722 -8.67691 0
M  V30 4961 H 867.206 -0.443485 -6.90277 0
M  V30 4962 H 868.073 1.75537 -7.96793 0
M  V30 4963 P 872.035 2.75334 -8.47391 0
M  V30 4964 O 872.255 3.84128 -9.44797 0
M  V30 4965 O 872.825 1.51947 -8.68712 0
M  V30 4966 O 872.285 3.29363 -6.99321 0
M  V30 4967 C 871.345 4.24011 -6.4274 0
M  V30 4968 C 872.075 5.20775 -5.52155 0
M  V30 4969 O 872.285 4.56534 -4.22446 0
M  V30 4970 C 873.475 5.62629 -5.96531 0
M  V30 4971 O 873.865 6.87667 -5.41053 0
M  V30 4972 C 874.355 4.52537 -5.39283 0
M  V30 4973 C 873.645 4.20027 -4.08623 0
M  V30 4974 N 873.695 2.76189 -3.71603 0
M  V30 4975 H 870.856 4.797 -7.24003 0
M  V30 4976 H 870.586 3.69856 -5.84513 0
M  V30 4977 H 871.453 6.10356 -5.41441 0
M  V30 4978 P 875.415 7.20834 -5.23717 0
M  V30 4979 O 875.635 8.66104 -5.38572 0
M  V30 4980 O 876.205 6.33544 -6.1349 0
M  V30 4981 O 875.665 6.7751 -3.72168 0
M  V30 4982 C 874.725 7.20825 -2.7076 0
M  V30 4983 C 875.455 7.45864 -1.40599 0
M  V30 4984 O 875.665 6.17651 -0.734225 0
M  V30 4985 C 876.855 8.05808 -1.51899 0
M  V30 4986 O 877.245 8.74358 -0.335205 0
M  V30 4987 C 877.735 6.83093 -1.70294 0
M  V30 4988 C 877.025 5.79992 -0.836974 0
M  V30 4989 N 877.075 4.41864 -1.38293 0
M  V30 4990 H 874.236 8.13644 -3.0377 0
M  V30 4991 H 873.966 6.42788 -2.55485 0
M  V30 4992 H 874.833 8.12039 -0.792769 0
M  V30 4993 P 878.795 8.91 6.40081e-12 0
M  V30 4994 O 879.015 10.1726 0.733694 0
M  V30 4995 O 879.585 8.73148 -1.23936 0
M  V30 4996 O 879.045 7.66872 0.971405 0
M  V30 4997 C 878.105 7.42309 2.04641 0
M  V30 4998 C 878.835 6.86059 3.24661 0
M  V30 4999 O 879.045 5.42847 3.03646 0
M  V30 5000 C 880.235 7.41196 3.50753 0
M  V30 5001 O 880.625 7.27073 4.86816 0
M  V30 5002 C 881.115 6.5273 2.63741 0
M  V30 5003 C 880.405 5.1842 2.73198 0
M  V30 5004 N 880.455 4.38762 1.4784 0
M  V30 5005 H 877.616 8.36803 2.32493 0
M  V30 5006 H 877.346 6.70197 1.71129 0
M  V30 5007 H 878.213 7.03551 4.13168 0
M  V30 5008 P 882.175 7.20834 5.23717 0
M  V30 5009 O 882.395 7.79853 6.57286 0
M  V30 5010 O 882.965 7.79239 4.12957 0
M  V30 5011 O 882.425 5.63315 5.29344 0
M  V30 5012 C 881.485 4.80255 6.01876 0
M  V30 5013 C 882.215 3.64202 6.65911 0
M  V30 5014 O 882.425 2.60694 5.64732 0
M  V30 5015 C 883.615 3.93473 7.1943 0
M  V30 5016 O 884.005 3.02071 8.21205 0
M  V30 5017 C 884.495 3.73047 5.97036 0
M  V30 5018 C 883.785 2.58828 5.25741 0
M  V30 5019 N 883.835 2.68068 3.77503 0
M  V30 5020 H 880.996 5.40332 6.79951 0
M  V30 5021 H 880.726 4.41613 5.32378 0
M  V30 5022 H 881.593 3.26331 7.47797 0
M  V30 5023 P 885.555 2.75334 8.47391 0
M  V30 5024 O 885.775 2.44571 9.90142 0
M  V30 5025 O 886.345 3.87688 7.92115 0
M  V30 5026 O 885.805 1.4459 7.59357 0
M  V30 5027 C 884.865 0.347608 7.69215 0
M  V30 5028 C 885.595 -0.96767 7.52806 0
M  V30 5029 O 885.805 -1.21036 6.1011 0
M  V30 5030 C 886.995 -1.04544 8.13308 0
M  V30 5031 O 887.385 -2.38311 8.41922 0
M  V30 5032 C 887.875 -0.491279 7.02284 0
M  V30 5033 C 887.165 -0.996264 5.77469 0
M  V30 5034 N 887.215 -0.0501916 4.62973 0
M  V30 5035 H 884.376 0.374722 8.67691 0
M  V30 5036 H 884.106 0.443485 6.90277 0
M  V30 5037 H 884.973 -1.75537 7.96793 0
M  V30 5038 P 888.935 -2.75334 8.47391 0
M  V30 5039 O 889.155 -3.84128 9.44797 0
M  V30 5040 O 889.725 -1.51947 8.68712 0
M  V30 5041 O 889.185 -3.29363 6.99321 0
M  V30 5042 C 888.245 -4.24011 6.4274 0
M  V30 5043 C 888.975 -5.20775 5.52155 0
M  V30 5044 O 889.185 -4.56534 4.22446 0
M  V30 5045 C 890.375 -5.62629 5.96531 0
M  V30 5046 O 890.765 -6.87667 5.41053 0
M  V30 5047 C 891.255 -4.52537 5.39283 0
M  V30 5048 C 890.545 -4.20027 4.08623 0
M  V30 5049 N 890.595 -2.76189 3.71603 0
M  V30 5050 C 890.515 -1.64862 4.52822 0
M  V30 5051 N 890.595 -0.512671 3.88633 0
M  V30 5052 C 890.735 -0.888083 2.54977 0
M  V30 5053 C 890.865 -0.094668 1.38677 0
M  V30 5054 N 890.985 -0.890102 0.232633 0
M  V30 5055 C 890.985 -2.26958 0.21772 0
M  V30 5056 N 891.115 -2.84626 -0.97925 0
M  V30 5057 N 890.855 -3.0178 1.31033 0
M  V30 5058 C 890.735 -2.26781 2.43843 0
M  V30 5059 H 887.756 -4.797 7.24003 0
M  V30 5060 H 887.486 -3.69856 5.84513 0
M  V30 5061 H 888.353 -6.10356 5.41441 0
M  V30 5062 P 892.315 -7.20834 5.23717 0
M  V30 5063 O 892.535 -8.66104 5.38572 0
M  V30 5064 O 893.105 -6.33544 6.1349 0
M  V30 5065 O 892.565 -6.7751 3.72168 0
M  V30 5066 C 891.625 -7.20825 2.7076 0
M  V30 5067 C 892.355 -7.45864 1.40599 0
M  V30 5068 O 892.565 -6.17651 0.734225 0
M  V30 5069 C 893.755 -8.05808 1.51899 0
M  V30 5070 O 894.145 -8.74358 0.335205 0
M  V30 5071 C 894.635 -6.83093 1.70294 0
M  V30 5072 C 893.925 -5.79992 0.836974 0
M  V30 5073 N 893.975 -4.41864 1.38293 0
M  V30 5074 H 891.136 -8.13644 3.0377 0
M  V30 5075 H 890.866 -6.42788 2.55485 0
M  V30 5076 H 891.733 -8.12039 0.792769 0
M  V30 5077 P 895.695 -8.91 -6.558e-12 0
M  V30 5078 O 895.915 -10.1746 -0.733838 0
M  V30 5079 O 896.485 -8.73346 1.23964 0
M  V30 5080 O 895.945 -7.66872 -0.971405 0
M  V30 5081 C 895.005 -7.42405 -2.04668 0
M  V30 5082 C 895.735 -6.86059 -3.24661 0
M  V30 5083 O 895.945 -5.42934 -3.03695 0
M  V30 5084 C 897.135 -7.41287 -3.50796 0
M  V30 5085 O 897.525 -7.27073 -4.86816 0
M  V30 5086 C 898.015 -6.5273 -2.63741 0
M  V30 5087 C 897.305 -5.1842 -2.73198 0
M  V30 5088 N 897.355 -4.38762 -1.4784 0
M  V30 5089 C 897.275 -4.83651 -0.183876 0
M  V30 5090 N 897.345 -3.88759 0.699393 0
M  V30 5091 C 897.495 -2.7404 -0.0575568 0
M  V30 5092 C 897.625 -1.37902 0.293928 0
M  V30 5093 N 897.635 -0.938021 1.54797 0
M  V30 5094 N 897.745 -0.491817 -0.70549 0
M  V30 5095 C 897.735 -0.931735 -1.95979 0
M  V30 5096 N 897.615 -2.16017 -2.41481 0
M  V30 5097 C 897.495 -3.02547 -1.39121 0
M  V30 5098 H 894.517 -8.36899 -2.3252 0
M  V30 5099 H 894.245 -6.70391 -1.71179 0
M  V30 5100 H 895.113 -7.03638 -4.13219 0
M  V30 5101 H 897.768 -4.59931 -3.54016 0
M  V30 5102 H 898.048 -6.88995 -1.59871 0
M  V30 5103 H 899.039 -6.4684 -3.0373 0
M  V30 5104 H 897.205 -8.47002 -3.20749 0
M  V30 5105 H 897.164 -5.8885 0.0765548 0
M  V30 5106 H 897.545 -1.60276 2.32875 0
M  V30 5107 H 897.734 0.0699355 1.73859 0
M  V30 5108 H 897.842 -0.165507 -2.71897 0
M  V30 5109 P 899.075 -7.20834 -5.23717 0
M  V30 5110 O 899.295 -7.79853 -6.57286 0
M  V30 5111 O 899.865 -7.79239 -4.12957 0
M  V30 5112 O 899.325 -5.63315 -5.29344 0
M  V30 5113 C 898.385 -4.80255 -6.01876 0
M  V30 5114 C 899.115 -3.64202 -6.65911 0
M  V30 5115 O 899.325 -2.60694 -5.64732 0
M  V30 5116 C 900.515 -3.93473 -7.1943 0
M  V30 5117 O 900.905 -3.02071 -8.21205 0
M  V30 5118 C 901.395 -3.73047 -5.97036 0
M  V30 5119 C 900.685 -2.58828 -5.25741 0
M  V30 5120 N 900.735 -2.68068 -3.77503 0
M  V30 5121 C 900.655 -3.79715 -2.96723 0
M  V30 5122 N 900.735 -3.5377 -1.68852 0
M  V30 5123 C 900.875 -2.15054 -1.63254 0
M  V30 5124 C 901.005 -1.28964 -0.518571 0
M  V30 5125 N 901.125 0.0538097 -0.918425 0
M  V30 5126 C 901.125 0.494275 -2.22578 0
M  V30 5127 N 901.255 1.81086 -2.40434 0
M  V30 5128 N 900.995 -0.313645 -3.27502 0
M  V30 5129 C 900.875 -1.61829 -2.91033 0
M  V30 5130 H 897.896 -5.40332 -6.79951 0
M  V30 5131 H 897.626 -4.41613 -5.32378 0
M  V30 5132 H 898.493 -3.26331 -7.47797 0
M  V30 5133 P 902.455 -2.75334 -8.47391 0
M  V30 5134 O 902.675 -2.44619 -9.90336 0
M  V30 5135 O 903.245 -3.87776 -7.92294 0
M  V30 5136 O 902.705 -1.4459 -7.59357 0
M  V30 5137 C 901.765 -0.347653 -7.69315 0
M  V30 5138 C 902.495 0.96767 -7.52806 0
M  V30 5139 O 902.705 1.21055 -6.10208 0
M  V30 5140 C 903.895 1.04557 -8.13408 0
M  V30 5141 O 904.285 2.38311 -8.41922 0
M  V30 5142 C 904.775 0.491279 -7.02284 0
M  V30 5143 C 904.065 0.996264 -5.77469 0
M  V30 5144 N 904.115 0.0501916 -4.62973 0
M  V30 5145 C 904.035 -1.31969 -4.65661 0
M  V30 5146 N 904.105 -1.86649 -3.48119 0
M  V30 5147 C 904.255 -0.792089 -2.62406 0
M  V30 5148 C 904.385 -0.705684 -1.2207 0
M  V30 5149 N 904.395 -1.76207 -0.413762 0
M  V30 5150 N 904.505 0.518981 -0.685754 0
M  V30 5151 C 904.495 1.57595 -1.49174 0
M  V30 5152 N 904.375 1.62909 -2.80066 0
M  V30 5153 C 904.255 0.388195 -3.3073 0
M  V30 5154 H 901.277 -0.374765 -8.67791 0
M  V30 5155 H 901.005 -0.443613 -6.90476 0
M  V30 5156 H 901.873 1.75559 -7.96891 0
M  V30 5157 H 904.528 1.94563 -5.46818 0
M  V30 5158 H 904.808 -0.608651 -7.04676 0
M  V30 5159 H 905.799 0.889796 -7.09039 0
M  V30 5160 H 903.965 0.433128 -9.04664 0
M  V30 5161 H 903.924 -1.89246 -5.57664 0
M  V30 5162 H 904.305 -2.71005 -0.804694 0
M  V30 5163 H 904.494 -1.63189 0.603768 0
M  V30 5164 H 904.602 2.53475 -0.997614 0
M  V30 5165 P 905.835 2.75334 -8.47391 0
M  V30 5166 O 906.055 3.84128 -9.44797 0
M  V30 5167 O 906.625 1.51947 -8.68712 0
M  V30 5168 O 906.085 3.29363 -6.99321 0
M  V30 5169 C 905.145 4.24011 -6.4274 0
M  V30 5170 C 905.875 5.20775 -5.52155 0
M  V30 5171 O 906.085 4.56534 -4.22446 0
M  V30 5172 C 907.275 5.62629 -5.96531 0
M  V30 5173 O 907.665 6.87667 -5.41053 0
M  V30 5174 C 908.155 4.52537 -5.39283 0
M  V30 5175 C 907.445 4.20027 -4.08623 0
M  V30 5176 N 907.495 2.76189 -3.71603 0
M  V30 5177 C 907.415 1.64862 -4.52822 0
M  V30 5178 N 907.495 0.512671 -3.88633 0
M  V30 5179 C 907.635 0.888083 -2.54977 0
M  V30 5180 C 907.765 0.094668 -1.38677 0
M  V30 5181 O 907.785 -1.13053 -1.28163 0
M  V30 5182 N 907.885 0.890102 -0.232633 0
M  V30 5183 C 907.885 2.26958 -0.21772 0
M  V30 5184 N 908.015 2.84626 0.97925 0
M  V30 5185 N 907.755 3.0178 -1.31033 0
M  V30 5186 C 907.635 2.26781 -2.43843 0
M  V30 5187 H 904.656 4.797 -7.24003 0
M  V30 5188 H 904.386 3.69856 -5.84513 0
M  V30 5189 H 905.253 6.10356 -5.41441 0
M  V30 5190 H 907.908 4.79061 -3.27488 0
M  V30 5191 H 908.187 3.64906 -6.05785 0
M  V30 5192 H 909.179 4.8868 -5.2125 0
M  V30 5193 H 907.345 5.66726 -7.06352 0
M  V30 5194 H 907.296 1.71169 -5.60966 0
M  V30 5195 H 907.978 0.419134 0.644739 0
M  V30 5196 H 908.015 3.87332 1.06098 0
M  V30 5197 H 908.116 2.26417 1.82483 0
M  V30 5198 P 909.215 7.20834 -5.23717 0
M  V30 5199 O 909.435 8.66104 -5.38572 0
M  V30 5200 O 910.005 6.33544 -6.1349 0
M  V30 5201 O 909.465 6.7751 -3.72168 0
M  V30 5202 C 908.525 7.20825 -2.7076 0
M  V30 5203 C 909.255 7.45864 -1.40599 0
M  V30 5204 O 909.465 6.17651 -0.734225 0
M  V30 5205 C 910.655 8.05808 -1.51899 0
M  V30 5206 O 911.045 8.74358 -0.335205 0
M  V30 5207 C 911.535 6.83093 -1.70294 0
M  V30 5208 C 910.825 5.79992 -0.836974 0
M  V30 5209 N 910.875 4.41864 -1.38293 0
M  V30 5210 H 908.036 8.13644 -3.0377 0
M  V30 5211 H 907.766 6.42788 -2.55485 0
M  V30 5212 H 908.633 8.12039 -0.792769 0
M  V30 5213 P 912.595 8.91 6.71518e-12 0
M  V30 5214 O 912.815 10.1726 0.733694 0
M  V30 5215 O 913.385 8.73148 -1.23936 0
M  V30 5216 O 912.845 7.66872 0.971405 0
M  V30 5217 C 911.905 7.42309 2.04641 0
M  V30 5218 C 912.635 6.86059 3.24661 0
M  V30 5219 O 912.845 5.42847 3.03646 0
M  V30 5220 C 914.035 7.41196 3.50753 0
M  V30 5221 O 914.425 7.27073 4.86816 0
M  V30 5222 C 914.915 6.5273 2.63741 0
M  V30 5223 C 914.205 5.1842 2.73198 0
M  V30 5224 N 914.255 4.38762 1.4784 0
M  V30 5225 H 911.416 8.36803 2.32493 0
M  V30 5226 H 911.146 6.70197 1.71129 0
M  V30 5227 H 912.013 7.03551 4.13168 0
M  V30 5228 P 915.975 7.20834 5.23717 0
M  V30 5229 O 916.195 7.80006 6.57415 0
M  V30 5230 O 916.765 7.79416 4.13051 0
M  V30 5231 O 916.225 5.63315 5.29344 0
M  V30 5232 C 915.285 4.80318 6.01954 0
M  V30 5233 C 916.015 3.64202 6.65911 0
M  V30 5234 O 916.225 2.60736 5.64823 0
M  V30 5235 C 917.415 3.93521 7.19518 0
M  V30 5236 O 917.805 3.02071 8.21205 0
M  V30 5237 C 918.295 3.73047 5.97036 0
M  V30 5238 C 917.585 2.58828 5.25741 0
M  V30 5239 N 917.635 2.68068 3.77503 0
M  V30 5240 C 917.555 3.80474 2.99159 0
M  V30 5241 N 917.625 3.55622 1.71925 0
M  V30 5242 C 917.775 2.1832 1.65733 0
M  V30 5243 C 917.905 1.28842 0.572777 0
M  V30 5244 N 917.915 1.66875 -0.70098 0
M  V30 5245 N 918.025 -0.016788 0.859836 0
M  V30 5246 C 918.015 -0.398145 2.13316 0
M  V30 5247 N 917.895 0.328224 3.22333 0
M  V30 5248 C 917.775 1.62992 2.90383 0
M  V30 5249 H 914.797 5.40394 6.8003 0
M  V30 5250 H 914.525 4.41741 5.32532 0
M  V30 5251 H 915.393 3.26371 7.47889 0
M  V30 5252 H 918.048 1.64007 5.56746 0
M  V30 5253 H 918.328 4.63439 5.3432 0
M  V30 5254 H 919.319 3.44776 6.25925 0
M  V30 5255 H 917.485 4.96707 7.57347 0
M  V30 5256 H 917.444 4.8089 3.39924 0
M  V30 5257 H 917.825 2.66547 -0.941919 0
M  V30 5258 H 918.014 0.965341 -1.44766 0
M  V30 5259 H 918.122 -1.46427 2.29697 0
M  V30 5260 P 919.355 2.75334 8.47391 0
M  V30 5261 O 919.575 2.44571 9.90142 0
M  V30 5262 O 920.145 3.87688 7.92115 0
M  V30 5263 O 919.605 1.4459 7.59357 0
M  V30 5264 C 918.665 0.347608 7.69215 0
M  V30 5265 C 919.395 -0.96767 7.52806 0
M  V30 5266 O 919.605 -1.21036 6.1011 0
M  V30 5267 C 920.795 -1.04544 8.13308 0
M  V30 5268 O 921.185 -2.38311 8.41922 0
M  V30 5269 C 921.675 -0.491279 7.02284 0
M  V30 5270 C 920.965 -0.996264 5.77469 0
M  V30 5271 N 921.015 -0.0501916 4.62973 0
M  V30 5272 H 918.176 0.374722 8.67691 0
M  V30 5273 H 917.906 0.443485 6.90277 0
M  V30 5274 H 918.773 -1.75537 7.96793 0
M  V30 5275 P 922.735 -2.75334 8.47391 0
M  V30 5276 O 922.955 -3.84128 9.44797 0
M  V30 5277 O 923.525 -1.51947 8.68712 0
M  V30 5278 O 922.985 -3.29363 6.99321 0
M  V30 5279 C 922.045 -4.24011 6.4274 0
M  V30 5280 C 922.775 -5.20775 5.52155 0
M  V30 5281 O 922.985 -4.56534 4.22446 0
M  V30 5282 C 924.175 -5.62629 5.96531 0
M  V30 5283 O 924.565 -6.87667 5.41053 0
M  V30 5284 C 925.055 -4.52537 5.39283 0
M  V30 5285 C 924.345 -4.20027 4.08623 0
M  V30 5286 N 924.395 -2.76189 3.71603 0
M  V30 5287 H 921.556 -4.797 7.24003 0
M  V30 5288 H 921.286 -3.69856 5.84513 0
M  V30 5289 H 922.153 -6.10356 5.41441 0
M  V30 5290 P 926.115 -7.20834 5.23717 0
M  V30 5291 O 926.335 -8.66104 5.38572 0
M  V30 5292 O 926.905 -6.33544 6.1349 0
M  V30 5293 O 926.365 -6.7751 3.72168 0
M  V30 5294 C 925.425 -7.20825 2.7076 0
M  V30 5295 C 926.155 -7.45864 1.40599 0
M  V30 5296 O 926.365 -6.17651 0.734225 0
M  V30 5297 C 927.555 -8.05808 1.51899 0
M  V30 5298 O 927.945 -8.74358 0.335205 0
M  V30 5299 C 928.435 -6.83093 1.70294 0
M  V30 5300 C 927.725 -5.79992 0.836974 0
M  V30 5301 N 927.775 -4.41864 1.38293 0
M  V30 5302 H 924.936 -8.13644 3.0377 0
M  V30 5303 H 924.666 -6.42788 2.55485 0
M  V30 5304 H 925.533 -8.12039 0.792769 0
M  V30 5305 P 929.495 -8.91 -6.87236e-12 0
M  V30 5306 O 929.715 -10.1726 -0.733694 0
M  V30 5307 O 930.285 -8.73148 1.23936 0
M  V30 5308 O 929.745 -7.66872 -0.971405 0
M  V30 5309 C 928.805 -7.42309 -2.04641 0
M  V30 5310 C 929.535 -6.86059 -3.24661 0
M  V30 5311 O 929.745 -5.42847 -3.03646 0
M  V30 5312 C 930.935 -7.41196 -3.50753 0
M  V30 5313 O 931.325 -7.27073 -4.86816 0
M  V30 5314 C 931.815 -6.5273 -2.63741 0
M  V30 5315 C 931.105 -5.1842 -2.73198 0
M  V30 5316 N 931.155 -4.38762 -1.4784 0
M  V30 5317 H 928.316 -8.36803 -2.32493 0
M  V30 5318 H 928.046 -6.70197 -1.71129 0
M  V30 5319 H 928.913 -7.03551 -4.13168 0
M  V30 5320 P 932.874 -7.20834 -5.23717 0
M  V30 5321 O 933.094 -7.79853 -6.57286 0
M  V30 5322 O 933.664 -7.79239 -4.12957 0
M  V30 5323 O 933.124 -5.63315 -5.29344 0
M  V30 5324 C 932.184 -4.80255 -6.01876 0
M  V30 5325 C 932.914 -3.64202 -6.65911 0
M  V30 5326 O 933.124 -2.60694 -5.64732 0
M  V30 5327 C 934.314 -3.93473 -7.1943 0
M  V30 5328 O 934.704 -3.02071 -8.21205 0
M  V30 5329 C 935.194 -3.73047 -5.97036 0
M  V30 5330 C 934.484 -2.58828 -5.25741 0
M  V30 5331 N 934.534 -2.68068 -3.77503 0
M  V30 5332 H 931.695 -5.40332 -6.79951 0
M  V30 5333 H 931.425 -4.41613 -5.32378 0
M  V30 5334 H 932.292 -3.26331 -7.47797 0
M  V30 5335 P 936.254 -2.75334 -8.47391 0
M  V30 5336 O 936.474 -2.44571 -9.90142 0
M  V30 5337 O 937.044 -3.87688 -7.92115 0
M  V30 5338 O 936.504 -1.4459 -7.59357 0
M  V30 5339 C 935.564 -0.347608 -7.69215 0
M  V30 5340 C 936.294 0.96767 -7.52806 0
M  V30 5341 O 936.504 1.21036 -6.1011 0
M  V30 5342 C 937.694 1.04544 -8.13308 0
M  V30 5343 O 938.084 2.38311 -8.41922 0
M  V30 5344 C 938.574 0.491279 -7.02284 0
M  V30 5345 C 937.864 0.996264 -5.77469 0
M  V30 5346 N 937.914 0.0501916 -4.62973 0
M  V30 5347 C 937.834 -1.32786 -4.63244 0
M  V30 5348 N 937.914 -1.86957 -3.44545 0
M  V30 5349 C 938.054 -0.780241 -2.58481 0
M  V30 5350 C 938.184 -0.738536 -1.17757 0
M  V30 5351 O 938.204 -1.66794 -0.372349 0
M  V30 5352 N 938.304 0.58337 -0.711393 0
M  V30 5353 C 938.304 1.70816 -1.51017 0
M  V30 5354 N 938.434 2.87826 -0.880757 0
M  V30 5355 N 938.174 1.67126 -2.8339 0
M  V30 5356 C 938.054 0.401421 -3.30572 0
M  V30 5357 H 935.075 -0.374722 -8.67691 0
M  V30 5358 H 934.805 -0.443485 -6.90277 0
M  V30 5359 H 935.672 1.75537 -7.96793 0
M  V30 5360 H 938.327 1.95076 -5.46529 0
M  V30 5361 H 938.606 -0.608565 -7.04577 0
M  V30 5362 H 939.598 0.889672 -7.08939 0
M  V30 5363 H 937.764 0.43308 -9.04564 0
M  V30 5364 H 937.715 -1.91249 -5.54442 0
M  V30 5365 H 938.397 0.718054 0.275244 0
M  V30 5366 H 938.434 3.75721 -1.41832 0
M  V30 5367 H 938.535 2.90436 0.145468 0
M  V30 5368 P 939.634 2.75334 -8.47391 0
M  V30 5369 O 939.854 3.84128 -9.44797 0
M  V30 5370 O 940.424 1.51947 -8.68712 0
M  V30 5371 O 939.884 3.29363 -6.99321 0
M  V30 5372 C 938.944 4.24011 -6.4274 0
M  V30 5373 C 939.674 5.20775 -5.52155 0
M  V30 5374 O 939.884 4.56534 -4.22446 0
M  V30 5375 C 941.074 5.62629 -5.96531 0
M  V30 5376 O 941.464 6.87667 -5.41053 0
M  V30 5377 C 941.954 4.52537 -5.39283 0
M  V30 5378 C 941.244 4.20027 -4.08623 0
M  V30 5379 N 941.294 2.76189 -3.71603 0
M  V30 5380 H 938.455 4.797 -7.24003 0
M  V30 5381 H 938.185 3.69856 -5.84513 0
M  V30 5382 H 939.052 6.10356 -5.41441 0
M  V30 5383 P 943.014 7.20834 -5.23717 0
M  V30 5384 O 943.234 8.66104 -5.38572 0
M  V30 5385 O 943.804 6.33544 -6.1349 0
M  V30 5386 O 943.264 6.7751 -3.72168 0
M  V30 5387 C 942.324 7.20825 -2.7076 0
M  V30 5388 C 943.054 7.45864 -1.40599 0
M  V30 5389 O 943.264 6.17651 -0.734225 0
M  V30 5390 C 944.454 8.05808 -1.51899 0
M  V30 5391 O 944.844 8.74358 -0.335205 0
M  V30 5392 C 945.334 6.83093 -1.70294 0
M  V30 5393 C 944.624 5.79992 -0.836974 0
M  V30 5394 N 944.674 4.41864 -1.38293 0
M  V30 5395 H 941.835 8.13644 -3.0377 0
M  V30 5396 H 941.565 6.42788 -2.55485 0
M  V30 5397 H 942.432 8.12039 -0.792769 0
M  V30 5398 P 946.394 8.91 7.02954e-12 0
M  V30 5399 O 946.614 10.1726 0.733694 0
M  V30 5400 O 947.184 8.73148 -1.23936 0
M  V30 5401 O 946.644 7.66872 0.971405 0
M  V30 5402 C 945.704 7.42309 2.04641 0
M  V30 5403 C 946.434 6.86059 3.24661 0
M  V30 5404 O 946.644 5.42847 3.03646 0
M  V30 5405 C 947.834 7.41196 3.50753 0
M  V30 5406 O 948.224 7.27073 4.86816 0
M  V30 5407 C 948.714 6.5273 2.63741 0
M  V30 5408 C 948.004 5.1842 2.73198 0
M  V30 5409 N 948.054 4.38762 1.4784 0
M  V30 5410 H 945.215 8.36803 2.32493 0
M  V30 5411 H 944.945 6.70197 1.71129 0
M  V30 5412 H 945.812 7.03551 4.13168 0
M  V30 5413 P 949.774 7.20834 5.23717 0
M  V30 5414 O 949.994 7.79853 6.57286 0
M  V30 5415 O 950.564 7.79239 4.12957 0
M  V30 5416 O 950.024 5.63315 5.29344 0
M  V30 5417 C 949.084 4.80255 6.01876 0
M  V30 5418 C 949.814 3.64202 6.65911 0
M  V30 5419 O 950.024 2.60694 5.64732 0
M  V30 5420 C 951.214 3.93473 7.1943 0
M  V30 5421 O 951.604 3.02071 8.21205 0
M  V30 5422 C 952.094 3.73047 5.97036 0
M  V30 5423 C 951.384 2.58828 5.25741 0
M  V30 5424 N 951.434 2.68068 3.77503 0
M  V30 5425 H 948.595 5.40332 6.79951 0
M  V30 5426 H 948.325 4.41613 5.32378 0
M  V30 5427 H 949.192 3.26331 7.47797 0
M  V30 5428 P 953.154 2.75334 8.47391 0
M  V30 5429 O 953.374 2.44571 9.90142 0
M  V30 5430 O 953.944 3.87688 7.92115 0
M  V30 5431 O 953.404 1.4459 7.59357 0
M  V30 5432 C 952.464 0.347608 7.69215 0
M  V30 5433 C 953.194 -0.96767 7.52806 0
M  V30 5434 O 953.404 -1.21036 6.1011 0
M  V30 5435 C 954.594 -1.04544 8.13308 0
M  V30 5436 O 954.984 -2.38311 8.41922 0
M  V30 5437 C 955.474 -0.491279 7.02284 0
M  V30 5438 C 954.764 -0.996264 5.77469 0
M  V30 5439 N 954.814 -0.0501916 4.62973 0
M  V30 5440 H 951.975 0.374722 8.67691 0
M  V30 5441 H 951.705 0.443485 6.90277 0
M  V30 5442 H 952.572 -1.75537 7.96793 0
M  V30 5443 P 956.534 -2.75334 8.47391 0
M  V30 5444 O 956.754 -3.84128 9.44797 0
M  V30 5445 O 957.324 -1.51947 8.68712 0
M  V30 5446 O 956.784 -3.29363 6.99321 0
M  V30 5447 C 955.844 -4.24011 6.4274 0
M  V30 5448 C 956.574 -5.20775 5.52155 0
M  V30 5449 O 956.784 -4.56534 4.22446 0
M  V30 5450 C 957.974 -5.62629 5.96531 0
M  V30 5451 O 958.364 -6.87667 5.41053 0
M  V30 5452 C 958.854 -4.52537 5.39283 0
M  V30 5453 C 958.144 -4.20027 4.08623 0
M  V30 5454 N 958.194 -2.76189 3.71603 0
M  V30 5455 H 955.355 -4.797 7.24003 0
M  V30 5456 H 955.085 -3.69856 5.84513 0
M  V30 5457 H 955.952 -6.10356 5.41441 0
M  V30 5458 P 959.914 -7.20834 5.23717 0
M  V30 5459 O 960.134 -8.66104 5.38572 0
M  V30 5460 O 960.704 -6.33544 6.1349 0
M  V30 5461 O 960.164 -6.7751 3.72168 0
M  V30 5462 C 959.224 -7.20825 2.7076 0
M  V30 5463 C 959.954 -7.45864 1.40599 0
M  V30 5464 O 960.164 -6.17651 0.734225 0
M  V30 5465 C 961.354 -8.05808 1.51899 0
M  V30 5466 O 961.744 -8.74358 0.335205 0
M  V30 5467 C 962.234 -6.83093 1.70294 0
M  V30 5468 C 961.524 -5.79992 0.836974 0
M  V30 5469 N 961.574 -4.41864 1.38293 0
M  V30 5470 H 958.735 -8.13644 3.0377 0
M  V30 5471 H 958.465 -6.42788 2.55485 0
M  V30 5472 H 959.332 -8.12039 0.792769 0
M  V30 5473 P 963.294 -8.91 -7.18673e-12 0
M  V30 5474 O 963.514 -10.1746 -0.733838 0
M  V30 5475 O 964.084 -8.73346 1.23964 0
M  V30 5476 O 963.544 -7.66872 -0.971405 0
M  V30 5477 C 962.604 -7.42405 -2.04668 0
M  V30 5478 C 963.334 -6.86059 -3.24661 0
M  V30 5479 O 963.544 -5.42934 -3.03695 0
M  V30 5480 C 964.734 -7.41287 -3.50796 0
M  V30 5481 O 965.124 -7.27073 -4.86816 0
M  V30 5482 C 965.614 -6.5273 -2.63741 0
M  V30 5483 C 964.904 -5.1842 -2.73198 0
M  V30 5484 N 964.954 -4.38762 -1.4784 0
M  V30 5485 H 962.116 -8.36899 -2.3252 0
M  V30 5486 H 961.844 -6.70391 -1.71179 0
M  V30 5487 H 962.712 -7.03638 -4.13219 0
M  V30 5488 H 965.367 -4.59931 -3.54016 0
M  V30 5489 H 965.647 -6.88995 -1.59871 0
M  V30 5490 H 966.638 -6.4684 -3.0373 0
M  V30 5491 H 964.804 -8.47002 -3.20749 0
M  V30 5492 P 966.674 -7.20834 -5.23717 0
M  V30 5493 O 966.894 -7.79853 -6.57286 0
M  V30 5494 O 967.464 -7.79239 -4.12957 0
M  V30 5495 O 966.924 -5.63315 -5.29344 0
M  V30 5496 C 965.984 -4.80255 -6.01876 0
M  V30 5497 C 966.714 -3.64202 -6.65911 0
M  V30 5498 O 966.924 -2.60694 -5.64732 0
M  V30 5499 C 968.114 -3.93473 -7.1943 0
M  V30 5500 O 968.504 -3.02071 -8.21205 0
M  V30 5501 C 968.994 -3.73047 -5.97036 0
M  V30 5502 C 968.284 -2.58828 -5.25741 0
M  V30 5503 N 968.334 -2.68068 -3.77503 0
M  V30 5504 C 968.254 -3.79715 -2.96723 0
M  V30 5505 N 968.334 -3.5377 -1.68852 0
M  V30 5506 C 968.474 -2.15054 -1.63254 0
M  V30 5507 C 968.604 -1.28964 -0.518571 0
M  V30 5508 N 968.724 0.0538097 -0.918425 0
M  V30 5509 C 968.724 0.494275 -2.22578 0
M  V30 5510 N 968.854 1.81086 -2.40434 0
M  V30 5511 N 968.594 -0.313645 -3.27502 0
M  V30 5512 C 968.474 -1.61829 -2.91033 0
M  V30 5513 H 965.495 -5.40332 -6.79951 0
M  V30 5514 H 965.225 -4.41613 -5.32378 0
M  V30 5515 H 966.092 -3.26331 -7.47797 0
M  V30 5516 P 970.054 -2.75334 -8.47391 0
M  V30 5517 O 970.274 -2.44571 -9.90142 0
M  V30 5518 O 970.844 -3.87688 -7.92115 0
M  V30 5519 O 970.304 -1.4459 -7.59357 0
M  V30 5520 C 969.364 -0.347608 -7.69215 0
M  V30 5521 C 970.094 0.96767 -7.52806 0
M  V30 5522 O 970.304 1.21036 -6.1011 0
M  V30 5523 C 971.494 1.04544 -8.13308 0
M  V30 5524 O 971.884 2.38311 -8.41922 0
M  V30 5525 C 972.374 0.491279 -7.02284 0
M  V30 5526 C 971.664 0.996264 -5.77469 0
M  V30 5527 N 971.714 0.0501916 -4.62973 0
M  V30 5528 H 968.875 -0.374722 -8.67691 0
M  V30 5529 H 968.605 -0.443485 -6.90277 0
M  V30 5530 H 969.472 1.75537 -7.96793 0
M  V30 5531 P 973.434 2.75334 -8.47391 0
M  V30 5532 O 973.654 3.84128 -9.44797 0
M  V30 5533 O 974.224 1.51947 -8.68712 0
M  V30 5534 O 973.684 3.29363 -6.99321 0
M  V30 5535 C 972.744 4.24011 -6.4274 0
M  V30 5536 C 973.474 5.20775 -5.52155 0
M  V30 5537 O 973.684 4.56534 -4.22446 0
M  V30 5538 C 974.874 5.62629 -5.96531 0
M  V30 5539 O 975.264 6.87667 -5.41053 0
M  V30 5540 C 975.754 4.52537 -5.39283 0
M  V30 5541 C 975.044 4.20027 -4.08623 0
M  V30 5542 N 975.094 2.76189 -3.71603 0
M  V30 5543 H 972.255 4.797 -7.24003 0
M  V30 5544 H 971.985 3.69856 -5.84513 0
M  V30 5545 H 972.852 6.10356 -5.41441 0
M  V30 5546 P 976.814 7.20834 -5.23717 0
M  V30 5547 O 977.034 8.66104 -5.38572 0
M  V30 5548 O 977.604 6.33544 -6.1349 0
M  V30 5549 O 977.064 6.7751 -3.72168 0
M  V30 5550 C 976.124 7.20825 -2.7076 0
M  V30 5551 C 976.854 7.45864 -1.40599 0
M  V30 5552 O 977.064 6.17651 -0.734225 0
M  V30 5553 C 978.254 8.05808 -1.51899 0
M  V30 5554 O 978.644 8.74358 -0.335205 0
M  V30 5555 C 979.134 6.83093 -1.70294 0
M  V30 5556 C 978.424 5.79992 -0.836974 0
M  V30 5557 N 978.474 4.41864 -1.38293 0
M  V30 5558 H 975.635 8.13644 -3.0377 0
M  V30 5559 H 975.365 6.42788 -2.55485 0
M  V30 5560 H 976.232 8.12039 -0.792769 0
M  V30 5561 P 980.194 8.91 7.34391e-12 0
M  V30 5562 O 980.414 10.1726 0.733694 0
M  V30 5563 O 980.984 8.73148 -1.23936 0
M  V30 5564 O 980.444 7.66872 0.971405 0
M  V30 5565 C 979.504 7.42309 2.04641 0
M  V30 5566 C 980.234 6.86059 3.24661 0
M  V30 5567 O 980.444 5.42847 3.03646 0
M  V30 5568 C 981.634 7.41196 3.50753 0
M  V30 5569 O 982.024 7.27073 4.86816 0
M  V30 5570 C 982.514 6.5273 2.63741 0
M  V30 5571 C 981.804 5.1842 2.73198 0
M  V30 5572 N 981.854 4.38762 1.4784 0
M  V30 5573 H 979.015 8.36803 2.32493 0
M  V30 5574 H 978.745 6.70197 1.71129 0
M  V30 5575 H 979.612 7.03551 4.13168 0
M  V30 5576 P 983.574 7.20834 5.23717 0
M  V30 5577 O 983.794 7.79853 6.57286 0
M  V30 5578 O 984.364 7.79239 4.12957 0
M  V30 5579 O 983.824 5.63315 5.29344 0
M  V30 5580 C 982.884 4.80255 6.01876 0
M  V30 5581 C 983.614 3.64202 6.65911 0
M  V30 5582 O 983.824 2.60694 5.64732 0
M  V30 5583 C 985.014 3.93473 7.1943 0
M  V30 5584 O 985.404 3.02071 8.21205 0
M  V30 5585 C 985.894 3.73047 5.97036 0
M  V30 5586 C 985.184 2.58828 5.25741 0
M  V30 5587 N 985.234 2.68068 3.77503 0
M  V30 5588 H 982.395 5.40332 6.79951 0
M  V30 5589 H 982.125 4.41613 5.32378 0
M  V30 5590 H 982.992 3.26331 7.47797 0
M  V30 5591 P 986.954 2.75334 8.47391 0
M  V30 5592 O 987.174 2.44571 9.90142 0
M  V30 5593 O 987.744 3.87688 7.92115 0
M  V30 5594 O 987.204 1.4459 7.59357 0
M  V30 5595 C 986.264 0.347608 7.69215 0
M  V30 5596 C 986.994 -0.96767 7.52806 0
M  V30 5597 O 987.204 -1.21036 6.1011 0
M  V30 5598 C 988.394 -1.04544 8.13308 0
M  V30 5599 O 988.784 -2.38311 8.41922 0
M  V30 5600 C 989.274 -0.491279 7.02284 0
M  V30 5601 C 988.564 -0.996264 5.77469 0
M  V30 5602 N 988.614 -0.0501916 4.62973 0
M  V30 5603 H 985.775 0.374722 8.67691 0
M  V30 5604 H 985.505 0.443485 6.90277 0
M  V30 5605 H 986.372 -1.75537 7.96793 0
M  V30 5606 P 990.334 -2.75334 8.47391 0
M  V30 5607 O 990.554 -3.84204 9.44982 0
M  V30 5608 O 991.124 -1.51982 8.68909 0
M  V30 5609 O 990.584 -3.29363 6.99321 0
M  V30 5610 C 989.644 -4.24066 6.42823 0
M  V30 5611 C 990.374 -5.20775 5.52155 0
M  V30 5612 O 990.584 -4.56607 4.22514 0
M  V30 5613 C 991.774 -5.62697 5.96604 0
M  V30 5614 O 992.164 -6.87667 5.41053 0
M  V30 5615 C 992.654 -4.52537 5.39283 0
M  V30 5616 C 991.944 -4.20027 4.08623 0
M  V30 5617 N 991.994 -2.76189 3.71603 0
M  V30 5618 C 991.914 -1.66944 4.54297 0
M  V30 5619 N 991.984 -0.536169 3.91344 0
M  V30 5620 C 992.134 -0.901569 2.58849 0
M  V30 5621 C 992.264 -0.146599 1.40236 0
M  V30 5622 N 992.274 1.18234 1.37046 0
M  V30 5623 N 992.384 -0.822941 0.249738 0
M  V30 5624 C 992.374 -2.15179 0.280525 0
M  V30 5625 N 992.254 -2.96414 1.30822 0
M  V30 5626 C 992.134 -2.25804 2.44748 0
M  V30 5627 H 989.156 -4.79756 7.24086 0
M  V30 5628 H 988.884 -3.69963 5.84682 0
M  V30 5629 H 989.752 -6.10431 5.41508 0
M  V30 5630 H 992.407 -4.78816 3.28024 0
M  V30 5631 H 992.687 -3.64957 6.05871 0
M  V30 5632 H 993.678 -4.88748 5.21323 0
M  V30 5633 H 991.844 -5.66789 7.0643 0
M  V30 5634 H 991.803 -1.74684 5.62396 0
M  V30 5635 H 992.184 1.71949 2.24394 0
M  V30 5636 H 992.373 1.67511 0.470742 0
M  V30 5637 H 992.481 -2.63704 -0.6828 0
M  V30 5638 P 993.714 -7.20834 5.23717 0
M  V30 5639 O 993.934 -8.66274 5.38678 0
M  V30 5640 O 994.504 -6.33687 6.13629 0
M  V30 5641 O 993.964 -6.7751 3.72168 0
M  V30 5642 C 993.024 -7.20919 2.70795 0
M  V30 5643 C 993.754 -7.45864 1.40599 0
M  V30 5644 O 993.964 -6.17751 0.734343 0
M  V30 5645 C 995.154 -8.05906 1.51917 0
M  V30 5646 O 995.544 -8.74358 0.335205 0
M  V30 5647 C 996.034 -6.83093 1.70294 0
M  V30 5648 C 995.324 -5.79992 0.836974 0
M  V30 5649 N 995.374 -4.41864 1.38293 0
M  V30 5650 C 995.294 -4.02089 2.69407 0
M  V30 5651 N 995.364 -2.73403 2.85089 0
M  V30 5652 C 995.514 -2.25086 1.5642 0
M  V30 5653 C 995.644 -0.942887 1.04836 0
M  V30 5654 N 995.654 0.150999 1.80369 0
M  V30 5655 N 995.764 -0.812565 -0.28167 0
M  V30 5656 C 995.754 -1.90572 -1.03784 0
M  V30 5657 N 995.634 -3.167 -0.683905 0
M  V30 5658 C 995.514 -3.26538 0.652815 0
M  V30 5659 H 992.536 -8.13738 3.03804 0
M  V30 5660 H 992.264 -6.42974 2.55559 0
M  V30 5661 H 993.132 -8.12139 0.792866 0
M  V30 5662 H 995.787 -5.80178 -0.160643 0
M  V30 5663 H 996.067 -6.51379 2.75643 0
M  V30 5664 H 997.058 -7.01832 1.3448 0
M  V30 5665 H 995.224 -8.73771 2.38364 0
M  V30 5666 H 995.183 -4.7189 3.52311 0
M  V30 5667 H 995.564 0.0721434 2.82608 0
M  V30 5668 H 995.753 1.0785 1.36544 0
M  V30 5669 H 995.861 -1.73207 -2.10241 0
M  V30 5670 P 997.094 -8.91 -7.50109e-12 0
M  V30 5671 O 997.314 -10.1726 -0.733694 0
M  V30 5672 O 997.884 -8.73148 1.23936 0
M  V30 5673 O 997.344 -7.66872 -0.971405 0
M  V30 5674 C 996.404 -7.42309 -2.04641 0
M  V30 5675 C 997.134 -6.86059 -3.24661 0
M  V30 5676 O 997.344 -5.42847 -3.03646 0
M  V30 5677 C 998.534 -7.41196 -3.50753 0
M  V30 5678 O 998.924 -7.27073 -4.86816 0
M  V30 5679 C 999.414 -6.5273 -2.63741 0
M  V30 5680 C 998.704 -5.1842 -2.73198 0
M  V30 5681 N 998.754 -4.38762 -1.4784 0
M  V30 5682 H 995.915 -8.36803 -2.32493 0
M  V30 5683 H 995.645 -6.70197 -1.71129 0
M  V30 5684 H 996.512 -7.03551 -4.13168 0
M  V30 5685 P 1000.47 -7.20834 -5.23717 0
M  V30 5686 O 1000.69 -7.79853 -6.57286 0
M  V30 5687 O 1001.26 -7.79239 -4.12957 0
M  V30 5688 O 1000.72 -5.63315 -5.29344 0
M  V30 5689 C 999.784 -4.80255 -6.01876 0
M  V30 5690 C 1000.51 -3.64202 -6.65911 0
M  V30 5691 O 1000.72 -2.60694 -5.64732 0
M  V30 5692 C 1001.91 -3.93473 -7.1943 0
M  V30 5693 O 1002.3 -3.02071 -8.21205 0
M  V30 5694 C 1002.79 -3.73047 -5.97036 0
M  V30 5695 C 1002.08 -2.58828 -5.25741 0
M  V30 5696 N 1002.13 -2.68068 -3.77503 0
M  V30 5697 C 1002.05 -3.79715 -2.96723 0
M  V30 5698 N 1002.13 -3.5377 -1.68852 0
M  V30 5699 C 1002.27 -2.15054 -1.63254 0
M  V30 5700 C 1002.4 -1.28964 -0.518571 0
M  V30 5701 N 1002.52 0.0538097 -0.918425 0
M  V30 5702 C 1002.52 0.494275 -2.22578 0
M  V30 5703 N 1002.65 1.81086 -2.40434 0
M  V30 5704 N 1002.39 -0.313645 -3.27502 0
M  V30 5705 C 1002.27 -1.61829 -2.91033 0
M  V30 5706 H 999.295 -5.40332 -6.79951 0
M  V30 5707 H 999.025 -4.41613 -5.32378 0
M  V30 5708 H 999.892 -3.26331 -7.47797 0
M  V30 5709 P 1003.85 -2.75334 -8.47391 0
M  V30 5710 O 1004.07 -2.44571 -9.90142 0
M  V30 5711 O 1004.64 -3.87688 -7.92115 0
M  V30 5712 O 1004.1 -1.4459 -7.59357 0
M  V30 5713 C 1003.16 -0.347608 -7.69215 0
M  V30 5714 C 1003.89 0.96767 -7.52806 0
M  V30 5715 O 1004.1 1.21036 -6.1011 0
M  V30 5716 C 1005.29 1.04544 -8.13308 0
M  V30 5717 O 1005.68 2.38311 -8.41922 0
M  V30 5718 C 1006.17 0.491279 -7.02284 0
M  V30 5719 C 1005.46 0.996264 -5.77469 0
M  V30 5720 N 1005.51 0.0501916 -4.62973 0
M  V30 5721 C 1005.43 -1.32786 -4.63244 0
M  V30 5722 N 1005.51 -1.86957 -3.44545 0
M  V30 5723 C 1005.65 -0.780241 -2.58481 0
M  V30 5724 C 1005.78 -0.738536 -1.17757 0
M  V30 5725 N 1005.9 0.58337 -0.711393 0
M  V30 5726 C 1005.9 1.70816 -1.51017 0
M  V30 5727 N 1006.03 2.87826 -0.880757 0
M  V30 5728 N 1005.77 1.67126 -2.8339 0
M  V30 5729 C 1005.65 0.401421 -3.30572 0
M  V30 5730 H 1002.68 -0.374722 -8.67691 0
M  V30 5731 H 1002.41 -0.443485 -6.90277 0
M  V30 5732 H 1003.27 1.75537 -7.96793 0
M  V30 5733 P 1007.23 2.75334 -8.47391 0
M  V30 5734 O 1007.45 3.84128 -9.44797 0
M  V30 5735 O 1008.02 1.51947 -8.68712 0
M  V30 5736 O 1007.48 3.29363 -6.99321 0
M  V30 5737 C 1006.54 4.24011 -6.4274 0
M  V30 5738 C 1007.27 5.20775 -5.52155 0
M  V30 5739 O 1007.48 4.56534 -4.22446 0
M  V30 5740 C 1008.67 5.62629 -5.96531 0
M  V30 5741 O 1009.06 6.87667 -5.41053 0
M  V30 5742 C 1009.55 4.52537 -5.39283 0
M  V30 5743 C 1008.84 4.20027 -4.08623 0
M  V30 5744 N 1008.89 2.76189 -3.71603 0
M  V30 5745 H 1006.06 4.797 -7.24003 0
M  V30 5746 H 1005.79 3.69856 -5.84513 0
M  V30 5747 H 1006.65 6.10356 -5.41441 0
M  V30 5748 P 1010.61 7.20834 -5.23717 0
M  V30 5749 O 1010.83 8.66104 -5.38572 0
M  V30 5750 O 1011.4 6.33544 -6.1349 0
M  V30 5751 O 1010.86 6.7751 -3.72168 0
M  V30 5752 C 1009.92 7.20825 -2.7076 0
M  V30 5753 C 1010.65 7.45864 -1.40599 0
M  V30 5754 O 1010.86 6.17651 -0.734225 0
M  V30 5755 C 1012.05 8.05808 -1.51899 0
M  V30 5756 O 1012.44 8.74358 -0.335205 0
M  V30 5757 C 1012.93 6.83093 -1.70294 0
M  V30 5758 C 1012.22 5.79992 -0.836974 0
M  V30 5759 N 1012.27 4.41864 -1.38293 0
M  V30 5760 H 1009.44 8.13644 -3.0377 0
M  V30 5761 H 1009.17 6.42788 -2.55485 0
M  V30 5762 H 1010.03 8.12039 -0.792769 0
M  V30 5763 P 1013.99 8.91 7.65827e-12 0
M  V30 5764 O 1014.21 10.1726 0.733694 0
M  V30 5765 O 1014.78 8.73148 -1.23936 0
M  V30 5766 O 1014.24 7.66872 0.971405 0
M  V30 5767 C 1013.3 7.42309 2.04641 0
M  V30 5768 C 1014.03 6.86059 3.24661 0
M  V30 5769 O 1014.24 5.42847 3.03646 0
M  V30 5770 C 1015.43 7.41196 3.50753 0
M  V30 5771 O 1015.82 7.27073 4.86816 0
M  V30 5772 C 1016.31 6.5273 2.63741 0
M  V30 5773 C 1015.6 5.1842 2.73198 0
M  V30 5774 N 1015.65 4.38762 1.4784 0
M  V30 5775 H 1012.82 8.36803 2.32493 0
M  V30 5776 H 1012.55 6.70197 1.71129 0
M  V30 5777 H 1013.41 7.03551 4.13168 0
M  V30 5778 P 1017.37 7.20834 5.23717 0
M  V30 5779 O 1017.59 7.79853 6.57286 0
M  V30 5780 O 1018.16 7.79239 4.12957 0
M  V30 5781 O 1017.62 5.63315 5.29344 0
M  V30 5782 C 1016.68 4.80255 6.01876 0
M  V30 5783 C 1017.41 3.64202 6.65911 0
M  V30 5784 O 1017.62 2.60694 5.64732 0
M  V30 5785 C 1018.81 3.93473 7.1943 0
M  V30 5786 O 1019.2 3.02071 8.21205 0
M  V30 5787 C 1019.69 3.73047 5.97036 0
M  V30 5788 C 1018.98 2.58828 5.25741 0
M  V30 5789 N 1019.03 2.68068 3.77503 0
M  V30 5790 H 1016.19 5.40332 6.79951 0
M  V30 5791 H 1015.92 4.41613 5.32378 0
M  V30 5792 H 1016.79 3.26331 7.47797 0
M  V30 5793 P 1020.75 2.75334 8.47391 0
M  V30 5794 O 1020.97 2.44571 9.90142 0
M  V30 5795 O 1021.54 3.87688 7.92115 0
M  V30 5796 O 1021 1.4459 7.59357 0
M  V30 5797 C 1020.06 0.347608 7.69215 0
M  V30 5798 C 1020.79 -0.96767 7.52806 0
M  V30 5799 O 1021 -1.21036 6.1011 0
M  V30 5800 C 1022.19 -1.04544 8.13308 0
M  V30 5801 O 1022.58 -2.38311 8.41922 0
M  V30 5802 C 1023.07 -0.491279 7.02284 0
M  V30 5803 C 1022.36 -0.996264 5.77469 0
M  V30 5804 N 1022.41 -0.0501916 4.62973 0
M  V30 5805 H 1019.57 0.374722 8.67691 0
M  V30 5806 H 1019.3 0.443485 6.90277 0
M  V30 5807 H 1020.17 -1.75537 7.96793 0
M  V30 5808 P 1024.13 -2.75334 8.47391 0
M  V30 5809 O 1024.35 -3.84128 9.44797 0
M  V30 5810 O 1024.92 -1.51947 8.68712 0
M  V30 5811 O 1024.38 -3.29363 6.99321 0
M  V30 5812 C 1023.44 -4.24011 6.4274 0
M  V30 5813 C 1024.17 -5.20775 5.52155 0
M  V30 5814 O 1024.38 -4.56534 4.22446 0
M  V30 5815 C 1025.57 -5.62629 5.96531 0
M  V30 5816 O 1025.96 -6.87667 5.41053 0
M  V30 5817 C 1026.45 -4.52537 5.39283 0
M  V30 5818 C 1025.74 -4.20027 4.08623 0
M  V30 5819 N 1025.79 -2.76189 3.71603 0
M  V30 5820 H 1022.95 -4.797 7.24003 0
M  V30 5821 H 1022.68 -3.69856 5.84513 0
M  V30 5822 H 1023.55 -6.10356 5.41441 0
M  V30 5823 P 1027.51 -7.20834 5.23717 0
M  V30 5824 O 1027.73 -8.66104 5.38572 0
M  V30 5825 O 1028.3 -6.33544 6.1349 0
M  V30 5826 O 1027.76 -6.7751 3.72168 0
M  V30 5827 C 1026.82 -7.20825 2.7076 0
M  V30 5828 C 1027.55 -7.45864 1.40599 0
M  V30 5829 O 1027.76 -6.17651 0.734225 0
M  V30 5830 C 1028.95 -8.05808 1.51899 0
M  V30 5831 O 1029.34 -8.74358 0.335205 0
M  V30 5832 C 1029.83 -6.83093 1.70294 0
M  V30 5833 C 1029.12 -5.79992 0.836974 0
M  V30 5834 N 1029.17 -4.41864 1.38293 0
M  V30 5835 H 1026.33 -8.13644 3.0377 0
M  V30 5836 H 1026.06 -6.42788 2.55485 0
M  V30 5837 H 1026.93 -8.12039 0.792769 0
M  V30 5838 P 1030.89 -8.91 -7.81545e-12 0
M  V30 5839 O 1031.11 -10.1726 -0.733694 0
M  V30 5840 O 1031.68 -8.73148 1.23936 0
M  V30 5841 O 1031.14 -7.66872 -0.971405 0
M  V30 5842 C 1030.2 -7.42309 -2.04641 0
M  V30 5843 C 1030.93 -6.86059 -3.24661 0
M  V30 5844 O 1031.14 -5.42847 -3.03646 0
M  V30 5845 C 1032.33 -7.41196 -3.50753 0
M  V30 5846 O 1032.72 -7.27073 -4.86816 0
M  V30 5847 C 1033.21 -6.5273 -2.63741 0
M  V30 5848 C 1032.5 -5.1842 -2.73198 0
M  V30 5849 N 1032.55 -4.38762 -1.4784 0
M  V30 5850 H 1029.71 -8.36803 -2.32493 0
M  V30 5851 H 1029.44 -6.70197 -1.71129 0
M  V30 5852 H 1030.31 -7.03551 -4.13168 0
M  V30 5853 P 1034.27 -7.20834 -5.23717 0
M  V30 5854 O 1034.49 -7.79853 -6.57286 0
M  V30 5855 O 1035.06 -7.79239 -4.12957 0
M  V30 5856 O 1034.52 -5.63315 -5.29344 0
M  V30 5857 C 1033.58 -4.80255 -6.01876 0
M  V30 5858 C 1034.31 -3.64202 -6.65911 0
M  V30 5859 O 1034.52 -2.60694 -5.64732 0
M  V30 5860 C 1035.71 -3.93473 -7.1943 0
M  V30 5861 O 1036.1 -3.02071 -8.21205 0
M  V30 5862 C 1036.59 -3.73047 -5.97036 0
M  V30 5863 C 1035.88 -2.58828 -5.25741 0
M  V30 5864 N 1035.93 -2.68068 -3.77503 0
M  V30 5865 H 1033.09 -5.40332 -6.79951 0
M  V30 5866 H 1032.82 -4.41613 -5.32378 0
M  V30 5867 H 1033.69 -3.26331 -7.47797 0
M  V30 5868 P 1037.65 -2.75334 -8.47391 0
M  V30 5869 O 1037.87 -2.44571 -9.90142 0
M  V30 5870 O 1038.44 -3.87688 -7.92115 0
M  V30 5871 O 1037.9 -1.4459 -7.59357 0
M  V30 5872 C 1036.96 -0.347608 -7.69215 0
M  V30 5873 C 1037.69 0.96767 -7.52806 0
M  V30 5874 O 1037.9 1.21036 -6.1011 0
M  V30 5875 C 1039.09 1.04544 -8.13308 0
M  V30 5876 O 1039.48 2.38311 -8.41922 0
M  V30 5877 C 1039.97 0.491279 -7.02284 0
M  V30 5878 C 1039.26 0.996264 -5.77469 0
M  V30 5879 N 1039.31 0.0501916 -4.62973 0
M  V30 5880 H 1036.47 -0.374722 -8.67691 0
M  V30 5881 H 1036.2 -0.443485 -6.90277 0
M  V30 5882 H 1037.07 1.75537 -7.96793 0
M  V30 5883 P 1041.03 2.75334 -8.47391 0
M  V30 5884 O 1041.25 3.84128 -9.44797 0
M  V30 5885 O 1041.82 1.51947 -8.68712 0
M  V30 5886 O 1041.28 3.29363 -6.99321 0
M  V30 5887 C 1040.34 4.24011 -6.4274 0
M  V30 5888 C 1041.07 5.20775 -5.52155 0
M  V30 5889 O 1041.28 4.56534 -4.22446 0
M  V30 5890 C 1042.47 5.62629 -5.96531 0
M  V30 5891 O 1042.86 6.87667 -5.41053 0
M  V30 5892 C 1043.35 4.52537 -5.39283 0
M  V30 5893 C 1042.64 4.20027 -4.08623 0
M  V30 5894 N 1042.69 2.76189 -3.71603 0
M  V30 5895 H 1039.85 4.797 -7.24003 0
M  V30 5896 H 1039.58 3.69856 -5.84513 0
M  V30 5897 H 1040.45 6.10356 -5.41441 0
M  V30 5898 P 1044.41 7.20834 -5.23717 0
M  V30 5899 O 1044.63 8.66104 -5.38572 0
M  V30 5900 O 1045.2 6.33544 -6.1349 0
M  V30 5901 O 1044.66 6.7751 -3.72168 0
M  V30 5902 C 1043.72 7.20825 -2.7076 0
M  V30 5903 C 1044.45 7.45864 -1.40599 0
M  V30 5904 O 1044.66 6.17651 -0.734225 0
M  V30 5905 C 1045.85 8.05808 -1.51899 0
M  V30 5906 O 1046.24 8.74358 -0.335205 0
M  V30 5907 C 1046.73 6.83093 -1.70294 0
M  V30 5908 C 1046.02 5.79992 -0.836974 0
M  V30 5909 N 1046.07 4.41864 -1.38293 0
M  V30 5910 H 1043.23 8.13644 -3.0377 0
M  V30 5911 H 1042.96 6.42788 -2.55485 0
M  V30 5912 H 1043.83 8.12039 -0.792769 0
M  V30 5913 P 1047.79 8.91 7.97264e-12 0
M  V30 5914 O 1048.01 10.1726 0.733694 0
M  V30 5915 O 1048.58 8.73148 -1.23936 0
M  V30 5916 O 1048.04 7.66872 0.971405 0
M  V30 5917 C 1047.1 7.42309 2.04641 0
M  V30 5918 C 1047.83 6.86059 3.24661 0
M  V30 5919 O 1048.04 5.42847 3.03646 0
M  V30 5920 C 1049.23 7.41196 3.50753 0
M  V30 5921 O 1049.62 7.27073 4.86816 0
M  V30 5922 C 1050.11 6.5273 2.63741 0
M  V30 5923 C 1049.4 5.1842 2.73198 0
M  V30 5924 N 1049.45 4.38762 1.4784 0
M  V30 5925 H 1046.61 8.36803 2.32493 0
M  V30 5926 H 1046.34 6.70197 1.71129 0
M  V30 5927 H 1047.21 7.03551 4.13168 0
M  V30 5928 P 1051.17 7.20834 5.23717 0
M  V30 5929 O 1051.39 7.79853 6.57286 0
M  V30 5930 O 1051.96 7.79239 4.12957 0
M  V30 5931 O 1051.42 5.63315 5.29344 0
M  V30 5932 C 1050.48 4.80255 6.01876 0
M  V30 5933 C 1051.21 3.64202 6.65911 0
M  V30 5934 O 1051.42 2.60694 5.64732 0
M  V30 5935 C 1052.61 3.93473 7.1943 0
M  V30 5936 O 1053 3.02071 8.21205 0
M  V30 5937 C 1053.49 3.73047 5.97036 0
M  V30 5938 C 1052.78 2.58828 5.25741 0
M  V30 5939 N 1052.83 2.68068 3.77503 0
M  V30 5940 H 1049.99 5.40332 6.79951 0
M  V30 5941 H 1049.72 4.41613 5.32378 0
M  V30 5942 H 1050.59 3.26331 7.47797 0
M  V30 5943 P 1054.55 2.75334 8.47391 0
M  V30 5944 O 1054.77 2.44571 9.90142 0
M  V30 5945 O 1055.34 3.87688 7.92115 0
M  V30 5946 O 1054.8 1.4459 7.59357 0
M  V30 5947 C 1053.86 0.347608 7.69215 0
M  V30 5948 C 1054.59 -0.96767 7.52806 0
M  V30 5949 O 1054.8 -1.21036 6.1011 0
M  V30 5950 C 1055.99 -1.04544 8.13308 0
M  V30 5951 O 1056.38 -2.38311 8.41922 0
M  V30 5952 C 1056.87 -0.491279 7.02284 0
M  V30 5953 C 1056.16 -0.996264 5.77469 0
M  V30 5954 N 1056.21 -0.0501916 4.62973 0
M  V30 5955 H 1053.37 0.374722 8.67691 0
M  V30 5956 H 1053.1 0.443485 6.90277 0
M  V30 5957 H 1053.97 -1.75537 7.96793 0
M  V30 5958 P 1057.93 -2.75334 8.47391 0
M  V30 5959 O 1058.15 -3.84128 9.44797 0
M  V30 5960 O 1058.72 -1.51947 8.68712 0
M  V30 5961 O 1058.18 -3.29363 6.99321 0
M  V30 5962 C 1057.24 -4.24011 6.4274 0
M  V30 5963 C 1057.97 -5.20775 5.52155 0
M  V30 5964 O 1058.18 -4.56534 4.22446 0
M  V30 5965 C 1059.37 -5.62629 5.96531 0
M  V30 5966 O 1059.76 -6.87667 5.41053 0
M  V30 5967 C 1060.25 -4.52537 5.39283 0
M  V30 5968 C 1059.54 -4.20027 4.08623 0
M  V30 5969 N 1059.59 -2.76189 3.71603 0
M  V30 5970 H 1056.75 -4.797 7.24003 0
M  V30 5971 H 1056.48 -3.69856 5.84513 0
M  V30 5972 H 1057.35 -6.10356 5.41441 0
M  V30 5973 P 1061.31 -7.20834 5.23717 0
M  V30 5974 O 1061.53 -8.66104 5.38572 0
M  V30 5975 O 1062.1 -6.33544 6.1349 0
M  V30 5976 O 1061.56 -6.7751 3.72168 0
M  V30 5977 C 1060.62 -7.20825 2.7076 0
M  V30 5978 C 1061.35 -7.45864 1.40599 0
M  V30 5979 O 1061.56 -6.17651 0.734225 0
M  V30 5980 C 1062.75 -8.05808 1.51899 0
M  V30 5981 O 1063.14 -8.74358 0.335205 0
M  V30 5982 C 1063.63 -6.83093 1.70294 0
M  V30 5983 C 1062.92 -5.79992 0.836974 0
M  V30 5984 N 1062.97 -4.41864 1.38293 0
M  V30 5985 H 1060.13 -8.13644 3.0377 0
M  V30 5986 H 1059.86 -6.42788 2.55485 0
M  V30 5987 H 1060.73 -8.12039 0.792769 0
M  V30 5988 P 1064.69 -8.91 -8.12982e-12 0
M  V30 5989 O 1064.91 -10.1726 -0.733694 0
M  V30 5990 O 1065.48 -8.73148 1.23936 0
M  V30 5991 O 1064.94 -7.66872 -0.971405 0
M  V30 5992 C 1064 -7.42309 -2.04641 0
M  V30 5993 C 1064.73 -6.86059 -3.24661 0
M  V30 5994 O 1064.94 -5.42847 -3.03646 0
M  V30 5995 C 1066.13 -7.41196 -3.50753 0
M  V30 5996 O 1066.52 -7.27073 -4.86816 0
M  V30 5997 C 1067.01 -6.5273 -2.63741 0
M  V30 5998 C 1066.3 -5.1842 -2.73198 0
M  V30 5999 N 1066.35 -4.38762 -1.4784 0
M  V30 6000 H 1063.51 -8.36803 -2.32493 0
M  V30 6001 H 1063.24 -6.70197 -1.71129 0
M  V30 6002 H 1064.11 -7.03551 -4.13168 0
M  V30 6003 P 1068.07 -7.20834 -5.23717 0
M  V30 6004 O 1068.29 -7.79853 -6.57286 0
M  V30 6005 O 1068.86 -7.79239 -4.12957 0
M  V30 6006 O 1068.32 -5.63315 -5.29344 0
M  V30 6007 C 1067.38 -4.80255 -6.01876 0
M  V30 6008 C 1068.11 -3.64202 -6.65911 0
M  V30 6009 O 1068.32 -2.60694 -5.64732 0
M  V30 6010 C 1069.51 -3.93473 -7.1943 0
M  V30 6011 O 1069.9 -3.02071 -8.21205 0
M  V30 6012 C 1070.39 -3.73047 -5.97036 0
M  V30 6013 C 1069.68 -2.58828 -5.25741 0
M  V30 6014 N 1069.73 -2.68068 -3.77503 0
M  V30 6015 H 1066.89 -5.40332 -6.79951 0
M  V30 6016 H 1066.62 -4.41613 -5.32378 0
M  V30 6017 H 1067.49 -3.26331 -7.47797 0
M  V30 6018 P 1071.45 -2.75334 -8.47391 0
M  V30 6019 O 1071.67 -2.44571 -9.90142 0
M  V30 6020 O 1072.24 -3.87688 -7.92115 0
M  V30 6021 O 1071.7 -1.4459 -7.59357 0
M  V30 6022 C 1070.76 -0.347608 -7.69215 0
M  V30 6023 C 1071.49 0.96767 -7.52806 0
M  V30 6024 O 1071.7 1.21036 -6.1011 0
M  V30 6025 C 1072.89 1.04544 -8.13308 0
M  V30 6026 O 1073.28 2.38311 -8.41922 0
M  V30 6027 C 1073.77 0.491279 -7.02284 0
M  V30 6028 C 1073.06 0.996264 -5.77469 0
M  V30 6029 N 1073.11 0.0501916 -4.62973 0
M  V30 6030 H 1070.27 -0.374722 -8.67691 0
M  V30 6031 H 1070 -0.443485 -6.90277 0
M  V30 6032 H 1070.87 1.75537 -7.96793 0
M  V30 6033 P 1074.83 2.75334 -8.47391 0
M  V30 6034 O 1075.05 3.84128 -9.44797 0
M  V30 6035 O 1075.62 1.51947 -8.68712 0
M  V30 6036 O 1075.08 3.29363 -6.99321 0
M  V30 6037 C 1074.14 4.24011 -6.4274 0
M  V30 6038 C 1074.87 5.20775 -5.52155 0
M  V30 6039 O 1075.08 4.56534 -4.22446 0
M  V30 6040 C 1076.27 5.62629 -5.96531 0
M  V30 6041 O 1076.66 6.87667 -5.41053 0
M  V30 6042 C 1077.15 4.52537 -5.39283 0
M  V30 6043 C 1076.44 4.20027 -4.08623 0
M  V30 6044 N 1076.49 2.76189 -3.71603 0
M  V30 6045 H 1073.65 4.797 -7.24003 0
M  V30 6046 H 1073.38 3.69856 -5.84513 0
M  V30 6047 H 1074.25 6.10356 -5.41441 0
M  V30 6048 P 1078.21 7.20834 -5.23717 0
M  V30 6049 O 1078.43 8.66104 -5.38572 0
M  V30 6050 O 1079 6.33544 -6.1349 0
M  V30 6051 O 1078.46 6.7751 -3.72168 0
M  V30 6052 C 1077.52 7.20825 -2.7076 0
M  V30 6053 C 1078.25 7.45864 -1.40599 0
M  V30 6054 O 1078.46 6.17651 -0.734225 0
M  V30 6055 C 1079.65 8.05808 -1.51899 0
M  V30 6056 O 1080.04 8.74358 -0.335205 0
M  V30 6057 C 1080.53 6.83093 -1.70294 0
M  V30 6058 C 1079.82 5.79992 -0.836974 0
M  V30 6059 N 1079.87 4.41864 -1.38293 0
M  V30 6060 H 1077.03 8.13644 -3.0377 0
M  V30 6061 H 1076.76 6.42788 -2.55485 0
M  V30 6062 H 1077.63 8.12039 -0.792769 0
M  V30 6063 P 1081.59 8.91 8.287e-12 0
M  V30 6064 O 1081.81 10.1726 0.733694 0
M  V30 6065 O 1082.38 8.73148 -1.23936 0
M  V30 6066 O 1081.84 7.66872 0.971405 0
M  V30 6067 C 1080.9 7.42309 2.04641 0
M  V30 6068 C 1081.63 6.86059 3.24661 0
M  V30 6069 O 1081.84 5.42847 3.03646 0
M  V30 6070 C 1083.03 7.41196 3.50753 0
M  V30 6071 O 1083.42 7.27073 4.86816 0
M  V30 6072 C 1083.91 6.5273 2.63741 0
M  V30 6073 C 1083.2 5.1842 2.73198 0
M  V30 6074 N 1083.25 4.38762 1.4784 0
M  V30 6075 H 1080.41 8.36803 2.32493 0
M  V30 6076 H 1080.14 6.70197 1.71129 0
M  V30 6077 H 1081.01 7.03551 4.13168 0
M  V30 6078 P 1084.97 7.20834 5.23717 0
M  V30 6079 O 1085.19 7.79853 6.57286 0
M  V30 6080 O 1085.76 7.79239 4.12957 0
M  V30 6081 O 1085.22 5.63315 5.29344 0
M  V30 6082 C 1084.28 4.80255 6.01876 0
M  V30 6083 C 1085.01 3.64202 6.65911 0
M  V30 6084 O 1085.22 2.60694 5.64732 0
M  V30 6085 C 1086.41 3.93473 7.1943 0
M  V30 6086 O 1086.8 3.02071 8.21205 0
M  V30 6087 C 1087.29 3.73047 5.97036 0
M  V30 6088 C 1086.58 2.58828 5.25741 0
M  V30 6089 N 1086.63 2.68068 3.77503 0
M  V30 6090 H 1083.79 5.40332 6.79951 0
M  V30 6091 H 1083.52 4.41613 5.32378 0
M  V30 6092 H 1084.39 3.26331 7.47797 0
M  V30 6093 P 1088.35 2.75334 8.47391 0
M  V30 6094 O 1088.57 2.44571 9.90142 0
M  V30 6095 O 1089.14 3.87688 7.92115 0
M  V30 6096 O 1088.6 1.4459 7.59357 0
M  V30 6097 C 1087.66 0.347608 7.69215 0
M  V30 6098 C 1088.39 -0.96767 7.52806 0
M  V30 6099 O 1088.6 -1.21036 6.1011 0
M  V30 6100 C 1089.79 -1.04544 8.13308 0
M  V30 6101 O 1090.18 -2.38311 8.41922 0
M  V30 6102 C 1090.67 -0.491279 7.02284 0
M  V30 6103 C 1089.96 -0.996264 5.77469 0
M  V30 6104 N 1090.01 -0.0501916 4.62973 0
M  V30 6105 H 1087.17 0.374722 8.67691 0
M  V30 6106 H 1086.9 0.443485 6.90277 0
M  V30 6107 H 1087.77 -1.75537 7.96793 0
M  V30 6108 P 1091.73 -2.75334 8.47391 0
M  V30 6109 O 1091.95 -3.84128 9.44797 0
M  V30 6110 O 1092.52 -1.51947 8.68712 0
M  V30 6111 O 1091.98 -3.29363 6.99321 0
M  V30 6112 C 1091.04 -4.24011 6.4274 0
M  V30 6113 C 1091.77 -5.20775 5.52155 0
M  V30 6114 O 1091.98 -4.56534 4.22446 0
M  V30 6115 C 1093.17 -5.62629 5.96531 0
M  V30 6116 O 1093.56 -6.87667 5.41053 0
M  V30 6117 C 1094.05 -4.52537 5.39283 0
M  V30 6118 C 1093.34 -4.20027 4.08623 0
M  V30 6119 N 1093.39 -2.76189 3.71603 0
M  V30 6120 C 1093.31 -1.64862 4.52822 0
M  V30 6121 N 1093.39 -0.512671 3.88633 0
M  V30 6122 C 1093.53 -0.888083 2.54977 0
M  V30 6123 C 1093.66 -0.094668 1.38677 0
M  V30 6124 N 1093.78 -0.890102 0.232633 0
M  V30 6125 C 1093.78 -2.26958 0.21772 0
M  V30 6126 N 1093.91 -2.84626 -0.97925 0
M  V30 6127 N 1093.65 -3.0178 1.31033 0
M  V30 6128 C 1093.53 -2.26781 2.43843 0
M  V30 6129 H 1090.55 -4.797 7.24003 0
M  V30 6130 H 1090.28 -3.69856 5.84513 0
M  V30 6131 H 1091.15 -6.10356 5.41441 0
M  V30 6132 P 1095.11 -7.20834 5.23717 0
M  V30 6133 O 1095.33 -8.66104 5.38572 0
M  V30 6134 O 1095.9 -6.33544 6.1349 0
M  V30 6135 O 1095.36 -6.7751 3.72168 0
M  V30 6136 C 1094.42 -7.20825 2.7076 0
M  V30 6137 C 1095.15 -7.45864 1.40599 0
M  V30 6138 O 1095.36 -6.17651 0.734225 0
M  V30 6139 C 1096.55 -8.05808 1.51899 0
M  V30 6140 O 1096.94 -8.74358 0.335205 0
M  V30 6141 C 1097.43 -6.83093 1.70294 0
M  V30 6142 C 1096.72 -5.79992 0.836974 0
M  V30 6143 N 1096.77 -4.41864 1.38293 0
M  V30 6144 C 1096.69 -3.99538 2.69438 0
M  V30 6145 N 1096.77 -2.69909 2.84277 0
M  V30 6146 C 1096.91 -2.21719 1.5408 0
M  V30 6147 C 1097.04 -0.891712 1.06628 0
M  V30 6148 N 1097.16 -0.856846 -0.334985 0
M  V30 6149 C 1097.16 -1.9641 -1.15789 0
M  V30 6150 N 1097.29 -1.72708 -2.46522 0
M  V30 6151 N 1097.03 -3.21165 -0.713741 0
M  V30 6152 C 1096.91 -3.26797 0.639748 0
M  V30 6153 H 1093.93 -8.13644 3.0377 0
M  V30 6154 H 1093.66 -6.42788 2.55485 0
M  V30 6155 H 1094.53 -8.12039 0.792769 0
M  V30 6156 P 1098.49 -8.91 -8.44418e-12 0
M  V30 6157 O 1098.71 -10.1726 -0.733694 0
M  V30 6158 O 1099.28 -8.73148 1.23936 0
M  V30 6159 O 1098.74 -7.66872 -0.971405 0
M  V30 6160 C 1097.8 -7.42309 -2.04641 0
M  V30 6161 C 1098.53 -6.86059 -3.24661 0
M  V30 6162 O 1098.74 -5.42847 -3.03646 0
M  V30 6163 C 1099.93 -7.41196 -3.50753 0
M  V30 6164 O 1100.32 -7.27073 -4.86816 0
M  V30 6165 C 1100.81 -6.5273 -2.63741 0
M  V30 6166 C 1100.1 -5.1842 -2.73198 0
M  V30 6167 N 1100.15 -4.38762 -1.4784 0
M  V30 6168 H 1097.31 -8.36803 -2.32493 0
M  V30 6169 H 1097.04 -6.70197 -1.71129 0
M  V30 6170 H 1097.91 -7.03551 -4.13168 0
M  V30 6171 P 1101.87 -7.20834 -5.23717 0
M  V30 6172 O 1102.09 -7.7993 -6.57351 0
M  V30 6173 O 1102.66 -7.79328 -4.13004 0
M  V30 6174 O 1102.12 -5.63315 -5.29344 0
M  V30 6175 C 1101.18 -4.80193 -6.01798 0
M  V30 6176 C 1101.91 -3.64202 -6.65911 0
M  V30 6177 O 1102.12 -2.60694 -5.64732 0
M  V30 6178 C 1103.31 -3.93473 -7.1943 0
M  V30 6179 O 1103.7 -3.02071 -8.21205 0
M  V30 6180 C 1104.19 -3.73047 -5.97036 0
M  V30 6181 C 1103.48 -2.58828 -5.25741 0
M  V30 6182 N 1103.53 -2.6801 -3.77422 0
M  V30 6183 C 1103.68 -1.50443 -3.07133 0
M  V30 6184 O 1103.77 -0.419406 -3.61576 0
M  V30 6185 N 1103.72 -1.6403 -1.69677 0
M  V30 6186 C 1103.63 -2.81206 -0.986255 0
M  V30 6187 O 1103.68 -2.80892 0.249754 0
M  V30 6188 C 1103.48 -3.99158 -1.80325 0
M  V30 6189 C 1103.37 -5.29309 -1.06921 0
M  V30 6190 C 1103.43 -3.89779 -3.1476 0
M  V30 6191 H 1100.69 -5.40332 -6.79951 0
M  V30 6192 H 1100.42 -4.41549 -5.32301 0
M  V30 6193 H 1101.29 -3.26331 -7.47797 0
M  V30 6194 H 1103.95 -1.6395 -5.56554 0
M  V30 6195 H 1104.23 -4.63439 -5.3432 0
M  V30 6196 H 1105.22 -3.44728 -6.25838 0
M  V30 6197 H 1103.38 -4.96652 -7.57263 0
M  V30 6198 H 1103.31 -4.80159 -3.74441 0
M  V30 6199 H 1104.34 -5.81459 -1.09608 0
M  V30 6200 H 1102.61 -5.9187 -1.54487 0
M  V30 6201 H 1103.09 -5.10095 -0.0220288 0
M  V30 6202 H 1103.83 -0.798962 -1.16664 0
M  V30 6203 P 1105.25 -2.75334 -8.47391 0
M  V30 6204 O 1105.47 -2.44595 -9.90239 0
M  V30 6205 O 1106.04 -3.87732 -7.92204 0
M  V30 6206 O 1105.5 -1.4459 -7.59357 0
M  V30 6207 C 1104.56 -0.347563 -7.69115 0
M  V30 6208 C 1105.29 0.96767 -7.52806 0
M  V30 6209 O 1105.5 1.21036 -6.1011 0
M  V30 6210 C 1106.69 1.04544 -8.13308 0
M  V30 6211 O 1107.08 2.38311 -8.41922 0
M  V30 6212 C 1107.57 0.491279 -7.02284 0
M  V30 6213 C 1106.86 0.996264 -5.77469 0
M  V30 6214 N 1106.91 0.0501808 -4.62873 0
M  V30 6215 C 1107.06 0.588177 -3.36904 0
M  V30 6216 O 1107.15 1.78598 -3.17173 0
M  V30 6217 N 1107.1 -0.329694 -2.33686 0
M  V30 6218 C 1107.01 -1.6953 -2.45079 0
M  V30 6219 O 1107.06 -2.41926 -1.44899 0
M  V30 6220 C 1106.86 -2.16933 -3.80505 0
M  V30 6221 C 1106.75 -3.65373 -3.97621 0
M  V30 6222 C 1106.81 -1.30326 -4.83752 0
M  V30 6223 H 1104.07 -0.374722 -8.67691 0
M  V30 6224 H 1103.8 -0.443421 -6.90177 0
M  V30 6225 H 1104.67 1.75537 -7.96793 0
M  V30 6226 H 1107.33 1.94496 -5.46629 0
M  V30 6227 H 1107.61 -0.608651 -7.04676 0
M  V30 6228 H 1108.6 0.889672 -7.08939 0
M  V30 6229 H 1106.76 0.43308 -9.04564 0
M  V30 6230 H 1106.69 -1.68366 -5.8516 0
M  V30 6231 H 1107.72 -4.05985 -4.30448 0
M  V30 6232 H 1105.99 -3.88028 -4.72875 0
M  V30 6233 H 1106.47 -4.11381 -3.01609 0
M  V30 6234 H 1107.21 0.0393617 -1.41345 0
M  V30 6235 P 1108.63 2.75334 -8.47391 0
M  V30 6236 O 1108.85 3.84128 -9.44797 0
M  V30 6237 O 1109.42 1.51947 -8.68712 0
M  V30 6238 O 1108.88 3.29363 -6.99321 0
M  V30 6239 C 1107.94 4.24011 -6.4274 0
M  V30 6240 C 1108.67 5.20775 -5.52155 0
M  V30 6241 O 1108.88 4.56534 -4.22446 0
M  V30 6242 C 1110.07 5.62629 -5.96531 0
M  V30 6243 O 1110.46 6.87667 -5.41053 0
M  V30 6244 C 1110.95 4.52537 -5.39283 0
M  V30 6245 C 1110.24 4.20027 -4.08623 0
M  V30 6246 N 1110.29 2.76189 -3.71603 0
M  V30 6247 H 1107.45 4.797 -7.24003 0
M  V30 6248 H 1107.18 3.69856 -5.84513 0
M  V30 6249 H 1108.05 6.10356 -5.41441 0
M  V30 6250 P 1112.01 7.20834 -5.23717 0
M  V30 6251 O 1112.23 8.66104 -5.38572 0
M  V30 6252 O 1112.8 6.33544 -6.1349 0
M  V30 6253 O 1112.26 6.7751 -3.72168 0
M  V30 6254 C 1111.32 7.20825 -2.7076 0
M  V30 6255 C 1112.05 7.45864 -1.40599 0
M  V30 6256 O 1112.26 6.17651 -0.734225 0
M  V30 6257 C 1113.45 8.05808 -1.51899 0
M  V30 6258 O 1113.84 8.74358 -0.335205 0
M  V30 6259 C 1114.33 6.83093 -1.70294 0
M  V30 6260 C 1113.62 5.79992 -0.836974 0
M  V30 6261 N 1113.67 4.41864 -1.38293 0
M  V30 6262 H 1110.83 8.13644 -3.0377 0
M  V30 6263 H 1110.56 6.42788 -2.55485 0
M  V30 6264 H 1111.43 8.12039 -0.792769 0
M  V30 6265 P 1115.39 8.91 8.60137e-12 0
M  V30 6266 O 1115.61 10.1726 0.733694 0
M  V30 6267 O 1116.18 8.73148 -1.23936 0
M  V30 6268 O 1115.64 7.66872 0.971405 0
M  V30 6269 C 1114.7 7.42309 2.04641 0
M  V30 6270 C 1115.43 6.86059 3.24661 0
M  V30 6271 O 1115.64 5.42847 3.03646 0
M  V30 6272 C 1116.83 7.41196 3.50753 0
M  V30 6273 O 1117.22 7.27073 4.86816 0
M  V30 6274 C 1117.71 6.5273 2.63741 0
M  V30 6275 C 1117 5.1842 2.73198 0
M  V30 6276 N 1117.05 4.38762 1.4784 0
M  V30 6277 H 1114.21 8.36803 2.32493 0
M  V30 6278 H 1113.94 6.70197 1.71129 0
M  V30 6279 H 1114.81 7.03551 4.13168 0
M  V30 6280 P 1118.77 7.20834 5.23717 0
M  V30 6281 O 1118.99 7.79853 6.57286 0
M  V30 6282 O 1119.56 7.79239 4.12957 0
M  V30 6283 O 1119.02 5.63315 5.29344 0
M  V30 6284 C 1118.08 4.80255 6.01876 0
M  V30 6285 C 1118.81 3.64202 6.65911 0
M  V30 6286 O 1119.02 2.60694 5.64732 0
M  V30 6287 C 1120.21 3.93473 7.1943 0
M  V30 6288 O 1120.6 3.02071 8.21205 0
M  V30 6289 C 1121.09 3.73047 5.97036 0
M  V30 6290 C 1120.38 2.58828 5.25741 0
M  V30 6291 N 1120.43 2.68068 3.77503 0
M  V30 6292 H 1117.59 5.40332 6.79951 0
M  V30 6293 H 1117.32 4.41613 5.32378 0
M  V30 6294 H 1118.19 3.26331 7.47797 0
M  V30 6295 P 1122.15 2.75334 8.47391 0
M  V30 6296 O 1122.37 2.44595 9.90239 0
M  V30 6297 O 1122.94 3.87732 7.92204 0
M  V30 6298 O 1122.4 1.4459 7.59357 0
M  V30 6299 C 1121.46 0.347563 7.69115 0
M  V30 6300 C 1122.19 -0.96767 7.52806 0
M  V30 6301 O 1122.4 -1.21036 6.1011 0
M  V30 6302 C 1123.59 -1.04544 8.13308 0
M  V30 6303 O 1123.98 -2.38311 8.41922 0
M  V30 6304 C 1124.47 -0.491279 7.02284 0
M  V30 6305 C 1123.76 -0.996264 5.77469 0
M  V30 6306 N 1123.81 -0.0501808 4.62873 0
M  V30 6307 C 1123.96 -0.588177 3.36904 0
M  V30 6308 O 1124.05 -1.78598 3.17173 0
M  V30 6309 N 1124 0.329694 2.33686 0
M  V30 6310 C 1123.91 1.6953 2.45079 0
M  V30 6311 O 1123.96 2.41926 1.44899 0
M  V30 6312 C 1123.76 2.16933 3.80505 0
M  V30 6313 C 1123.65 3.65373 3.97621 0
M  V30 6314 C 1123.71 1.30326 4.83752 0
M  V30 6315 H 1120.97 0.374722 8.67691 0
M  V30 6316 H 1120.7 0.443421 6.90177 0
M  V30 6317 H 1121.57 -1.75537 7.96793 0
M  V30 6318 H 1124.23 -1.94496 5.46629 0
M  V30 6319 H 1124.51 0.608651 7.04676 0
M  V30 6320 H 1125.5 -0.889672 7.08939 0
M  V30 6321 H 1123.66 -0.43308 9.04564 0
M  V30 6322 H 1123.59 1.68366 5.8516 0
M  V30 6323 H 1124.62 4.05985 4.30448 0
M  V30 6324 H 1122.89 3.88028 4.72875 0
M  V30 6325 H 1123.37 4.11381 3.01609 0
M  V30 6326 H 1124.11 -0.0393617 1.41345 0
M  V30 6327 P 1125.53 -2.75334 8.47391 0
M  V30 6328 O 1125.75 -3.84128 9.44797 0
M  V30 6329 O 1126.32 -1.51947 8.68712 0
M  V30 6330 O 1125.78 -3.29363 6.99321 0
M  V30 6331 C 1124.84 -4.24011 6.4274 0
M  V30 6332 C 1125.57 -5.20775 5.52155 0
M  V30 6333 O 1125.78 -4.56534 4.22446 0
M  V30 6334 C 1126.97 -5.62629 5.96531 0
M  V30 6335 O 1127.36 -6.87667 5.41053 0
M  V30 6336 C 1127.85 -4.52537 5.39283 0
M  V30 6337 C 1127.14 -4.20027 4.08623 0
M  V30 6338 N 1127.19 -2.76189 3.71603 0
M  V30 6339 H 1124.35 -4.797 7.24003 0
M  V30 6340 H 1124.08 -3.69856 5.84513 0
M  V30 6341 H 1124.95 -6.10356 5.41441 0
M  V30 6342 P 1128.91 -7.20834 5.23717 0
M  V30 6343 O 1129.13 -8.66104 5.38572 0
M  V30 6344 O 1129.7 -6.33544 6.1349 0
M  V30 6345 O 1129.16 -6.7751 3.72168 0
M  V30 6346 C 1128.22 -7.20825 2.7076 0
M  V30 6347 C 1128.95 -7.45864 1.40599 0
M  V30 6348 O 1129.16 -6.17651 0.734225 0
M  V30 6349 C 1130.35 -8.05808 1.51899 0
M  V30 6350 O 1130.74 -8.74358 0.335205 0
M  V30 6351 C 1131.23 -6.83093 1.70294 0
M  V30 6352 C 1130.52 -5.79992 0.836974 0
M  V30 6353 N 1130.57 -4.41864 1.38293 0
M  V30 6354 H 1127.73 -8.13644 3.0377 0
M  V30 6355 H 1127.46 -6.42788 2.55485 0
M  V30 6356 H 1128.33 -8.12039 0.792769 0
M  V30 6357 P 1132.29 -8.91 -8.75855e-12 0
M  V30 6358 O 1132.51 -10.1726 -0.733694 0
M  V30 6359 O 1133.08 -8.73148 1.23936 0
M  V30 6360 O 1132.54 -7.66872 -0.971405 0
M  V30 6361 C 1131.6 -7.42309 -2.04641 0
M  V30 6362 C 1132.33 -6.86059 -3.24661 0
M  V30 6363 O 1132.54 -5.42847 -3.03646 0
M  V30 6364 C 1133.73 -7.41196 -3.50753 0
M  V30 6365 O 1134.12 -7.27073 -4.86816 0
M  V30 6366 C 1134.61 -6.5273 -2.63741 0
M  V30 6367 C 1133.9 -5.1842 -2.73198 0
M  V30 6368 N 1133.95 -4.38762 -1.4784 0
M  V30 6369 H 1131.11 -8.36803 -2.32493 0
M  V30 6370 H 1130.84 -6.70197 -1.71129 0
M  V30 6371 H 1131.71 -7.03551 -4.13168 0
M  V30 6372 P 1135.67 -7.20834 -5.23717 0
M  V30 6373 O 1135.89 -7.80006 -6.57415 0
M  V30 6374 O 1136.46 -7.79416 -4.13051 0
M  V30 6375 O 1135.92 -5.63315 -5.29344 0
M  V30 6376 C 1134.98 -4.80318 -6.01954 0
M  V30 6377 C 1135.71 -3.64202 -6.65911 0
M  V30 6378 O 1135.92 -2.60736 -5.64823 0
M  V30 6379 C 1137.11 -3.93521 -7.19518 0
M  V30 6380 O 1137.5 -3.02071 -8.21205 0
M  V30 6381 C 1137.99 -3.73047 -5.97036 0
M  V30 6382 C 1137.28 -2.58828 -5.25741 0
M  V30 6383 N 1137.33 -2.68068 -3.77503 0
M  V30 6384 H 1134.5 -5.40394 -6.8003 0
M  V30 6385 H 1134.22 -4.41741 -5.32532 0
M  V30 6386 H 1135.09 -3.26371 -7.47889 0
M  V30 6387 H 1137.75 -1.64007 -5.56746 0
M  V30 6388 H 1138.03 -4.63439 -5.3432 0
M  V30 6389 H 1139.02 -3.44776 -6.25925 0
M  V30 6390 H 1137.18 -4.96707 -7.57347 0
M  V30 6391 P 1139.05 -2.75334 -8.47391 0
M  V30 6392 O 1139.27 -2.44619 -9.90336 0
M  V30 6393 O 1139.84 -3.87776 -7.92294 0
M  V30 6394 O 1139.3 -1.4459 -7.59357 0
M  V30 6395 C 1138.36 -0.347653 -7.69315 0
M  V30 6396 C 1139.09 0.96767 -7.52806 0
M  V30 6397 O 1139.3 1.21055 -6.10208 0
M  V30 6398 C 1140.49 1.04557 -8.13408 0
M  V30 6399 O 1140.88 2.38311 -8.41922 0
M  V30 6400 C 1141.37 0.491279 -7.02284 0
M  V30 6401 C 1140.66 0.996264 -5.77469 0
M  V30 6402 N 1140.71 0.0501916 -4.62973 0
M  V30 6403 C 1140.63 -1.31969 -4.65661 0
M  V30 6404 N 1140.7 -1.86649 -3.48119 0
M  V30 6405 C 1140.85 -0.792089 -2.62406 0
M  V30 6406 C 1140.98 -0.705684 -1.2207 0
M  V30 6407 N 1140.99 -1.76207 -0.413762 0
M  V30 6408 N 1141.1 0.518981 -0.685754 0
M  V30 6409 C 1141.09 1.57595 -1.49174 0
M  V30 6410 N 1140.97 1.62909 -2.80066 0
M  V30 6411 C 1140.85 0.388195 -3.3073 0
M  V30 6412 H 1137.88 -0.374765 -8.67791 0
M  V30 6413 H 1137.6 -0.443613 -6.90476 0
M  V30 6414 H 1138.47 1.75559 -7.96891 0
M  V30 6415 H 1141.13 1.94563 -5.46818 0
M  V30 6416 H 1141.41 -0.608651 -7.04676 0
M  V30 6417 H 1142.4 0.889796 -7.09039 0
M  V30 6418 H 1140.56 0.433128 -9.04664 0
M  V30 6419 H 1140.52 -1.89246 -5.57664 0
M  V30 6420 H 1140.9 -2.71005 -0.804694 0
M  V30 6421 H 1141.09 -1.63189 0.603768 0
M  V30 6422 H 1141.2 2.53475 -0.997614 0
M  V30 6423 P 1142.43 2.75334 -8.47391 0
M  V30 6424 O 1142.65 3.84128 -9.44797 0
M  V30 6425 O 1143.22 1.51947 -8.68712 0
M  V30 6426 O 1142.68 3.29363 -6.99321 0
M  V30 6427 C 1141.74 4.24011 -6.4274 0
M  V30 6428 C 1142.47 5.20775 -5.52155 0
M  V30 6429 O 1142.68 4.56534 -4.22446 0
M  V30 6430 C 1143.87 5.62629 -5.96531 0
M  V30 6431 O 1144.26 6.87667 -5.41053 0
M  V30 6432 C 1144.75 4.52537 -5.39283 0
M  V30 6433 C 1144.04 4.20027 -4.08623 0
M  V30 6434 N 1144.09 2.76189 -3.71603 0
M  V30 6435 C 1144.01 1.64862 -4.52822 0
M  V30 6436 N 1144.09 0.512671 -3.88633 0
M  V30 6437 C 1144.23 0.888083 -2.54977 0
M  V30 6438 C 1144.36 0.094668 -1.38677 0
M  V30 6439 N 1144.48 0.890102 -0.232633 0
M  V30 6440 C 1144.48 2.26958 -0.21772 0
M  V30 6441 N 1144.61 2.84626 0.97925 0
M  V30 6442 N 1144.35 3.0178 -1.31033 0
M  V30 6443 C 1144.23 2.26781 -2.43843 0
M  V30 6444 H 1141.25 4.797 -7.24003 0
M  V30 6445 H 1140.98 3.69856 -5.84513 0
M  V30 6446 H 1141.85 6.10356 -5.41441 0
M  V30 6447 P 1145.81 7.20834 -5.23717 0
M  V30 6448 O 1146.03 8.66274 -5.38678 0
M  V30 6449 O 1146.6 6.33687 -6.13629 0
M  V30 6450 O 1146.06 6.7751 -3.72168 0
M  V30 6451 C 1145.12 7.20919 -2.70795 0
M  V30 6452 C 1145.85 7.45864 -1.40599 0
M  V30 6453 O 1146.06 6.17751 -0.734343 0
M  V30 6454 C 1147.25 8.05906 -1.51917 0
M  V30 6455 O 1147.64 8.74358 -0.335205 0
M  V30 6456 C 1148.13 6.83093 -1.70294 0
M  V30 6457 C 1147.42 5.79992 -0.836974 0
M  V30 6458 N 1147.47 4.41864 -1.38293 0
M  V30 6459 C 1147.39 4.02089 -2.69407 0
M  V30 6460 N 1147.46 2.73403 -2.85089 0
M  V30 6461 C 1147.61 2.25086 -1.5642 0
M  V30 6462 C 1147.74 0.942887 -1.04836 0
M  V30 6463 N 1147.75 -0.150999 -1.80369 0
M  V30 6464 N 1147.86 0.812565 0.28167 0
M  V30 6465 C 1147.85 1.90572 1.03784 0
M  V30 6466 N 1147.73 3.167 0.683905 0
M  V30 6467 C 1147.61 3.26538 -0.652815 0
M  V30 6468 H 1144.64 8.13738 -3.03804 0
M  V30 6469 H 1144.36 6.42974 -2.55559 0
M  V30 6470 H 1145.23 8.12139 -0.792866 0
M  V30 6471 H 1147.89 5.80178 0.160643 0
M  V30 6472 H 1148.17 6.51379 -2.75643 0
M  V30 6473 H 1149.16 7.01832 -1.3448 0
M  V30 6474 H 1147.32 8.73771 -2.38364 0
M  V30 6475 H 1147.28 4.7189 -3.52311 0
M  V30 6476 H 1147.66 -0.0721434 -2.82608 0
M  V30 6477 H 1147.85 -1.0785 -1.36544 0
M  V30 6478 H 1147.96 1.73207 2.10241 0
M  V30 6479 P 1149.19 8.91 8.91573e-12 0
M  V30 6480 O 1149.41 10.1726 0.733694 0
M  V30 6481 O 1149.98 8.73148 -1.23936 0
M  V30 6482 O 1149.44 7.66872 0.971405 0
M  V30 6483 C 1148.5 7.42309 2.04641 0
M  V30 6484 C 1149.23 6.86059 3.24661 0
M  V30 6485 O 1149.44 5.42847 3.03646 0
M  V30 6486 C 1150.63 7.41196 3.50753 0
M  V30 6487 O 1151.02 7.27073 4.86816 0
M  V30 6488 C 1151.51 6.5273 2.63741 0
M  V30 6489 C 1150.8 5.1842 2.73198 0
M  V30 6490 N 1150.85 4.38762 1.4784 0
M  V30 6491 H 1148.01 8.36803 2.32493 0
M  V30 6492 H 1147.74 6.70197 1.71129 0
M  V30 6493 H 1148.61 7.03551 4.13168 0
M  V30 6494 P 1152.57 7.20834 5.23717 0
M  V30 6495 O 1152.79 7.7993 6.57351 0
M  V30 6496 O 1153.36 7.79328 4.13004 0
M  V30 6497 O 1152.82 5.63315 5.29344 0
M  V30 6498 C 1151.88 4.80193 6.01798 0
M  V30 6499 C 1152.61 3.64202 6.65911 0
M  V30 6500 O 1152.82 2.60694 5.64732 0
M  V30 6501 C 1154.01 3.93473 7.1943 0
M  V30 6502 O 1154.4 3.02071 8.21205 0
M  V30 6503 C 1154.89 3.73047 5.97036 0
M  V30 6504 C 1154.18 2.58828 5.25741 0
M  V30 6505 N 1154.23 2.6801 3.77422 0
M  V30 6506 C 1154.38 1.50443 3.07133 0
M  V30 6507 O 1154.47 0.419406 3.61576 0
M  V30 6508 N 1154.42 1.6403 1.69677 0
M  V30 6509 C 1154.33 2.81206 0.986255 0
M  V30 6510 O 1154.38 2.80892 -0.249754 0
M  V30 6511 C 1154.18 3.99158 1.80325 0
M  V30 6512 C 1154.07 5.29309 1.06921 0
M  V30 6513 C 1154.13 3.89779 3.1476 0
M  V30 6514 H 1151.39 5.40332 6.79951 0
M  V30 6515 H 1151.12 4.41549 5.32301 0
M  V30 6516 H 1151.99 3.26331 7.47797 0
M  V30 6517 H 1154.65 1.6395 5.56554 0
M  V30 6518 H 1154.93 4.63439 5.3432 0
M  V30 6519 H 1155.92 3.44728 6.25838 0
M  V30 6520 H 1154.08 4.96652 7.57263 0
M  V30 6521 H 1154.01 4.80159 3.74441 0
M  V30 6522 H 1155.04 5.81459 1.09608 0
M  V30 6523 H 1153.31 5.9187 1.54487 0
M  V30 6524 H 1153.79 5.10095 0.0220288 0
M  V30 6525 H 1154.53 0.798962 1.16664 0
M  V30 6526 P 1155.95 2.75334 8.47391 0
M  V30 6527 O 1156.17 2.44571 9.90142 0
M  V30 6528 O 1156.74 3.87688 7.92115 0
M  V30 6529 O 1156.2 1.4459 7.59357 0
M  V30 6530 C 1155.26 0.347608 7.69215 0
M  V30 6531 C 1155.99 -0.96767 7.52806 0
M  V30 6532 O 1156.2 -1.21036 6.1011 0
M  V30 6533 C 1157.39 -1.04544 8.13308 0
M  V30 6534 O 1157.78 -2.38311 8.41922 0
M  V30 6535 C 1158.27 -0.491279 7.02284 0
M  V30 6536 C 1157.56 -0.996264 5.77469 0
M  V30 6537 N 1157.61 -0.0501916 4.62973 0
M  V30 6538 H 1154.77 0.374722 8.67691 0
M  V30 6539 H 1154.5 0.443485 6.90277 0
M  V30 6540 H 1155.37 -1.75537 7.96793 0
M  V30 6541 P 1159.33 -2.75334 8.47391 0
M  V30 6542 O 1159.55 -3.84204 9.44982 0
M  V30 6543 O 1160.12 -1.51982 8.68909 0
M  V30 6544 O 1159.58 -3.29363 6.99321 0
M  V30 6545 C 1158.64 -4.24066 6.42823 0
M  V30 6546 C 1159.37 -5.20775 5.52155 0
M  V30 6547 O 1159.58 -4.56607 4.22514 0
M  V30 6548 C 1160.77 -5.62697 5.96604 0
M  V30 6549 O 1161.16 -6.87667 5.41053 0
M  V30 6550 C 1161.65 -4.52537 5.39283 0
M  V30 6551 C 1160.94 -4.20027 4.08623 0
M  V30 6552 N 1160.99 -2.76189 3.71603 0
M  V30 6553 H 1158.16 -4.79756 7.24086 0
M  V30 6554 H 1157.88 -3.69963 5.84682 0
M  V30 6555 H 1158.75 -6.10431 5.41508 0
M  V30 6556 H 1161.41 -4.78816 3.28024 0
M  V30 6557 H 1161.69 -3.64957 6.05871 0
M  V30 6558 H 1162.68 -4.88748 5.21323 0
M  V30 6559 H 1160.84 -5.66789 7.0643 0
M  V30 6560 P 1162.71 -7.20834 5.23717 0
M  V30 6561 O 1162.93 -8.66104 5.38572 0
M  V30 6562 O 1163.5 -6.33544 6.1349 0
M  V30 6563 O 1162.96 -6.7751 3.72168 0
M  V30 6564 C 1162.02 -7.20825 2.7076 0
M  V30 6565 C 1162.75 -7.45864 1.40599 0
M  V30 6566 O 1162.96 -6.17651 0.734225 0
M  V30 6567 C 1164.15 -8.05808 1.51899 0
M  V30 6568 O 1164.54 -8.74358 0.335205 0
M  V30 6569 C 1165.03 -6.83093 1.70294 0
M  V30 6570 C 1164.32 -5.79992 0.836974 0
M  V30 6571 N 1164.37 -4.41864 1.38293 0
M  V30 6572 H 1161.53 -8.13644 3.0377 0
M  V30 6573 H 1161.26 -6.42788 2.55485 0
M  V30 6574 H 1162.13 -8.12039 0.792769 0
M  V30 6575 P 1166.09 -8.91 -9.07291e-12 0
M  V30 6576 O 1166.31 -10.1726 -0.733694 0
M  V30 6577 O 1166.88 -8.73148 1.23936 0
M  V30 6578 O 1166.34 -7.66872 -0.971405 0
M  V30 6579 C 1165.4 -7.42309 -2.04641 0
M  V30 6580 C 1166.13 -6.86059 -3.24661 0
M  V30 6581 O 1166.34 -5.42847 -3.03646 0
M  V30 6582 C 1167.53 -7.41196 -3.50753 0
M  V30 6583 O 1167.92 -7.27073 -4.86816 0
M  V30 6584 C 1168.41 -6.5273 -2.63741 0
M  V30 6585 C 1167.7 -5.1842 -2.73198 0
M  V30 6586 N 1167.75 -4.38762 -1.4784 0
M  V30 6587 H 1164.91 -8.36803 -2.32493 0
M  V30 6588 H 1164.64 -6.70197 -1.71129 0
M  V30 6589 H 1165.51 -7.03551 -4.13168 0
M  V30 6590 P 1169.47 -7.20834 -5.23717 0
M  V30 6591 O 1169.69 -7.79853 -6.57286 0
M  V30 6592 O 1170.26 -7.79239 -4.12957 0
M  V30 6593 O 1169.72 -5.63315 -5.29344 0
M  V30 6594 C 1168.78 -4.80255 -6.01876 0
M  V30 6595 C 1169.51 -3.64202 -6.65911 0
M  V30 6596 O 1169.72 -2.60694 -5.64732 0
M  V30 6597 C 1170.91 -3.93473 -7.1943 0
M  V30 6598 O 1171.3 -3.02071 -8.21205 0
M  V30 6599 C 1171.79 -3.73047 -5.97036 0
M  V30 6600 C 1171.08 -2.58828 -5.25741 0
M  V30 6601 N 1171.13 -2.68068 -3.77503 0
M  V30 6602 H 1168.29 -5.40332 -6.79951 0
M  V30 6603 H 1168.02 -4.41613 -5.32378 0
M  V30 6604 H 1168.89 -3.26331 -7.47797 0
M  V30 6605 P 1172.85 -2.75334 -8.47391 0
M  V30 6606 O 1173.07 -2.44595 -9.90239 0
M  V30 6607 O 1173.64 -3.87732 -7.92204 0
M  V30 6608 O 1173.1 -1.4459 -7.59357 0
M  V30 6609 C 1172.16 -0.347563 -7.69115 0
M  V30 6610 C 1172.89 0.96767 -7.52806 0
M  V30 6611 O 1173.1 1.21036 -6.1011 0
M  V30 6612 C 1174.29 1.04544 -8.13308 0
M  V30 6613 O 1174.68 2.38311 -8.41922 0
M  V30 6614 C 1175.17 0.491279 -7.02284 0
M  V30 6615 C 1174.46 0.996264 -5.77469 0
M  V30 6616 N 1174.51 0.0501808 -4.62873 0
M  V30 6617 C 1174.66 0.588177 -3.36904 0
M  V30 6618 O 1174.75 1.78598 -3.17173 0
M  V30 6619 N 1174.7 -0.329694 -2.33686 0
M  V30 6620 C 1174.61 -1.6953 -2.45079 0
M  V30 6621 O 1174.66 -2.41926 -1.44899 0
M  V30 6622 C 1174.46 -2.16933 -3.80505 0
M  V30 6623 C 1174.35 -3.65373 -3.97621 0
M  V30 6624 C 1174.41 -1.30326 -4.83752 0
M  V30 6625 H 1171.67 -0.374722 -8.67691 0
M  V30 6626 H 1171.4 -0.443421 -6.90177 0
M  V30 6627 H 1172.27 1.75537 -7.96793 0
M  V30 6628 H 1174.93 1.94496 -5.46629 0
M  V30 6629 H 1175.21 -0.608651 -7.04676 0
M  V30 6630 H 1176.2 0.889672 -7.08939 0
M  V30 6631 H 1174.36 0.43308 -9.04564 0
M  V30 6632 H 1174.29 -1.68366 -5.8516 0
M  V30 6633 H 1175.32 -4.05985 -4.30448 0
M  V30 6634 H 1173.59 -3.88028 -4.72875 0
M  V30 6635 H 1174.07 -4.11381 -3.01609 0
M  V30 6636 H 1174.81 0.0393617 -1.41345 0
M  V30 6637 P 1176.23 2.75334 -8.47391 0
M  V30 6638 O 1176.45 3.84204 -9.44982 0
M  V30 6639 O 1177.02 1.51982 -8.68909 0
M  V30 6640 O 1176.48 3.29363 -6.99321 0
M  V30 6641 C 1175.54 4.24066 -6.42823 0
M  V30 6642 C 1176.27 5.20775 -5.52155 0
M  V30 6643 O 1176.48 4.56607 -4.22514 0
M  V30 6644 C 1177.67 5.62697 -5.96604 0
M  V30 6645 O 1178.06 6.87667 -5.41053 0
M  V30 6646 C 1178.55 4.52537 -5.39283 0
M  V30 6647 C 1177.84 4.20027 -4.08623 0
M  V30 6648 N 1177.89 2.76189 -3.71603 0
M  V30 6649 H 1175.06 4.79756 -7.24086 0
M  V30 6650 H 1174.78 3.69963 -5.84682 0
M  V30 6651 H 1175.65 6.10431 -5.41508 0
M  V30 6652 H 1178.31 4.78816 -3.28024 0
M  V30 6653 H 1178.59 3.64957 -6.05871 0
M  V30 6654 H 1179.58 4.88748 -5.21323 0
M  V30 6655 H 1177.74 5.66789 -7.0643 0
M  V30 6656 P 1179.61 7.20834 -5.23717 0
M  V30 6657 O 1179.83 8.66104 -5.38572 0
M  V30 6658 O 1180.4 6.33544 -6.1349 0
M  V30 6659 O 1179.86 6.7751 -3.72168 0
M  V30 6660 C 1178.92 7.20825 -2.7076 0
M  V30 6661 C 1179.65 7.45864 -1.40599 0
M  V30 6662 O 1179.86 6.17651 -0.734225 0
M  V30 6663 C 1181.05 8.05808 -1.51899 0
M  V30 6664 O 1181.44 8.74358 -0.335205 0
M  V30 6665 C 1181.93 6.83093 -1.70294 0
M  V30 6666 C 1181.22 5.79992 -0.836974 0
M  V30 6667 N 1181.27 4.41864 -1.38293 0
M  V30 6668 H 1178.43 8.13644 -3.0377 0
M  V30 6669 H 1178.16 6.42788 -2.55485 0
M  V30 6670 H 1179.03 8.12039 -0.792769 0
M  V30 6671 P 1182.99 8.91 9.23009e-12 0
M  V30 6672 O 1183.21 10.1726 0.733694 0
M  V30 6673 O 1183.78 8.73148 -1.23936 0
M  V30 6674 O 1183.24 7.66872 0.971405 0
M  V30 6675 C 1182.3 7.42309 2.04641 0
M  V30 6676 C 1183.03 6.86059 3.24661 0
M  V30 6677 O 1183.24 5.42847 3.03646 0
M  V30 6678 C 1184.43 7.41196 3.50753 0
M  V30 6679 O 1184.82 7.27073 4.86816 0
M  V30 6680 C 1185.31 6.5273 2.63741 0
M  V30 6681 C 1184.6 5.1842 2.73198 0
M  V30 6682 N 1184.65 4.38762 1.4784 0
M  V30 6683 H 1181.81 8.36803 2.32493 0
M  V30 6684 H 1181.54 6.70197 1.71129 0
M  V30 6685 H 1182.41 7.03551 4.13168 0
M  V30 6686 P 1186.37 7.20834 5.23717 0
M  V30 6687 O 1186.59 7.79853 6.57286 0
M  V30 6688 O 1187.16 7.79239 4.12957 0
M  V30 6689 O 1186.62 5.63315 5.29344 0
M  V30 6690 C 1185.68 4.80255 6.01876 0
M  V30 6691 C 1186.41 3.64202 6.65911 0
M  V30 6692 O 1186.62 2.60694 5.64732 0
M  V30 6693 C 1187.81 3.93473 7.1943 0
M  V30 6694 O 1188.2 3.02071 8.21205 0
M  V30 6695 C 1188.69 3.73047 5.97036 0
M  V30 6696 C 1187.98 2.58828 5.25741 0
M  V30 6697 N 1188.03 2.68068 3.77503 0
M  V30 6698 H 1185.19 5.40332 6.79951 0
M  V30 6699 H 1184.92 4.41613 5.32378 0
M  V30 6700 H 1185.79 3.26331 7.47797 0
M  V30 6701 P 1189.75 2.75334 8.47391 0
M  V30 6702 O 1189.97 2.44595 9.90239 0
M  V30 6703 O 1190.54 3.87732 7.92204 0
M  V30 6704 O 1190 1.4459 7.59357 0
M  V30 6705 C 1189.06 0.347608 7.69215 0
M  V30 6706 C 1189.79 -0.96767 7.52806 0
M  V30 6707 O 1190 -1.21036 6.1011 0
M  V30 6708 C 1191.19 -1.04544 8.13308 0
M  V30 6709 O 1191.58 -2.38311 8.41922 0
M  V30 6710 C 1192.07 -0.491279 7.02284 0
M  V30 6711 C 1191.36 -0.996264 5.77469 0
M  V30 6712 N 1191.41 -0.0501808 4.62873 0
M  V30 6713 C 1191.56 -0.578037 3.3505 0
M  V30 6714 O 1191.65 -1.8073 3.21711 0
M  V30 6715 N 1191.61 0.468541 2.263 0
M  V30 6716 C 1191.51 1.59186 2.47176 0
M  V30 6717 N 1191.56 2.37626 1.40392 0
M  V30 6718 C 1191.36 2.16203 3.77467 0
M  V30 6719 C 1191.31 1.29324 4.8195 0
M  V30 6720 H 1188.57 0.374679 8.67591 0
M  V30 6721 H 1188.3 0.443421 6.90177 0
M  V30 6722 H 1189.17 -1.75559 7.96891 0
M  V30 6723 H 1191.83 -1.94529 5.46723 0
M  V30 6724 H 1192.1 0.608651 7.04676 0
M  V30 6725 H 1193.1 -0.889672 7.08939 0
M  V30 6726 H 1191.26 -0.43308 9.04564 0
M  V30 6727 H 1191.19 1.67758 5.83046 0
M  V30 6728 H 1191.29 3.23869 3.92281 0
M  V30 6729 H 1191.68 1.96317 0.467202 0
M  V30 6730 H 1191.48 3.39693 1.51142 0
M  V30 6731 P 1193.13 -2.75334 8.47391 0
M  V30 6732 O 1193.35 -3.84128 9.44797 0
M  V30 6733 O 1193.92 -1.51947 8.68712 0
M  V30 6734 O 1193.38 -3.29363 6.99321 0
M  V30 6735 C 1192.44 -4.24011 6.4274 0
M  V30 6736 C 1193.17 -5.20775 5.52155 0
M  V30 6737 O 1193.38 -4.56534 4.22446 0
M  V30 6738 C 1194.57 -5.62629 5.96531 0
M  V30 6739 O 1194.96 -6.87667 5.41053 0
M  V30 6740 C 1195.45 -4.52537 5.39283 0
M  V30 6741 C 1194.74 -4.20027 4.08623 0
M  V30 6742 N 1194.79 -2.76189 3.71603 0
M  V30 6743 H 1191.95 -4.797 7.24003 0
M  V30 6744 H 1191.68 -3.69856 5.84513 0
M  V30 6745 H 1192.55 -6.10356 5.41441 0
M  V30 6746 P 1196.51 -7.20834 5.23717 0
M  V30 6747 O 1196.73 -8.66104 5.38572 0
M  V30 6748 O 1197.3 -6.33544 6.1349 0
M  V30 6749 O 1196.76 -6.7751 3.72168 0
M  V30 6750 C 1195.82 -7.20825 2.7076 0
M  V30 6751 C 1196.55 -7.45864 1.40599 0
M  V30 6752 O 1196.76 -6.17651 0.734225 0
M  V30 6753 C 1197.95 -8.05808 1.51899 0
M  V30 6754 O 1198.34 -8.74358 0.335205 0
M  V30 6755 C 1198.83 -6.83093 1.70294 0
M  V30 6756 C 1198.12 -5.79992 0.836974 0
M  V30 6757 N 1198.17 -4.41864 1.38293 0
M  V30 6758 H 1195.33 -8.13644 3.0377 0
M  V30 6759 H 1195.06 -6.42788 2.55485 0
M  V30 6760 H 1195.93 -8.12039 0.792769 0
M  V30 6761 P 1199.89 -8.91 -9.38728e-12 0
M  V30 6762 O 1200.11 -10.1736 -0.733766 0
M  V30 6763 O 1200.68 -8.73247 1.2395 0
M  V30 6764 O 1200.14 -7.66872 -0.971405 0
M  V30 6765 C 1199.2 -7.42309 -2.04641 0
M  V30 6766 C 1199.93 -6.86059 -3.24661 0
M  V30 6767 O 1200.14 -5.42847 -3.03646 0
M  V30 6768 C 1201.33 -7.41196 -3.50753 0
M  V30 6769 O 1201.72 -7.27073 -4.86816 0
M  V30 6770 C 1202.21 -6.5273 -2.63741 0
M  V30 6771 C 1201.5 -5.1842 -2.73198 0
M  V30 6772 N 1201.55 -4.38668 -1.47808 0
M  V30 6773 C 1201.7 -3.00789 -1.58511 0
M  V30 6774 O 1201.79 -2.50116 -2.71298 0
M  V30 6775 N 1201.75 -2.29703 -0.253698 0
M  V30 6776 C 1201.65 -2.84269 0.750133 0
M  V30 6777 N 1201.7 -2.06951 1.82612 0
M  V30 6778 C 1201.5 -4.25803 0.889776 0
M  V30 6779 C 1201.45 -4.98326 -0.259363 0
M  V30 6780 H 1198.71 -8.36707 -2.32466 0
M  V30 6781 H 1198.44 -6.701 -1.71105 0
M  V30 6782 H 1199.31 -7.03638 -4.13219 0
M  V30 6783 H 1201.97 -4.59852 -3.53955 0
M  V30 6784 H 1202.24 -6.88995 -1.59871 0
M  V30 6785 H 1203.24 -6.46749 -3.03687 0
M  V30 6786 H 1201.4 -8.46908 -3.20714 0
M  V30 6787 H 1201.33 -6.06349 -0.206238 0
M  V30 6788 H 1201.43 -4.73163 1.86796 0
M  V30 6789 H 1201.82 -1.05099 1.72271 0
M  V30 6790 H 1201.62 -2.48716 2.76361 0
M  V30 6791 P 1203.27 -7.20834 -5.23717 0
M  V30 6792 O 1203.49 -7.79853 -6.57286 0
M  V30 6793 O 1204.06 -7.79239 -4.12957 0
M  V30 6794 O 1203.52 -5.63315 -5.29344 0
M  V30 6795 C 1202.58 -4.80255 -6.01876 0
M  V30 6796 C 1203.31 -3.64202 -6.65911 0
M  V30 6797 O 1203.52 -2.60694 -5.64732 0
M  V30 6798 C 1204.71 -3.93473 -7.1943 0
M  V30 6799 O 1205.1 -3.02071 -8.21205 0
M  V30 6800 C 1205.59 -3.73047 -5.97036 0
M  V30 6801 C 1204.88 -2.58828 -5.25741 0
M  V30 6802 N 1204.93 -2.68068 -3.77503 0
M  V30 6803 C 1204.85 -3.79715 -2.96723 0
M  V30 6804 N 1204.93 -3.5377 -1.68852 0
M  V30 6805 C 1205.07 -2.15054 -1.63254 0
M  V30 6806 C 1205.2 -1.28964 -0.518571 0
M  V30 6807 O 1205.22 -1.56826 0.679156 0
M  V30 6808 N 1205.32 0.0538097 -0.918425 0
M  V30 6809 C 1205.32 0.494275 -2.22578 0
M  V30 6810 N 1205.45 1.81086 -2.40434 0
M  V30 6811 N 1205.19 -0.313645 -3.27502 0
M  V30 6812 C 1205.07 -1.61829 -2.91033 0
M  V30 6813 H 1202.09 -5.40332 -6.79951 0
M  V30 6814 H 1201.82 -4.41613 -5.32378 0
M  V30 6815 H 1202.69 -3.26331 -7.47797 0
M  V30 6816 H 1205.35 -1.63422 -5.56814 0
M  V30 6817 H 1205.62 -4.63374 -5.34244 0
M  V30 6818 H 1206.62 -3.44728 -6.25838 0
M  V30 6819 H 1204.78 -4.96652 -7.57263 0
M  V30 6820 H 1204.73 -4.80617 -3.3614 0
M  V30 6821 H 1205.42 0.742702 -0.199384 0
M  V30 6822 H 1205.45 2.20598 -3.35588 0
M  V30 6823 H 1205.55 2.43518 -1.58945 0
M  V30 6824 P 1206.65 -2.75334 -8.47391 0
M  V30 6825 O 1206.87 -2.44571 -9.90142 0
M  V30 6826 O 1207.44 -3.87688 -7.92115 0
M  V30 6827 O 1206.9 -1.4459 -7.59357 0
M  V30 6828 C 1205.96 -0.347608 -7.69215 0
M  V30 6829 C 1206.69 0.96767 -7.52806 0
M  V30 6830 O 1206.9 1.21036 -6.1011 0
M  V30 6831 C 1208.09 1.04544 -8.13308 0
M  V30 6832 O 1208.48 2.38311 -8.41922 0
M  V30 6833 C 1208.97 0.491279 -7.02284 0
M  V30 6834 C 1208.26 0.996264 -5.77469 0
M  V30 6835 N 1208.31 0.0501916 -4.62973 0
M  V30 6836 H 1205.47 -0.374722 -8.67691 0
M  V30 6837 H 1205.2 -0.443485 -6.90277 0
M  V30 6838 H 1206.07 1.75537 -7.96793 0
M  V30 6839 P 1210.03 2.75334 -8.47391 0
M  V30 6840 O 1210.25 3.84166 -9.4489 0
M  V30 6841 O 1210.82 1.51964 -8.6881 0
M  V30 6842 O 1210.28 3.29363 -6.99321 0
M  V30 6843 C 1209.34 4.23956 -6.42656 0
M  V30 6844 C 1210.07 5.20775 -5.52155 0
M  V30 6845 O 1210.28 4.56534 -4.22446 0
M  V30 6846 C 1211.47 5.62629 -5.96531 0
M  V30 6847 O 1211.86 6.87667 -5.41053 0
M  V30 6848 C 1212.35 4.52537 -5.39283 0
M  V30 6849 C 1211.64 4.20027 -4.08623 0
M  V30 6850 N 1211.69 2.7613 -3.71522 0
M  V30 6851 C 1211.84 2.45612 -2.37989 0
M  V30 6852 O 1211.93 3.30919 -1.51621 0
M  V30 6853 N 1211.88 1.10684 -2.08435 0
M  V30 6854 C 1211.79 0.0690084 -2.9792 0
M  V30 6855 C 1211.64 0.481522 -4.35345 0
M  V30 6856 C 1211.59 1.78906 -4.67968 0
M  V30 6857 H 1208.85 4.797 -7.24003 0
M  V30 6858 H 1208.58 3.69802 -5.84429 0
M  V30 6859 H 1209.45 6.10356 -5.41441 0
M  V30 6860 H 1212.11 4.78651 -3.27911 0
M  V30 6861 H 1212.38 3.64957 -6.05871 0
M  V30 6862 H 1213.38 4.8868 -5.2125 0
M  V30 6863 H 1211.54 5.66726 -7.06352 0
M  V30 6864 H 1211.47 2.07737 -5.72367 0
M  V30 6865 P 1213.41 7.20834 -5.23717 0
M  V30 6866 O 1213.63 8.66104 -5.38572 0
M  V30 6867 O 1214.2 6.33544 -6.1349 0
M  V30 6868 O 1213.66 6.7751 -3.72168 0
M  V30 6869 C 1212.72 7.20825 -2.7076 0
M  V30 6870 C 1213.45 7.45864 -1.40599 0
M  V30 6871 O 1213.66 6.17651 -0.734225 0
M  V30 6872 C 1214.85 8.05808 -1.51899 0
M  V30 6873 O 1215.24 8.74358 -0.335205 0
M  V30 6874 C 1215.73 6.83093 -1.70294 0
M  V30 6875 C 1215.02 5.79992 -0.836974 0
M  V30 6876 N 1215.07 4.41864 -1.38293 0
M  V30 6877 H 1212.23 8.13644 -3.0377 0
M  V30 6878 H 1211.96 6.42788 -2.55485 0
M  V30 6879 H 1212.83 8.12039 -0.792769 0
M  V30 6880 P 1216.79 8.91 9.54446e-12 0
M  V30 6881 O 1217.01 10.1726 0.733694 0
M  V30 6882 O 1217.58 8.73148 -1.23936 0
M  V30 6883 O 1217.04 7.66872 0.971405 0
M  V30 6884 C 1216.1 7.42309 2.04641 0
M  V30 6885 C 1216.83 6.86059 3.24661 0
M  V30 6886 O 1217.04 5.42847 3.03646 0
M  V30 6887 C 1218.23 7.41196 3.50753 0
M  V30 6888 O 1218.62 7.27073 4.86816 0
M  V30 6889 C 1219.11 6.5273 2.63741 0
M  V30 6890 C 1218.4 5.1842 2.73198 0
M  V30 6891 N 1218.45 4.38762 1.4784 0
M  V30 6892 H 1215.61 8.36803 2.32493 0
M  V30 6893 H 1215.34 6.70197 1.71129 0
M  V30 6894 H 1216.21 7.03551 4.13168 0
M  V30 6895 P 1220.17 7.20834 5.23717 0
M  V30 6896 O 1220.39 7.79853 6.57286 0
M  V30 6897 O 1220.96 7.79239 4.12957 0
M  V30 6898 O 1220.42 5.63315 5.29344 0
M  V30 6899 C 1219.48 4.80255 6.01876 0
M  V30 6900 C 1220.21 3.64202 6.65911 0
M  V30 6901 O 1220.42 2.60694 5.64732 0
M  V30 6902 C 1221.61 3.93473 7.1943 0
M  V30 6903 O 1222 3.02071 8.21205 0
M  V30 6904 C 1222.49 3.73047 5.97036 0
M  V30 6905 C 1221.78 2.58828 5.25741 0
M  V30 6906 N 1221.83 2.68068 3.77503 0
M  V30 6907 H 1218.99 5.40332 6.79951 0
M  V30 6908 H 1218.72 4.41613 5.32378 0
M  V30 6909 H 1219.59 3.26331 7.47797 0
M  V30 6910 P 1223.55 2.75334 8.47391 0
M  V30 6911 O 1223.77 2.44571 9.90142 0
M  V30 6912 O 1224.34 3.87688 7.92115 0
M  V30 6913 O 1223.8 1.4459 7.59357 0
M  V30 6914 C 1222.86 0.347608 7.69215 0
M  V30 6915 C 1223.59 -0.96767 7.52806 0
M  V30 6916 O 1223.8 -1.21036 6.1011 0
M  V30 6917 C 1224.99 -1.04544 8.13308 0
M  V30 6918 O 1225.38 -2.38311 8.41922 0
M  V30 6919 C 1225.87 -0.491279 7.02284 0
M  V30 6920 C 1225.16 -0.996264 5.77469 0
M  V30 6921 N 1225.21 -0.0501916 4.62973 0
M  V30 6922 H 1222.37 0.374722 8.67691 0
M  V30 6923 H 1222.1 0.443485 6.90277 0
M  V30 6924 H 1222.97 -1.75537 7.96793 0
M  V30 6925 P 1226.93 -2.75334 8.47391 0
M  V30 6926 O 1227.15 -3.84128 9.44797 0
M  V30 6927 O 1227.72 -1.51947 8.68712 0
M  V30 6928 O 1227.18 -3.29363 6.99321 0
M  V30 6929 C 1226.24 -4.24011 6.4274 0
M  V30 6930 C 1226.97 -5.20775 5.52155 0
M  V30 6931 O 1227.18 -4.56534 4.22446 0
M  V30 6932 C 1228.37 -5.62629 5.96531 0
M  V30 6933 O 1228.76 -6.87667 5.41053 0
M  V30 6934 C 1229.25 -4.52537 5.39283 0
M  V30 6935 C 1228.54 -4.20027 4.08623 0
M  V30 6936 N 1228.59 -2.76189 3.71603 0
M  V30 6937 H 1225.75 -4.797 7.24003 0
M  V30 6938 H 1225.48 -3.69856 5.84513 0
M  V30 6939 H 1226.35 -6.10356 5.41441 0
M  V30 6940 P 1230.31 -7.20834 5.23717 0
M  V30 6941 O 1230.53 -8.66104 5.38572 0
M  V30 6942 O 1231.1 -6.33544 6.1349 0
M  V30 6943 O 1230.56 -6.7751 3.72168 0
M  V30 6944 C 1229.62 -7.20825 2.7076 0
M  V30 6945 C 1230.35 -7.45864 1.40599 0
M  V30 6946 O 1230.56 -6.17651 0.734225 0
M  V30 6947 C 1231.75 -8.05808 1.51899 0
M  V30 6948 O 1232.14 -8.74358 0.335205 0
M  V30 6949 C 1232.63 -6.83093 1.70294 0
M  V30 6950 C 1231.92 -5.79992 0.836974 0
M  V30 6951 N 1231.97 -4.41864 1.38293 0
M  V30 6952 H 1229.13 -8.13644 3.0377 0
M  V30 6953 H 1228.86 -6.42788 2.55485 0
M  V30 6954 H 1229.73 -8.12039 0.792769 0
M  V30 6955 P 1233.69 -8.91 -9.70164e-12 0
M  V30 6956 O 1233.91 -10.1726 -0.733694 0
M  V30 6957 O 1234.48 -8.73148 1.23936 0
M  V30 6958 O 1233.94 -7.66872 -0.971405 0
M  V30 6959 C 1233 -7.42309 -2.04641 0
M  V30 6960 C 1233.73 -6.86059 -3.24661 0
M  V30 6961 O 1233.94 -5.42847 -3.03646 0
M  V30 6962 C 1235.13 -7.41196 -3.50753 0
M  V30 6963 O 1235.52 -7.27073 -4.86816 0
M  V30 6964 C 1236.01 -6.5273 -2.63741 0
M  V30 6965 C 1235.3 -5.1842 -2.73198 0
M  V30 6966 N 1235.35 -4.38762 -1.4784 0
M  V30 6967 H 1232.51 -8.36803 -2.32493 0
M  V30 6968 H 1232.24 -6.70197 -1.71129 0
M  V30 6969 H 1233.11 -7.03551 -4.13168 0
M  V30 6970 P 1237.07 -7.20834 -5.23717 0
M  V30 6971 O 1237.29 -7.7993 -6.57351 0
M  V30 6972 O 1237.86 -7.79328 -4.13004 0
M  V30 6973 O 1237.32 -5.63315 -5.29344 0
M  V30 6974 C 1236.38 -4.80193 -6.01798 0
M  V30 6975 C 1237.11 -3.64202 -6.65911 0
M  V30 6976 O 1237.32 -2.60694 -5.64732 0
M  V30 6977 C 1238.51 -3.93473 -7.1943 0
M  V30 6978 O 1238.9 -3.02071 -8.21205 0
M  V30 6979 C 1239.39 -3.73047 -5.97036 0
M  V30 6980 C 1238.68 -2.58828 -5.25741 0
M  V30 6981 N 1238.73 -2.6801 -3.77422 0
M  V30 6982 C 1238.88 -1.50443 -3.07133 0
M  V30 6983 O 1238.97 -0.419406 -3.61576 0
M  V30 6984 N 1238.92 -1.6403 -1.69677 0
M  V30 6985 C 1238.83 -2.81206 -0.986255 0
M  V30 6986 C 1238.68 -3.99158 -1.80325 0
M  V30 6987 C 1238.63 -3.89779 -3.1476 0
M  V30 6988 H 1235.89 -5.40332 -6.79951 0
M  V30 6989 H 1235.62 -4.41549 -5.32301 0
M  V30 6990 H 1236.49 -3.26331 -7.47797 0
M  V30 6991 H 1239.15 -1.6395 -5.56554 0
M  V30 6992 H 1239.42 -4.63439 -5.3432 0
M  V30 6993 H 1240.42 -3.44728 -6.25838 0
M  V30 6994 H 1238.58 -4.96652 -7.57263 0
M  V30 6995 H 1238.51 -4.80159 -3.74441 0
M  V30 6996 P 1240.45 -2.75334 -8.47391 0
M  V30 6997 O 1240.67 -2.44571 -9.90142 0
M  V30 6998 O 1241.24 -3.87688 -7.92115 0
M  V30 6999 O 1240.7 -1.4459 -7.59357 0
M  V30 7000 C 1239.76 -0.347608 -7.69215 0
M  V30 7001 C 1240.49 0.96767 -7.52806 0
M  V30 7002 O 1240.7 1.21036 -6.1011 0
M  V30 7003 C 1241.89 1.04544 -8.13308 0
M  V30 7004 O 1242.28 2.38311 -8.41922 0
M  V30 7005 C 1242.77 0.491279 -7.02284 0
M  V30 7006 C 1242.06 0.996264 -5.77469 0
M  V30 7007 N 1242.11 0.0501916 -4.62973 0
M  V30 7008 C 1242.03 -1.32786 -4.63244 0
M  V30 7009 N 1242.11 -1.86957 -3.44545 0
M  V30 7010 C 1242.25 -0.780241 -2.58481 0
M  V30 7011 C 1242.38 -0.738536 -1.17757 0
M  V30 7012 O 1242.4 -1.66794 -0.372349 0
M  V30 7013 N 1242.5 0.58337 -0.711393 0
M  V30 7014 C 1242.5 1.70816 -1.51017 0
M  V30 7015 N 1242.63 2.87826 -0.880757 0
M  V30 7016 N 1242.37 1.67126 -2.8339 0
M  V30 7017 C 1242.25 0.401421 -3.30572 0
M  V30 7018 H 1239.27 -0.374722 -8.67691 0
M  V30 7019 H 1239 -0.443485 -6.90277 0
M  V30 7020 H 1239.87 1.75537 -7.96793 0
M  V30 7021 H 1242.53 1.95076 -5.46529 0
M  V30 7022 H 1242.8 -0.608565 -7.04577 0
M  V30 7023 H 1243.8 0.889672 -7.08939 0
M  V30 7024 H 1241.96 0.43308 -9.04564 0
M  V30 7025 H 1241.91 -1.91249 -5.54442 0
M  V30 7026 H 1242.6 0.718054 0.275244 0
M  V30 7027 H 1242.63 3.75721 -1.41832 0
M  V30 7028 H 1242.73 2.90436 0.145468 0
M  V30 7029 P 1243.83 2.75334 -8.47391 0
M  V30 7030 O 1244.05 3.84128 -9.44797 0
M  V30 7031 O 1244.62 1.51947 -8.68712 0
M  V30 7032 O 1244.08 3.29363 -6.99321 0
M  V30 7033 C 1243.14 4.24011 -6.4274 0
M  V30 7034 C 1243.87 5.20775 -5.52155 0
M  V30 7035 O 1244.08 4.56534 -4.22446 0
M  V30 7036 C 1245.27 5.62629 -5.96531 0
M  V30 7037 O 1245.66 6.87667 -5.41053 0
M  V30 7038 C 1246.15 4.52537 -5.39283 0
M  V30 7039 C 1245.44 4.20027 -4.08623 0
M  V30 7040 N 1245.49 2.76189 -3.71603 0
M  V30 7041 H 1242.65 4.797 -7.24003 0
M  V30 7042 H 1242.38 3.69856 -5.84513 0
M  V30 7043 H 1243.25 6.10356 -5.41441 0
M  V30 7044 P 1247.21 7.20834 -5.23717 0
M  V30 7045 O 1247.43 8.66274 -5.38678 0
M  V30 7046 O 1248 6.33687 -6.13629 0
M  V30 7047 O 1247.46 6.7751 -3.72168 0
M  V30 7048 C 1246.52 7.20919 -2.70795 0
M  V30 7049 C 1247.25 7.45864 -1.40599 0
M  V30 7050 O 1247.46 6.17751 -0.734343 0
M  V30 7051 C 1248.65 8.05906 -1.51917 0
M  V30 7052 O 1249.04 8.74358 -0.335205 0
M  V30 7053 C 1249.53 6.83093 -1.70294 0
M  V30 7054 C 1248.82 5.79992 -0.836974 0
M  V30 7055 N 1248.87 4.41864 -1.38293 0
M  V30 7056 H 1246.03 8.13738 -3.03804 0
M  V30 7057 H 1245.76 6.42974 -2.55559 0
M  V30 7058 H 1246.63 8.12139 -0.792866 0
M  V30 7059 H 1249.29 5.80178 0.160643 0
M  V30 7060 H 1249.57 6.51379 -2.75643 0
M  V30 7061 H 1250.56 7.01832 -1.3448 0
M  V30 7062 H 1248.72 8.73771 -2.38364 0
M  V30 7063 P 1250.59 8.91 9.85882e-12 0
M  V30 7064 O 1250.81 10.1726 0.733694 0
M  V30 7065 O 1251.38 8.73148 -1.23936 0
M  V30 7066 O 1250.84 7.66872 0.971405 0
M  V30 7067 C 1249.9 7.42309 2.04641 0
M  V30 7068 C 1250.63 6.86059 3.24661 0
M  V30 7069 O 1250.84 5.42847 3.03646 0
M  V30 7070 C 1252.03 7.41196 3.50753 0
M  V30 7071 O 1252.42 7.27073 4.86816 0
M  V30 7072 C 1252.91 6.5273 2.63741 0
M  V30 7073 C 1252.2 5.1842 2.73198 0
M  V30 7074 N 1252.25 4.38762 1.4784 0
M  V30 7075 H 1249.41 8.36803 2.32493 0
M  V30 7076 H 1249.14 6.70197 1.71129 0
M  V30 7077 H 1250.01 7.03551 4.13168 0
M  V30 7078 P 1253.97 7.20834 5.23717 0
M  V30 7079 O 1254.19 7.79853 6.57286 0
M  V30 7080 O 1254.76 7.79239 4.12957 0
M  V30 7081 O 1254.22 5.63315 5.29344 0
M  V30 7082 C 1253.28 4.80255 6.01876 0
M  V30 7083 C 1254.01 3.64202 6.65911 0
M  V30 7084 O 1254.22 2.60694 5.64732 0
M  V30 7085 C 1255.41 3.93473 7.1943 0
M  V30 7086 O 1255.8 3.02071 8.21205 0
M  V30 7087 C 1256.29 3.73047 5.97036 0
M  V30 7088 C 1255.58 2.58828 5.25741 0
M  V30 7089 N 1255.63 2.68068 3.77503 0
M  V30 7090 H 1252.79 5.40332 6.79951 0
M  V30 7091 H 1252.52 4.41613 5.32378 0
M  V30 7092 H 1253.39 3.26331 7.47797 0
M  V30 7093 P 1257.35 2.75334 8.47391 0
M  V30 7094 O 1257.57 2.44571 9.90142 0
M  V30 7095 O 1258.14 3.87688 7.92115 0
M  V30 7096 O 1257.6 1.4459 7.59357 0
M  V30 7097 C 1256.66 0.347608 7.69215 0
M  V30 7098 C 1257.39 -0.96767 7.52806 0
M  V30 7099 O 1257.6 -1.21036 6.1011 0
M  V30 7100 C 1258.79 -1.04544 8.13308 0
M  V30 7101 O 1259.18 -2.38311 8.41922 0
M  V30 7102 C 1259.67 -0.491279 7.02284 0
M  V30 7103 C 1258.96 -0.996264 5.77469 0
M  V30 7104 N 1259.01 -0.0501916 4.62973 0
M  V30 7105 H 1256.17 0.374722 8.67691 0
M  V30 7106 H 1255.9 0.443485 6.90277 0
M  V30 7107 H 1256.77 -1.75537 7.96793 0
M  V30 7108 P 1260.73 -2.75334 8.47391 0
M  V30 7109 O 1260.95 -3.84204 9.44982 0
M  V30 7110 O 1261.52 -1.51982 8.68909 0
M  V30 7111 O 1260.98 -3.29363 6.99321 0
M  V30 7112 C 1260.04 -4.24066 6.42823 0
M  V30 7113 C 1260.77 -5.20775 5.52155 0
M  V30 7114 O 1260.98 -4.56607 4.22514 0
M  V30 7115 C 1262.17 -5.62697 5.96604 0
M  V30 7116 O 1262.56 -6.87667 5.41053 0
M  V30 7117 C 1263.05 -4.52537 5.39283 0
M  V30 7118 C 1262.34 -4.20027 4.08623 0
M  V30 7119 N 1262.39 -2.76189 3.71603 0
M  V30 7120 C 1262.31 -1.66944 4.54297 0
M  V30 7121 N 1262.38 -0.536169 3.91344 0
M  V30 7122 C 1262.53 -0.901569 2.58849 0
M  V30 7123 C 1262.66 -0.146599 1.40236 0
M  V30 7124 N 1262.67 1.18234 1.37046 0
M  V30 7125 N 1262.78 -0.822941 0.249738 0
M  V30 7126 C 1262.77 -2.15179 0.280525 0
M  V30 7127 N 1262.65 -2.96414 1.30822 0
M  V30 7128 C 1262.53 -2.25804 2.44748 0
M  V30 7129 H 1259.55 -4.79756 7.24086 0
M  V30 7130 H 1259.28 -3.69963 5.84682 0
M  V30 7131 H 1260.15 -6.10431 5.41508 0
M  V30 7132 H 1262.81 -4.78816 3.28024 0
M  V30 7133 H 1263.09 -3.64957 6.05871 0
M  V30 7134 H 1264.08 -4.88748 5.21323 0
M  V30 7135 H 1262.24 -5.66789 7.0643 0
M  V30 7136 H 1262.2 -1.74684 5.62396 0
M  V30 7137 H 1262.58 1.71949 2.24394 0
M  V30 7138 H 1262.77 1.67511 0.470742 0
M  V30 7139 H 1262.88 -2.63704 -0.6828 0
M  V30 7140 P 1264.11 -7.20834 5.23717 0
M  V30 7141 O 1264.33 -8.66104 5.38572 0
M  V30 7142 O 1264.9 -6.33544 6.1349 0
M  V30 7143 O 1264.36 -6.7751 3.72168 0
M  V30 7144 C 1263.42 -7.20825 2.7076 0
M  V30 7145 C 1264.15 -7.45864 1.40599 0
M  V30 7146 O 1264.36 -6.17651 0.734225 0
M  V30 7147 C 1265.55 -8.05808 1.51899 0
M  V30 7148 O 1265.94 -8.74358 0.335205 0
M  V30 7149 C 1266.43 -6.83093 1.70294 0
M  V30 7150 C 1265.72 -5.79992 0.836974 0
M  V30 7151 N 1265.77 -4.41864 1.38293 0
M  V30 7152 H 1262.93 -8.13644 3.0377 0
M  V30 7153 H 1262.66 -6.42788 2.55485 0
M  V30 7154 H 1263.53 -8.12039 0.792769 0
M  V30 7155 P 1267.49 -8.91 -1.0016e-11 0
M  V30 7156 O 1267.71 -10.1726 -0.733694 0
M  V30 7157 O 1268.28 -8.73148 1.23936 0
M  V30 7158 O 1267.74 -7.66872 -0.971405 0
M  V30 7159 C 1266.8 -7.42309 -2.04641 0
M  V30 7160 C 1267.53 -6.86059 -3.24661 0
M  V30 7161 O 1267.74 -5.42847 -3.03646 0
M  V30 7162 C 1268.93 -7.41196 -3.50753 0
M  V30 7163 O 1269.32 -7.27073 -4.86816 0
M  V30 7164 C 1269.81 -6.5273 -2.63741 0
M  V30 7165 C 1269.1 -5.1842 -2.73198 0
M  V30 7166 N 1269.15 -4.38762 -1.4784 0
M  V30 7167 H 1266.31 -8.36803 -2.32493 0
M  V30 7168 H 1266.04 -6.70197 -1.71129 0
M  V30 7169 H 1266.91 -7.03551 -4.13168 0
M  V30 7170 P 1270.87 -7.20834 -5.23717 0
M  V30 7171 O 1271.09 -7.79853 -6.57286 0
M  V30 7172 O 1271.66 -7.79239 -4.12957 0
M  V30 7173 O 1271.12 -5.63315 -5.29344 0
M  V30 7174 C 1270.18 -4.80255 -6.01876 0
M  V30 7175 C 1270.91 -3.64202 -6.65911 0
M  V30 7176 O 1271.12 -2.60694 -5.64732 0
M  V30 7177 C 1272.31 -3.93473 -7.1943 0
M  V30 7178 O 1272.7 -3.02071 -8.21205 0
M  V30 7179 C 1273.19 -3.73047 -5.97036 0
M  V30 7180 C 1272.48 -2.58828 -5.25741 0
M  V30 7181 N 1272.53 -2.68068 -3.77503 0
M  V30 7182 H 1269.69 -5.40332 -6.79951 0
M  V30 7183 H 1269.42 -4.41613 -5.32378 0
M  V30 7184 H 1270.29 -3.26331 -7.47797 0
M  V30 7185 P 1274.25 -2.75334 -8.47391 0
M  V30 7186 O 1274.47 -2.44571 -9.90142 0
M  V30 7187 O 1275.04 -3.87688 -7.92115 0
M  V30 7188 O 1274.5 -1.4459 -7.59357 0
M  V30 7189 C 1273.56 -0.347608 -7.69215 0
M  V30 7190 C 1274.29 0.96767 -7.52806 0
M  V30 7191 O 1274.5 1.21036 -6.1011 0
M  V30 7192 C 1275.69 1.04544 -8.13308 0
M  V30 7193 O 1276.08 2.38311 -8.41922 0
M  V30 7194 C 1276.57 0.491279 -7.02284 0
M  V30 7195 C 1275.86 0.996264 -5.77469 0
M  V30 7196 N 1275.91 0.0501916 -4.62973 0
M  V30 7197 H 1273.07 -0.374722 -8.67691 0
M  V30 7198 H 1272.8 -0.443485 -6.90277 0
M  V30 7199 H 1273.67 1.75537 -7.96793 0
M  V30 7200 P 1277.63 2.75334 -8.47391 0
M  V30 7201 O 1277.85 3.84128 -9.44797 0
M  V30 7202 O 1278.42 1.51947 -8.68712 0
M  V30 7203 O 1277.88 3.29363 -6.99321 0
M  V30 7204 C 1276.94 4.24011 -6.4274 0
M  V30 7205 C 1277.67 5.20775 -5.52155 0
M  V30 7206 O 1277.88 4.56534 -4.22446 0
M  V30 7207 C 1279.07 5.62629 -5.96531 0
M  V30 7208 O 1279.46 6.87667 -5.41053 0
M  V30 7209 C 1279.95 4.52537 -5.39283 0
M  V30 7210 C 1279.24 4.20027 -4.08623 0
M  V30 7211 N 1279.29 2.76189 -3.71603 0
M  V30 7212 H 1276.45 4.797 -7.24003 0
M  V30 7213 H 1276.18 3.69856 -5.84513 0
M  V30 7214 H 1277.05 6.10356 -5.41441 0
M  V30 7215 P 1281.01 7.20834 -5.23717 0
M  V30 7216 O 1281.23 8.66274 -5.38678 0
M  V30 7217 O 1281.8 6.33687 -6.13629 0
M  V30 7218 O 1281.26 6.7751 -3.72168 0
M  V30 7219 C 1280.32 7.20919 -2.70795 0
M  V30 7220 C 1281.05 7.45864 -1.40599 0
M  V30 7221 O 1281.26 6.17751 -0.734343 0
M  V30 7222 C 1282.45 8.05906 -1.51917 0
M  V30 7223 O 1282.84 8.74358 -0.335205 0
M  V30 7224 C 1283.33 6.83093 -1.70294 0
M  V30 7225 C 1282.62 5.79992 -0.836974 0
M  V30 7226 N 1282.67 4.41864 -1.38293 0
M  V30 7227 H 1279.83 8.13738 -3.03804 0
M  V30 7228 H 1279.56 6.42974 -2.55559 0
M  V30 7229 H 1280.43 8.12139 -0.792866 0
M  V30 7230 H 1283.09 5.80178 0.160643 0
M  V30 7231 H 1283.37 6.51379 -2.75643 0
M  V30 7232 H 1284.36 7.01832 -1.3448 0
M  V30 7233 H 1282.52 8.73771 -2.38364 0
M  V30 7234 P 1284.39 8.91 1.01732e-11 0
M  V30 7235 O 1284.61 10.1726 0.733694 0
M  V30 7236 O 1285.18 8.73148 -1.23936 0
M  V30 7237 O 1284.64 7.66872 0.971405 0
M  V30 7238 C 1283.7 7.42309 2.04641 0
M  V30 7239 C 1284.43 6.86059 3.24661 0
M  V30 7240 O 1284.64 5.42847 3.03646 0
M  V30 7241 C 1285.83 7.41196 3.50753 0
M  V30 7242 O 1286.22 7.27073 4.86816 0
M  V30 7243 C 1286.71 6.5273 2.63741 0
M  V30 7244 C 1286 5.1842 2.73198 0
M  V30 7245 N 1286.05 4.38762 1.4784 0
M  V30 7246 H 1283.21 8.36803 2.32493 0
M  V30 7247 H 1282.94 6.70197 1.71129 0
M  V30 7248 H 1283.81 7.03551 4.13168 0
M  V30 7249 P 1287.77 7.20834 5.23717 0
M  V30 7250 O 1287.99 7.7993 6.57351 0
M  V30 7251 O 1288.56 7.79328 4.13004 0
M  V30 7252 O 1288.02 5.63315 5.29344 0
M  V30 7253 C 1287.08 4.80193 6.01798 0
M  V30 7254 C 1287.81 3.64202 6.65911 0
M  V30 7255 O 1288.02 2.60694 5.64732 0
M  V30 7256 C 1289.21 3.93473 7.1943 0
M  V30 7257 O 1289.6 3.02071 8.21205 0
M  V30 7258 C 1290.09 3.73047 5.97036 0
M  V30 7259 C 1289.38 2.58828 5.25741 0
M  V30 7260 N 1289.43 2.6801 3.77422 0
M  V30 7261 C 1289.58 1.50443 3.07133 0
M  V30 7262 O 1289.67 0.419406 3.61576 0
M  V30 7263 N 1289.62 1.6403 1.69677 0
M  V30 7264 C 1289.53 2.81206 0.986255 0
M  V30 7265 O 1289.58 2.80892 -0.249754 0
M  V30 7266 C 1289.38 3.99158 1.80325 0
M  V30 7267 C 1289.27 5.29309 1.06921 0
M  V30 7268 C 1289.33 3.89779 3.1476 0
M  V30 7269 H 1286.59 5.40332 6.79951 0
M  V30 7270 H 1286.32 4.41549 5.32301 0
M  V30 7271 H 1287.19 3.26331 7.47797 0
M  V30 7272 H 1289.85 1.6395 5.56554 0
M  V30 7273 H 1290.12 4.63439 5.3432 0
M  V30 7274 H 1291.12 3.44728 6.25838 0
M  V30 7275 H 1289.28 4.96652 7.57263 0
M  V30 7276 H 1289.21 4.80159 3.74441 0
M  V30 7277 H 1290.24 5.81459 1.09608 0
M  V30 7278 H 1288.5 5.9187 1.54487 0
M  V30 7279 H 1288.99 5.10095 0.0220288 0
M  V30 7280 H 1289.73 0.798962 1.16664 0
M  V30 7281 P 1291.15 2.75334 8.47391 0
M  V30 7282 O 1291.37 2.44571 9.90142 0
M  V30 7283 O 1291.94 3.87688 7.92115 0
M  V30 7284 O 1291.4 1.4459 7.59357 0
M  V30 7285 C 1290.46 0.347608 7.69215 0
M  V30 7286 C 1291.19 -0.96767 7.52806 0
M  V30 7287 O 1291.4 -1.21036 6.1011 0
M  V30 7288 C 1292.59 -1.04544 8.13308 0
M  V30 7289 O 1292.98 -2.38311 8.41922 0
M  V30 7290 C 1293.47 -0.491279 7.02284 0
M  V30 7291 C 1292.76 -0.996264 5.77469 0
M  V30 7292 N 1292.81 -0.0501916 4.62973 0
M  V30 7293 H 1289.97 0.374722 8.67691 0
M  V30 7294 H 1289.7 0.443485 6.90277 0
M  V30 7295 H 1290.57 -1.75537 7.96793 0
M  V30 7296 P 1294.53 -2.75334 8.47391 0
M  V30 7297 O 1294.75 -3.84128 9.44797 0
M  V30 7298 O 1295.32 -1.51947 8.68712 0
M  V30 7299 O 1294.78 -3.29363 6.99321 0
M  V30 7300 C 1293.84 -4.24011 6.4274 0
M  V30 7301 C 1294.57 -5.20775 5.52155 0
M  V30 7302 O 1294.78 -4.56534 4.22446 0
M  V30 7303 C 1295.97 -5.62629 5.96531 0
M  V30 7304 O 1296.36 -6.87667 5.41053 0
M  V30 7305 C 1296.85 -4.52537 5.39283 0
M  V30 7306 C 1296.14 -4.20027 4.08623 0
M  V30 7307 N 1296.19 -2.76189 3.71603 0
M  V30 7308 H 1293.35 -4.797 7.24003 0
M  V30 7309 H 1293.08 -3.69856 5.84513 0
M  V30 7310 H 1293.95 -6.10356 5.41441 0
M  V30 7311 P 1297.91 -7.20834 5.23717 0
M  V30 7312 O 1298.13 -8.66104 5.38572 0
M  V30 7313 O 1298.7 -6.33544 6.1349 0
M  V30 7314 O 1298.16 -6.7751 3.72168 0
M  V30 7315 C 1297.22 -7.20825 2.7076 0
M  V30 7316 C 1297.95 -7.45864 1.40599 0
M  V30 7317 O 1298.16 -6.17651 0.734225 0
M  V30 7318 C 1299.35 -8.05808 1.51899 0
M  V30 7319 O 1299.74 -8.74358 0.335205 0
M  V30 7320 C 1300.23 -6.83093 1.70294 0
M  V30 7321 C 1299.52 -5.79992 0.836974 0
M  V30 7322 N 1299.57 -4.41864 1.38293 0
M  V30 7323 H 1296.73 -8.13644 3.0377 0
M  V30 7324 H 1296.46 -6.42788 2.55485 0
M  V30 7325 H 1297.33 -8.12039 0.792769 0
M  V30 7326 P 1301.29 -8.91 -1.03304e-11 0
M  V30 7327 O 1301.51 -10.1726 -0.733694 0
M  V30 7328 O 1302.08 -8.73148 1.23936 0
M  V30 7329 O 1301.54 -7.66872 -0.971405 0
M  V30 7330 C 1300.6 -7.42309 -2.04641 0
M  V30 7331 C 1301.33 -6.86059 -3.24661 0
M  V30 7332 O 1301.54 -5.42847 -3.03646 0
M  V30 7333 C 1302.73 -7.41196 -3.50753 0
M  V30 7334 O 1303.12 -7.27073 -4.86816 0
M  V30 7335 C 1303.61 -6.5273 -2.63741 0
M  V30 7336 C 1302.9 -5.1842 -2.73198 0
M  V30 7337 N 1302.95 -4.38762 -1.4784 0
M  V30 7338 H 1300.11 -8.36803 -2.32493 0
M  V30 7339 H 1299.84 -6.70197 -1.71129 0
M  V30 7340 H 1300.71 -7.03551 -4.13168 0
M  V30 7341 P 1304.67 -7.20834 -5.23717 0
M  V30 7342 O 1304.89 -7.79853 -6.57286 0
M  V30 7343 O 1305.46 -7.79239 -4.12957 0
M  V30 7344 O 1304.92 -5.63315 -5.29344 0
M  V30 7345 C 1303.98 -4.80255 -6.01876 0
M  V30 7346 C 1304.71 -3.64202 -6.65911 0
M  V30 7347 O 1304.92 -2.60694 -5.64732 0
M  V30 7348 C 1306.11 -3.93473 -7.1943 0
M  V30 7349 O 1306.5 -3.02071 -8.21205 0
M  V30 7350 C 1306.99 -3.73047 -5.97036 0
M  V30 7351 C 1306.28 -2.58828 -5.25741 0
M  V30 7352 N 1306.33 -2.68068 -3.77503 0
M  V30 7353 H 1303.49 -5.40332 -6.79951 0
M  V30 7354 H 1303.22 -4.41613 -5.32378 0
M  V30 7355 H 1304.09 -3.26331 -7.47797 0
M  V30 7356 P 1308.05 -2.75334 -8.47391 0
M  V30 7357 O 1308.27 -2.44571 -9.90142 0
M  V30 7358 O 1308.84 -3.87688 -7.92115 0
M  V30 7359 O 1308.3 -1.4459 -7.59357 0
M  V30 7360 C 1307.36 -0.347608 -7.69215 0
M  V30 7361 C 1308.09 0.96767 -7.52806 0
M  V30 7362 O 1308.3 1.21036 -6.1011 0
M  V30 7363 C 1309.49 1.04544 -8.13308 0
M  V30 7364 O 1309.88 2.38311 -8.41922 0
M  V30 7365 C 1310.37 0.491279 -7.02284 0
M  V30 7366 C 1309.66 0.996264 -5.77469 0
M  V30 7367 N 1309.71 0.0501916 -4.62973 0
M  V30 7368 H 1306.87 -0.374722 -8.67691 0
M  V30 7369 H 1306.6 -0.443485 -6.90277 0
M  V30 7370 H 1307.47 1.75537 -7.96793 0
M  V30 7371 P 1311.43 2.75334 -8.47391 0
M  V30 7372 O 1311.65 3.84128 -9.44797 0
M  V30 7373 O 1312.22 1.51947 -8.68712 0
M  V30 7374 O 1311.68 3.29363 -6.99321 0
M  V30 7375 C 1310.74 4.24011 -6.4274 0
M  V30 7376 C 1311.47 5.20775 -5.52155 0
M  V30 7377 O 1311.68 4.56534 -4.22446 0
M  V30 7378 C 1312.87 5.62629 -5.96531 0
M  V30 7379 O 1313.26 6.87667 -5.41053 0
M  V30 7380 C 1313.75 4.52537 -5.39283 0
M  V30 7381 C 1313.04 4.20027 -4.08623 0
M  V30 7382 N 1313.09 2.76189 -3.71603 0
M  V30 7383 H 1310.25 4.797 -7.24003 0
M  V30 7384 H 1309.98 3.69856 -5.84513 0
M  V30 7385 H 1310.85 6.10356 -5.41441 0
M  V30 7386 P 1314.81 7.20834 -5.23717 0
M  V30 7387 O 1315.03 8.66104 -5.38572 0
M  V30 7388 O 1315.6 6.33544 -6.1349 0
M  V30 7389 O 1315.06 6.7751 -3.72168 0
M  V30 7390 C 1314.12 7.20825 -2.7076 0
M  V30 7391 C 1314.85 7.45864 -1.40599 0
M  V30 7392 O 1315.06 6.17651 -0.734225 0
M  V30 7393 C 1316.25 8.05808 -1.51899 0
M  V30 7394 O 1316.64 8.74358 -0.335205 0
M  V30 7395 C 1317.13 6.83093 -1.70294 0
M  V30 7396 C 1316.42 5.79992 -0.836974 0
M  V30 7397 N 1316.47 4.41864 -1.38293 0
M  V30 7398 H 1313.63 8.13644 -3.0377 0
M  V30 7399 H 1313.36 6.42788 -2.55485 0
M  V30 7400 H 1314.23 8.12039 -0.792769 0
M  V30 7401 P 1318.19 8.91 1.04876e-11 0
M  V30 7402 O 1318.41 10.1746 0.733838 0
M  V30 7403 O 1318.98 8.73346 -1.23964 0
M  V30 7404 O 1318.44 7.66872 0.971405 0
M  V30 7405 C 1317.5 7.42405 2.04668 0
M  V30 7406 C 1318.23 6.86059 3.24661 0
M  V30 7407 O 1318.44 5.42934 3.03695 0
M  V30 7408 C 1319.63 7.41287 3.50796 0
M  V30 7409 O 1320.02 7.27073 4.86816 0
M  V30 7410 C 1320.51 6.5273 2.63741 0
M  V30 7411 C 1319.8 5.1842 2.73198 0
M  V30 7412 N 1319.85 4.38762 1.4784 0
M  V30 7413 C 1319.77 4.83651 0.183876 0
M  V30 7414 N 1319.84 3.88759 -0.699393 0
M  V30 7415 C 1319.99 2.7404 0.0575568 0
M  V30 7416 C 1320.12 1.37902 -0.293928 0
M  V30 7417 N 1320.13 0.938021 -1.54797 0
M  V30 7418 N 1320.24 0.491817 0.70549 0
M  V30 7419 C 1320.23 0.931735 1.95979 0
M  V30 7420 N 1320.11 2.16017 2.41481 0
M  V30 7421 C 1319.99 3.02547 1.39121 0
M  V30 7422 H 1317.01 8.36899 2.3252 0
M  V30 7423 H 1316.74 6.70391 1.71179 0
M  V30 7424 H 1317.61 7.03638 4.13219 0
M  V30 7425 H 1320.27 4.59931 3.54016 0
M  V30 7426 H 1320.55 6.88995 1.59871 0
M  V30 7427 H 1321.54 6.4684 3.0373 0
M  V30 7428 H 1319.7 8.47002 3.20749 0
M  V30 7429 H 1319.66 5.8885 -0.0765548 0
M  V30 7430 H 1320.04 1.60276 -2.32875 0
M  V30 7431 H 1320.23 -0.0699355 -1.73859 0
M  V30 7432 H 1320.34 0.165507 2.71897 0
M  V30 7433 P 1321.57 7.20834 5.23717 0
M  V30 7434 O 1321.79 7.79853 6.57286 0
M  V30 7435 O 1322.36 7.79239 4.12957 0
M  V30 7436 O 1321.82 5.63315 5.29344 0
M  V30 7437 C 1320.88 4.80255 6.01876 0
M  V30 7438 C 1321.61 3.64202 6.65911 0
M  V30 7439 O 1321.82 2.60694 5.64732 0
M  V30 7440 C 1323.01 3.93473 7.1943 0
M  V30 7441 O 1323.4 3.02071 8.21205 0
M  V30 7442 C 1323.89 3.73047 5.97036 0
M  V30 7443 C 1323.18 2.58828 5.25741 0
M  V30 7444 N 1323.23 2.68068 3.77503 0
M  V30 7445 H 1320.39 5.40332 6.79951 0
M  V30 7446 H 1320.12 4.41613 5.32378 0
M  V30 7447 H 1320.99 3.26331 7.47797 0
M  V30 7448 P 1324.95 2.75334 8.47391 0
M  V30 7449 O 1325.17 2.44571 9.90142 0
M  V30 7450 O 1325.74 3.87688 7.92115 0
M  V30 7451 O 1325.2 1.4459 7.59357 0
M  V30 7452 C 1324.26 0.347608 7.69215 0
M  V30 7453 C 1324.99 -0.96767 7.52806 0
M  V30 7454 O 1325.2 -1.21036 6.1011 0
M  V30 7455 C 1326.39 -1.04544 8.13308 0
M  V30 7456 O 1326.78 -2.38311 8.41922 0
M  V30 7457 C 1327.27 -0.491279 7.02284 0
M  V30 7458 C 1326.56 -0.996264 5.77469 0
M  V30 7459 N 1326.61 -0.0501916 4.62973 0
M  V30 7460 H 1323.77 0.374722 8.67691 0
M  V30 7461 H 1323.5 0.443485 6.90277 0
M  V30 7462 H 1324.37 -1.75537 7.96793 0
M  V30 7463 P 1328.33 -2.75334 8.47391 0
M  V30 7464 O 1328.55 -3.84128 9.44797 0
M  V30 7465 O 1329.12 -1.51947 8.68712 0
M  V30 7466 O 1328.58 -3.29363 6.99321 0
M  V30 7467 C 1327.64 -4.24011 6.4274 0
M  V30 7468 C 1328.37 -5.20775 5.52155 0
M  V30 7469 O 1328.58 -4.56534 4.22446 0
M  V30 7470 C 1329.77 -5.62629 5.96531 0
M  V30 7471 O 1330.16 -6.87667 5.41053 0
M  V30 7472 C 1330.65 -4.52537 5.39283 0
M  V30 7473 C 1329.94 -4.20027 4.08623 0
M  V30 7474 N 1329.99 -2.76189 3.71603 0
M  V30 7475 H 1327.15 -4.797 7.24003 0
M  V30 7476 H 1326.88 -3.69856 5.84513 0
M  V30 7477 H 1327.75 -6.10356 5.41441 0
M  V30 7478 P 1331.71 -7.20834 5.23717 0
M  V30 7479 O 1331.93 -8.66104 5.38572 0
M  V30 7480 O 1332.5 -6.33544 6.1349 0
M  V30 7481 O 1331.96 -6.7751 3.72168 0
M  V30 7482 C 1331.02 -7.20825 2.7076 0
M  V30 7483 C 1331.75 -7.45864 1.40599 0
M  V30 7484 O 1331.96 -6.17651 0.734225 0
M  V30 7485 C 1333.15 -8.05808 1.51899 0
M  V30 7486 O 1333.54 -8.74358 0.335205 0
M  V30 7487 C 1334.03 -6.83093 1.70294 0
M  V30 7488 C 1333.32 -5.79992 0.836974 0
M  V30 7489 N 1333.37 -4.41864 1.38293 0
M  V30 7490 C 1333.29 -3.99538 2.69438 0
M  V30 7491 N 1333.37 -2.69909 2.84277 0
M  V30 7492 C 1333.51 -2.21719 1.5408 0
M  V30 7493 C 1333.64 -0.891712 1.06628 0
M  V30 7494 O 1333.66 0.161298 1.70137 0
M  V30 7495 N 1333.76 -0.856846 -0.334985 0
M  V30 7496 C 1333.76 -1.9641 -1.15789 0
M  V30 7497 N 1333.89 -1.72708 -2.46522 0
M  V30 7498 N 1333.63 -3.21165 -0.713741 0
M  V30 7499 C 1333.51 -3.26797 0.639748 0
M  V30 7500 H 1330.53 -8.13644 3.0377 0
M  V30 7501 H 1330.26 -6.42788 2.55485 0
M  V30 7502 H 1331.13 -8.12039 0.792769 0
M  V30 7503 H 1333.79 -5.80061 -0.166416 0
M  V30 7504 H 1334.06 -6.51287 2.75604 0
M  V30 7505 H 1335.06 -7.01734 1.34462 0
M  V30 7506 H 1333.22 -8.73674 2.38337 0
M  V30 7507 H 1333.17 -4.68207 3.53221 0
M  V30 7508 H 1333.86 0.0398818 -0.767965 0
M  V30 7509 H 1333.89 -2.50995 -3.13503 0
M  V30 7510 H 1333.99 -0.759148 -2.80716 0
M  V30 7511 P 1335.09 -8.91 -1.06447e-11 0
M  V30 7512 O 1335.31 -10.1726 -0.733694 0
M  V30 7513 O 1335.88 -8.73148 1.23936 0
M  V30 7514 O 1335.34 -7.66872 -0.971405 0
M  V30 7515 C 1334.4 -7.42309 -2.04641 0
M  V30 7516 C 1335.13 -6.86059 -3.24661 0
M  V30 7517 O 1335.34 -5.42847 -3.03646 0
M  V30 7518 C 1336.53 -7.41196 -3.50753 0
M  V30 7519 O 1336.92 -7.27073 -4.86816 0
M  V30 7520 C 1337.41 -6.5273 -2.63741 0
M  V30 7521 C 1336.7 -5.1842 -2.73198 0
M  V30 7522 N 1336.75 -4.38762 -1.4784 0
M  V30 7523 H 1333.91 -8.36803 -2.32493 0
M  V30 7524 H 1333.64 -6.70197 -1.71129 0
M  V30 7525 H 1334.51 -7.03551 -4.13168 0
M  V30 7526 P 1338.47 -7.20834 -5.23717 0
M  V30 7527 O 1338.69 -7.79853 -6.57286 0
M  V30 7528 O 1339.26 -7.79239 -4.12957 0
M  V30 7529 O 1338.72 -5.63315 -5.29344 0
M  V30 7530 C 1337.78 -4.80255 -6.01876 0
M  V30 7531 C 1338.51 -3.64202 -6.65911 0
M  V30 7532 O 1338.72 -2.60694 -5.64732 0
M  V30 7533 C 1339.91 -3.93473 -7.1943 0
M  V30 7534 O 1340.3 -3.02071 -8.21205 0
M  V30 7535 C 1340.79 -3.73047 -5.97036 0
M  V30 7536 C 1340.08 -2.58828 -5.25741 0
M  V30 7537 N 1340.13 -2.68068 -3.77503 0
M  V30 7538 H 1337.29 -5.40332 -6.79951 0
M  V30 7539 H 1337.02 -4.41613 -5.32378 0
M  V30 7540 H 1337.89 -3.26331 -7.47797 0
M  V30 7541 P 1341.85 -2.75334 -8.47391 0
M  V30 7542 O 1342.07 -2.44571 -9.90142 0
M  V30 7543 O 1342.64 -3.87688 -7.92115 0
M  V30 7544 O 1342.1 -1.4459 -7.59357 0
M  V30 7545 C 1341.16 -0.347608 -7.69215 0
M  V30 7546 C 1341.89 0.96767 -7.52806 0
M  V30 7547 O 1342.1 1.21036 -6.1011 0
M  V30 7548 C 1343.29 1.04544 -8.13308 0
M  V30 7549 O 1343.68 2.38311 -8.41922 0
M  V30 7550 C 1344.17 0.491279 -7.02284 0
M  V30 7551 C 1343.46 0.996264 -5.77469 0
M  V30 7552 N 1343.51 0.0501916 -4.62973 0
M  V30 7553 H 1340.67 -0.374722 -8.67691 0
M  V30 7554 H 1340.4 -0.443485 -6.90277 0
M  V30 7555 H 1341.27 1.75537 -7.96793 0
M  V30 7556 P 1345.23 2.75334 -8.47391 0
M  V30 7557 O 1345.45 3.84166 -9.4489 0
M  V30 7558 O 1346.02 1.51964 -8.6881 0
M  V30 7559 O 1345.48 3.29363 -6.99321 0
M  V30 7560 C 1344.54 4.23956 -6.42656 0
M  V30 7561 C 1345.27 5.20775 -5.52155 0
M  V30 7562 O 1345.48 4.56534 -4.22446 0
M  V30 7563 C 1346.67 5.62629 -5.96531 0
M  V30 7564 O 1347.06 6.87667 -5.41053 0
M  V30 7565 C 1347.55 4.52537 -5.39283 0
M  V30 7566 C 1346.84 4.20027 -4.08623 0
M  V30 7567 N 1346.89 2.7613 -3.71522 0
M  V30 7568 C 1347.04 2.45612 -2.37989 0
M  V30 7569 O 1347.13 3.30919 -1.51621 0
M  V30 7570 N 1347.08 1.10684 -2.08435 0
M  V30 7571 C 1346.99 0.0690084 -2.9792 0
M  V30 7572 C 1346.84 0.481522 -4.35345 0
M  V30 7573 C 1346.79 1.78906 -4.67968 0
M  V30 7574 H 1344.05 4.797 -7.24003 0
M  V30 7575 H 1343.78 3.69802 -5.84429 0
M  V30 7576 H 1344.65 6.10356 -5.41441 0
M  V30 7577 H 1347.31 4.78651 -3.27911 0
M  V30 7578 H 1347.58 3.64957 -6.05871 0
M  V30 7579 H 1348.58 4.8868 -5.2125 0
M  V30 7580 H 1346.74 5.66726 -7.06352 0
M  V30 7581 H 1346.67 2.07737 -5.72367 0
M  V30 7582 P 1348.61 7.20834 -5.23717 0
M  V30 7583 O 1348.83 8.66104 -5.38572 0
M  V30 7584 O 1349.4 6.33544 -6.1349 0
M  V30 7585 O 1348.86 6.7751 -3.72168 0
M  V30 7586 C 1347.92 7.20825 -2.7076 0
M  V30 7587 C 1348.65 7.45864 -1.40599 0
M  V30 7588 O 1348.86 6.17651 -0.734225 0
M  V30 7589 C 1350.05 8.05808 -1.51899 0
M  V30 7590 O 1350.44 8.74358 -0.335205 0
M  V30 7591 C 1350.93 6.83093 -1.70294 0
M  V30 7592 C 1350.22 5.79992 -0.836974 0
M  V30 7593 N 1350.27 4.41864 -1.38293 0
M  V30 7594 H 1347.43 8.13644 -3.0377 0
M  V30 7595 H 1347.16 6.42788 -2.55485 0
M  V30 7596 H 1348.03 8.12039 -0.792769 0
M  V30 7597 P 1351.99 8.91 1.08019e-11 0
M  V30 7598 O 1352.21 10.1746 0.733838 0
M  V30 7599 O 1352.78 8.73346 -1.23964 0
M  V30 7600 O 1352.24 7.66872 0.971405 0
M  V30 7601 C 1351.3 7.42405 2.04668 0
M  V30 7602 C 1352.03 6.86059 3.24661 0
M  V30 7603 O 1352.24 5.42934 3.03695 0
M  V30 7604 C 1353.43 7.41287 3.50796 0
M  V30 7605 O 1353.82 7.27073 4.86816 0
M  V30 7606 C 1354.31 6.5273 2.63741 0
M  V30 7607 C 1353.6 5.1842 2.73198 0
M  V30 7608 N 1353.65 4.38762 1.4784 0
M  V30 7609 C 1353.57 4.83651 0.183876 0
M  V30 7610 N 1353.64 3.88759 -0.699393 0
M  V30 7611 C 1353.79 2.7404 0.0575568 0
M  V30 7612 C 1353.92 1.37902 -0.293928 0
M  V30 7613 N 1353.93 0.938021 -1.54797 0
M  V30 7614 N 1354.04 0.491817 0.70549 0
M  V30 7615 C 1354.03 0.931735 1.95979 0
M  V30 7616 N 1353.91 2.16017 2.41481 0
M  V30 7617 C 1353.79 3.02547 1.39121 0
M  V30 7618 H 1350.81 8.36899 2.3252 0
M  V30 7619 H 1350.54 6.70391 1.71179 0
M  V30 7620 H 1351.41 7.03638 4.13219 0
M  V30 7621 H 1354.06 4.59931 3.54016 0
M  V30 7622 H 1354.34 6.88995 1.59871 0
M  V30 7623 H 1355.34 6.4684 3.0373 0
M  V30 7624 H 1353.5 8.47002 3.20749 0
M  V30 7625 H 1353.46 5.8885 -0.0765548 0
M  V30 7626 H 1353.84 1.60276 -2.32875 0
M  V30 7627 H 1354.03 -0.0699355 -1.73859 0
M  V30 7628 H 1354.14 0.165507 2.71897 0
M  V30 7629 P 1355.37 7.20834 5.23717 0
M  V30 7630 O 1355.59 7.79853 6.57286 0
M  V30 7631 O 1356.16 7.79239 4.12957 0
M  V30 7632 O 1355.62 5.63315 5.29344 0
M  V30 7633 C 1354.68 4.80255 6.01876 0
M  V30 7634 C 1355.41 3.64202 6.65911 0
M  V30 7635 O 1355.62 2.60694 5.64732 0
M  V30 7636 C 1356.81 3.93473 7.1943 0
M  V30 7637 O 1357.2 3.02071 8.21205 0
M  V30 7638 C 1357.69 3.73047 5.97036 0
M  V30 7639 C 1356.98 2.58828 5.25741 0
M  V30 7640 N 1357.03 2.68068 3.77503 0
M  V30 7641 H 1354.19 5.40332 6.79951 0
M  V30 7642 H 1353.92 4.41613 5.32378 0
M  V30 7643 H 1354.79 3.26331 7.47797 0
M  V30 7644 P 1358.75 2.75334 8.47391 0
M  V30 7645 O 1358.97 2.44571 9.90142 0
M  V30 7646 O 1359.54 3.87688 7.92115 0
M  V30 7647 O 1359 1.4459 7.59357 0
M  V30 7648 C 1358.06 0.347608 7.69215 0
M  V30 7649 C 1358.79 -0.96767 7.52806 0
M  V30 7650 O 1359 -1.21036 6.1011 0
M  V30 7651 C 1360.19 -1.04544 8.13308 0
M  V30 7652 O 1360.58 -2.38311 8.41922 0
M  V30 7653 C 1361.07 -0.491279 7.02284 0
M  V30 7654 C 1360.36 -0.996264 5.77469 0
M  V30 7655 N 1360.41 -0.0501916 4.62973 0
M  V30 7656 H 1357.57 0.374722 8.67691 0
M  V30 7657 H 1357.3 0.443485 6.90277 0
M  V30 7658 H 1358.17 -1.75537 7.96793 0
M  V30 7659 P 1362.13 -2.75334 8.47391 0
M  V30 7660 O 1362.35 -3.84128 9.44797 0
M  V30 7661 O 1362.92 -1.51947 8.68712 0
M  V30 7662 O 1362.38 -3.29363 6.99321 0
M  V30 7663 C 1361.44 -4.24011 6.4274 0
M  V30 7664 C 1362.17 -5.20775 5.52155 0
M  V30 7665 O 1362.38 -4.56534 4.22446 0
M  V30 7666 C 1363.57 -5.62629 5.96531 0
M  V30 7667 O 1363.96 -6.87667 5.41053 0
M  V30 7668 C 1364.45 -4.52537 5.39283 0
M  V30 7669 C 1363.74 -4.20027 4.08623 0
M  V30 7670 N 1363.79 -2.76189 3.71603 0
M  V30 7671 H 1360.95 -4.797 7.24003 0
M  V30 7672 H 1360.68 -3.69856 5.84513 0
M  V30 7673 H 1361.55 -6.10356 5.41441 0
M  V30 7674 P 1365.51 -7.20834 5.23717 0
M  V30 7675 O 1365.73 -8.66274 5.38678 0
M  V30 7676 O 1366.3 -6.33687 6.13629 0
M  V30 7677 O 1365.76 -6.7751 3.72168 0
M  V30 7678 C 1364.82 -7.20919 2.70795 0
M  V30 7679 C 1365.55 -7.45864 1.40599 0
M  V30 7680 O 1365.76 -6.17751 0.734343 0
M  V30 7681 C 1366.95 -8.05906 1.51917 0
M  V30 7682 O 1367.34 -8.74358 0.335205 0
M  V30 7683 C 1367.83 -6.83093 1.70294 0
M  V30 7684 C 1367.12 -5.79992 0.836974 0
M  V30 7685 N 1367.17 -4.41864 1.38293 0
M  V30 7686 H 1364.33 -8.13738 3.03804 0
M  V30 7687 H 1364.06 -6.42974 2.55559 0
M  V30 7688 H 1364.93 -8.12139 0.792866 0
M  V30 7689 H 1367.58 -5.80178 -0.160643 0
M  V30 7690 H 1367.86 -6.51379 2.75643 0
M  V30 7691 H 1368.86 -7.01832 1.3448 0
M  V30 7692 H 1367.02 -8.73771 2.38364 0
M  V30 7693 P 1368.89 -8.91 -1.09591e-11 0
M  V30 7694 O 1369.11 -10.1726 -0.733694 0
M  V30 7695 O 1369.68 -8.73148 1.23936 0
M  V30 7696 O 1369.14 -7.66872 -0.971405 0
M  V30 7697 C 1368.2 -7.42309 -2.04641 0
M  V30 7698 C 1368.93 -6.86059 -3.24661 0
M  V30 7699 O 1369.14 -5.42847 -3.03646 0
M  V30 7700 C 1370.33 -7.41196 -3.50753 0
M  V30 7701 O 1370.72 -7.27073 -4.86816 0
M  V30 7702 C 1371.21 -6.5273 -2.63741 0
M  V30 7703 C 1370.5 -5.1842 -2.73198 0
M  V30 7704 N 1370.55 -4.38762 -1.4784 0
M  V30 7705 H 1367.71 -8.36803 -2.32493 0
M  V30 7706 H 1367.44 -6.70197 -1.71129 0
M  V30 7707 H 1368.31 -7.03551 -4.13168 0
M  V30 7708 P 1372.27 -7.20834 -5.23717 0
M  V30 7709 O 1372.49 -7.79853 -6.57286 0
M  V30 7710 O 1373.06 -7.79239 -4.12957 0
M  V30 7711 O 1372.52 -5.63315 -5.29344 0
M  V30 7712 C 1371.58 -4.80255 -6.01876 0
M  V30 7713 C 1372.31 -3.64202 -6.65911 0
M  V30 7714 O 1372.52 -2.60694 -5.64732 0
M  V30 7715 C 1373.71 -3.93473 -7.1943 0
M  V30 7716 O 1374.1 -3.02071 -8.21205 0
M  V30 7717 C 1374.59 -3.73047 -5.97036 0
M  V30 7718 C 1373.88 -2.58828 -5.25741 0
M  V30 7719 N 1373.93 -2.68068 -3.77503 0
M  V30 7720 H 1371.09 -5.40332 -6.79951 0
M  V30 7721 H 1370.82 -4.41613 -5.32378 0
M  V30 7722 H 1371.69 -3.26331 -7.47797 0
M  V30 7723 P 1375.65 -2.75334 -8.47391 0
M  V30 7724 O 1375.87 -2.44595 -9.90239 0
M  V30 7725 O 1376.44 -3.87732 -7.92204 0
M  V30 7726 O 1375.9 -1.4459 -7.59357 0
M  V30 7727 C 1374.96 -0.347563 -7.69115 0
M  V30 7728 C 1375.69 0.96767 -7.52806 0
M  V30 7729 O 1375.9 1.21036 -6.1011 0
M  V30 7730 C 1377.09 1.04544 -8.13308 0
M  V30 7731 O 1377.48 2.38311 -8.41922 0
M  V30 7732 C 1377.97 0.491279 -7.02284 0
M  V30 7733 C 1377.26 0.996264 -5.77469 0
M  V30 7734 N 1377.31 0.0501808 -4.62873 0
M  V30 7735 C 1377.46 0.588177 -3.36904 0
M  V30 7736 O 1377.55 1.78598 -3.17173 0
M  V30 7737 N 1377.5 -0.329694 -2.33686 0
M  V30 7738 C 1377.41 -1.6953 -2.45079 0
M  V30 7739 O 1377.46 -2.41926 -1.44899 0
M  V30 7740 C 1377.26 -2.16933 -3.80505 0
M  V30 7741 C 1377.15 -3.65373 -3.97621 0
M  V30 7742 C 1377.21 -1.30326 -4.83752 0
M  V30 7743 H 1374.47 -0.374722 -8.67691 0
M  V30 7744 H 1374.2 -0.443421 -6.90177 0
M  V30 7745 H 1375.07 1.75537 -7.96793 0
M  V30 7746 H 1377.72 1.94496 -5.46629 0
M  V30 7747 H 1378 -0.608651 -7.04676 0
M  V30 7748 H 1379 0.889672 -7.08939 0
M  V30 7749 H 1377.16 0.43308 -9.04564 0
M  V30 7750 H 1377.09 -1.68366 -5.8516 0
M  V30 7751 H 1378.12 -4.05985 -4.30448 0
M  V30 7752 H 1376.38 -3.88028 -4.72875 0
M  V30 7753 H 1376.87 -4.11381 -3.01609 0
M  V30 7754 H 1377.61 0.0393617 -1.41345 0
M  V30 7755 P 1379.03 2.75334 -8.47391 0
M  V30 7756 O 1379.25 3.84166 -9.4489 0
M  V30 7757 O 1379.82 1.51964 -8.6881 0
M  V30 7758 O 1379.28 3.29363 -6.99321 0
M  V30 7759 C 1378.34 4.24011 -6.4274 0
M  V30 7760 C 1379.07 5.20775 -5.52155 0
M  V30 7761 O 1379.28 4.56534 -4.22446 0
M  V30 7762 C 1380.47 5.62629 -5.96531 0
M  V30 7763 O 1380.86 6.87667 -5.41053 0
M  V30 7764 C 1381.35 4.52537 -5.39283 0
M  V30 7765 C 1380.64 4.20027 -4.08623 0
M  V30 7766 N 1380.69 2.7613 -3.71522 0
M  V30 7767 C 1380.84 2.43702 -2.37085 0
M  V30 7768 O 1380.93 3.3531 -1.54039 0
M  V30 7769 N 1380.89 0.951103 -2.10621 0
M  V30 7770 C 1380.79 0.165021 -2.93537 0
M  V30 7771 N 1380.84 -1.09723 -2.53253 0
M  V30 7772 C 1380.64 0.469576 -4.32458 0
M  V30 7773 C 1380.59 1.78658 -4.65921 0
M  V30 7774 H 1377.85 4.79645 -7.23919 0
M  V30 7775 H 1377.58 3.69802 -5.84429 0
M  V30 7776 H 1378.45 6.10431 -5.41508 0
M  V30 7777 H 1381.1 4.78733 -3.27967 0
M  V30 7778 H 1381.38 3.64957 -6.05871 0
M  V30 7779 H 1382.38 4.8868 -5.2125 0
M  V30 7780 H 1380.54 5.66726 -7.06352 0
M  V30 7781 H 1380.47 2.06987 -5.70299 0
M  V30 7782 H 1380.57 -0.314383 -5.07728 0
M  V30 7783 H 1380.96 -1.31363 -1.5319 0
M  V30 7784 H 1380.76 -1.85978 -3.21943 0
M  V30 7785 P 1382.41 7.20834 -5.23717 0
M  V30 7786 O 1382.63 8.66104 -5.38572 0
M  V30 7787 O 1383.2 6.33544 -6.1349 0
M  V30 7788 O 1382.66 6.7751 -3.72168 0
M  V30 7789 C 1381.72 7.20825 -2.7076 0
M  V30 7790 C 1382.45 7.45864 -1.40599 0
M  V30 7791 O 1382.66 6.17651 -0.734225 0
M  V30 7792 C 1383.85 8.05808 -1.51899 0
M  V30 7793 O 1384.24 8.74358 -0.335205 0
M  V30 7794 C 1384.73 6.83093 -1.70294 0
M  V30 7795 C 1384.02 5.79992 -0.836974 0
M  V30 7796 N 1384.07 4.41864 -1.38293 0
M  V30 7797 H 1381.23 8.13644 -3.0377 0
M  V30 7798 H 1380.96 6.42788 -2.55485 0
M  V30 7799 H 1381.83 8.12039 -0.792769 0
M  V30 7800 P 1385.79 8.91 1.03566e-11 0
M  V30 7801 O 1386.01 10.1726 0.733694 0
M  V30 7802 O 1386.58 8.73148 -1.23936 0
M  V30 7803 O 1386.04 7.66872 0.971405 0
M  V30 7804 C 1385.1 7.42309 2.04641 0
M  V30 7805 C 1385.83 6.86059 3.24661 0
M  V30 7806 O 1386.04 5.42847 3.03646 0
M  V30 7807 C 1387.23 7.41196 3.50753 0
M  V30 7808 O 1387.62 7.27073 4.86816 0
M  V30 7809 C 1388.11 6.5273 2.63741 0
M  V30 7810 C 1387.4 5.1842 2.73198 0
M  V30 7811 N 1387.45 4.38762 1.4784 0
M  V30 7812 H 1384.61 8.36803 2.32493 0
M  V30 7813 H 1384.34 6.70197 1.71129 0
M  V30 7814 H 1385.21 7.03551 4.13168 0
M  V30 7815 P 1389.17 7.20834 5.23717 0
M  V30 7816 O 1389.39 7.79853 6.57286 0
M  V30 7817 O 1389.96 7.79239 4.12957 0
M  V30 7818 O 1389.42 5.63315 5.29344 0
M  V30 7819 C 1388.48 4.80255 6.01876 0
M  V30 7820 C 1389.21 3.64202 6.65911 0
M  V30 7821 O 1389.42 2.60694 5.64732 0
M  V30 7822 C 1390.61 3.93473 7.1943 0
M  V30 7823 O 1391 3.02071 8.21205 0
M  V30 7824 C 1391.49 3.73047 5.97036 0
M  V30 7825 C 1390.78 2.58828 5.25741 0
M  V30 7826 N 1390.83 2.68068 3.77503 0
M  V30 7827 H 1387.99 5.40332 6.79951 0
M  V30 7828 H 1387.72 4.41613 5.32378 0
M  V30 7829 H 1388.59 3.26331 7.47797 0
M  V30 7830 P 1392.55 2.75334 8.47391 0
M  V30 7831 O 1392.77 2.44595 9.90239 0
M  V30 7832 O 1393.34 3.87732 7.92204 0
M  V30 7833 O 1392.8 1.4459 7.59357 0
M  V30 7834 C 1391.86 0.347563 7.69115 0
M  V30 7835 C 1392.59 -0.96767 7.52806 0
M  V30 7836 O 1392.8 -1.21036 6.1011 0
M  V30 7837 C 1393.99 -1.04544 8.13308 0
M  V30 7838 O 1394.38 -2.38311 8.41922 0
M  V30 7839 C 1394.87 -0.491279 7.02284 0
M  V30 7840 C 1394.16 -0.996264 5.77469 0
M  V30 7841 N 1394.21 -0.0501808 4.62873 0
M  V30 7842 C 1394.36 -0.588177 3.36904 0
M  V30 7843 O 1394.45 -1.78598 3.17173 0
M  V30 7844 N 1394.4 0.329694 2.33686 0
M  V30 7845 C 1394.31 1.6953 2.45079 0
M  V30 7846 C 1394.16 2.16933 3.80505 0
M  V30 7847 C 1394.11 1.30326 4.83752 0
M  V30 7848 H 1391.37 0.374722 8.67691 0
M  V30 7849 H 1391.1 0.443421 6.90177 0
M  V30 7850 H 1391.97 -1.75537 7.96793 0
M  V30 7851 H 1394.62 -1.94496 5.46629 0
M  V30 7852 H 1394.9 0.608651 7.04676 0
M  V30 7853 H 1395.9 -0.889672 7.08939 0
M  V30 7854 H 1394.06 -0.43308 9.04564 0
M  V30 7855 H 1393.99 1.68366 5.8516 0
M  V30 7856 P 1395.93 -2.75334 8.47391 0
M  V30 7857 O 1396.15 -3.84166 9.4489 0
M  V30 7858 O 1396.72 -1.51964 8.6881 0
M  V30 7859 O 1396.18 -3.29363 6.99321 0
M  V30 7860 C 1395.24 -4.24011 6.4274 0
M  V30 7861 C 1395.97 -5.20775 5.52155 0
M  V30 7862 O 1396.18 -4.56534 4.22446 0
M  V30 7863 C 1397.37 -5.62629 5.96531 0
M  V30 7864 O 1397.76 -6.87667 5.41053 0
M  V30 7865 C 1398.25 -4.52537 5.39283 0
M  V30 7866 C 1397.54 -4.20027 4.08623 0
M  V30 7867 N 1397.59 -2.7613 3.71522 0
M  V30 7868 C 1397.74 -2.43702 2.37085 0
M  V30 7869 O 1397.83 -3.3531 1.54039 0
M  V30 7870 N 1397.79 -0.951103 2.10621 0
M  V30 7871 C 1397.69 -0.165021 2.93537 0
M  V30 7872 N 1397.74 1.09723 2.53253 0
M  V30 7873 C 1397.54 -0.469576 4.32458 0
M  V30 7874 C 1397.49 -1.78658 4.65921 0
M  V30 7875 H 1394.75 -4.79645 7.23919 0
M  V30 7876 H 1394.48 -3.69802 5.84429 0
M  V30 7877 H 1395.35 -6.10431 5.41508 0
M  V30 7878 H 1398 -4.78733 3.27967 0
M  V30 7879 H 1398.28 -3.64957 6.05871 0
M  V30 7880 H 1399.28 -4.8868 5.2125 0
M  V30 7881 H 1397.44 -5.66726 7.06352 0
M  V30 7882 H 1397.37 -2.06987 5.70299 0
M  V30 7883 H 1397.47 0.314383 5.07728 0
M  V30 7884 H 1397.86 1.31363 1.5319 0
M  V30 7885 H 1397.66 1.85978 3.21943 0
M  V30 7886 P 1399.31 -7.20834 5.23717 0
M  V30 7887 O 1399.53 -8.66104 5.38572 0
M  V30 7888 O 1400.1 -6.33544 6.1349 0
M  V30 7889 O 1399.56 -6.7751 3.72168 0
M  V30 7890 C 1398.62 -7.20825 2.7076 0
M  V30 7891 C 1399.35 -7.45864 1.40599 0
M  V30 7892 O 1399.56 -6.17651 0.734225 0
M  V30 7893 C 1400.75 -8.05808 1.51899 0
M  V30 7894 O 1401.14 -8.74358 0.335205 0
M  V30 7895 C 1401.63 -6.83093 1.70294 0
M  V30 7896 C 1400.92 -5.79992 0.836974 0
M  V30 7897 N 1400.97 -4.41864 1.38293 0
M  V30 7898 H 1398.13 -8.13644 3.0377 0
M  V30 7899 H 1397.86 -6.42788 2.55485 0
M  V30 7900 H 1398.73 -8.12039 0.792769 0
M  V30 7901 P 1402.69 -8.91 -9.24756e-12 0
M  V30 7902 O 1402.91 -10.1746 -0.733838 0
M  V30 7903 O 1403.48 -8.73346 1.23964 0
M  V30 7904 O 1402.94 -7.66872 -0.971405 0
M  V30 7905 C 1402 -7.42405 -2.04668 0
M  V30 7906 C 1402.73 -6.86059 -3.24661 0
M  V30 7907 O 1402.94 -5.42934 -3.03695 0
M  V30 7908 C 1404.13 -7.41287 -3.50796 0
M  V30 7909 O 1404.52 -7.27073 -4.86816 0
M  V30 7910 C 1405.01 -6.5273 -2.63741 0
M  V30 7911 C 1404.3 -5.1842 -2.73198 0
M  V30 7912 N 1404.35 -4.38762 -1.4784 0
M  V30 7913 H 1401.51 -8.36899 -2.3252 0
M  V30 7914 H 1401.24 -6.70391 -1.71179 0
M  V30 7915 H 1402.11 -7.03638 -4.13219 0
M  V30 7916 H 1404.76 -4.59931 -3.54016 0
M  V30 7917 H 1405.04 -6.88995 -1.59871 0
M  V30 7918 H 1406.04 -6.4684 -3.0373 0
M  V30 7919 H 1404.2 -8.47002 -3.20749 0
M  V30 7920 P 1406.07 -7.20834 -5.23717 0
M  V30 7921 O 1406.29 -7.79853 -6.57286 0
M  V30 7922 O 1406.86 -7.79239 -4.12957 0
M  V30 7923 O 1406.32 -5.63315 -5.29344 0
M  V30 7924 C 1405.38 -4.80255 -6.01876 0
M  V30 7925 C 1406.11 -3.64202 -6.65911 0
M  V30 7926 O 1406.32 -2.60694 -5.64732 0
M  V30 7927 C 1407.51 -3.93473 -7.1943 0
M  V30 7928 O 1407.9 -3.02071 -8.21205 0
M  V30 7929 C 1408.39 -3.73047 -5.97036 0
M  V30 7930 C 1407.68 -2.58828 -5.25741 0
M  V30 7931 N 1407.73 -2.68068 -3.77503 0
M  V30 7932 C 1407.65 -3.79715 -2.96723 0
M  V30 7933 N 1407.73 -3.5377 -1.68852 0
M  V30 7934 C 1407.87 -2.15054 -1.63254 0
M  V30 7935 C 1408 -1.28964 -0.518571 0
M  V30 7936 O 1408.02 -1.56826 0.679156 0
M  V30 7937 N 1408.12 0.0538097 -0.918425 0
M  V30 7938 C 1408.12 0.494275 -2.22578 0
M  V30 7939 N 1408.25 1.81086 -2.40434 0
M  V30 7940 N 1407.99 -0.313645 -3.27502 0
M  V30 7941 C 1407.87 -1.61829 -2.91033 0
M  V30 7942 H 1404.89 -5.40332 -6.79951 0
M  V30 7943 H 1404.62 -4.41613 -5.32378 0
M  V30 7944 H 1405.49 -3.26331 -7.47797 0
M  V30 7945 H 1408.14 -1.63422 -5.56814 0
M  V30 7946 H 1408.42 -4.63374 -5.34244 0
M  V30 7947 H 1409.42 -3.44728 -6.25838 0
M  V30 7948 H 1407.58 -4.96652 -7.57263 0
M  V30 7949 H 1407.53 -4.80617 -3.3614 0
M  V30 7950 H 1408.21 0.742702 -0.199384 0
M  V30 7951 H 1408.25 2.20598 -3.35588 0
M  V30 7952 H 1408.35 2.43518 -1.58945 0
M  V30 7953 P 1409.45 -2.75334 -8.47391 0
M  V30 7954 O 1409.67 -2.44619 -9.90336 0
M  V30 7955 O 1410.24 -3.87776 -7.92294 0
M  V30 7956 O 1409.7 -1.4459 -7.59357 0
M  V30 7957 C 1408.76 -0.347653 -7.69315 0
M  V30 7958 C 1409.49 0.96767 -7.52806 0
M  V30 7959 O 1409.7 1.21055 -6.10208 0
M  V30 7960 C 1410.89 1.04557 -8.13408 0
M  V30 7961 O 1411.28 2.38311 -8.41922 0
M  V30 7962 C 1411.77 0.491279 -7.02284 0
M  V30 7963 C 1411.06 0.996264 -5.77469 0
M  V30 7964 N 1411.11 0.0501916 -4.62973 0
M  V30 7965 H 1408.27 -0.374765 -8.67791 0
M  V30 7966 H 1408 -0.443613 -6.90476 0
M  V30 7967 H 1408.87 1.75559 -7.96891 0
M  V30 7968 H 1411.52 1.94563 -5.46818 0
M  V30 7969 H 1411.8 -0.608651 -7.04676 0
M  V30 7970 H 1412.8 0.889796 -7.09039 0
M  V30 7971 H 1410.96 0.433128 -9.04664 0
M  V30 7972 P 1412.83 2.75334 -8.47391 0
M  V30 7973 O 1413.05 3.84128 -9.44797 0
M  V30 7974 O 1413.62 1.51947 -8.68712 0
M  V30 7975 O 1413.08 3.29363 -6.99321 0
M  V30 7976 C 1412.14 4.24011 -6.4274 0
M  V30 7977 C 1412.87 5.20775 -5.52155 0
M  V30 7978 O 1413.08 4.56534 -4.22446 0
M  V30 7979 C 1414.27 5.62629 -5.96531 0
M  V30 7980 O 1414.66 6.87667 -5.41053 0
M  V30 7981 C 1415.15 4.52537 -5.39283 0
M  V30 7982 C 1414.44 4.20027 -4.08623 0
M  V30 7983 N 1414.49 2.76189 -3.71603 0
M  V30 7984 H 1411.65 4.797 -7.24003 0
M  V30 7985 H 1411.38 3.69856 -5.84513 0
M  V30 7986 H 1412.25 6.10356 -5.41441 0
M  V30 7987 P 1416.21 7.20834 -5.23717 0
M  V30 7988 O 1416.43 8.66189 -5.38625 0
M  V30 7989 O 1417 6.33615 -6.1356 0
M  V30 7990 O 1416.46 6.7751 -3.72168 0
M  V30 7991 C 1415.52 7.20825 -2.7076 0
M  V30 7992 C 1416.25 7.45864 -1.40599 0
M  V30 7993 O 1416.46 6.17651 -0.734225 0
M  V30 7994 C 1417.65 8.05808 -1.51899 0
M  V30 7995 O 1418.04 8.74358 -0.335205 0
M  V30 7996 C 1418.53 6.83093 -1.70294 0
M  V30 7997 C 1417.82 5.79992 -0.836974 0
M  V30 7998 N 1417.87 4.41769 -1.38263 0
M  V30 7999 C 1418.02 3.36514 -0.485617 0
M  V30 8000 O 1418.11 3.61814 0.724703 0
M  V30 8001 N 1418.07 2.00746 -1.14492 0
M  V30 8002 C 1417.97 1.85887 -2.27776 0
M  V30 8003 N 1418.02 0.600907 -2.69379 0
M  V30 8004 C 1417.82 2.92182 -3.22265 0
M  V30 8005 C 1417.77 4.18399 -2.71925 0
M  V30 8006 H 1415.03 8.1355 -3.03735 0
M  V30 8007 H 1414.76 6.42695 -2.55448 0
M  V30 8008 H 1415.63 8.12139 -0.792866 0
M  V30 8009 H 1418.28 5.80078 0.160615 0
M  V30 8010 H 1418.56 6.51379 -2.75643 0
M  V30 8011 H 1419.56 7.01734 -1.34462 0
M  V30 8012 H 1417.72 8.73674 -2.38337 0
M  V30 8013 H 1417.65 5.02669 -3.39718 0
M  V30 8014 H 1417.75 2.73001 -4.29239 0
M  V30 8015 H 1418.14 -0.162318 -2.01146 0
M  V30 8016 H 1417.94 0.387742 -3.69773 0
M  V30 8017 P 1419.59 8.91 8.13856e-12 0
M  V30 8018 O 1419.81 10.1726 0.733694 0
M  V30 8019 O 1420.38 8.73148 -1.23936 0
M  V30 8020 O 1419.84 7.66872 0.971405 0
M  V30 8021 C 1418.9 7.42309 2.04641 0
M  V30 8022 C 1419.63 6.86059 3.24661 0
M  V30 8023 O 1419.84 5.42847 3.03646 0
M  V30 8024 C 1421.03 7.41196 3.50753 0
M  V30 8025 O 1421.42 7.27073 4.86816 0
M  V30 8026 C 1421.91 6.5273 2.63741 0
M  V30 8027 C 1421.2 5.1842 2.73198 0
M  V30 8028 N 1421.25 4.38762 1.4784 0
M  V30 8029 H 1418.41 8.36803 2.32493 0
M  V30 8030 H 1418.14 6.70197 1.71129 0
M  V30 8031 H 1419.01 7.03551 4.13168 0
M  V30 8032 P 1422.97 7.20834 5.23717 0
M  V30 8033 O 1423.19 7.79853 6.57286 0
M  V30 8034 O 1423.76 7.79239 4.12957 0
M  V30 8035 O 1423.22 5.63315 5.29344 0
M  V30 8036 C 1422.28 4.80255 6.01876 0
M  V30 8037 C 1423.01 3.64202 6.65911 0
M  V30 8038 O 1423.22 2.60694 5.64732 0
M  V30 8039 C 1424.41 3.93473 7.1943 0
M  V30 8040 O 1424.8 3.02071 8.21205 0
M  V30 8041 C 1425.29 3.73047 5.97036 0
M  V30 8042 C 1424.58 2.58828 5.25741 0
M  V30 8043 N 1424.63 2.68068 3.77503 0
M  V30 8044 H 1421.79 5.40332 6.79951 0
M  V30 8045 H 1421.52 4.41613 5.32378 0
M  V30 8046 H 1422.39 3.26331 7.47797 0
M  V30 8047 P 1426.35 2.75334 8.47391 0
M  V30 8048 O 1426.57 2.44571 9.90142 0
M  V30 8049 O 1427.14 3.87688 7.92115 0
M  V30 8050 O 1426.6 1.4459 7.59357 0
M  V30 8051 C 1425.66 0.347608 7.69215 0
M  V30 8052 C 1426.39 -0.96767 7.52806 0
M  V30 8053 O 1426.6 -1.21036 6.1011 0
M  V30 8054 C 1427.79 -1.04544 8.13308 0
M  V30 8055 O 1428.18 -2.38311 8.41922 0
M  V30 8056 C 1428.67 -0.491279 7.02284 0
M  V30 8057 C 1427.96 -0.996264 5.77469 0
M  V30 8058 N 1428.01 -0.0501916 4.62973 0
M  V30 8059 H 1425.17 0.374722 8.67691 0
M  V30 8060 H 1424.9 0.443485 6.90277 0
M  V30 8061 H 1425.77 -1.75537 7.96793 0
M  V30 8062 P 1429.73 -2.75334 8.47391 0
M  V30 8063 O 1429.95 -3.84166 9.4489 0
M  V30 8064 O 1430.52 -1.51964 8.6881 0
M  V30 8065 O 1429.98 -3.29363 6.99321 0
M  V30 8066 C 1429.04 -4.23956 6.42656 0
M  V30 8067 C 1429.77 -5.20775 5.52155 0
M  V30 8068 O 1429.98 -4.56534 4.22446 0
M  V30 8069 C 1431.17 -5.62629 5.96531 0
M  V30 8070 O 1431.56 -6.87667 5.41053 0
M  V30 8071 C 1432.05 -4.52537 5.39283 0
M  V30 8072 C 1431.34 -4.20027 4.08623 0
M  V30 8073 N 1431.39 -2.7613 3.71522 0
M  V30 8074 C 1431.54 -2.45612 2.37989 0
M  V30 8075 O 1431.63 -3.30919 1.51621 0
M  V30 8076 N 1431.58 -1.10684 2.08435 0
M  V30 8077 C 1431.49 -0.0690084 2.9792 0
M  V30 8078 O 1431.54 1.10553 2.59426 0
M  V30 8079 C 1431.34 -0.481522 4.35345 0
M  V30 8080 C 1431.23 0.618778 5.36443 0
M  V30 8081 C 1431.29 -1.78906 4.67968 0
M  V30 8082 H 1428.55 -4.797 7.24003 0
M  V30 8083 H 1428.28 -3.69802 5.84429 0
M  V30 8084 H 1429.15 -6.10356 5.41441 0
M  V30 8085 H 1431.8 -4.78651 3.27911 0
M  V30 8086 H 1432.08 -3.64957 6.05871 0
M  V30 8087 H 1433.08 -4.8868 5.2125 0
M  V30 8088 H 1431.24 -5.66726 7.06352 0
M  V30 8089 H 1431.17 -2.07737 5.72367 0
M  V30 8090 H 1432.2 0.754375 5.86871 0
M  V30 8091 H 1430.46 0.359721 6.10641 0
M  V30 8092 H 1430.95 1.55533 4.8581 0
M  V30 8093 H 1431.69 -0.862651 1.12037 0
M  V30 8094 P 1433.11 -7.20834 5.23717 0
M  V30 8095 O 1433.33 -8.66104 5.38572 0
M  V30 8096 O 1433.9 -6.33544 6.1349 0
M  V30 8097 O 1433.36 -6.7751 3.72168 0
M  V30 8098 C 1432.42 -7.20825 2.7076 0
M  V30 8099 C 1433.15 -7.45864 1.40599 0
M  V30 8100 O 1433.36 -6.17651 0.734225 0
M  V30 8101 C 1434.55 -8.05808 1.51899 0
M  V30 8102 O 1434.94 -8.74358 0.335205 0
M  V30 8103 C 1435.43 -6.83093 1.70294 0
M  V30 8104 C 1434.72 -5.79992 0.836974 0
M  V30 8105 N 1434.77 -4.41864 1.38293 0
M  V30 8106 C 1434.69 -3.99538 2.69438 0
M  V30 8107 N 1434.77 -2.69909 2.84277 0
M  V30 8108 C 1434.91 -2.21719 1.5408 0
M  V30 8109 C 1435.04 -0.891712 1.06628 0
M  V30 8110 O 1435.06 0.161298 1.70137 0
M  V30 8111 N 1435.16 -0.856846 -0.334985 0
M  V30 8112 C 1435.16 -1.9641 -1.15789 0
M  V30 8113 N 1435.29 -1.72708 -2.46522 0
M  V30 8114 N 1435.03 -3.21165 -0.713741 0
M  V30 8115 C 1434.91 -3.26797 0.639748 0
M  V30 8116 H 1431.93 -8.13644 3.0377 0
M  V30 8117 H 1431.66 -6.42788 2.55485 0
M  V30 8118 H 1432.53 -8.12039 0.792769 0
M  V30 8119 H 1435.18 -5.80061 -0.166416 0
M  V30 8120 H 1435.46 -6.51287 2.75604 0
M  V30 8121 H 1436.46 -7.01734 1.34462 0
M  V30 8122 H 1434.62 -8.73674 2.38337 0
M  V30 8123 H 1434.57 -4.68207 3.53221 0
M  V30 8124 H 1435.25 0.0398818 -0.767965 0
M  V30 8125 H 1435.29 -2.50995 -3.13503 0
M  V30 8126 H 1435.39 -0.759148 -2.80716 0
M  V30 8127 P 1436.49 -8.91 -7.02955e-12 0
M  V30 8128 O 1436.71 -10.1726 -0.733694 0
M  V30 8129 O 1437.28 -8.73148 1.23936 0
M  V30 8130 O 1436.74 -7.66872 -0.971405 0
M  V30 8131 C 1435.8 -7.42309 -2.04641 0
M  V30 8132 C 1436.53 -6.86059 -3.24661 0
M  V30 8133 O 1436.74 -5.42847 -3.03646 0
M  V30 8134 C 1437.93 -7.41196 -3.50753 0
M  V30 8135 O 1438.32 -7.27073 -4.86816 0
M  V30 8136 C 1438.81 -6.5273 -2.63741 0
M  V30 8137 C 1438.1 -5.1842 -2.73198 0
M  V30 8138 N 1438.15 -4.38762 -1.4784 0
M  V30 8139 H 1435.31 -8.36803 -2.32493 0
M  V30 8140 H 1435.04 -6.70197 -1.71129 0
M  V30 8141 H 1435.91 -7.03551 -4.13168 0
M  V30 8142 P 1439.87 -7.20834 -5.23717 0
M  V30 8143 O 1440.09 -7.79853 -6.57286 0
M  V30 8144 O 1440.66 -7.79239 -4.12957 0
M  V30 8145 O 1440.12 -5.63315 -5.29344 0
M  V30 8146 C 1439.18 -4.80255 -6.01876 0
M  V30 8147 C 1439.91 -3.64202 -6.65911 0
M  V30 8148 O 1440.12 -2.60694 -5.64732 0
M  V30 8149 C 1441.31 -3.93473 -7.1943 0
M  V30 8150 O 1441.7 -3.02071 -8.21205 0
M  V30 8151 C 1442.19 -3.73047 -5.97036 0
M  V30 8152 C 1441.48 -2.58828 -5.25741 0
M  V30 8153 N 1441.53 -2.68068 -3.77503 0
M  V30 8154 H 1438.69 -5.40332 -6.79951 0
M  V30 8155 H 1438.42 -4.41613 -5.32378 0
M  V30 8156 H 1439.29 -3.26331 -7.47797 0
M  V30 8157 P 1443.25 -2.75334 -8.47391 0
M  V30 8158 O 1443.47 -2.44571 -9.90142 0
M  V30 8159 O 1444.04 -3.87688 -7.92115 0
M  V30 8160 O 1443.5 -1.4459 -7.59357 0
M  V30 8161 C 1442.56 -0.347608 -7.69215 0
M  V30 8162 C 1443.29 0.96767 -7.52806 0
M  V30 8163 O 1443.5 1.21036 -6.1011 0
M  V30 8164 C 1444.69 1.04544 -8.13308 0
M  V30 8165 O 1445.08 2.38311 -8.41922 0
M  V30 8166 C 1445.57 0.491279 -7.02284 0
M  V30 8167 C 1444.86 0.996264 -5.77469 0
M  V30 8168 N 1444.91 0.0501916 -4.62973 0
M  V30 8169 H 1442.07 -0.374722 -8.67691 0
M  V30 8170 H 1441.8 -0.443485 -6.90277 0
M  V30 8171 H 1442.67 1.75537 -7.96793 0
M  V30 8172 P 1446.63 2.75334 -8.47391 0
M  V30 8173 O 1446.85 3.84128 -9.44797 0
M  V30 8174 O 1447.42 1.51947 -8.68712 0
M  V30 8175 O 1446.88 3.29363 -6.99321 0
M  V30 8176 C 1445.94 4.24011 -6.4274 0
M  V30 8177 C 1446.67 5.20775 -5.52155 0
M  V30 8178 O 1446.88 4.56534 -4.22446 0
M  V30 8179 C 1448.07 5.62629 -5.96531 0
M  V30 8180 O 1448.46 6.87667 -5.41053 0
M  V30 8181 C 1448.95 4.52537 -5.39283 0
M  V30 8182 C 1448.24 4.20027 -4.08623 0
M  V30 8183 N 1448.29 2.76189 -3.71603 0
M  V30 8184 H 1445.45 4.797 -7.24003 0
M  V30 8185 H 1445.18 3.69856 -5.84513 0
M  V30 8186 H 1446.05 6.10356 -5.41441 0
M  V30 8187 P 1450.01 7.20834 -5.23717 0
M  V30 8188 O 1450.23 8.66104 -5.38572 0
M  V30 8189 O 1450.8 6.33544 -6.1349 0
M  V30 8190 O 1450.26 6.7751 -3.72168 0
M  V30 8191 C 1449.32 7.20825 -2.7076 0
M  V30 8192 C 1450.05 7.45864 -1.40599 0
M  V30 8193 O 1450.26 6.17651 -0.734225 0
M  V30 8194 C 1451.45 8.05808 -1.51899 0
M  V30 8195 O 1451.84 8.74358 -0.335205 0
M  V30 8196 C 1452.33 6.83093 -1.70294 0
M  V30 8197 C 1451.62 5.79992 -0.836974 0
M  V30 8198 N 1451.67 4.41864 -1.38293 0
M  V30 8199 H 1448.83 8.13644 -3.0377 0
M  V30 8200 H 1448.56 6.42788 -2.55485 0
M  V30 8201 H 1449.43 8.12039 -0.792769 0
M  V30 8202 P 1453.39 8.91 5.92055e-12 0
M  V30 8203 O 1453.61 10.1726 0.733694 0
M  V30 8204 O 1454.18 8.73148 -1.23936 0
M  V30 8205 O 1453.64 7.66872 0.971405 0
M  V30 8206 C 1452.7 7.42309 2.04641 0
M  V30 8207 C 1453.43 6.86059 3.24661 0
M  V30 8208 O 1453.64 5.42847 3.03646 0
M  V30 8209 C 1454.83 7.41196 3.50753 0
M  V30 8210 O 1455.22 7.27073 4.86816 0
M  V30 8211 C 1455.71 6.5273 2.63741 0
M  V30 8212 C 1455 5.1842 2.73198 0
M  V30 8213 N 1455.05 4.38762 1.4784 0
M  V30 8214 H 1452.21 8.36803 2.32493 0
M  V30 8215 H 1451.94 6.70197 1.71129 0
M  V30 8216 H 1452.81 7.03551 4.13168 0
M  V30 8217 P 1456.77 7.20834 5.23717 0
M  V30 8218 O 1456.99 7.79853 6.57286 0
M  V30 8219 O 1457.56 7.79239 4.12957 0
M  V30 8220 O 1457.02 5.63315 5.29344 0
M  V30 8221 C 1456.08 4.80255 6.01876 0
M  V30 8222 C 1456.81 3.64202 6.65911 0
M  V30 8223 O 1457.02 2.60694 5.64732 0
M  V30 8224 C 1458.21 3.93473 7.1943 0
M  V30 8225 O 1458.6 3.02071 8.21205 0
M  V30 8226 C 1459.09 3.73047 5.97036 0
M  V30 8227 C 1458.38 2.58828 5.25741 0
M  V30 8228 N 1458.43 2.68068 3.77503 0
M  V30 8229 H 1455.59 5.40332 6.79951 0
M  V30 8230 H 1455.32 4.41613 5.32378 0
M  V30 8231 H 1456.19 3.26331 7.47797 0
M  V30 8232 P 1460.15 2.75334 8.47391 0
M  V30 8233 O 1460.37 2.44571 9.90142 0
M  V30 8234 O 1460.94 3.87688 7.92115 0
M  V30 8235 O 1460.4 1.4459 7.59357 0
M  V30 8236 C 1459.46 0.347608 7.69215 0
M  V30 8237 C 1460.19 -0.96767 7.52806 0
M  V30 8238 O 1460.4 -1.21036 6.1011 0
M  V30 8239 C 1461.59 -1.04544 8.13308 0
M  V30 8240 O 1461.98 -2.38311 8.41922 0
M  V30 8241 C 1462.47 -0.491279 7.02284 0
M  V30 8242 C 1461.76 -0.996264 5.77469 0
M  V30 8243 N 1461.81 -0.0501916 4.62973 0
M  V30 8244 H 1458.97 0.374722 8.67691 0
M  V30 8245 H 1458.7 0.443485 6.90277 0
M  V30 8246 H 1459.57 -1.75537 7.96793 0
M  V30 8247 P 1463.53 -2.75334 8.47391 0
M  V30 8248 O 1463.75 -3.84128 9.44797 0
M  V30 8249 O 1464.32 -1.51947 8.68712 0
M  V30 8250 O 1463.78 -3.29363 6.99321 0
M  V30 8251 C 1462.84 -4.24011 6.4274 0
M  V30 8252 C 1463.57 -5.20775 5.52155 0
M  V30 8253 O 1463.78 -4.56534 4.22446 0
M  V30 8254 C 1464.97 -5.62629 5.96531 0
M  V30 8255 O 1465.36 -6.87667 5.41053 0
M  V30 8256 C 1465.85 -4.52537 5.39283 0
M  V30 8257 C 1465.14 -4.20027 4.08623 0
M  V30 8258 N 1465.19 -2.76189 3.71603 0
M  V30 8259 H 1462.35 -4.797 7.24003 0
M  V30 8260 H 1462.08 -3.69856 5.84513 0
M  V30 8261 H 1462.95 -6.10356 5.41441 0
M  V30 8262 P 1466.91 -7.20834 5.23717 0
M  V30 8263 O 1467.13 -8.66104 5.38572 0
M  V30 8264 O 1467.7 -6.33544 6.1349 0
M  V30 8265 O 1467.16 -6.7751 3.72168 0
M  V30 8266 C 1466.22 -7.20825 2.7076 0
M  V30 8267 C 1466.95 -7.45864 1.40599 0
M  V30 8268 O 1467.16 -6.17651 0.734225 0
M  V30 8269 C 1468.35 -8.05808 1.51899 0
M  V30 8270 O 1468.74 -8.74358 0.335205 0
M  V30 8271 C 1469.23 -6.83093 1.70294 0
M  V30 8272 C 1468.52 -5.79992 0.836974 0
M  V30 8273 N 1468.57 -4.41864 1.38293 0
M  V30 8274 H 1465.73 -8.13644 3.0377 0
M  V30 8275 H 1465.46 -6.42788 2.55485 0
M  V30 8276 H 1466.33 -8.12039 0.792769 0
M  V30 8277 P 1470.29 -8.91 -4.81154e-12 0
M  V30 8278 O 1470.51 -10.1726 -0.733694 0
M  V30 8279 O 1471.08 -8.73148 1.23936 0
M  V30 8280 O 1470.54 -7.66872 -0.971405 0
M  V30 8281 C 1469.6 -7.42309 -2.04641 0
M  V30 8282 C 1470.33 -6.86059 -3.24661 0
M  V30 8283 O 1470.54 -5.42847 -3.03646 0
M  V30 8284 C 1471.73 -7.41196 -3.50753 0
M  V30 8285 O 1472.12 -7.27073 -4.86816 0
M  V30 8286 C 1472.61 -6.5273 -2.63741 0
M  V30 8287 C 1471.9 -5.1842 -2.73198 0
M  V30 8288 N 1471.95 -4.38762 -1.4784 0
M  V30 8289 H 1469.11 -8.36803 -2.32493 0
M  V30 8290 H 1468.84 -6.70197 -1.71129 0
M  V30 8291 H 1469.71 -7.03551 -4.13168 0
M  V30 8292 P 1473.67 -7.20834 -5.23717 0
M  V30 8293 O 1473.89 -7.79853 -6.57286 0
M  V30 8294 O 1474.46 -7.79239 -4.12957 0
M  V30 8295 O 1473.92 -5.63315 -5.29344 0
M  V30 8296 C 1472.98 -4.80255 -6.01876 0
M  V30 8297 C 1473.71 -3.64202 -6.65911 0
M  V30 8298 O 1473.92 -2.60694 -5.64732 0
M  V30 8299 C 1475.11 -3.93473 -7.1943 0
M  V30 8300 O 1475.5 -3.02071 -8.21205 0
M  V30 8301 C 1475.99 -3.73047 -5.97036 0
M  V30 8302 C 1475.28 -2.58828 -5.25741 0
M  V30 8303 N 1475.33 -2.68068 -3.77503 0
M  V30 8304 C 1475.25 -3.79715 -2.96723 0
M  V30 8305 N 1475.33 -3.5377 -1.68852 0
M  V30 8306 C 1475.47 -2.15054 -1.63254 0
M  V30 8307 C 1475.6 -1.28964 -0.518571 0
M  V30 8308 O 1475.62 -1.56826 0.679156 0
M  V30 8309 N 1475.72 0.0538097 -0.918425 0
M  V30 8310 C 1475.72 0.494275 -2.22578 0
M  V30 8311 N 1475.85 1.81086 -2.40434 0
M  V30 8312 N 1475.59 -0.313645 -3.27502 0
M  V30 8313 C 1475.47 -1.61829 -2.91033 0
M  V30 8314 H 1472.49 -5.40332 -6.79951 0
M  V30 8315 H 1472.22 -4.41613 -5.32378 0
M  V30 8316 H 1473.09 -3.26331 -7.47797 0
M  V30 8317 H 1475.74 -1.63422 -5.56814 0
M  V30 8318 H 1476.02 -4.63374 -5.34244 0
M  V30 8319 H 1477.02 -3.44728 -6.25838 0
M  V30 8320 H 1475.18 -4.96652 -7.57263 0
M  V30 8321 H 1475.13 -4.80617 -3.3614 0
M  V30 8322 H 1475.81 0.742702 -0.199384 0
M  V30 8323 H 1475.85 2.20598 -3.35588 0
M  V30 8324 H 1475.95 2.43518 -1.58945 0
M  V30 8325 P 1477.05 -2.75334 -8.47391 0
M  V30 8326 O 1477.27 -2.44571 -9.90142 0
M  V30 8327 O 1477.84 -3.87688 -7.92115 0
M  V30 8328 O 1477.3 -1.4459 -7.59357 0
M  V30 8329 C 1476.36 -0.347608 -7.69215 0
M  V30 8330 C 1477.09 0.96767 -7.52806 0
M  V30 8331 O 1477.3 1.21036 -6.1011 0
M  V30 8332 C 1478.49 1.04544 -8.13308 0
M  V30 8333 O 1478.88 2.38311 -8.41922 0
M  V30 8334 C 1479.37 0.491279 -7.02284 0
M  V30 8335 C 1478.66 0.996264 -5.77469 0
M  V30 8336 N 1478.71 0.0501916 -4.62973 0
M  V30 8337 H 1475.87 -0.374722 -8.67691 0
M  V30 8338 H 1475.6 -0.443485 -6.90277 0
M  V30 8339 H 1476.47 1.75537 -7.96793 0
M  V30 8340 P 1480.43 2.75334 -8.47391 0
M  V30 8341 O 1480.65 3.84204 -9.44982 0
M  V30 8342 O 1481.22 1.51982 -8.68909 0
M  V30 8343 O 1480.68 3.29363 -6.99321 0
M  V30 8344 C 1479.74 4.24066 -6.42823 0
M  V30 8345 C 1480.47 5.20775 -5.52155 0
M  V30 8346 O 1480.68 4.56607 -4.22514 0
M  V30 8347 C 1481.87 5.62697 -5.96604 0
M  V30 8348 O 1482.26 6.87667 -5.41053 0
M  V30 8349 C 1482.75 4.52537 -5.39283 0
M  V30 8350 C 1482.04 4.20027 -4.08623 0
M  V30 8351 N 1482.09 2.76189 -3.71603 0
M  V30 8352 C 1482.01 1.66944 -4.54297 0
M  V30 8353 N 1482.08 0.536169 -3.91344 0
M  V30 8354 C 1482.23 0.901569 -2.58849 0
M  V30 8355 C 1482.36 0.146599 -1.40236 0
M  V30 8356 N 1482.37 -1.18234 -1.37046 0
M  V30 8357 N 1482.48 0.822941 -0.249738 0
M  V30 8358 C 1482.47 2.15179 -0.280525 0
M  V30 8359 N 1482.35 2.96414 -1.30822 0
M  V30 8360 C 1482.23 2.25804 -2.44748 0
M  V30 8361 H 1479.25 4.79756 -7.24086 0
M  V30 8362 H 1478.98 3.69963 -5.84682 0
M  V30 8363 H 1479.85 6.10431 -5.41508 0
M  V30 8364 H 1482.5 4.78816 -3.28024 0
M  V30 8365 H 1482.78 3.64957 -6.05871 0
M  V30 8366 H 1483.78 4.88748 -5.21323 0
M  V30 8367 H 1481.94 5.66789 -7.0643 0
M  V30 8368 H 1481.9 1.74684 -5.62396 0
M  V30 8369 H 1482.28 -1.71949 -2.24394 0
M  V30 8370 H 1482.47 -1.67511 -0.470742 0
M  V30 8371 H 1482.58 2.63704 0.6828 0
M  V30 8372 P 1483.81 7.20834 -5.23717 0
M  V30 8373 O 1484.03 8.66104 -5.38572 0
M  V30 8374 O 1484.6 6.33544 -6.1349 0
M  V30 8375 O 1484.06 6.7751 -3.72168 0
M  V30 8376 C 1483.12 7.20825 -2.7076 0
M  V30 8377 C 1483.85 7.45864 -1.40599 0
M  V30 8378 O 1484.06 6.17651 -0.734225 0
M  V30 8379 C 1485.25 8.05808 -1.51899 0
M  V30 8380 O 1485.64 8.74358 -0.335205 0
M  V30 8381 C 1486.13 6.83093 -1.70294 0
M  V30 8382 C 1485.42 5.79992 -0.836974 0
M  V30 8383 N 1485.47 4.41864 -1.38293 0
M  V30 8384 H 1482.63 8.13644 -3.0377 0
M  V30 8385 H 1482.36 6.42788 -2.55485 0
M  V30 8386 H 1483.23 8.12039 -0.792769 0
M  V30 8387 P 1487.19 8.91 3.70254e-12 0
M  V30 8388 O 1487.41 10.1726 0.733694 0
M  V30 8389 O 1487.98 8.73148 -1.23936 0
M  V30 8390 O 1487.44 7.66872 0.971405 0
M  V30 8391 C 1486.5 7.42309 2.04641 0
M  V30 8392 C 1487.23 6.86059 3.24661 0
M  V30 8393 O 1487.44 5.42847 3.03646 0
M  V30 8394 C 1488.63 7.41196 3.50753 0
M  V30 8395 O 1489.02 7.27073 4.86816 0
M  V30 8396 C 1489.51 6.5273 2.63741 0
M  V30 8397 C 1488.8 5.1842 2.73198 0
M  V30 8398 N 1488.85 4.38762 1.4784 0
M  V30 8399 H 1486.01 8.36803 2.32493 0
M  V30 8400 H 1485.74 6.70197 1.71129 0
M  V30 8401 H 1486.61 7.03551 4.13168 0
M  V30 8402 P 1490.57 7.20834 5.23717 0
M  V30 8403 O 1490.79 7.79853 6.57286 0
M  V30 8404 O 1491.36 7.79239 4.12957 0
M  V30 8405 O 1490.82 5.63315 5.29344 0
M  V30 8406 C 1489.88 4.80255 6.01876 0
M  V30 8407 C 1490.61 3.64202 6.65911 0
M  V30 8408 O 1490.82 2.60694 5.64732 0
M  V30 8409 C 1492.01 3.93473 7.1943 0
M  V30 8410 O 1492.4 3.02071 8.21205 0
M  V30 8411 C 1492.89 3.73047 5.97036 0
M  V30 8412 C 1492.18 2.58828 5.25741 0
M  V30 8413 N 1492.23 2.68068 3.77503 0
M  V30 8414 H 1489.39 5.40332 6.79951 0
M  V30 8415 H 1489.12 4.41613 5.32378 0
M  V30 8416 H 1489.99 3.26331 7.47797 0
M  V30 8417 P 1493.95 2.75334 8.47391 0
M  V30 8418 O 1494.17 2.44595 9.90239 0
M  V30 8419 O 1494.74 3.87732 7.92204 0
M  V30 8420 O 1494.2 1.4459 7.59357 0
M  V30 8421 C 1493.26 0.347563 7.69115 0
M  V30 8422 C 1493.99 -0.96767 7.52806 0
M  V30 8423 O 1494.2 -1.21036 6.1011 0
M  V30 8424 C 1495.39 -1.04544 8.13308 0
M  V30 8425 O 1495.78 -2.38311 8.41922 0
M  V30 8426 C 1496.27 -0.491279 7.02284 0
M  V30 8427 C 1495.56 -0.996264 5.77469 0
M  V30 8428 N 1495.61 -0.0501808 4.62873 0
M  V30 8429 C 1495.76 -0.588177 3.36904 0
M  V30 8430 O 1495.85 -1.78598 3.17173 0
M  V30 8431 N 1495.8 0.329694 2.33686 0
M  V30 8432 C 1495.71 1.6953 2.45079 0
M  V30 8433 C 1495.56 2.16933 3.80505 0
M  V30 8434 C 1495.51 1.30326 4.83752 0
M  V30 8435 H 1492.77 0.374722 8.67691 0
M  V30 8436 H 1492.5 0.443421 6.90177 0
M  V30 8437 H 1493.37 -1.75537 7.96793 0
M  V30 8438 H 1496.02 -1.94496 5.46629 0
M  V30 8439 H 1496.3 0.608651 7.04676 0
M  V30 8440 H 1497.3 -0.889672 7.08939 0
M  V30 8441 H 1495.46 -0.43308 9.04564 0
M  V30 8442 H 1495.39 1.68366 5.8516 0
M  V30 8443 P 1497.33 -2.75334 8.47391 0
M  V30 8444 O 1497.55 -3.84128 9.44797 0
M  V30 8445 O 1498.12 -1.51947 8.68712 0
M  V30 8446 O 1497.58 -3.29363 6.99321 0
M  V30 8447 C 1496.64 -4.24011 6.4274 0
M  V30 8448 C 1497.37 -5.20775 5.52155 0
M  V30 8449 O 1497.58 -4.56534 4.22446 0
M  V30 8450 C 1498.77 -5.62629 5.96531 0
M  V30 8451 O 1499.16 -6.87667 5.41053 0
M  V30 8452 C 1499.65 -4.52537 5.39283 0
M  V30 8453 C 1498.94 -4.20027 4.08623 0
M  V30 8454 N 1498.99 -2.76189 3.71603 0
M  V30 8455 H 1496.15 -4.797 7.24003 0
M  V30 8456 H 1495.88 -3.69856 5.84513 0
M  V30 8457 H 1496.75 -6.10356 5.41441 0
M  V30 8458 P 1500.71 -7.20834 5.23717 0
M  V30 8459 O 1500.93 -8.66104 5.38572 0
M  V30 8460 O 1501.5 -6.33544 6.1349 0
M  V30 8461 O 1500.96 -6.7751 3.72168 0
M  V30 8462 C 1500.02 -7.20825 2.7076 0
M  V30 8463 C 1500.75 -7.45864 1.40599 0
M  V30 8464 O 1500.96 -6.17651 0.734225 0
M  V30 8465 C 1502.15 -8.05808 1.51899 0
M  V30 8466 O 1502.54 -8.74358 0.335205 0
M  V30 8467 C 1503.03 -6.83093 1.70294 0
M  V30 8468 C 1502.32 -5.79992 0.836974 0
M  V30 8469 N 1502.37 -4.41864 1.38293 0
M  V30 8470 H 1499.53 -8.13644 3.0377 0
M  V30 8471 H 1499.26 -6.42788 2.55485 0
M  V30 8472 H 1500.13 -8.12039 0.792769 0
M  V30 8473 P 1504.09 -8.91 -2.59353e-12 0
M  V30 8474 O 1504.31 -10.1726 -0.733694 0
M  V30 8475 O 1504.88 -8.73148 1.23936 0
M  V30 8476 O 1504.34 -7.66872 -0.971405 0
M  V30 8477 C 1503.4 -7.42309 -2.04641 0
M  V30 8478 C 1504.13 -6.86059 -3.24661 0
M  V30 8479 O 1504.34 -5.42847 -3.03646 0
M  V30 8480 C 1505.53 -7.41196 -3.50753 0
M  V30 8481 O 1505.92 -7.27073 -4.86816 0
M  V30 8482 C 1506.41 -6.5273 -2.63741 0
M  V30 8483 C 1505.7 -5.1842 -2.73198 0
M  V30 8484 N 1505.75 -4.38762 -1.4784 0
M  V30 8485 H 1502.91 -8.36803 -2.32493 0
M  V30 8486 H 1502.64 -6.70197 -1.71129 0
M  V30 8487 H 1503.51 -7.03551 -4.13168 0
M  V30 8488 P 1507.47 -7.20834 -5.23717 0
M  V30 8489 O 1507.69 -7.79853 -6.57286 0
M  V30 8490 O 1508.26 -7.79239 -4.12957 0
M  V30 8491 O 1507.72 -5.63315 -5.29344 0
M  V30 8492 C 1506.78 -4.80255 -6.01876 0
M  V30 8493 C 1507.51 -3.64202 -6.65911 0
M  V30 8494 O 1507.72 -2.60694 -5.64732 0
M  V30 8495 C 1508.91 -3.93473 -7.1943 0
M  V30 8496 O 1509.3 -3.02071 -8.21205 0
M  V30 8497 C 1509.79 -3.73047 -5.97036 0
M  V30 8498 C 1509.08 -2.58828 -5.25741 0
M  V30 8499 N 1509.13 -2.68068 -3.77503 0
M  V30 8500 H 1506.29 -5.40332 -6.79951 0
M  V30 8501 H 1506.02 -4.41613 -5.32378 0
M  V30 8502 H 1506.89 -3.26331 -7.47797 0
M  V30 8503 P 1510.85 -2.75334 -8.47391 0
M  V30 8504 O 1511.07 -2.44571 -9.90142 0
M  V30 8505 O 1511.64 -3.87688 -7.92115 0
M  V30 8506 O 1511.1 -1.4459 -7.59357 0
M  V30 8507 C 1510.16 -0.347608 -7.69215 0
M  V30 8508 C 1510.89 0.96767 -7.52806 0
M  V30 8509 O 1511.1 1.21036 -6.1011 0
M  V30 8510 C 1512.29 1.04544 -8.13308 0
M  V30 8511 O 1512.68 2.38311 -8.41922 0
M  V30 8512 C 1513.17 0.491279 -7.02284 0
M  V30 8513 C 1512.46 0.996264 -5.77469 0
M  V30 8514 N 1512.51 0.0501916 -4.62973 0
M  V30 8515 H 1509.67 -0.374722 -8.67691 0
M  V30 8516 H 1509.4 -0.443485 -6.90277 0
M  V30 8517 H 1510.27 1.75537 -7.96793 0
M  V30 8518 P 1514.23 2.75334 -8.47391 0
M  V30 8519 O 1514.45 3.84128 -9.44797 0
M  V30 8520 O 1515.02 1.51947 -8.68712 0
M  V30 8521 O 1514.48 3.29363 -6.99321 0
M  V30 8522 C 1513.54 4.24011 -6.4274 0
M  V30 8523 C 1514.27 5.20775 -5.52155 0
M  V30 8524 O 1514.48 4.56534 -4.22446 0
M  V30 8525 C 1515.67 5.62629 -5.96531 0
M  V30 8526 O 1516.06 6.87667 -5.41053 0
M  V30 8527 C 1516.55 4.52537 -5.39283 0
M  V30 8528 C 1515.84 4.20027 -4.08623 0
M  V30 8529 N 1515.89 2.76189 -3.71603 0
M  V30 8530 H 1513.05 4.797 -7.24003 0
M  V30 8531 H 1512.78 3.69856 -5.84513 0
M  V30 8532 H 1513.65 6.10356 -5.41441 0
M  V30 8533 P 1517.61 7.20834 -5.23717 0
M  V30 8534 O 1517.83 8.66104 -5.38572 0
M  V30 8535 O 1518.4 6.33544 -6.1349 0
M  V30 8536 O 1517.86 6.7751 -3.72168 0
M  V30 8537 C 1516.92 7.20825 -2.7076 0
M  V30 8538 C 1517.65 7.45864 -1.40599 0
M  V30 8539 O 1517.86 6.17651 -0.734225 0
M  V30 8540 C 1519.05 8.05808 -1.51899 0
M  V30 8541 O 1519.44 8.74358 -0.335205 0
M  V30 8542 C 1519.93 6.83093 -1.70294 0
M  V30 8543 C 1519.22 5.79992 -0.836974 0
M  V30 8544 N 1519.27 4.41864 -1.38293 0
M  V30 8545 H 1516.43 8.13644 -3.0377 0
M  V30 8546 H 1516.16 6.42788 -2.55485 0
M  V30 8547 H 1517.03 8.12039 -0.792769 0
M  V30 8548 P 1520.99 8.91 1.48453e-12 0
M  V30 8549 O 1521.21 10.1726 0.733694 0
M  V30 8550 O 1521.78 8.73148 -1.23936 0
M  V30 8551 O 1521.24 7.66872 0.971405 0
M  V30 8552 C 1520.3 7.42309 2.04641 0
M  V30 8553 C 1521.03 6.86059 3.24661 0
M  V30 8554 O 1521.24 5.42847 3.03646 0
M  V30 8555 C 1522.43 7.41196 3.50753 0
M  V30 8556 O 1522.82 7.27073 4.86816 0
M  V30 8557 C 1523.31 6.5273 2.63741 0
M  V30 8558 C 1522.6 5.1842 2.73198 0
M  V30 8559 N 1522.65 4.38762 1.4784 0
M  V30 8560 C 1522.57 4.81605 0.168631 0
M  V30 8561 N 1522.65 3.85454 -0.713363 0
M  V30 8562 C 1522.79 2.6994 0.0566958 0
M  V30 8563 C 1522.92 1.34815 -0.338502 0
M  V30 8564 O 1522.94 0.869548 -1.47125 0
M  V30 8565 N 1523.04 0.496304 0.77465 0
M  V30 8566 C 1523.04 0.908403 2.09122 0
M  V30 8567 N 1523.17 -0.0517805 3.00955 0
M  V30 8568 N 1522.91 2.17875 2.46519 0
M  V30 8569 C 1522.79 3.01988 1.4033 0
M  V30 8570 H 1519.81 8.36803 2.32493 0
M  V30 8571 H 1519.54 6.70197 1.71129 0
M  V30 8572 H 1520.41 7.03551 4.13168 0
M  V30 8573 H 1523.06 4.59498 3.54415 0
M  V30 8574 H 1523.34 6.88898 1.59848 0
M  V30 8575 H 1524.33 6.46749 3.03687 0
M  V30 8576 H 1522.5 8.46908 3.20714 0
M  V30 8577 H 1522.45 5.86405 -0.105564 0
M  V30 8578 H 1523.13 -0.483664 0.597855 0
M  V30 8579 H 1523.17 0.187865 4.0116 0
M  V30 8580 H 1523.27 -1.03585 2.71726 0
M  V30 8581 P 1524.37 7.20834 5.23717 0
M  V30 8582 O 1524.59 7.79853 6.57286 0
M  V30 8583 O 1525.16 7.79239 4.12957 0
M  V30 8584 O 1524.62 5.63315 5.29344 0
M  V30 8585 C 1523.68 4.80255 6.01876 0
M  V30 8586 C 1524.41 3.64202 6.65911 0
M  V30 8587 O 1524.62 2.60694 5.64732 0
M  V30 8588 C 1525.81 3.93473 7.1943 0
M  V30 8589 O 1526.2 3.02071 8.21205 0
M  V30 8590 C 1526.69 3.73047 5.97036 0
M  V30 8591 C 1525.98 2.58828 5.25741 0
M  V30 8592 N 1526.03 2.68068 3.77503 0
M  V30 8593 C 1525.95 3.79715 2.96723 0
M  V30 8594 N 1526.03 3.5377 1.68852 0
M  V30 8595 C 1526.17 2.15054 1.63254 0
M  V30 8596 C 1526.3 1.28964 0.518571 0
M  V30 8597 O 1526.32 1.56826 -0.679156 0
M  V30 8598 N 1526.42 -0.0538097 0.918425 0
M  V30 8599 C 1526.42 -0.494275 2.22578 0
M  V30 8600 N 1526.55 -1.81086 2.40434 0
M  V30 8601 N 1526.29 0.313645 3.27502 0
M  V30 8602 C 1526.17 1.61829 2.91033 0
M  V30 8603 H 1523.19 5.40332 6.79951 0
M  V30 8604 H 1522.92 4.41613 5.32378 0
M  V30 8605 H 1523.79 3.26331 7.47797 0
M  V30 8606 H 1526.44 1.63422 5.56814 0
M  V30 8607 H 1526.72 4.63374 5.34244 0
M  V30 8608 H 1527.71 3.44728 6.25838 0
M  V30 8609 H 1525.88 4.96652 7.57263 0
M  V30 8610 H 1525.83 4.80617 3.3614 0
M  V30 8611 H 1526.51 -0.742702 0.199384 0
M  V30 8612 H 1526.55 -2.20598 3.35588 0
M  V30 8613 H 1526.65 -2.43518 1.58945 0
M  V30 8614 P 1527.75 2.75334 8.47391 0
M  V30 8615 O 1527.97 2.44571 9.90142 0
M  V30 8616 O 1528.54 3.87688 7.92115 0
M  V30 8617 O 1528 1.4459 7.59357 0
M  V30 8618 C 1527.06 0.347608 7.69215 0
M  V30 8619 C 1527.79 -0.96767 7.52806 0
M  V30 8620 O 1528 -1.21036 6.1011 0
M  V30 8621 C 1529.19 -1.04544 8.13308 0
M  V30 8622 O 1529.58 -2.38311 8.41922 0
M  V30 8623 C 1530.07 -0.491279 7.02284 0
M  V30 8624 C 1529.36 -0.996264 5.77469 0
M  V30 8625 N 1529.41 -0.0501916 4.62973 0
M  V30 8626 H 1526.57 0.374722 8.67691 0
M  V30 8627 H 1526.3 0.443485 6.90277 0
M  V30 8628 H 1527.17 -1.75537 7.96793 0
M  V30 8629 P 1531.13 -2.75334 8.47391 0
M  V30 8630 O 1531.35 -3.84128 9.44797 0
M  V30 8631 O 1531.92 -1.51947 8.68712 0
M  V30 8632 O 1531.38 -3.29363 6.99321 0
M  V30 8633 C 1530.44 -4.24011 6.4274 0
M  V30 8634 C 1531.17 -5.20775 5.52155 0
M  V30 8635 O 1531.38 -4.56534 4.22446 0
M  V30 8636 C 1532.57 -5.62629 5.96531 0
M  V30 8637 O 1532.96 -6.87667 5.41053 0
M  V30 8638 C 1533.45 -4.52537 5.39283 0
M  V30 8639 C 1532.74 -4.20027 4.08623 0
M  V30 8640 N 1532.79 -2.76189 3.71603 0
M  V30 8641 H 1529.95 -4.797 7.24003 0
M  V30 8642 H 1529.68 -3.69856 5.84513 0
M  V30 8643 H 1530.55 -6.10356 5.41441 0
M  V30 8644 P 1534.51 -7.20834 5.23717 0
M  V30 8645 O 1534.73 -8.66104 5.38572 0
M  V30 8646 O 1535.3 -6.33544 6.1349 0
M  V30 8647 O 1534.76 -6.7751 3.72168 0
M  V30 8648 C 1533.82 -7.20825 2.7076 0
M  V30 8649 C 1534.55 -7.45864 1.40599 0
M  V30 8650 O 1534.76 -6.17651 0.734225 0
M  V30 8651 C 1535.95 -8.05808 1.51899 0
M  V30 8652 O 1536.34 -8.74358 0.335205 0
M  V30 8653 C 1536.83 -6.83093 1.70294 0
M  V30 8654 C 1536.12 -5.79992 0.836974 0
M  V30 8655 N 1536.17 -4.41864 1.38293 0
M  V30 8656 C 1536.09 -3.99538 2.69438 0
M  V30 8657 N 1536.17 -2.69909 2.84277 0
M  V30 8658 C 1536.31 -2.21719 1.5408 0
M  V30 8659 C 1536.44 -0.891712 1.06628 0
M  V30 8660 O 1536.46 0.161298 1.70137 0
M  V30 8661 N 1536.56 -0.856846 -0.334985 0
M  V30 8662 C 1536.56 -1.9641 -1.15789 0
M  V30 8663 N 1536.69 -1.72708 -2.46522 0
M  V30 8664 N 1536.43 -3.21165 -0.713741 0
M  V30 8665 C 1536.31 -3.26797 0.639748 0
M  V30 8666 H 1533.33 -8.13644 3.0377 0
M  V30 8667 H 1533.06 -6.42788 2.55485 0
M  V30 8668 H 1533.93 -8.12039 0.792769 0
M  V30 8669 H 1536.58 -5.80061 -0.166416 0
M  V30 8670 H 1536.86 -6.51287 2.75604 0
M  V30 8671 H 1537.85 -7.01734 1.34462 0
M  V30 8672 H 1536.02 -8.73674 2.38337 0
M  V30 8673 H 1535.97 -4.68207 3.53221 0
M  V30 8674 H 1536.65 0.0398818 -0.767965 0
M  V30 8675 H 1536.69 -2.50995 -3.13503 0
M  V30 8676 H 1536.79 -0.759148 -2.80716 0
M  V30 8677 P 1537.89 -8.91 -3.75525e-13 0
M  V30 8678 O 1538.11 -10.1726 -0.733694 0
M  V30 8679 O 1538.68 -8.73148 1.23936 0
M  V30 8680 O 1538.14 -7.66872 -0.971405 0
M  V30 8681 C 1537.2 -7.42309 -2.04641 0
M  V30 8682 C 1537.93 -6.86059 -3.24661 0
M  V30 8683 O 1538.14 -5.42847 -3.03646 0
M  V30 8684 C 1539.33 -7.41196 -3.50753 0
M  V30 8685 O 1539.72 -7.27073 -4.86816 0
M  V30 8686 C 1540.21 -6.5273 -2.63741 0
M  V30 8687 C 1539.5 -5.1842 -2.73198 0
M  V30 8688 N 1539.55 -4.38762 -1.4784 0
M  V30 8689 H 1536.71 -8.36803 -2.32493 0
M  V30 8690 H 1536.44 -6.70197 -1.71129 0
M  V30 8691 H 1537.31 -7.03551 -4.13168 0
M  V30 8692 P 1541.27 -7.20834 -5.23717 0
M  V30 8693 O 1541.49 -7.79853 -6.57286 0
M  V30 8694 O 1542.06 -7.79239 -4.12957 0
M  V30 8695 O 1541.52 -5.63315 -5.29344 0
M  V30 8696 C 1540.58 -4.80255 -6.01876 0
M  V30 8697 C 1541.31 -3.64202 -6.65911 0
M  V30 8698 O 1541.52 -2.60694 -5.64732 0
M  V30 8699 C 1542.71 -3.93473 -7.1943 0
M  V30 8700 O 1543.1 -3.02071 -8.21205 0
M  V30 8701 C 1543.59 -3.73047 -5.97036 0
M  V30 8702 C 1542.88 -2.58828 -5.25741 0
M  V30 8703 N 1542.93 -2.68068 -3.77503 0
M  V30 8704 H 1540.09 -5.40332 -6.79951 0
M  V30 8705 H 1539.82 -4.41613 -5.32378 0
M  V30 8706 H 1540.69 -3.26331 -7.47797 0
M  V30 8707 P 1544.65 -2.75334 -8.47391 0
M  V30 8708 O 1544.87 -2.44571 -9.90142 0
M  V30 8709 O 1545.44 -3.87688 -7.92115 0
M  V30 8710 O 1544.9 -1.4459 -7.59357 0
M  V30 8711 C 1543.96 -0.347608 -7.69215 0
M  V30 8712 C 1544.69 0.96767 -7.52806 0
M  V30 8713 O 1544.9 1.21036 -6.1011 0
M  V30 8714 C 1546.09 1.04544 -8.13308 0
M  V30 8715 O 1546.48 2.38311 -8.41922 0
M  V30 8716 C 1546.97 0.491279 -7.02284 0
M  V30 8717 C 1546.26 0.996264 -5.77469 0
M  V30 8718 N 1546.31 0.0501916 -4.62973 0
M  V30 8719 H 1543.47 -0.374722 -8.67691 0
M  V30 8720 H 1543.2 -0.443485 -6.90277 0
M  V30 8721 H 1544.07 1.75537 -7.96793 0
M  V30 8722 P 1548.03 2.75334 -8.47391 0
M  V30 8723 O 1548.25 3.84128 -9.44797 0
M  V30 8724 O 1548.82 1.51947 -8.68712 0
M  V30 8725 O 1548.28 3.29363 -6.99321 0
M  V30 8726 C 1547.34 4.24011 -6.4274 0
M  V30 8727 C 1548.07 5.20775 -5.52155 0
M  V30 8728 O 1548.28 4.56534 -4.22446 0
M  V30 8729 C 1549.47 5.62629 -5.96531 0
M  V30 8730 O 1549.86 6.87667 -5.41053 0
M  V30 8731 C 1550.35 4.52537 -5.39283 0
M  V30 8732 C 1549.64 4.20027 -4.08623 0
M  V30 8733 N 1549.69 2.76189 -3.71603 0
M  V30 8734 C 1549.61 1.64862 -4.52822 0
M  V30 8735 N 1549.69 0.512671 -3.88633 0
M  V30 8736 C 1549.83 0.888083 -2.54977 0
M  V30 8737 C 1549.96 0.094668 -1.38677 0
M  V30 8738 O 1549.98 -1.13053 -1.28163 0
M  V30 8739 N 1550.08 0.890102 -0.232633 0
M  V30 8740 C 1550.08 2.26958 -0.21772 0
M  V30 8741 N 1550.21 2.84626 0.97925 0
M  V30 8742 N 1549.95 3.0178 -1.31033 0
M  V30 8743 C 1549.83 2.26781 -2.43843 0
M  V30 8744 H 1546.85 4.797 -7.24003 0
M  V30 8745 H 1546.58 3.69856 -5.84513 0
M  V30 8746 H 1547.45 6.10356 -5.41441 0
M  V30 8747 H 1550.1 4.79061 -3.27488 0
M  V30 8748 H 1550.38 3.64906 -6.05785 0
M  V30 8749 H 1551.37 4.8868 -5.2125 0
M  V30 8750 H 1549.54 5.66726 -7.06352 0
M  V30 8751 H 1549.49 1.71169 -5.60966 0
M  V30 8752 H 1550.17 0.419134 0.644739 0
M  V30 8753 H 1550.21 3.87332 1.06098 0
M  V30 8754 H 1550.31 2.26417 1.82483 0
M  V30 8755 P 1551.41 7.20834 -5.23717 0
M  V30 8756 O 1551.63 8.66104 -5.38572 0
M  V30 8757 O 1552.2 6.33544 -6.1349 0
M  V30 8758 O 1551.66 6.7751 -3.72168 0
M  V30 8759 C 1550.72 7.20825 -2.7076 0
M  V30 8760 C 1551.45 7.45864 -1.40599 0
M  V30 8761 O 1551.66 6.17651 -0.734225 0
M  V30 8762 C 1552.85 8.05808 -1.51899 0
M  V30 8763 O 1553.24 8.74358 -0.335205 0
M  V30 8764 C 1553.73 6.83093 -1.70294 0
M  V30 8765 C 1553.02 5.79992 -0.836974 0
M  V30 8766 N 1553.07 4.41864 -1.38293 0
M  V30 8767 H 1550.23 8.13644 -3.0377 0
M  V30 8768 H 1549.96 6.42788 -2.55485 0
M  V30 8769 H 1550.83 8.12039 -0.792769 0
M  V30 8770 P 1554.79 8.91 -7.3348e-13 0
M  V30 8771 O 1555.01 10.1726 0.733694 0
M  V30 8772 O 1555.58 8.73148 -1.23936 0
M  V30 8773 O 1555.04 7.66872 0.971405 0
M  V30 8774 C 1554.1 7.42309 2.04641 0
M  V30 8775 C 1554.83 6.86059 3.24661 0
M  V30 8776 O 1555.04 5.42847 3.03646 0
M  V30 8777 C 1556.23 7.41196 3.50753 0
M  V30 8778 O 1556.62 7.27073 4.86816 0
M  V30 8779 C 1557.11 6.5273 2.63741 0
M  V30 8780 C 1556.4 5.1842 2.73198 0
M  V30 8781 N 1556.45 4.38762 1.4784 0
M  V30 8782 H 1553.61 8.36803 2.32493 0
M  V30 8783 H 1553.34 6.70197 1.71129 0
M  V30 8784 H 1554.21 7.03551 4.13168 0
M  V30 8785 P 1558.17 7.20834 5.23717 0
M  V30 8786 O 1558.39 7.79853 6.57286 0
M  V30 8787 O 1558.96 7.79239 4.12957 0
M  V30 8788 O 1558.42 5.63315 5.29344 0
M  V30 8789 C 1557.48 4.80255 6.01876 0
M  V30 8790 C 1558.21 3.64202 6.65911 0
M  V30 8791 O 1558.42 2.60694 5.64732 0
M  V30 8792 C 1559.61 3.93473 7.1943 0
M  V30 8793 O 1560 3.02071 8.21205 0
M  V30 8794 C 1560.49 3.73047 5.97036 0
M  V30 8795 C 1559.78 2.58828 5.25741 0
M  V30 8796 N 1559.83 2.68068 3.77503 0
M  V30 8797 H 1556.99 5.40332 6.79951 0
M  V30 8798 H 1556.72 4.41613 5.32378 0
M  V30 8799 H 1557.59 3.26331 7.47797 0
M  V30 8800 P 1561.55 2.75334 8.47391 0
M  V30 8801 O 1561.77 2.44571 9.90142 0
M  V30 8802 O 1562.34 3.87688 7.92115 0
M  V30 8803 O 1561.8 1.4459 7.59357 0
M  V30 8804 C 1560.86 0.347608 7.69215 0
M  V30 8805 C 1561.59 -0.96767 7.52806 0
M  V30 8806 O 1561.8 -1.21036 6.1011 0
M  V30 8807 C 1562.99 -1.04544 8.13308 0
M  V30 8808 O 1563.38 -2.38311 8.41922 0
M  V30 8809 C 1563.87 -0.491279 7.02284 0
M  V30 8810 C 1563.16 -0.996264 5.77469 0
M  V30 8811 N 1563.21 -0.0501916 4.62973 0
M  V30 8812 H 1560.37 0.374722 8.67691 0
M  V30 8813 H 1560.1 0.443485 6.90277 0
M  V30 8814 H 1560.97 -1.75537 7.96793 0
M  V30 8815 P 1564.93 -2.75334 8.47391 0
M  V30 8816 O 1565.15 -3.84204 9.44982 0
M  V30 8817 O 1565.72 -1.51982 8.68909 0
M  V30 8818 O 1565.18 -3.29363 6.99321 0
M  V30 8819 C 1564.24 -4.24066 6.42823 0
M  V30 8820 C 1564.97 -5.20775 5.52155 0
M  V30 8821 O 1565.18 -4.56607 4.22514 0
M  V30 8822 C 1566.37 -5.62697 5.96604 0
M  V30 8823 O 1566.76 -6.87667 5.41053 0
M  V30 8824 C 1567.25 -4.52537 5.39283 0
M  V30 8825 C 1566.54 -4.20027 4.08623 0
M  V30 8826 N 1566.59 -2.76189 3.71603 0
M  V30 8827 H 1563.75 -4.79756 7.24086 0
M  V30 8828 H 1563.48 -3.69963 5.84682 0
M  V30 8829 H 1564.35 -6.10431 5.41508 0
M  V30 8830 H 1567 -4.78816 3.28024 0
M  V30 8831 H 1567.28 -3.64957 6.05871 0
M  V30 8832 H 1568.27 -4.88748 5.21323 0
M  V30 8833 H 1566.44 -5.66789 7.0643 0
M  V30 8834 P 1568.31 -7.20834 5.23717 0
M  V30 8835 O 1568.53 -8.66274 5.38678 0
M  V30 8836 O 1569.1 -6.33687 6.13629 0
M  V30 8837 O 1568.56 -6.7751 3.72168 0
M  V30 8838 C 1567.62 -7.20919 2.70795 0
M  V30 8839 C 1568.35 -7.45864 1.40599 0
M  V30 8840 O 1568.56 -6.17751 0.734343 0
M  V30 8841 C 1569.75 -8.05906 1.51917 0
M  V30 8842 O 1570.14 -8.74358 0.335205 0
M  V30 8843 C 1570.63 -6.83093 1.70294 0
M  V30 8844 C 1569.92 -5.79992 0.836974 0
M  V30 8845 N 1569.97 -4.41864 1.38293 0
M  V30 8846 H 1567.13 -8.13738 3.03804 0
M  V30 8847 H 1566.86 -6.42974 2.55559 0
M  V30 8848 H 1567.73 -8.12139 0.792866 0
M  V30 8849 H 1570.38 -5.80178 -0.160643 0
M  V30 8850 H 1570.66 -6.51379 2.75643 0
M  V30 8851 H 1571.65 -7.01832 1.3448 0
M  V30 8852 H 1569.82 -8.73771 2.38364 0
M  V30 8853 P 1571.69 -8.91 1.84249e-12 0
M  V30 8854 O 1571.91 -10.1726 -0.733694 0
M  V30 8855 O 1572.48 -8.73148 1.23936 0
M  V30 8856 O 1571.94 -7.66872 -0.971405 0
M  V30 8857 C 1571 -7.42309 -2.04641 0
M  V30 8858 C 1571.73 -6.86059 -3.24661 0
M  V30 8859 O 1571.94 -5.42847 -3.03646 0
M  V30 8860 C 1573.13 -7.41196 -3.50753 0
M  V30 8861 O 1573.52 -7.27073 -4.86816 0
M  V30 8862 C 1574.01 -6.5273 -2.63741 0
M  V30 8863 C 1573.3 -5.1842 -2.73198 0
M  V30 8864 N 1573.35 -4.38762 -1.4784 0
M  V30 8865 H 1570.51 -8.36803 -2.32493 0
M  V30 8866 H 1570.24 -6.70197 -1.71129 0
M  V30 8867 H 1571.11 -7.03551 -4.13168 0
M  V30 8868 P 1575.07 -7.20834 -5.23717 0
M  V30 8869 O 1575.29 -7.7993 -6.57351 0
M  V30 8870 O 1575.86 -7.79328 -4.13004 0
M  V30 8871 O 1575.32 -5.63315 -5.29344 0
M  V30 8872 C 1574.38 -4.80193 -6.01798 0
M  V30 8873 C 1575.11 -3.64202 -6.65911 0
M  V30 8874 O 1575.32 -2.60694 -5.64732 0
M  V30 8875 C 1576.51 -3.93473 -7.1943 0
M  V30 8876 O 1576.9 -3.02071 -8.21205 0
M  V30 8877 C 1577.39 -3.73047 -5.97036 0
M  V30 8878 C 1576.68 -2.58828 -5.25741 0
M  V30 8879 N 1576.73 -2.6801 -3.77422 0
M  V30 8880 C 1576.88 -1.50443 -3.07133 0
M  V30 8881 O 1576.97 -0.419406 -3.61576 0
M  V30 8882 N 1576.92 -1.6403 -1.69677 0
M  V30 8883 C 1576.83 -2.81206 -0.986255 0
M  V30 8884 O 1576.88 -2.80892 0.249754 0
M  V30 8885 C 1576.68 -3.99158 -1.80325 0
M  V30 8886 C 1576.57 -5.29309 -1.06921 0
M  V30 8887 C 1576.63 -3.89779 -3.1476 0
M  V30 8888 H 1573.89 -5.40332 -6.79951 0
M  V30 8889 H 1573.62 -4.41549 -5.32301 0
M  V30 8890 H 1574.49 -3.26331 -7.47797 0
M  V30 8891 H 1577.14 -1.6395 -5.56554 0
M  V30 8892 H 1577.42 -4.63439 -5.3432 0
M  V30 8893 H 1578.41 -3.44728 -6.25838 0
M  V30 8894 H 1576.58 -4.96652 -7.57263 0
M  V30 8895 H 1576.51 -4.80159 -3.74441 0
M  V30 8896 H 1577.54 -5.81459 -1.09608 0
M  V30 8897 H 1575.8 -5.9187 -1.54487 0
M  V30 8898 H 1576.29 -5.10095 -0.0220288 0
M  V30 8899 H 1577.03 -0.798962 -1.16664 0
M  V30 8900 P 1578.45 -2.75334 -8.47391 0
M  V30 8901 O 1578.67 -2.44571 -9.90142 0
M  V30 8902 O 1579.24 -3.87688 -7.92115 0
M  V30 8903 O 1578.7 -1.4459 -7.59357 0
M  V30 8904 C 1577.76 -0.347608 -7.69215 0
M  V30 8905 C 1578.49 0.96767 -7.52806 0
M  V30 8906 O 1578.7 1.21036 -6.1011 0
M  V30 8907 C 1579.89 1.04544 -8.13308 0
M  V30 8908 O 1580.28 2.38311 -8.41922 0
M  V30 8909 C 1580.77 0.491279 -7.02284 0
M  V30 8910 C 1580.06 0.996264 -5.77469 0
M  V30 8911 N 1580.11 0.0501916 -4.62973 0
M  V30 8912 C 1580.03 -1.32786 -4.63244 0
M  V30 8913 N 1580.11 -1.86957 -3.44545 0
M  V30 8914 C 1580.25 -0.780241 -2.58481 0
M  V30 8915 C 1580.38 -0.738536 -1.17757 0
M  V30 8916 O 1580.4 -1.66794 -0.372349 0
M  V30 8917 N 1580.5 0.58337 -0.711393 0
M  V30 8918 C 1580.5 1.70816 -1.51017 0
M  V30 8919 N 1580.63 2.87826 -0.880757 0
M  V30 8920 N 1580.37 1.67126 -2.8339 0
M  V30 8921 C 1580.25 0.401421 -3.30572 0
M  V30 8922 H 1577.27 -0.374722 -8.67691 0
M  V30 8923 H 1577 -0.443485 -6.90277 0
M  V30 8924 H 1577.87 1.75537 -7.96793 0
M  V30 8925 H 1580.52 1.95076 -5.46529 0
M  V30 8926 H 1580.8 -0.608565 -7.04577 0
M  V30 8927 H 1581.79 0.889672 -7.08939 0
M  V30 8928 H 1579.96 0.43308 -9.04564 0
M  V30 8929 H 1579.91 -1.91249 -5.54442 0
M  V30 8930 H 1580.59 0.718054 0.275244 0
M  V30 8931 H 1580.63 3.75721 -1.41832 0
M  V30 8932 H 1580.73 2.90436 0.145468 0
M  V30 8933 P 1581.83 2.75334 -8.47391 0
M  V30 8934 O 1582.05 3.84128 -9.44797 0
M  V30 8935 O 1582.62 1.51947 -8.68712 0
M  V30 8936 O 1582.08 3.29363 -6.99321 0
M  V30 8937 C 1581.14 4.24011 -6.4274 0
M  V30 8938 C 1581.87 5.20775 -5.52155 0
M  V30 8939 O 1582.08 4.56534 -4.22446 0
M  V30 8940 C 1583.27 5.62629 -5.96531 0
M  V30 8941 O 1583.66 6.87667 -5.41053 0
M  V30 8942 C 1584.15 4.52537 -5.39283 0
M  V30 8943 C 1583.44 4.20027 -4.08623 0
M  V30 8944 N 1583.49 2.76189 -3.71603 0
M  V30 8945 H 1580.65 4.797 -7.24003 0
M  V30 8946 H 1580.38 3.69856 -5.84513 0
M  V30 8947 H 1581.25 6.10356 -5.41441 0
M  V30 8948 P 1585.21 7.20834 -5.23717 0
M  V30 8949 O 1585.43 8.66104 -5.38572 0
M  V30 8950 O 1586 6.33544 -6.1349 0
M  V30 8951 O 1585.46 6.7751 -3.72168 0
M  V30 8952 C 1584.52 7.20825 -2.7076 0
M  V30 8953 C 1585.25 7.45864 -1.40599 0
M  V30 8954 O 1585.46 6.17651 -0.734225 0
M  V30 8955 C 1586.65 8.05808 -1.51899 0
M  V30 8956 O 1587.04 8.74358 -0.335205 0
M  V30 8957 C 1587.53 6.83093 -1.70294 0
M  V30 8958 C 1586.82 5.79992 -0.836974 0
M  V30 8959 N 1586.87 4.41864 -1.38293 0
M  V30 8960 H 1584.03 8.13644 -3.0377 0
M  V30 8961 H 1583.76 6.42788 -2.55485 0
M  V30 8962 H 1584.63 8.12039 -0.792769 0
M  V30 8963 P 1588.59 8.91 -2.95149e-12 0
M  V30 8964 O 1588.81 10.1726 0.733694 0
M  V30 8965 O 1589.38 8.73148 -1.23936 0
M  V30 8966 O 1588.84 7.66872 0.971405 0
M  V30 8967 C 1587.9 7.42309 2.04641 0
M  V30 8968 C 1588.63 6.86059 3.24661 0
M  V30 8969 O 1588.84 5.42847 3.03646 0
M  V30 8970 C 1590.03 7.41196 3.50753 0
M  V30 8971 O 1590.42 7.27073 4.86816 0
M  V30 8972 C 1590.91 6.5273 2.63741 0
M  V30 8973 C 1590.2 5.1842 2.73198 0
M  V30 8974 N 1590.25 4.38762 1.4784 0
M  V30 8975 C 1590.17 4.81605 0.168631 0
M  V30 8976 N 1590.25 3.85454 -0.713363 0
M  V30 8977 C 1590.39 2.6994 0.0566958 0
M  V30 8978 C 1590.52 1.34815 -0.338502 0
M  V30 8979 O 1590.54 0.869548 -1.47125 0
M  V30 8980 N 1590.64 0.496304 0.77465 0
M  V30 8981 C 1590.64 0.908403 2.09122 0
M  V30 8982 N 1590.77 -0.0517805 3.00955 0
M  V30 8983 N 1590.51 2.17875 2.46519 0
M  V30 8984 C 1590.39 3.01988 1.4033 0
M  V30 8985 H 1587.41 8.36803 2.32493 0
M  V30 8986 H 1587.14 6.70197 1.71129 0
M  V30 8987 H 1588.01 7.03551 4.13168 0
M  V30 8988 H 1590.66 4.59498 3.54415 0
M  V30 8989 H 1590.94 6.88898 1.59848 0
M  V30 8990 H 1591.93 6.46749 3.03687 0
M  V30 8991 H 1590.1 8.46908 3.20714 0
M  V30 8992 H 1590.05 5.86405 -0.105564 0
M  V30 8993 H 1590.73 -0.483664 0.597855 0
M  V30 8994 H 1590.77 0.187865 4.0116 0
M  V30 8995 H 1590.87 -1.03585 2.71726 0
M  V30 8996 P 1591.97 7.20834 5.23717 0
M  V30 8997 O 1592.19 7.79853 6.57286 0
M  V30 8998 O 1592.76 7.79239 4.12957 0
M  V30 8999 O 1592.22 5.63315 5.29344 0
M  V30 9000 C 1591.28 4.80255 6.01876 0
M  V30 9001 C 1592.01 3.64202 6.65911 0
M  V30 9002 O 1592.22 2.60694 5.64732 0
M  V30 9003 C 1593.41 3.93473 7.1943 0
M  V30 9004 O 1593.8 3.02071 8.21205 0
M  V30 9005 C 1594.29 3.73047 5.97036 0
M  V30 9006 C 1593.58 2.58828 5.25741 0
M  V30 9007 N 1593.63 2.68068 3.77503 0
M  V30 9008 C 1593.55 3.79715 2.96723 0
M  V30 9009 N 1593.63 3.5377 1.68852 0
M  V30 9010 C 1593.77 2.15054 1.63254 0
M  V30 9011 C 1593.9 1.28964 0.518571 0
M  V30 9012 O 1593.92 1.56826 -0.679156 0
M  V30 9013 N 1594.02 -0.0538097 0.918425 0
M  V30 9014 C 1594.02 -0.494275 2.22578 0
M  V30 9015 N 1594.15 -1.81086 2.40434 0
M  V30 9016 N 1593.89 0.313645 3.27502 0
M  V30 9017 C 1593.77 1.61829 2.91033 0
M  V30 9018 H 1590.79 5.40332 6.79951 0
M  V30 9019 H 1590.52 4.41613 5.32378 0
M  V30 9020 H 1591.39 3.26331 7.47797 0
M  V30 9021 H 1594.04 1.63422 5.56814 0
M  V30 9022 H 1594.32 4.63374 5.34244 0
M  V30 9023 H 1595.31 3.44728 6.25838 0
M  V30 9024 H 1593.48 4.96652 7.57263 0
M  V30 9025 H 1593.43 4.80617 3.3614 0
M  V30 9026 H 1594.11 -0.742702 0.199384 0
M  V30 9027 H 1594.15 -2.20598 3.35588 0
M  V30 9028 H 1594.25 -2.43518 1.58945 0
M  V30 9029 P 1595.35 2.75334 8.47391 0
M  V30 9030 O 1595.57 2.44571 9.90142 0
M  V30 9031 O 1596.14 3.87688 7.92115 0
M  V30 9032 O 1595.6 1.4459 7.59357 0
M  V30 9033 C 1594.66 0.347608 7.69215 0
M  V30 9034 C 1595.39 -0.96767 7.52806 0
M  V30 9035 O 1595.6 -1.21036 6.1011 0
M  V30 9036 C 1596.79 -1.04544 8.13308 0
M  V30 9037 O 1597.18 -2.38311 8.41922 0
M  V30 9038 C 1597.67 -0.491279 7.02284 0
M  V30 9039 C 1596.96 -0.996264 5.77469 0
M  V30 9040 N 1597.01 -0.0501916 4.62973 0
M  V30 9041 H 1594.17 0.374722 8.67691 0
M  V30 9042 H 1593.9 0.443485 6.90277 0
M  V30 9043 H 1594.77 -1.75537 7.96793 0
M  V30 9044 P 1598.73 -2.75334 8.47391 0
M  V30 9045 O 1598.95 -3.84128 9.44797 0
M  V30 9046 O 1599.52 -1.51947 8.68712 0
M  V30 9047 O 1598.98 -3.29363 6.99321 0
M  V30 9048 C 1598.04 -4.24011 6.4274 0
M  V30 9049 C 1598.77 -5.20775 5.52155 0
M  V30 9050 O 1598.98 -4.56534 4.22446 0
M  V30 9051 C 1600.17 -5.62629 5.96531 0
M  V30 9052 O 1600.56 -6.87667 5.41053 0
M  V30 9053 C 1601.05 -4.52537 5.39283 0
M  V30 9054 C 1600.34 -4.20027 4.08623 0
M  V30 9055 N 1600.39 -2.76189 3.71603 0
M  V30 9056 H 1597.55 -4.797 7.24003 0
M  V30 9057 H 1597.28 -3.69856 5.84513 0
M  V30 9058 H 1598.15 -6.10356 5.41441 0
M  V30 9059 P 1602.11 -7.20834 5.23717 0
M  V30 9060 O 1602.33 -8.66274 5.38678 0
M  V30 9061 O 1602.9 -6.33687 6.13629 0
M  V30 9062 O 1602.36 -6.7751 3.72168 0
M  V30 9063 C 1601.42 -7.20919 2.70795 0
M  V30 9064 C 1602.15 -7.45864 1.40599 0
M  V30 9065 O 1602.36 -6.17751 0.734343 0
M  V30 9066 C 1603.55 -8.05906 1.51917 0
M  V30 9067 O 1603.94 -8.74358 0.335205 0
M  V30 9068 C 1604.43 -6.83093 1.70294 0
M  V30 9069 C 1603.72 -5.79992 0.836974 0
M  V30 9070 N 1603.77 -4.41864 1.38293 0
M  V30 9071 C 1603.69 -4.02089 2.69407 0
M  V30 9072 N 1603.76 -2.73403 2.85089 0
M  V30 9073 C 1603.91 -2.25086 1.5642 0
M  V30 9074 C 1604.04 -0.942887 1.04836 0
M  V30 9075 N 1604.05 0.150999 1.80369 0
M  V30 9076 N 1604.16 -0.812565 -0.28167 0
M  V30 9077 C 1604.15 -1.90572 -1.03784 0
M  V30 9078 N 1604.03 -3.167 -0.683905 0
M  V30 9079 C 1603.91 -3.26538 0.652815 0
M  V30 9080 H 1600.93 -8.13738 3.03804 0
M  V30 9081 H 1600.66 -6.42974 2.55559 0
M  V30 9082 H 1601.53 -8.12139 0.792866 0
M  V30 9083 H 1604.18 -5.80178 -0.160643 0
M  V30 9084 H 1604.46 -6.51379 2.75643 0
M  V30 9085 H 1605.45 -7.01832 1.3448 0
M  V30 9086 H 1603.62 -8.73771 2.38364 0
M  V30 9087 H 1603.58 -4.7189 3.52311 0
M  V30 9088 H 1603.96 0.0721434 2.82608 0
M  V30 9089 H 1604.15 1.0785 1.36544 0
M  V30 9090 H 1604.26 -1.73207 -2.10241 0
M  V30 9091 P 1605.49 -8.91 4.0605e-12 0
M  V30 9092 O 1605.71 -10.1726 -0.733694 0
M  V30 9093 O 1606.28 -8.73148 1.23936 0
M  V30 9094 O 1605.74 -7.66872 -0.971405 0
M  V30 9095 C 1604.8 -7.42309 -2.04641 0
M  V30 9096 C 1605.53 -6.86059 -3.24661 0
M  V30 9097 O 1605.74 -5.42847 -3.03646 0
M  V30 9098 C 1606.93 -7.41196 -3.50753 0
M  V30 9099 O 1607.32 -7.27073 -4.86816 0
M  V30 9100 C 1607.81 -6.5273 -2.63741 0
M  V30 9101 C 1607.1 -5.1842 -2.73198 0
M  V30 9102 N 1607.15 -4.38762 -1.4784 0
M  V30 9103 H 1604.31 -8.36803 -2.32493 0
M  V30 9104 H 1604.04 -6.70197 -1.71129 0
M  V30 9105 H 1604.91 -7.03551 -4.13168 0
M  V30 9106 P 1608.87 -7.20834 -5.23717 0
M  V30 9107 O 1609.09 -7.79853 -6.57286 0
M  V30 9108 O 1609.66 -7.79239 -4.12957 0
M  V30 9109 O 1609.12 -5.63315 -5.29344 0
M  V30 9110 C 1608.18 -4.80255 -6.01876 0
M  V30 9111 C 1608.91 -3.64202 -6.65911 0
M  V30 9112 O 1609.12 -2.60694 -5.64732 0
M  V30 9113 C 1610.31 -3.93473 -7.1943 0
M  V30 9114 O 1610.7 -3.02071 -8.21205 0
M  V30 9115 C 1611.19 -3.73047 -5.97036 0
M  V30 9116 C 1610.48 -2.58828 -5.25741 0
M  V30 9117 N 1610.53 -2.68068 -3.77503 0
M  V30 9118 H 1607.69 -5.40332 -6.79951 0
M  V30 9119 H 1607.42 -4.41613 -5.32378 0
M  V30 9120 H 1608.29 -3.26331 -7.47797 0
M  V30 9121 P 1612.25 -2.75334 -8.47391 0
M  V30 9122 O 1612.47 -2.44571 -9.90142 0
M  V30 9123 O 1613.04 -3.87688 -7.92115 0
M  V30 9124 O 1612.5 -1.4459 -7.59357 0
M  V30 9125 C 1611.56 -0.347608 -7.69215 0
M  V30 9126 C 1612.29 0.96767 -7.52806 0
M  V30 9127 O 1612.5 1.21036 -6.1011 0
M  V30 9128 C 1613.69 1.04544 -8.13308 0
M  V30 9129 O 1614.08 2.38311 -8.41922 0
M  V30 9130 C 1614.57 0.491279 -7.02284 0
M  V30 9131 C 1613.86 0.996264 -5.77469 0
M  V30 9132 N 1613.91 0.0501916 -4.62973 0
M  V30 9133 C 1613.83 -1.32786 -4.63244 0
M  V30 9134 N 1613.91 -1.86957 -3.44545 0
M  V30 9135 C 1614.05 -0.780241 -2.58481 0
M  V30 9136 C 1614.18 -0.738536 -1.17757 0
M  V30 9137 O 1614.2 -1.66794 -0.372349 0
M  V30 9138 N 1614.3 0.58337 -0.711393 0
M  V30 9139 C 1614.3 1.70816 -1.51017 0
M  V30 9140 N 1614.43 2.87826 -0.880757 0
M  V30 9141 N 1614.17 1.67126 -2.8339 0
M  V30 9142 C 1614.05 0.401421 -3.30572 0
M  V30 9143 H 1611.07 -0.374722 -8.67691 0
M  V30 9144 H 1610.8 -0.443485 -6.90277 0
M  V30 9145 H 1611.67 1.75537 -7.96793 0
M  V30 9146 H 1614.32 1.95076 -5.46529 0
M  V30 9147 H 1614.6 -0.608565 -7.04577 0
M  V30 9148 H 1615.59 0.889672 -7.08939 0
M  V30 9149 H 1613.76 0.43308 -9.04564 0
M  V30 9150 H 1613.71 -1.91249 -5.54442 0
M  V30 9151 H 1614.39 0.718054 0.275244 0
M  V30 9152 H 1614.43 3.75721 -1.41832 0
M  V30 9153 H 1614.53 2.90436 0.145468 0
M  V30 9154 P 1615.63 2.75334 -8.47391 0
M  V30 9155 O 1615.85 3.84128 -9.44797 0
M  V30 9156 O 1616.42 1.51947 -8.68712 0
M  V30 9157 O 1615.88 3.29363 -6.99321 0
M  V30 9158 C 1614.94 4.24011 -6.4274 0
M  V30 9159 C 1615.67 5.20775 -5.52155 0
M  V30 9160 O 1615.88 4.56534 -4.22446 0
M  V30 9161 C 1617.07 5.62629 -5.96531 0
M  V30 9162 O 1617.46 6.87667 -5.41053 0
M  V30 9163 C 1617.95 4.52537 -5.39283 0
M  V30 9164 C 1617.24 4.20027 -4.08623 0
M  V30 9165 N 1617.29 2.76189 -3.71603 0
M  V30 9166 H 1614.45 4.797 -7.24003 0
M  V30 9167 H 1614.18 3.69856 -5.84513 0
M  V30 9168 H 1615.05 6.10356 -5.41441 0
M  V30 9169 P 1619.01 7.20834 -5.23717 0
M  V30 9170 O 1619.23 8.66104 -5.38572 0
M  V30 9171 O 1619.8 6.33544 -6.1349 0
M  V30 9172 O 1619.26 6.7751 -3.72168 0
M  V30 9173 C 1618.32 7.20825 -2.7076 0
M  V30 9174 C 1619.05 7.45864 -1.40599 0
M  V30 9175 O 1619.26 6.17651 -0.734225 0
M  V30 9176 C 1620.45 8.05808 -1.51899 0
M  V30 9177 O 1620.84 8.74358 -0.335205 0
M  V30 9178 C 1621.33 6.83093 -1.70294 0
M  V30 9179 C 1620.62 5.79992 -0.836974 0
M  V30 9180 N 1620.67 4.41864 -1.38293 0
M  V30 9181 H 1617.83 8.13644 -3.0377 0
M  V30 9182 H 1617.56 6.42788 -2.55485 0
M  V30 9183 H 1618.43 8.12039 -0.792769 0
M  V30 9184 P 1622.39 8.91 -5.1695e-12 0
M  V30 9185 O 1622.61 10.1736 0.733766 0
M  V30 9186 O 1623.18 8.73247 -1.2395 0
M  V30 9187 O 1622.64 7.66872 0.971405 0
M  V30 9188 C 1621.7 7.42212 2.04614 0
M  V30 9189 C 1622.43 6.86059 3.24661 0
M  V30 9190 O 1622.64 5.42847 3.03646 0
M  V30 9191 C 1623.83 7.41196 3.50753 0
M  V30 9192 O 1624.22 7.27073 4.86816 0
M  V30 9193 C 1624.71 6.5273 2.63741 0
M  V30 9194 C 1624 5.1842 2.73198 0
M  V30 9195 N 1624.05 4.38668 1.47808 0
M  V30 9196 C 1624.2 3.02239 1.60048 0
M  V30 9197 O 1624.29 2.46459 2.67869 0
M  V30 9198 N 1624.24 2.32436 0.408571 0
M  V30 9199 C 1624.15 2.85471 -0.854993 0
M  V30 9200 O 1624.2 2.12566 -1.8531 0
M  V30 9201 C 1624 4.28918 -0.887335 0
M  V30 9202 C 1623.89 4.91066 -2.24619 0
M  V30 9203 C 1623.95 5.00349 0.255399 0
M  V30 9204 H 1621.21 8.36803 2.32493 0
M  V30 9205 H 1620.94 6.701 1.71105 0
M  V30 9206 H 1621.81 7.03551 4.13168 0
M  V30 9207 H 1624.46 4.59773 3.53894 0
M  V30 9208 H 1624.74 6.88995 1.59871 0
M  V30 9209 H 1625.73 6.46749 3.03687 0
M  V30 9210 H 1623.9 8.46908 3.20714 0
M  V30 9211 H 1623.83 6.08548 0.206986 0
M  V30 9212 H 1624.86 5.34836 -2.53099 0
M  V30 9213 H 1623.12 5.69638 -2.2291 0
M  V30 9214 H 1623.61 4.13971 -2.98044 0
M  V30 9215 H 1624.35 1.33211 0.474216 0
M  V30 9216 P 1625.77 7.20834 5.23717 0
M  V30 9217 O 1625.99 7.79853 6.57286 0
M  V30 9218 O 1626.56 7.79239 4.12957 0
M  V30 9219 O 1626.02 5.63315 5.29344 0
M  V30 9220 C 1625.08 4.80255 6.01876 0
M  V30 9221 C 1625.81 3.64202 6.65911 0
M  V30 9222 O 1626.02 2.60694 5.64732 0
M  V30 9223 C 1627.21 3.93473 7.1943 0
M  V30 9224 O 1627.6 3.02071 8.21205 0
M  V30 9225 C 1628.09 3.73047 5.97036 0
M  V30 9226 C 1627.38 2.58828 5.25741 0
M  V30 9227 N 1627.43 2.68068 3.77503 0
M  V30 9228 H 1624.59 5.40332 6.79951 0
M  V30 9229 H 1624.32 4.41613 5.32378 0
M  V30 9230 H 1625.19 3.26331 7.47797 0
M  V30 9231 P 1629.15 2.75334 8.47391 0
M  V30 9232 O 1629.37 2.44571 9.90142 0
M  V30 9233 O 1629.94 3.87688 7.92115 0
M  V30 9234 O 1629.4 1.4459 7.59357 0
M  V30 9235 C 1628.46 0.347608 7.69215 0
M  V30 9236 C 1629.19 -0.96767 7.52806 0
M  V30 9237 O 1629.4 -1.21036 6.1011 0
M  V30 9238 C 1630.59 -1.04544 8.13308 0
M  V30 9239 O 1630.98 -2.38311 8.41922 0
M  V30 9240 C 1631.47 -0.491279 7.02284 0
M  V30 9241 C 1630.76 -0.996264 5.77469 0
M  V30 9242 N 1630.81 -0.0501916 4.62973 0
M  V30 9243 H 1627.97 0.374722 8.67691 0
M  V30 9244 H 1627.7 0.443485 6.90277 0
M  V30 9245 H 1628.57 -1.75537 7.96793 0
M  V30 9246 P 1632.53 -2.75334 8.47391 0
M  V30 9247 O 1632.75 -3.84204 9.44982 0
M  V30 9248 O 1633.32 -1.51982 8.68909 0
M  V30 9249 O 1632.78 -3.29363 6.99321 0
M  V30 9250 C 1631.84 -4.24066 6.42823 0
M  V30 9251 C 1632.57 -5.20775 5.52155 0
M  V30 9252 O 1632.78 -4.56607 4.22514 0
M  V30 9253 C 1633.97 -5.62697 5.96604 0
M  V30 9254 O 1634.36 -6.87667 5.41053 0
M  V30 9255 C 1634.85 -4.52537 5.39283 0
M  V30 9256 C 1634.14 -4.20027 4.08623 0
M  V30 9257 N 1634.19 -2.76189 3.71603 0
M  V30 9258 C 1634.11 -1.66944 4.54297 0
M  V30 9259 N 1634.18 -0.536169 3.91344 0
M  V30 9260 C 1634.33 -0.901569 2.58849 0
M  V30 9261 C 1634.46 -0.146599 1.40236 0
M  V30 9262 N 1634.47 1.18234 1.37046 0
M  V30 9263 N 1634.58 -0.822941 0.249738 0
M  V30 9264 C 1634.57 -2.15179 0.280525 0
M  V30 9265 N 1634.45 -2.96414 1.30822 0
M  V30 9266 C 1634.33 -2.25804 2.44748 0
M  V30 9267 H 1631.35 -4.79756 7.24086 0
M  V30 9268 H 1631.08 -3.69963 5.84682 0
M  V30 9269 H 1631.95 -6.10431 5.41508 0
M  V30 9270 H 1634.6 -4.78816 3.28024 0
M  V30 9271 H 1634.88 -3.64957 6.05871 0
M  V30 9272 H 1635.87 -4.88748 5.21323 0
M  V30 9273 H 1634.04 -5.66789 7.0643 0
M  V30 9274 H 1634 -1.74684 5.62396 0
M  V30 9275 H 1634.38 1.71949 2.24394 0
M  V30 9276 H 1634.57 1.67511 0.470742 0
M  V30 9277 H 1634.68 -2.63704 -0.6828 0
M  V30 9278 P 1635.91 -7.20834 5.23717 0
M  V30 9279 O 1636.13 -8.66104 5.38572 0
M  V30 9280 O 1636.7 -6.33544 6.1349 0
M  V30 9281 O 1636.16 -6.7751 3.72168 0
M  V30 9282 C 1635.22 -7.20825 2.7076 0
M  V30 9283 C 1635.95 -7.45864 1.40599 0
M  V30 9284 O 1636.16 -6.17651 0.734225 0
M  V30 9285 C 1637.35 -8.05808 1.51899 0
M  V30 9286 O 1637.74 -8.74358 0.335205 0
M  V30 9287 C 1638.23 -6.83093 1.70294 0
M  V30 9288 C 1637.52 -5.79992 0.836974 0
M  V30 9289 N 1637.57 -4.41864 1.38293 0
M  V30 9290 H 1634.73 -8.13644 3.0377 0
M  V30 9291 H 1634.46 -6.42788 2.55485 0
M  V30 9292 H 1635.33 -8.12039 0.792769 0
M  V30 9293 P 1639.29 -8.91 6.2785e-12 0
M  V30 9294 O 1639.51 -10.1736 -0.733766 0
M  V30 9295 O 1640.08 -8.73247 1.2395 0
M  V30 9296 O 1639.54 -7.66872 -0.971405 0
M  V30 9297 C 1638.6 -7.42212 -2.04614 0
M  V30 9298 C 1639.33 -6.86059 -3.24661 0
M  V30 9299 O 1639.54 -5.42847 -3.03646 0
M  V30 9300 C 1640.73 -7.41196 -3.50753 0
M  V30 9301 O 1641.12 -7.27073 -4.86816 0
M  V30 9302 C 1641.61 -6.5273 -2.63741 0
M  V30 9303 C 1640.9 -5.1842 -2.73198 0
M  V30 9304 N 1640.95 -4.38668 -1.47808 0
M  V30 9305 C 1641.1 -3.02239 -1.60048 0
M  V30 9306 O 1641.19 -2.46459 -2.67869 0
M  V30 9307 N 1641.14 -2.32436 -0.408571 0
M  V30 9308 C 1641.05 -2.85471 0.854993 0
M  V30 9309 C 1640.9 -4.28918 0.887335 0
M  V30 9310 C 1640.85 -5.00349 -0.255399 0
M  V30 9311 H 1638.11 -8.36803 -2.32493 0
M  V30 9312 H 1637.84 -6.701 -1.71105 0
M  V30 9313 H 1638.71 -7.03551 -4.13168 0
M  V30 9314 H 1641.36 -4.59773 -3.53894 0
M  V30 9315 H 1641.64 -6.88995 -1.59871 0
M  V30 9316 H 1642.63 -6.46749 -3.03687 0
M  V30 9317 H 1640.8 -8.46908 -3.20714 0
M  V30 9318 H 1640.73 -6.08548 -0.206986 0
M  V30 9319 P 1642.67 -7.20834 -5.23717 0
M  V30 9320 O 1642.89 -7.79853 -6.57286 0
M  V30 9321 O 1643.46 -7.79239 -4.12957 0
M  V30 9322 O 1642.92 -5.63315 -5.29344 0
M  V30 9323 C 1641.98 -4.80255 -6.01876 0
M  V30 9324 C 1642.71 -3.64202 -6.65911 0
M  V30 9325 O 1642.92 -2.60694 -5.64732 0
M  V30 9326 C 1644.11 -3.93473 -7.1943 0
M  V30 9327 O 1644.5 -3.02071 -8.21205 0
M  V30 9328 C 1644.99 -3.73047 -5.97036 0
M  V30 9329 C 1644.28 -2.58828 -5.25741 0
M  V30 9330 N 1644.33 -2.68068 -3.77503 0
M  V30 9331 H 1641.49 -5.40332 -6.79951 0
M  V30 9332 H 1641.22 -4.41613 -5.32378 0
M  V30 9333 H 1642.09 -3.26331 -7.47797 0
M  V30 9334 P 1646.05 -2.75334 -8.47391 0
M  V30 9335 O 1646.27 -2.44571 -9.90142 0
M  V30 9336 O 1646.84 -3.87688 -7.92115 0
M  V30 9337 O 1646.3 -1.4459 -7.59357 0
M  V30 9338 C 1645.36 -0.347608 -7.69215 0
M  V30 9339 C 1646.09 0.96767 -7.52806 0
M  V30 9340 O 1646.3 1.21036 -6.1011 0
M  V30 9341 C 1647.49 1.04544 -8.13308 0
M  V30 9342 O 1647.88 2.38311 -8.41922 0
M  V30 9343 C 1648.37 0.491279 -7.02284 0
M  V30 9344 C 1647.66 0.996264 -5.77469 0
M  V30 9345 N 1647.71 0.0501916 -4.62973 0
M  V30 9346 H 1644.87 -0.374722 -8.67691 0
M  V30 9347 H 1644.6 -0.443485 -6.90277 0
M  V30 9348 H 1645.47 1.75537 -7.96793 0
M  V30 9349 P 1649.43 2.75334 -8.47391 0
M  V30 9350 O 1649.65 3.84204 -9.44982 0
M  V30 9351 O 1650.22 1.51982 -8.68909 0
M  V30 9352 O 1649.68 3.29363 -6.99321 0
M  V30 9353 C 1648.74 4.24066 -6.42823 0
M  V30 9354 C 1649.47 5.20775 -5.52155 0
M  V30 9355 O 1649.68 4.56607 -4.22514 0
M  V30 9356 C 1650.87 5.62697 -5.96604 0
M  V30 9357 O 1651.26 6.87667 -5.41053 0
M  V30 9358 C 1651.75 4.52537 -5.39283 0
M  V30 9359 C 1651.04 4.20027 -4.08623 0
M  V30 9360 N 1651.09 2.76189 -3.71603 0
M  V30 9361 H 1648.25 4.79756 -7.24086 0
M  V30 9362 H 1647.98 3.69963 -5.84682 0
M  V30 9363 H 1648.85 6.10431 -5.41508 0
M  V30 9364 H 1651.5 4.78816 -3.28024 0
M  V30 9365 H 1651.78 3.64957 -6.05871 0
M  V30 9366 H 1652.77 4.88748 -5.21323 0
M  V30 9367 H 1650.94 5.66789 -7.0643 0
M  V30 9368 P 1652.81 7.20834 -5.23717 0
M  V30 9369 O 1653.03 8.66104 -5.38572 0
M  V30 9370 O 1653.6 6.33544 -6.1349 0
M  V30 9371 O 1653.06 6.7751 -3.72168 0
M  V30 9372 C 1652.12 7.20825 -2.7076 0
M  V30 9373 C 1652.85 7.45864 -1.40599 0
M  V30 9374 O 1653.06 6.17651 -0.734225 0
M  V30 9375 C 1654.25 8.05808 -1.51899 0
M  V30 9376 O 1654.64 8.74358 -0.335205 0
M  V30 9377 C 1655.13 6.83093 -1.70294 0
M  V30 9378 C 1654.42 5.79992 -0.836974 0
M  V30 9379 N 1654.47 4.41864 -1.38293 0
M  V30 9380 H 1651.63 8.13644 -3.0377 0
M  V30 9381 H 1651.36 6.42788 -2.55485 0
M  V30 9382 H 1652.23 8.12039 -0.792769 0
M  V30 9383 P 1656.19 8.91 -7.38751e-12 0
M  V30 9384 O 1656.41 10.1726 0.733694 0
M  V30 9385 O 1656.98 8.73148 -1.23936 0
M  V30 9386 O 1656.44 7.66872 0.971405 0
M  V30 9387 C 1655.5 7.42309 2.04641 0
M  V30 9388 C 1656.23 6.86059 3.24661 0
M  V30 9389 O 1656.44 5.42847 3.03646 0
M  V30 9390 C 1657.63 7.41196 3.50753 0
M  V30 9391 O 1658.02 7.27073 4.86816 0
M  V30 9392 C 1658.51 6.5273 2.63741 0
M  V30 9393 C 1657.8 5.1842 2.73198 0
M  V30 9394 N 1657.85 4.38762 1.4784 0
M  V30 9395 H 1655.01 8.36803 2.32493 0
M  V30 9396 H 1654.74 6.70197 1.71129 0
M  V30 9397 H 1655.61 7.03551 4.13168 0
M  V30 9398 P 1659.57 7.20834 5.23717 0
M  V30 9399 O 1659.79 7.79853 6.57286 0
M  V30 9400 O 1660.36 7.79239 4.12957 0
M  V30 9401 O 1659.82 5.63315 5.29344 0
M  V30 9402 C 1658.88 4.80255 6.01876 0
M  V30 9403 C 1659.61 3.64202 6.65911 0
M  V30 9404 O 1659.82 2.60694 5.64732 0
M  V30 9405 C 1661.01 3.93473 7.1943 0
M  V30 9406 O 1661.4 3.02071 8.21205 0
M  V30 9407 C 1661.89 3.73047 5.97036 0
M  V30 9408 C 1661.18 2.58828 5.25741 0
M  V30 9409 N 1661.23 2.68068 3.77503 0
M  V30 9410 H 1658.39 5.40332 6.79951 0
M  V30 9411 H 1658.12 4.41613 5.32378 0
M  V30 9412 H 1658.99 3.26331 7.47797 0
M  V30 9413 P 1662.95 2.75334 8.47391 0
M  V30 9414 O 1663.17 2.44571 9.90142 0
M  V30 9415 O 1663.74 3.87688 7.92115 0
M  V30 9416 O 1663.2 1.4459 7.59357 0
M  V30 9417 C 1662.26 0.347608 7.69215 0
M  V30 9418 C 1662.99 -0.96767 7.52806 0
M  V30 9419 O 1663.2 -1.21036 6.1011 0
M  V30 9420 C 1664.39 -1.04544 8.13308 0
M  V30 9421 O 1664.78 -2.38311 8.41922 0
M  V30 9422 C 1665.27 -0.491279 7.02284 0
M  V30 9423 C 1664.56 -0.996264 5.77469 0
M  V30 9424 N 1664.61 -0.0501916 4.62973 0
M  V30 9425 H 1661.77 0.374722 8.67691 0
M  V30 9426 H 1661.5 0.443485 6.90277 0
M  V30 9427 H 1662.37 -1.75537 7.96793 0
M  V30 9428 P 1666.33 -2.75334 8.47391 0
M  V30 9429 O 1666.55 -3.84128 9.44797 0
M  V30 9430 O 1667.12 -1.51947 8.68712 0
M  V30 9431 O 1666.58 -3.29363 6.99321 0
M  V30 9432 C 1665.64 -4.24011 6.4274 0
M  V30 9433 C 1666.37 -5.20775 5.52155 0
M  V30 9434 O 1666.58 -4.56534 4.22446 0
M  V30 9435 C 1667.77 -5.62629 5.96531 0
M  V30 9436 O 1668.16 -6.87667 5.41053 0
M  V30 9437 C 1668.65 -4.52537 5.39283 0
M  V30 9438 C 1667.94 -4.20027 4.08623 0
M  V30 9439 N 1667.99 -2.76189 3.71603 0
M  V30 9440 H 1665.15 -4.797 7.24003 0
M  V30 9441 H 1664.88 -3.69856 5.84513 0
M  V30 9442 H 1665.75 -6.10356 5.41441 0
M  V30 9443 P 1669.71 -7.20834 5.23717 0
M  V30 9444 O 1669.93 -8.66189 5.38625 0
M  V30 9445 O 1670.5 -6.33615 6.1356 0
M  V30 9446 O 1669.96 -6.7751 3.72168 0
M  V30 9447 C 1669.02 -7.20732 2.70725 0
M  V30 9448 C 1669.75 -7.45864 1.40599 0
M  V30 9449 O 1669.96 -6.17651 0.734225 0
M  V30 9450 C 1671.15 -8.05808 1.51899 0
M  V30 9451 O 1671.54 -8.74358 0.335205 0
M  V30 9452 C 1672.03 -6.83093 1.70294 0
M  V30 9453 C 1671.32 -5.79992 0.836974 0
M  V30 9454 N 1671.37 -4.41769 1.38263 0
M  V30 9455 C 1671.52 -3.38591 0.481702 0
M  V30 9456 O 1671.61 -3.56839 -0.718452 0
M  V30 9457 N 1671.56 -2.1206 1.03569 0
M  V30 9458 C 1671.47 -1.80696 2.36966 0
M  V30 9459 C 1671.32 -2.94845 3.23898 0
M  V30 9460 C 1671.27 -4.19803 2.73435 0
M  V30 9461 H 1668.53 -8.13644 3.0377 0
M  V30 9462 H 1668.26 -6.42695 2.55448 0
M  V30 9463 H 1669.13 -8.12039 0.792769 0
M  V30 9464 H 1671.78 -5.79978 -0.160587 0
M  V30 9465 H 1672.06 -6.51379 2.75643 0
M  V30 9466 H 1673.05 -7.01734 1.34462 0
M  V30 9467 H 1671.22 -8.73674 2.38337 0
M  V30 9468 H 1671.15 -5.04492 3.4095 0
M  V30 9469 P 1673.09 -8.91 8.49651e-12 0
M  V30 9470 O 1673.31 -10.1746 -0.733838 0
M  V30 9471 O 1673.88 -8.73346 1.23964 0
M  V30 9472 O 1673.34 -7.66872 -0.971405 0
M  V30 9473 C 1672.4 -7.42405 -2.04668 0
M  V30 9474 C 1673.13 -6.86059 -3.24661 0
M  V30 9475 O 1673.34 -5.42934 -3.03695 0
M  V30 9476 C 1674.53 -7.41287 -3.50796 0
M  V30 9477 O 1674.92 -7.27073 -4.86816 0
M  V30 9478 C 1675.41 -6.5273 -2.63741 0
M  V30 9479 C 1674.7 -5.1842 -2.73198 0
M  V30 9480 N 1674.75 -4.38762 -1.4784 0
M  V30 9481 C 1674.67 -4.83651 -0.183876 0
M  V30 9482 N 1674.74 -3.88759 0.699393 0
M  V30 9483 C 1674.89 -2.7404 -0.0575568 0
M  V30 9484 C 1675.02 -1.37902 0.293928 0
M  V30 9485 N 1675.03 -0.938021 1.54797 0
M  V30 9486 N 1675.14 -0.491817 -0.70549 0
M  V30 9487 C 1675.13 -0.931735 -1.95979 0
M  V30 9488 N 1675.01 -2.16017 -2.41481 0
M  V30 9489 C 1674.89 -3.02547 -1.39121 0
M  V30 9490 H 1671.91 -8.36899 -2.3252 0
M  V30 9491 H 1671.64 -6.70391 -1.71179 0
M  V30 9492 H 1672.51 -7.03638 -4.13219 0
M  V30 9493 H 1675.16 -4.59931 -3.54016 0
M  V30 9494 H 1675.44 -6.88995 -1.59871 0
M  V30 9495 H 1676.43 -6.4684 -3.0373 0
M  V30 9496 H 1674.6 -8.47002 -3.20749 0
M  V30 9497 H 1674.56 -5.8885 0.0765548 0
M  V30 9498 H 1674.94 -1.60276 2.32875 0
M  V30 9499 H 1675.13 0.0699355 1.73859 0
M  V30 9500 H 1675.24 -0.165507 -2.71897 0
M  V30 9501 P 1676.47 -7.20834 -5.23717 0
M  V30 9502 O 1676.69 -7.79853 -6.57286 0
M  V30 9503 O 1677.26 -7.79239 -4.12957 0
M  V30 9504 O 1676.72 -5.63315 -5.29344 0
M  V30 9505 C 1675.78 -4.80255 -6.01876 0
M  V30 9506 C 1676.51 -3.64202 -6.65911 0
M  V30 9507 O 1676.72 -2.60694 -5.64732 0
M  V30 9508 C 1677.91 -3.93473 -7.1943 0
M  V30 9509 O 1678.3 -3.02071 -8.21205 0
M  V30 9510 C 1678.79 -3.73047 -5.97036 0
M  V30 9511 C 1678.08 -2.58828 -5.25741 0
M  V30 9512 N 1678.13 -2.68068 -3.77503 0
M  V30 9513 H 1675.29 -5.40332 -6.79951 0
M  V30 9514 H 1675.02 -4.41613 -5.32378 0
M  V30 9515 H 1675.89 -3.26331 -7.47797 0
M  V30 9516 P 1679.85 -2.75334 -8.47391 0
M  V30 9517 O 1680.07 -2.44571 -9.90142 0
M  V30 9518 O 1680.64 -3.87688 -7.92115 0
M  V30 9519 O 1680.1 -1.4459 -7.59357 0
M  V30 9520 C 1679.16 -0.347608 -7.69215 0
M  V30 9521 C 1679.89 0.96767 -7.52806 0
M  V30 9522 O 1680.1 1.21036 -6.1011 0
M  V30 9523 C 1681.29 1.04544 -8.13308 0
M  V30 9524 O 1681.68 2.38311 -8.41922 0
M  V30 9525 C 1682.17 0.491279 -7.02284 0
M  V30 9526 C 1681.46 0.996264 -5.77469 0
M  V30 9527 N 1681.51 0.0501916 -4.62973 0
M  V30 9528 H 1678.67 -0.374722 -8.67691 0
M  V30 9529 H 1678.4 -0.443485 -6.90277 0
M  V30 9530 H 1679.27 1.75537 -7.96793 0
M  V30 9531 P 1683.23 2.75334 -8.47391 0
M  V30 9532 O 1683.45 3.84128 -9.44797 0
M  V30 9533 O 1684.02 1.51947 -8.68712 0
M  V30 9534 O 1683.48 3.29363 -6.99321 0
M  V30 9535 C 1682.54 4.24011 -6.4274 0
M  V30 9536 C 1683.27 5.20775 -5.52155 0
M  V30 9537 O 1683.48 4.56534 -4.22446 0
M  V30 9538 C 1684.67 5.62629 -5.96531 0
M  V30 9539 O 1685.06 6.87667 -5.41053 0
M  V30 9540 C 1685.55 4.52537 -5.39283 0
M  V30 9541 C 1684.84 4.20027 -4.08623 0
M  V30 9542 N 1684.89 2.76189 -3.71603 0
M  V30 9543 H 1682.05 4.797 -7.24003 0
M  V30 9544 H 1681.78 3.69856 -5.84513 0
M  V30 9545 H 1682.65 6.10356 -5.41441 0
M  V30 9546 P 1686.61 7.20834 -5.23717 0
M  V30 9547 O 1686.83 8.66104 -5.38572 0
M  V30 9548 O 1687.4 6.33544 -6.1349 0
M  V30 9549 O 1686.86 6.7751 -3.72168 0
M  V30 9550 C 1685.92 7.20825 -2.7076 0
M  V30 9551 C 1686.65 7.45864 -1.40599 0
M  V30 9552 O 1686.86 6.17651 -0.734225 0
M  V30 9553 C 1688.05 8.05808 -1.51899 0
M  V30 9554 O 1688.44 8.74358 -0.335205 0
M  V30 9555 C 1688.93 6.83093 -1.70294 0
M  V30 9556 C 1688.22 5.79992 -0.836974 0
M  V30 9557 N 1688.27 4.41864 -1.38293 0
M  V30 9558 C 1688.19 3.99538 -2.69438 0
M  V30 9559 N 1688.27 2.69909 -2.84277 0
M  V30 9560 C 1688.41 2.21719 -1.5408 0
M  V30 9561 C 1688.54 0.891712 -1.06628 0
M  V30 9562 O 1688.56 -0.161298 -1.70137 0
M  V30 9563 N 1688.66 0.856846 0.334985 0
M  V30 9564 C 1688.66 1.9641 1.15789 0
M  V30 9565 N 1688.79 1.72708 2.46522 0
M  V30 9566 N 1688.53 3.21165 0.713741 0
M  V30 9567 C 1688.41 3.26797 -0.639748 0
M  V30 9568 H 1685.43 8.13644 -3.0377 0
M  V30 9569 H 1685.16 6.42788 -2.55485 0
M  V30 9570 H 1686.03 8.12039 -0.792769 0
M  V30 9571 H 1688.68 5.80061 0.166416 0
M  V30 9572 H 1688.96 6.51287 -2.75604 0
M  V30 9573 H 1689.95 7.01734 -1.34462 0
M  V30 9574 H 1688.12 8.73674 -2.38337 0
M  V30 9575 H 1688.07 4.68207 -3.53221 0
M  V30 9576 H 1688.75 -0.0398818 0.767965 0
M  V30 9577 H 1688.79 2.50995 3.13503 0
M  V30 9578 H 1688.89 0.759148 2.80716 0
M  V30 9579 P 1689.99 8.91 -9.60552e-12 0
M  V30 9580 O 1690.21 10.1726 0.733694 0
M  V30 9581 O 1690.78 8.73148 -1.23936 0
M  V30 9582 O 1690.24 7.66872 0.971405 0
M  V30 9583 C 1689.3 7.42309 2.04641 0
M  V30 9584 C 1690.03 6.86059 3.24661 0
M  V30 9585 O 1690.24 5.42847 3.03646 0
M  V30 9586 C 1691.43 7.41196 3.50753 0
M  V30 9587 O 1691.82 7.27073 4.86816 0
M  V30 9588 C 1692.31 6.5273 2.63741 0
M  V30 9589 C 1691.6 5.1842 2.73198 0
M  V30 9590 N 1691.65 4.38762 1.4784 0
M  V30 9591 H 1688.81 8.36803 2.32493 0
M  V30 9592 H 1688.54 6.70197 1.71129 0
M  V30 9593 H 1689.41 7.03551 4.13168 0
M  V30 9594 P 1693.37 7.20834 5.23717 0
M  V30 9595 O 1693.59 7.80006 6.57415 0
M  V30 9596 O 1694.16 7.79416 4.13051 0
M  V30 9597 O 1693.62 5.63315 5.29344 0
M  V30 9598 C 1692.68 4.80318 6.01954 0
M  V30 9599 C 1693.41 3.64202 6.65911 0
M  V30 9600 O 1693.62 2.60736 5.64823 0
M  V30 9601 C 1694.81 3.93521 7.19518 0
M  V30 9602 O 1695.2 3.02071 8.21205 0
M  V30 9603 C 1695.69 3.73047 5.97036 0
M  V30 9604 C 1694.98 2.58828 5.25741 0
M  V30 9605 N 1695.03 2.68068 3.77503 0
M  V30 9606 H 1692.19 5.40394 6.8003 0
M  V30 9607 H 1691.92 4.41741 5.32532 0
M  V30 9608 H 1692.79 3.26371 7.47889 0
M  V30 9609 H 1695.44 1.64007 5.56746 0
M  V30 9610 H 1695.72 4.63439 5.3432 0
M  V30 9611 H 1696.71 3.44776 6.25925 0
M  V30 9612 H 1694.88 4.96707 7.57347 0
M  V30 9613 P 1696.75 2.75334 8.47391 0
M  V30 9614 O 1696.97 2.44571 9.90142 0
M  V30 9615 O 1697.54 3.87688 7.92115 0
M  V30 9616 O 1697 1.4459 7.59357 0
M  V30 9617 C 1696.06 0.347608 7.69215 0
M  V30 9618 C 1696.79 -0.96767 7.52806 0
M  V30 9619 O 1697 -1.21036 6.1011 0
M  V30 9620 C 1698.19 -1.04544 8.13308 0
M  V30 9621 O 1698.58 -2.38311 8.41922 0
M  V30 9622 C 1699.07 -0.491279 7.02284 0
M  V30 9623 C 1698.36 -0.996264 5.77469 0
M  V30 9624 N 1698.41 -0.0501916 4.62973 0
M  V30 9625 H 1695.57 0.374722 8.67691 0
M  V30 9626 H 1695.3 0.443485 6.90277 0
M  V30 9627 H 1696.17 -1.75537 7.96793 0
M  V30 9628 P 1700.13 -2.75334 8.47391 0
M  V30 9629 O 1700.35 -3.84128 9.44797 0
M  V30 9630 O 1700.92 -1.51947 8.68712 0
M  V30 9631 O 1700.38 -3.29363 6.99321 0
M  V30 9632 C 1699.44 -4.24011 6.4274 0
M  V30 9633 C 1700.17 -5.20775 5.52155 0
M  V30 9634 O 1700.38 -4.56534 4.22446 0
M  V30 9635 C 1701.57 -5.62629 5.96531 0
M  V30 9636 O 1701.96 -6.87667 5.41053 0
M  V30 9637 C 1702.45 -4.52537 5.39283 0
M  V30 9638 C 1701.74 -4.20027 4.08623 0
M  V30 9639 N 1701.79 -2.76189 3.71603 0
M  V30 9640 H 1698.95 -4.797 7.24003 0
M  V30 9641 H 1698.68 -3.69856 5.84513 0
M  V30 9642 H 1699.55 -6.10356 5.41441 0
M  V30 9643 P 1703.51 -7.20834 5.23717 0
M  V30 9644 O 1703.73 -8.66104 5.38572 0
M  V30 9645 O 1704.3 -6.33544 6.1349 0
M  V30 9646 O 1703.76 -6.7751 3.72168 0
M  V30 9647 C 1702.82 -7.20825 2.7076 0
M  V30 9648 C 1703.55 -7.45864 1.40599 0
M  V30 9649 O 1703.76 -6.17651 0.734225 0
M  V30 9650 C 1704.95 -8.05808 1.51899 0
M  V30 9651 O 1705.34 -8.74358 0.335205 0
M  V30 9652 C 1705.83 -6.83093 1.70294 0
M  V30 9653 C 1705.12 -5.79992 0.836974 0
M  V30 9654 N 1705.17 -4.41864 1.38293 0
M  V30 9655 H 1702.33 -8.13644 3.0377 0
M  V30 9656 H 1702.06 -6.42788 2.55485 0
M  V30 9657 H 1702.93 -8.12039 0.792769 0
M  V30 9658 P 1706.89 -8.91 1.07145e-11 0
M  V30 9659 O 1707.11 -10.1726 -0.733694 0
M  V30 9660 O 1707.68 -8.73148 1.23936 0
M  V30 9661 O 1707.14 -7.66872 -0.971405 0
M  V30 9662 C 1706.2 -7.42309 -2.04641 0
M  V30 9663 C 1706.93 -6.86059 -3.24661 0
M  V30 9664 O 1707.14 -5.42847 -3.03646 0
M  V30 9665 C 1708.33 -7.41196 -3.50753 0
M  V30 9666 O 1708.72 -7.27073 -4.86816 0
M  V30 9667 C 1709.21 -6.5273 -2.63741 0
M  V30 9668 C 1708.5 -5.1842 -2.73198 0
M  V30 9669 N 1708.55 -4.38762 -1.4784 0
M  V30 9670 H 1705.71 -8.36803 -2.32493 0
M  V30 9671 H 1705.44 -6.70197 -1.71129 0
M  V30 9672 H 1706.31 -7.03551 -4.13168 0
M  V30 9673 P 1710.27 -7.20834 -5.23717 0
M  V30 9674 O 1710.49 -7.7993 -6.57351 0
M  V30 9675 O 1711.06 -7.79328 -4.13004 0
M  V30 9676 O 1710.52 -5.63315 -5.29344 0
M  V30 9677 C 1709.58 -4.80193 -6.01798 0
M  V30 9678 C 1710.31 -3.64202 -6.65911 0
M  V30 9679 O 1710.52 -2.60694 -5.64732 0
M  V30 9680 C 1711.71 -3.93473 -7.1943 0
M  V30 9681 O 1712.1 -3.02071 -8.21205 0
M  V30 9682 C 1712.59 -3.73047 -5.97036 0
M  V30 9683 C 1711.88 -2.58828 -5.25741 0
M  V30 9684 N 1711.93 -2.6801 -3.77422 0
M  V30 9685 C 1712.08 -1.50443 -3.07133 0
M  V30 9686 O 1712.17 -0.419406 -3.61576 0
M  V30 9687 N 1712.12 -1.6403 -1.69677 0
M  V30 9688 C 1712.03 -2.81206 -0.986255 0
M  V30 9689 C 1711.88 -3.99158 -1.80325 0
M  V30 9690 C 1711.83 -3.89779 -3.1476 0
M  V30 9691 H 1709.09 -5.40332 -6.79951 0
M  V30 9692 H 1708.82 -4.41549 -5.32301 0
M  V30 9693 H 1709.69 -3.26331 -7.47797 0
M  V30 9694 H 1712.34 -1.6395 -5.56554 0
M  V30 9695 H 1712.62 -4.63439 -5.3432 0
M  V30 9696 H 1713.61 -3.44728 -6.25838 0
M  V30 9697 H 1711.78 -4.96652 -7.57263 0
M  V30 9698 H 1711.71 -4.80159 -3.74441 0
M  V30 9699 P 1713.65 -2.75334 -8.47391 0
M  V30 9700 O 1713.87 -2.44571 -9.90142 0
M  V30 9701 O 1714.44 -3.87688 -7.92115 0
M  V30 9702 O 1713.9 -1.4459 -7.59357 0
M  V30 9703 C 1712.96 -0.347608 -7.69215 0
M  V30 9704 C 1713.69 0.96767 -7.52806 0
M  V30 9705 O 1713.9 1.21036 -6.1011 0
M  V30 9706 C 1715.09 1.04544 -8.13308 0
M  V30 9707 O 1715.48 2.38311 -8.41922 0
M  V30 9708 C 1715.97 0.491279 -7.02284 0
M  V30 9709 C 1715.26 0.996264 -5.77469 0
M  V30 9710 N 1715.31 0.0501916 -4.62973 0
M  V30 9711 H 1712.47 -0.374722 -8.67691 0
M  V30 9712 H 1712.2 -0.443485 -6.90277 0
M  V30 9713 H 1713.07 1.75537 -7.96793 0
M  V30 9714 P 1717.03 2.75334 -8.47391 0
M  V30 9715 O 1717.25 3.84128 -9.44797 0
M  V30 9716 O 1717.82 1.51947 -8.68712 0
M  V30 9717 O 1717.28 3.29363 -6.99321 0
M  V30 9718 C 1716.34 4.24011 -6.4274 0
M  V30 9719 C 1717.07 5.20775 -5.52155 0
M  V30 9720 O 1717.28 4.56534 -4.22446 0
M  V30 9721 C 1718.47 5.62629 -5.96531 0
M  V30 9722 O 1718.86 6.87667 -5.41053 0
M  V30 9723 C 1719.35 4.52537 -5.39283 0
M  V30 9724 C 1718.64 4.20027 -4.08623 0
M  V30 9725 N 1718.69 2.76189 -3.71603 0
M  V30 9726 H 1715.85 4.797 -7.24003 0
M  V30 9727 H 1715.58 3.69856 -5.84513 0
M  V30 9728 H 1716.45 6.10356 -5.41441 0
M  V30 9729 P 1720.41 7.20834 -5.23717 0
M  V30 9730 O 1720.63 8.66104 -5.38572 0
M  V30 9731 O 1721.2 6.33544 -6.1349 0
M  V30 9732 O 1720.66 6.7751 -3.72168 0
M  V30 9733 C 1719.72 7.20825 -2.7076 0
M  V30 9734 C 1720.45 7.45864 -1.40599 0
M  V30 9735 O 1720.66 6.17651 -0.734225 0
M  V30 9736 C 1721.85 8.05808 -1.51899 0
M  V30 9737 O 1722.24 8.74358 -0.335205 0
M  V30 9738 C 1722.73 6.83093 -1.70294 0
M  V30 9739 C 1722.02 5.79992 -0.836974 0
M  V30 9740 N 1722.07 4.41864 -1.38293 0
M  V30 9741 H 1719.23 8.13644 -3.0377 0
M  V30 9742 H 1718.96 6.42788 -2.55485 0
M  V30 9743 H 1719.83 8.12039 -0.792769 0
M  V30 9744 P 1723.79 8.91 -1.18235e-11 0
M  V30 9745 O 1724.01 10.1726 0.733694 0
M  V30 9746 O 1724.58 8.73148 -1.23936 0
M  V30 9747 O 1724.04 7.66872 0.971405 0
M  V30 9748 C 1723.1 7.42309 2.04641 0
M  V30 9749 C 1723.83 6.86059 3.24661 0
M  V30 9750 O 1724.04 5.42847 3.03646 0
M  V30 9751 C 1725.23 7.41196 3.50753 0
M  V30 9752 O 1725.62 7.27073 4.86816 0
M  V30 9753 C 1726.11 6.5273 2.63741 0
M  V30 9754 C 1725.4 5.1842 2.73198 0
M  V30 9755 N 1725.45 4.38762 1.4784 0
M  V30 9756 H 1722.61 8.36803 2.32493 0
M  V30 9757 H 1722.34 6.70197 1.71129 0
M  V30 9758 H 1723.21 7.03551 4.13168 0
M  V30 9759 P 1727.17 7.20834 5.23717 0
M  V30 9760 O 1727.39 7.79853 6.57286 0
M  V30 9761 O 1727.96 7.79239 4.12957 0
M  V30 9762 O 1727.42 5.63315 5.29344 0
M  V30 9763 C 1726.48 4.80255 6.01876 0
M  V30 9764 C 1727.21 3.64202 6.65911 0
M  V30 9765 O 1727.42 2.60694 5.64732 0
M  V30 9766 C 1728.61 3.93473 7.1943 0
M  V30 9767 O 1729 3.02071 8.21205 0
M  V30 9768 C 1729.49 3.73047 5.97036 0
M  V30 9769 C 1728.78 2.58828 5.25741 0
M  V30 9770 N 1728.83 2.68068 3.77503 0
M  V30 9771 H 1725.99 5.40332 6.79951 0
M  V30 9772 H 1725.72 4.41613 5.32378 0
M  V30 9773 H 1726.59 3.26331 7.47797 0
M  V30 9774 P 1730.55 2.75334 8.47391 0
M  V30 9775 O 1730.77 2.44571 9.90142 0
M  V30 9776 O 1731.34 3.87688 7.92115 0
M  V30 9777 O 1730.8 1.4459 7.59357 0
M  V30 9778 C 1729.86 0.347608 7.69215 0
M  V30 9779 C 1730.59 -0.96767 7.52806 0
M  V30 9780 O 1730.8 -1.21036 6.1011 0
M  V30 9781 C 1731.99 -1.04544 8.13308 0
M  V30 9782 O 1732.38 -2.38311 8.41922 0
M  V30 9783 C 1732.87 -0.491279 7.02284 0
M  V30 9784 C 1732.16 -0.996264 5.77469 0
M  V30 9785 N 1732.21 -0.0501916 4.62973 0
M  V30 9786 H 1729.37 0.374722 8.67691 0
M  V30 9787 H 1729.1 0.443485 6.90277 0
M  V30 9788 H 1729.97 -1.75537 7.96793 0
M  V30 9789 P 1733.93 -2.75334 8.47391 0
M  V30 9790 O 1734.15 -3.84128 9.44797 0
M  V30 9791 O 1734.72 -1.51947 8.68712 0
M  V30 9792 O 1734.18 -3.29363 6.99321 0
M  V30 9793 C 1733.24 -4.24011 6.4274 0
M  V30 9794 C 1733.97 -5.20775 5.52155 0
M  V30 9795 O 1734.18 -4.56534 4.22446 0
M  V30 9796 C 1735.37 -5.62629 5.96531 0
M  V30 9797 O 1735.76 -6.87667 5.41053 0
M  V30 9798 C 1736.25 -4.52537 5.39283 0
M  V30 9799 C 1735.54 -4.20027 4.08623 0
M  V30 9800 N 1735.59 -2.76189 3.71603 0
M  V30 9801 H 1732.75 -4.797 7.24003 0
M  V30 9802 H 1732.48 -3.69856 5.84513 0
M  V30 9803 H 1733.35 -6.10356 5.41441 0
M  V30 9804 P 1737.31 -7.20834 5.23717 0
M  V30 9805 O 1737.53 -8.66104 5.38572 0
M  V30 9806 O 1738.1 -6.33544 6.1349 0
M  V30 9807 O 1737.56 -6.7751 3.72168 0
M  V30 9808 C 1736.62 -7.20825 2.7076 0
M  V30 9809 C 1737.35 -7.45864 1.40599 0
M  V30 9810 O 1737.56 -6.17651 0.734225 0
M  V30 9811 C 1738.75 -8.05808 1.51899 0
M  V30 9812 O 1739.14 -8.74358 0.335205 0
M  V30 9813 C 1739.63 -6.83093 1.70294 0
M  V30 9814 C 1738.92 -5.79992 0.836974 0
M  V30 9815 N 1738.97 -4.41864 1.38293 0
M  V30 9816 H 1736.13 -8.13644 3.0377 0
M  V30 9817 H 1735.86 -6.42788 2.55485 0
M  V30 9818 H 1736.73 -8.12039 0.792769 0
M  V30 9819 P 1740.69 -8.91 1.29325e-11 0
M  V30 9820 O 1740.91 -10.1726 -0.733694 0
M  V30 9821 O 1741.48 -8.73148 1.23936 0
M  V30 9822 O 1740.94 -7.66872 -0.971405 0
M  V30 9823 C 1740 -7.42309 -2.04641 0
M  V30 9824 C 1740.73 -6.86059 -3.24661 0
M  V30 9825 O 1740.94 -5.42847 -3.03646 0
M  V30 9826 C 1742.13 -7.41196 -3.50753 0
M  V30 9827 O 1742.52 -7.27073 -4.86816 0
M  V30 9828 C 1743.01 -6.5273 -2.63741 0
M  V30 9829 C 1742.3 -5.1842 -2.73198 0
M  V30 9830 N 1742.35 -4.38762 -1.4784 0
M  V30 9831 H 1739.51 -8.36803 -2.32493 0
M  V30 9832 H 1739.24 -6.70197 -1.71129 0
M  V30 9833 H 1740.11 -7.03551 -4.13168 0
M  V30 9834 P 1744.07 -7.20834 -5.23717 0
M  V30 9835 O 1744.29 -7.79853 -6.57286 0
M  V30 9836 O 1744.86 -7.79239 -4.12957 0
M  V30 9837 O 1744.32 -5.63315 -5.29344 0
M  V30 9838 C 1743.38 -4.80255 -6.01876 0
M  V30 9839 C 1744.11 -3.64202 -6.65911 0
M  V30 9840 O 1744.32 -2.60694 -5.64732 0
M  V30 9841 C 1745.51 -3.93473 -7.1943 0
M  V30 9842 O 1745.9 -3.02071 -8.21205 0
M  V30 9843 C 1746.39 -3.73047 -5.97036 0
M  V30 9844 C 1745.68 -2.58828 -5.25741 0
M  V30 9845 N 1745.73 -2.68068 -3.77503 0
M  V30 9846 H 1742.89 -5.40332 -6.79951 0
M  V30 9847 H 1742.62 -4.41613 -5.32378 0
M  V30 9848 H 1743.49 -3.26331 -7.47797 0
M  V30 9849 P 1747.45 -2.75334 -8.47391 0
M  V30 9850 O 1747.67 -2.44571 -9.90142 0
M  V30 9851 O 1748.24 -3.87688 -7.92115 0
M  V30 9852 O 1747.7 -1.4459 -7.59357 0
M  V30 9853 C 1746.76 -0.347608 -7.69215 0
M  V30 9854 C 1747.49 0.96767 -7.52806 0
M  V30 9855 O 1747.7 1.21036 -6.1011 0
M  V30 9856 C 1748.89 1.04544 -8.13308 0
M  V30 9857 O 1749.28 2.38311 -8.41922 0
M  V30 9858 C 1749.77 0.491279 -7.02284 0
M  V30 9859 C 1749.06 0.996264 -5.77469 0
M  V30 9860 N 1749.11 0.0501916 -4.62973 0
M  V30 9861 H 1746.27 -0.374722 -8.67691 0
M  V30 9862 H 1746 -0.443485 -6.90277 0
M  V30 9863 H 1746.87 1.75537 -7.96793 0
M  V30 9864 P 1750.83 2.75334 -8.47391 0
M  V30 9865 O 1751.05 3.84128 -9.44797 0
M  V30 9866 O 1751.62 1.51947 -8.68712 0
M  V30 9867 O 1751.08 3.29363 -6.99321 0
M  V30 9868 C 1750.14 4.24011 -6.4274 0
M  V30 9869 C 1750.87 5.20775 -5.52155 0
M  V30 9870 O 1751.08 4.56534 -4.22446 0
M  V30 9871 C 1752.27 5.62629 -5.96531 0
M  V30 9872 O 1752.66 6.87667 -5.41053 0
M  V30 9873 C 1753.15 4.52537 -5.39283 0
M  V30 9874 C 1752.44 4.20027 -4.08623 0
M  V30 9875 N 1752.49 2.76189 -3.71603 0
M  V30 9876 H 1749.65 4.797 -7.24003 0
M  V30 9877 H 1749.38 3.69856 -5.84513 0
M  V30 9878 H 1750.25 6.10356 -5.41441 0
M  V30 9879 P 1754.21 7.20834 -5.23717 0
M  V30 9880 O 1754.43 8.66104 -5.38572 0
M  V30 9881 O 1755 6.33544 -6.1349 0
M  V30 9882 O 1754.46 6.7751 -3.72168 0
M  V30 9883 C 1753.52 7.20825 -2.7076 0
M  V30 9884 C 1754.25 7.45864 -1.40599 0
M  V30 9885 O 1754.46 6.17651 -0.734225 0
M  V30 9886 C 1755.65 8.05808 -1.51899 0
M  V30 9887 O 1756.04 8.74358 -0.335205 0
M  V30 9888 C 1756.53 6.83093 -1.70294 0
M  V30 9889 C 1755.82 5.79992 -0.836974 0
M  V30 9890 N 1755.87 4.41864 -1.38293 0
M  V30 9891 H 1753.03 8.13644 -3.0377 0
M  V30 9892 H 1752.76 6.42788 -2.55485 0
M  V30 9893 H 1753.63 8.12039 -0.792769 0
M  V30 9894 P 1757.59 8.91 -1.40415e-11 0
M  V30 9895 O 1757.81 10.1726 0.733694 0
M  V30 9896 O 1758.38 8.73148 -1.23936 0
M  V30 9897 O 1757.84 7.66872 0.971405 0
M  V30 9898 C 1756.9 7.42309 2.04641 0
M  V30 9899 C 1757.63 6.86059 3.24661 0
M  V30 9900 O 1757.84 5.42847 3.03646 0
M  V30 9901 C 1759.03 7.41196 3.50753 0
M  V30 9902 O 1759.42 7.27073 4.86816 0
M  V30 9903 C 1759.91 6.5273 2.63741 0
M  V30 9904 C 1759.2 5.1842 2.73198 0
M  V30 9905 N 1759.25 4.38762 1.4784 0
M  V30 9906 H 1756.41 8.36803 2.32493 0
M  V30 9907 H 1756.14 6.70197 1.71129 0
M  V30 9908 H 1757.01 7.03551 4.13168 0
M  V30 9909 P 1760.97 7.20834 5.23717 0
M  V30 9910 O 1761.19 7.79853 6.57286 0
M  V30 9911 O 1761.76 7.79239 4.12957 0
M  V30 9912 O 1761.22 5.63315 5.29344 0
M  V30 9913 C 1760.28 4.80255 6.01876 0
M  V30 9914 C 1761.01 3.64202 6.65911 0
M  V30 9915 O 1761.22 2.60694 5.64732 0
M  V30 9916 C 1762.41 3.93473 7.1943 0
M  V30 9917 O 1762.8 3.02071 8.21205 0
M  V30 9918 C 1763.29 3.73047 5.97036 0
M  V30 9919 C 1762.58 2.58828 5.25741 0
M  V30 9920 N 1762.63 2.68068 3.77503 0
M  V30 9921 H 1759.79 5.40332 6.79951 0
M  V30 9922 H 1759.52 4.41613 5.32378 0
M  V30 9923 H 1760.39 3.26331 7.47797 0
M  V30 9924 P 1764.35 2.75334 8.47391 0
M  V30 9925 O 1764.57 2.44595 9.90239 0
M  V30 9926 O 1765.14 3.87732 7.92204 0
M  V30 9927 O 1764.6 1.4459 7.59357 0
M  V30 9928 C 1763.66 0.347563 7.69115 0
M  V30 9929 C 1764.39 -0.96767 7.52806 0
M  V30 9930 O 1764.6 -1.21036 6.1011 0
M  V30 9931 C 1765.79 -1.04544 8.13308 0
M  V30 9932 O 1766.18 -2.38311 8.41922 0
M  V30 9933 C 1766.67 -0.491279 7.02284 0
M  V30 9934 C 1765.96 -0.996264 5.77469 0
M  V30 9935 N 1766.01 -0.0501808 4.62873 0
M  V30 9936 C 1766.16 -0.588177 3.36904 0
M  V30 9937 O 1766.25 -1.78598 3.17173 0
M  V30 9938 N 1766.2 0.329694 2.33686 0
M  V30 9939 C 1766.11 1.6953 2.45079 0
M  V30 9940 O 1766.16 2.41926 1.44899 0
M  V30 9941 C 1765.96 2.16933 3.80505 0
M  V30 9942 C 1765.85 3.65373 3.97621 0
M  V30 9943 C 1765.91 1.30326 4.83752 0
M  V30 9944 H 1763.17 0.374722 8.67691 0
M  V30 9945 H 1762.9 0.443421 6.90177 0
M  V30 9946 H 1763.77 -1.75537 7.96793 0
M  V30 9947 H 1766.42 -1.94496 5.46629 0
M  V30 9948 H 1766.7 0.608651 7.04676 0
M  V30 9949 H 1767.69 -0.889672 7.08939 0
M  V30 9950 H 1765.86 -0.43308 9.04564 0
M  V30 9951 H 1765.79 1.68366 5.8516 0
M  V30 9952 H 1766.82 4.05985 4.30448 0
M  V30 9953 H 1765.08 3.88028 4.72875 0
M  V30 9954 H 1765.57 4.11381 3.01609 0
M  V30 9955 H 1766.31 -0.0393617 1.41345 0
M  V30 9956 P 1767.73 -2.75334 8.47391 0
M  V30 9957 O 1767.95 -3.84166 9.4489 0
M  V30 9958 O 1768.52 -1.51964 8.6881 0
M  V30 9959 O 1767.98 -3.29363 6.99321 0
M  V30 9960 C 1767.04 -4.23956 6.42656 0
M  V30 9961 C 1767.77 -5.20775 5.52155 0
M  V30 9962 O 1767.98 -4.56534 4.22446 0
M  V30 9963 C 1769.17 -5.62629 5.96531 0
M  V30 9964 O 1769.56 -6.87667 5.41053 0
M  V30 9965 C 1770.05 -4.52537 5.39283 0
M  V30 9966 C 1769.34 -4.20027 4.08623 0
M  V30 9967 N 1769.39 -2.7613 3.71522 0
M  V30 9968 C 1769.54 -2.45612 2.37989 0
M  V30 9969 O 1769.63 -3.30919 1.51621 0
M  V30 9970 N 1769.58 -1.10684 2.08435 0
M  V30 9971 C 1769.49 -0.0690084 2.9792 0
M  V30 9972 C 1769.34 -0.481522 4.35345 0
M  V30 9973 C 1769.29 -1.78906 4.67968 0
M  V30 9974 H 1766.55 -4.797 7.24003 0
M  V30 9975 H 1766.28 -3.69802 5.84429 0
M  V30 9976 H 1767.15 -6.10356 5.41441 0
M  V30 9977 H 1769.8 -4.78651 3.27911 0
M  V30 9978 H 1770.08 -3.64957 6.05871 0
M  V30 9979 H 1771.07 -4.8868 5.2125 0
M  V30 9980 H 1769.24 -5.66726 7.06352 0
M  V30 9981 H 1769.17 -2.07737 5.72367 0
M  V30 9982 P 1771.11 -7.20834 5.23717 0
M  V30 9983 O 1771.33 -8.66104 5.38572 0
M  V30 9984 O 1771.9 -6.33544 6.1349 0
M  V30 9985 O 1771.36 -6.7751 3.72168 0
M  V30 9986 C 1770.42 -7.20825 2.7076 0
M  V30 9987 C 1771.15 -7.45864 1.40599 0
M  V30 9988 O 1771.36 -6.17651 0.734225 0
M  V30 9989 C 1772.55 -8.05808 1.51899 0
M  V30 9990 O 1772.94 -8.74358 0.335205 0
M  V30 9991 C 1773.43 -6.83093 1.70294 0
M  V30 9992 C 1772.72 -5.79992 0.836974 0
M  V30 9993 N 1772.77 -4.41864 1.38293 0
M  V30 9994 H 1769.93 -8.13644 3.0377 0
M  V30 9995 H 1769.66 -6.42788 2.55485 0
M  V30 9996 H 1770.53 -8.12039 0.792769 0
M  V30 9997 P 1774.49 -8.91 1.51505e-11 0
M  V30 9998 O 1774.71 -10.1726 -0.733694 0
M  V30 9999 O 1775.28 -8.73148 1.23936 0
M  V30 10000 O 1774.74 -7.66872 -0.971405 0
M  V30 10001 C 1773.8 -7.42309 -2.04641 0
M  V30 10002 C 1774.53 -6.86059 -3.24661 0
M  V30 10003 O 1774.74 -5.42847 -3.03646 0
M  V30 10004 C 1775.93 -7.41196 -3.50753 0
M  V30 10005 O 1776.32 -7.27073 -4.86816 0
M  V30 10006 C 1776.81 -6.5273 -2.63741 0
M  V30 10007 C 1776.1 -5.1842 -2.73198 0
M  V30 10008 N 1776.15 -4.38762 -1.4784 0
M  V30 10009 H 1773.31 -8.36803 -2.32493 0
M  V30 10010 H 1773.04 -6.70197 -1.71129 0
M  V30 10011 H 1773.91 -7.03551 -4.13168 0
M  V30 10012 P 1777.87 -7.20834 -5.23717 0
M  V30 10013 O 1778.09 -7.79853 -6.57286 0
M  V30 10014 O 1778.66 -7.79239 -4.12957 0
M  V30 10015 O 1778.12 -5.63315 -5.29344 0
M  V30 10016 C 1777.18 -4.80255 -6.01876 0
M  V30 10017 C 1777.91 -3.64202 -6.65911 0
M  V30 10018 O 1778.12 -2.60694 -5.64732 0
M  V30 10019 C 1779.31 -3.93473 -7.1943 0
M  V30 10020 O 1779.7 -3.02071 -8.21205 0
M  V30 10021 C 1780.19 -3.73047 -5.97036 0
M  V30 10022 C 1779.48 -2.58828 -5.25741 0
M  V30 10023 N 1779.53 -2.68068 -3.77503 0
M  V30 10024 H 1776.69 -5.40332 -6.79951 0
M  V30 10025 H 1776.42 -4.41613 -5.32378 0
M  V30 10026 H 1777.29 -3.26331 -7.47797 0
M  V30 10027 P 1781.25 -2.75334 -8.47391 0
M  V30 10028 O 1781.47 -2.44571 -9.90142 0
M  V30 10029 O 1782.04 -3.87688 -7.92115 0
M  V30 10030 O 1781.5 -1.4459 -7.59357 0
M  V30 10031 C 1780.56 -0.347608 -7.69215 0
M  V30 10032 C 1781.29 0.96767 -7.52806 0
M  V30 10033 O 1781.5 1.21036 -6.1011 0
M  V30 10034 C 1782.69 1.04544 -8.13308 0
M  V30 10035 O 1783.08 2.38311 -8.41922 0
M  V30 10036 C 1783.57 0.491279 -7.02284 0
M  V30 10037 C 1782.86 0.996264 -5.77469 0
M  V30 10038 N 1782.91 0.0501916 -4.62973 0
M  V30 10039 H 1780.07 -0.374722 -8.67691 0
M  V30 10040 H 1779.8 -0.443485 -6.90277 0
M  V30 10041 H 1780.67 1.75537 -7.96793 0
M  V30 10042 P 1784.63 2.75334 -8.47391 0
M  V30 10043 O 1784.85 3.84128 -9.44797 0
M  V30 10044 O 1785.42 1.51947 -8.68712 0
M  V30 10045 O 1784.88 3.29363 -6.99321 0
M  V30 10046 C 1783.94 4.24011 -6.4274 0
M  V30 10047 C 1784.67 5.20775 -5.52155 0
M  V30 10048 O 1784.88 4.56534 -4.22446 0
M  V30 10049 C 1786.07 5.62629 -5.96531 0
M  V30 10050 O 1786.46 6.87667 -5.41053 0
M  V30 10051 C 1786.95 4.52537 -5.39283 0
M  V30 10052 C 1786.24 4.20027 -4.08623 0
M  V30 10053 N 1786.29 2.76189 -3.71603 0
M  V30 10054 H 1783.45 4.797 -7.24003 0
M  V30 10055 H 1783.18 3.69856 -5.84513 0
M  V30 10056 H 1784.05 6.10356 -5.41441 0
M  V30 10057 P 1788.01 7.20834 -5.23717 0
M  V30 10058 O 1788.23 8.66104 -5.38572 0
M  V30 10059 O 1788.8 6.33544 -6.1349 0
M  V30 10060 O 1788.26 6.7751 -3.72168 0
M  V30 10061 C 1787.32 7.20825 -2.7076 0
M  V30 10062 C 1788.05 7.45864 -1.40599 0
M  V30 10063 O 1788.26 6.17651 -0.734225 0
M  V30 10064 C 1789.45 8.05808 -1.51899 0
M  V30 10065 O 1789.84 8.74358 -0.335205 0
M  V30 10066 C 1790.33 6.83093 -1.70294 0
M  V30 10067 C 1789.62 5.79992 -0.836974 0
M  V30 10068 N 1789.67 4.41864 -1.38293 0
M  V30 10069 H 1786.83 8.13644 -3.0377 0
M  V30 10070 H 1786.56 6.42788 -2.55485 0
M  V30 10071 H 1787.43 8.12039 -0.792769 0
M  V30 10072 P 1791.39 8.91 -1.62595e-11 0
M  V30 10073 O 1791.61 10.1726 0.733694 0
M  V30 10074 O 1792.18 8.73148 -1.23936 0
M  V30 10075 O 1791.64 7.66872 0.971405 0
M  V30 10076 C 1790.7 7.42309 2.04641 0
M  V30 10077 C 1791.43 6.86059 3.24661 0
M  V30 10078 O 1791.64 5.42847 3.03646 0
M  V30 10079 C 1792.83 7.41196 3.50753 0
M  V30 10080 O 1793.22 7.27073 4.86816 0
M  V30 10081 C 1793.71 6.5273 2.63741 0
M  V30 10082 C 1793 5.1842 2.73198 0
M  V30 10083 N 1793.05 4.38762 1.4784 0
M  V30 10084 H 1790.21 8.36803 2.32493 0
M  V30 10085 H 1789.94 6.70197 1.71129 0
M  V30 10086 H 1790.81 7.03551 4.13168 0
M  V30 10087 P 1794.77 7.20834 5.23717 0
M  V30 10088 O 1794.99 7.79853 6.57286 0
M  V30 10089 O 1795.56 7.79239 4.12957 0
M  V30 10090 O 1795.02 5.63315 5.29344 0
M  V30 10091 C 1794.08 4.80255 6.01876 0
M  V30 10092 C 1794.81 3.64202 6.65911 0
M  V30 10093 O 1795.02 2.60694 5.64732 0
M  V30 10094 C 1796.21 3.93473 7.1943 0
M  V30 10095 O 1796.6 3.02071 8.21205 0
M  V30 10096 C 1797.09 3.73047 5.97036 0
M  V30 10097 C 1796.38 2.58828 5.25741 0
M  V30 10098 N 1796.43 2.68068 3.77503 0
M  V30 10099 H 1793.59 5.40332 6.79951 0
M  V30 10100 H 1793.32 4.41613 5.32378 0
M  V30 10101 H 1794.19 3.26331 7.47797 0
M  V30 10102 P 1798.15 2.75334 8.47391 0
M  V30 10103 O 1798.37 2.44595 9.90239 0
M  V30 10104 O 1798.94 3.87732 7.92204 0
M  V30 10105 O 1798.4 1.4459 7.59357 0
M  V30 10106 C 1797.46 0.347563 7.69115 0
M  V30 10107 C 1798.19 -0.96767 7.52806 0
M  V30 10108 O 1798.4 -1.21036 6.1011 0
M  V30 10109 C 1799.59 -1.04544 8.13308 0
M  V30 10110 O 1799.98 -2.38311 8.41922 0
M  V30 10111 C 1800.47 -0.491279 7.02284 0
M  V30 10112 C 1799.76 -0.996264 5.77469 0
M  V30 10113 N 1799.81 -0.0501808 4.62873 0
M  V30 10114 C 1799.96 -0.588177 3.36904 0
M  V30 10115 O 1800.05 -1.78598 3.17173 0
M  V30 10116 N 1800 0.329694 2.33686 0
M  V30 10117 C 1799.91 1.6953 2.45079 0
M  V30 10118 O 1799.96 2.41926 1.44899 0
M  V30 10119 C 1799.76 2.16933 3.80505 0
M  V30 10120 C 1799.65 3.65373 3.97621 0
M  V30 10121 C 1799.71 1.30326 4.83752 0
M  V30 10122 H 1796.97 0.374722 8.67691 0
M  V30 10123 H 1796.7 0.443421 6.90177 0
M  V30 10124 H 1797.57 -1.75537 7.96793 0
M  V30 10125 H 1800.22 -1.94496 5.46629 0
M  V30 10126 H 1800.5 0.608651 7.04676 0
M  V30 10127 H 1801.49 -0.889672 7.08939 0
M  V30 10128 H 1799.66 -0.43308 9.04564 0
M  V30 10129 H 1799.59 1.68366 5.8516 0
M  V30 10130 H 1800.62 4.05985 4.30448 0
M  V30 10131 H 1798.88 3.88028 4.72875 0
M  V30 10132 H 1799.37 4.11381 3.01609 0
M  V30 10133 H 1800.11 -0.0393617 1.41345 0
M  V30 10134 P 1801.53 -2.75334 8.47391 0
M  V30 10135 O 1801.75 -3.84166 9.4489 0
M  V30 10136 O 1802.32 -1.51964 8.6881 0
M  V30 10137 O 1801.78 -3.29363 6.99321 0
M  V30 10138 C 1800.84 -4.23956 6.42656 0
M  V30 10139 C 1801.57 -5.20775 5.52155 0
M  V30 10140 O 1801.78 -4.56534 4.22446 0
M  V30 10141 C 1802.97 -5.62629 5.96531 0
M  V30 10142 O 1803.36 -6.87667 5.41053 0
M  V30 10143 C 1803.85 -4.52537 5.39283 0
M  V30 10144 C 1803.14 -4.20027 4.08623 0
M  V30 10145 N 1803.19 -2.7613 3.71522 0
M  V30 10146 C 1803.34 -2.45612 2.37989 0
M  V30 10147 O 1803.43 -3.30919 1.51621 0
M  V30 10148 N 1803.38 -1.10684 2.08435 0
M  V30 10149 C 1803.29 -0.0690084 2.9792 0
M  V30 10150 O 1803.34 1.10553 2.59426 0
M  V30 10151 C 1803.14 -0.481522 4.35345 0
M  V30 10152 C 1803.03 0.618778 5.36443 0
M  V30 10153 C 1803.09 -1.78906 4.67968 0
M  V30 10154 H 1800.35 -4.797 7.24003 0
M  V30 10155 H 1800.08 -3.69802 5.84429 0
M  V30 10156 H 1800.95 -6.10356 5.41441 0
M  V30 10157 H 1803.6 -4.78651 3.27911 0
M  V30 10158 H 1803.88 -3.64957 6.05871 0
M  V30 10159 H 1804.87 -4.8868 5.2125 0
M  V30 10160 H 1803.04 -5.66726 7.06352 0
M  V30 10161 H 1802.97 -2.07737 5.72367 0
M  V30 10162 H 1804 0.754375 5.86871 0
M  V30 10163 H 1802.26 0.359721 6.10641 0
M  V30 10164 H 1802.75 1.55533 4.8581 0
M  V30 10165 H 1803.49 -0.862651 1.12037 0
M  V30 10166 P 1804.91 -7.20834 5.23717 0
M  V30 10167 O 1805.13 -8.66104 5.38572 0
M  V30 10168 O 1805.7 -6.33544 6.1349 0
M  V30 10169 O 1805.16 -6.7751 3.72168 0
M  V30 10170 C 1804.22 -7.20825 2.7076 0
M  V30 10171 C 1804.95 -7.45864 1.40599 0
M  V30 10172 O 1805.16 -6.17651 0.734225 0
M  V30 10173 C 1806.35 -8.05808 1.51899 0
M  V30 10174 O 1806.74 -8.74358 0.335205 0
M  V30 10175 C 1807.23 -6.83093 1.70294 0
M  V30 10176 C 1806.52 -5.79992 0.836974 0
M  V30 10177 N 1806.57 -4.41864 1.38293 0
M  V30 10178 H 1803.73 -8.13644 3.0377 0
M  V30 10179 H 1803.46 -6.42788 2.55485 0
M  V30 10180 H 1804.33 -8.12039 0.792769 0
M  V30 10181 P 1808.29 -8.91 1.73686e-11 0
M  V30 10182 O 1808.51 -10.1726 -0.733694 0
M  V30 10183 O 1809.08 -8.73148 1.23936 0
M  V30 10184 O 1808.54 -7.66872 -0.971405 0
M  V30 10185 C 1807.6 -7.42309 -2.04641 0
M  V30 10186 C 1808.33 -6.86059 -3.24661 0
M  V30 10187 O 1808.54 -5.42847 -3.03646 0
M  V30 10188 C 1809.73 -7.41196 -3.50753 0
M  V30 10189 O 1810.12 -7.27073 -4.86816 0
M  V30 10190 C 1810.61 -6.5273 -2.63741 0
M  V30 10191 C 1809.9 -5.1842 -2.73198 0
M  V30 10192 N 1809.95 -4.38762 -1.4784 0
M  V30 10193 H 1807.11 -8.36803 -2.32493 0
M  V30 10194 H 1806.84 -6.70197 -1.71129 0
M  V30 10195 H 1807.71 -7.03551 -4.13168 0
M  V30 10196 P 1811.67 -7.20834 -5.23717 0
M  V30 10197 O 1811.89 -7.79853 -6.57286 0
M  V30 10198 O 1812.46 -7.79239 -4.12957 0
M  V30 10199 O 1811.92 -5.63315 -5.29344 0
M  V30 10200 C 1810.98 -4.80255 -6.01876 0
M  V30 10201 C 1811.71 -3.64202 -6.65911 0
M  V30 10202 O 1811.92 -2.60694 -5.64732 0
M  V30 10203 C 1813.11 -3.93473 -7.1943 0
M  V30 10204 O 1813.5 -3.02071 -8.21205 0
M  V30 10205 C 1813.99 -3.73047 -5.97036 0
M  V30 10206 C 1813.28 -2.58828 -5.25741 0
M  V30 10207 N 1813.33 -2.68068 -3.77503 0
M  V30 10208 H 1810.49 -5.40332 -6.79951 0
M  V30 10209 H 1810.22 -4.41613 -5.32378 0
M  V30 10210 H 1811.09 -3.26331 -7.47797 0
M  V30 10211 P 1815.05 -2.75334 -8.47391 0
M  V30 10212 O 1815.27 -2.44571 -9.90142 0
M  V30 10213 O 1815.84 -3.87688 -7.92115 0
M  V30 10214 O 1815.3 -1.4459 -7.59357 0
M  V30 10215 C 1814.36 -0.347608 -7.69215 0
M  V30 10216 C 1815.09 0.96767 -7.52806 0
M  V30 10217 O 1815.3 1.21036 -6.1011 0
M  V30 10218 C 1816.49 1.04544 -8.13308 0
M  V30 10219 O 1816.88 2.38311 -8.41922 0
M  V30 10220 C 1817.37 0.491279 -7.02284 0
M  V30 10221 C 1816.66 0.996264 -5.77469 0
M  V30 10222 N 1816.71 0.0501916 -4.62973 0
M  V30 10223 H 1813.87 -0.374722 -8.67691 0
M  V30 10224 H 1813.6 -0.443485 -6.90277 0
M  V30 10225 H 1814.47 1.75537 -7.96793 0
M  V30 10226 P 1818.43 2.75334 -8.47391 0
M  V30 10227 O 1818.65 3.84128 -9.44797 0
M  V30 10228 O 1819.22 1.51947 -8.68712 0
M  V30 10229 O 1818.68 3.29363 -6.99321 0
M  V30 10230 C 1817.74 4.24011 -6.4274 0
M  V30 10231 C 1818.47 5.20775 -5.52155 0
M  V30 10232 O 1818.68 4.56534 -4.22446 0
M  V30 10233 C 1819.87 5.62629 -5.96531 0
M  V30 10234 O 1820.26 6.87667 -5.41053 0
M  V30 10235 C 1820.75 4.52537 -5.39283 0
M  V30 10236 C 1820.04 4.20027 -4.08623 0
M  V30 10237 N 1820.09 2.76189 -3.71603 0
M  V30 10238 C 1820.01 1.64862 -4.52822 0
M  V30 10239 N 1820.09 0.512671 -3.88633 0
M  V30 10240 C 1820.23 0.888083 -2.54977 0
M  V30 10241 C 1820.36 0.094668 -1.38677 0
M  V30 10242 O 1820.38 -1.13053 -1.28163 0
M  V30 10243 N 1820.48 0.890102 -0.232633 0
M  V30 10244 C 1820.48 2.26958 -0.21772 0
M  V30 10245 N 1820.61 2.84626 0.97925 0
M  V30 10246 N 1820.35 3.0178 -1.31033 0
M  V30 10247 C 1820.23 2.26781 -2.43843 0
M  V30 10248 H 1817.25 4.797 -7.24003 0
M  V30 10249 H 1816.98 3.69856 -5.84513 0
M  V30 10250 H 1817.85 6.10356 -5.41441 0
M  V30 10251 H 1820.5 4.79061 -3.27488 0
M  V30 10252 H 1820.78 3.64906 -6.05785 0
M  V30 10253 H 1821.77 4.8868 -5.2125 0
M  V30 10254 H 1819.94 5.66726 -7.06352 0
M  V30 10255 H 1819.89 1.71169 -5.60966 0
M  V30 10256 H 1820.57 0.419134 0.644739 0
M  V30 10257 H 1820.61 3.87332 1.06098 0
M  V30 10258 H 1820.71 2.26417 1.82483 0
M  V30 10259 P 1821.81 7.20834 -5.23717 0
M  V30 10260 O 1822.03 8.66104 -5.38572 0
M  V30 10261 O 1822.6 6.33544 -6.1349 0
M  V30 10262 O 1822.06 6.7751 -3.72168 0
M  V30 10263 C 1821.12 7.20825 -2.7076 0
M  V30 10264 C 1821.85 7.45864 -1.40599 0
M  V30 10265 O 1822.06 6.17651 -0.734225 0
M  V30 10266 C 1823.25 8.05808 -1.51899 0
M  V30 10267 O 1823.64 8.74358 -0.335205 0
M  V30 10268 C 1824.13 6.83093 -1.70294 0
M  V30 10269 C 1823.42 5.79992 -0.836974 0
M  V30 10270 N 1823.47 4.41864 -1.38293 0
M  V30 10271 H 1820.63 8.13644 -3.0377 0
M  V30 10272 H 1820.36 6.42788 -2.55485 0
M  V30 10273 H 1821.23 8.12039 -0.792769 0
M  V30 10274 P 1825.19 8.91 -1.84776e-11 0
M  V30 10275 O 1825.41 10.1726 0.733694 0
M  V30 10276 O 1825.98 8.73148 -1.23936 0
M  V30 10277 O 1825.44 7.66872 0.971405 0
M  V30 10278 C 1824.5 7.42309 2.04641 0
M  V30 10279 C 1825.23 6.86059 3.24661 0
M  V30 10280 O 1825.44 5.42847 3.03646 0
M  V30 10281 C 1826.63 7.41196 3.50753 0
M  V30 10282 O 1827.02 7.27073 4.86816 0
M  V30 10283 C 1827.51 6.5273 2.63741 0
M  V30 10284 C 1826.8 5.1842 2.73198 0
M  V30 10285 N 1826.85 4.38762 1.4784 0
M  V30 10286 H 1824.01 8.36803 2.32493 0
M  V30 10287 H 1823.74 6.70197 1.71129 0
M  V30 10288 H 1824.61 7.03551 4.13168 0
M  V30 10289 P 1828.57 7.20834 5.23717 0
M  V30 10290 O 1828.79 7.79853 6.57286 0
M  V30 10291 O 1829.36 7.79239 4.12957 0
M  V30 10292 O 1828.82 5.63315 5.29344 0
M  V30 10293 C 1827.88 4.80255 6.01876 0
M  V30 10294 C 1828.61 3.64202 6.65911 0
M  V30 10295 O 1828.82 2.60694 5.64732 0
M  V30 10296 C 1830.01 3.93473 7.1943 0
M  V30 10297 O 1830.4 3.02071 8.21205 0
M  V30 10298 C 1830.89 3.73047 5.97036 0
M  V30 10299 C 1830.18 2.58828 5.25741 0
M  V30 10300 N 1830.23 2.68068 3.77503 0
M  V30 10301 H 1827.39 5.40332 6.79951 0
M  V30 10302 H 1827.12 4.41613 5.32378 0
M  V30 10303 H 1827.99 3.26331 7.47797 0
M  V30 10304 P 1831.95 2.75334 8.47391 0
M  V30 10305 O 1832.17 2.44571 9.90142 0
M  V30 10306 O 1832.74 3.87688 7.92115 0
M  V30 10307 O 1832.2 1.4459 7.59357 0
M  V30 10308 C 1831.26 0.347608 7.69215 0
M  V30 10309 C 1831.99 -0.96767 7.52806 0
M  V30 10310 O 1832.2 -1.21036 6.1011 0
M  V30 10311 C 1833.39 -1.04544 8.13308 0
M  V30 10312 O 1833.78 -2.38311 8.41922 0
M  V30 10313 C 1834.27 -0.491279 7.02284 0
M  V30 10314 C 1833.56 -0.996264 5.77469 0
M  V30 10315 N 1833.61 -0.0501916 4.62973 0
M  V30 10316 H 1830.77 0.374722 8.67691 0
M  V30 10317 H 1830.5 0.443485 6.90277 0
M  V30 10318 H 1831.37 -1.75537 7.96793 0
M  V30 10319 P 1835.33 -2.75334 8.47391 0
M  V30 10320 O 1835.55 -3.84128 9.44797 0
M  V30 10321 O 1836.12 -1.51947 8.68712 0
M  V30 10322 O 1835.58 -3.29363 6.99321 0
M  V30 10323 C 1834.64 -4.24011 6.4274 0
M  V30 10324 C 1835.37 -5.20775 5.52155 0
M  V30 10325 O 1835.58 -4.56534 4.22446 0
M  V30 10326 C 1836.77 -5.62629 5.96531 0
M  V30 10327 O 1837.16 -6.87667 5.41053 0
M  V30 10328 C 1837.65 -4.52537 5.39283 0
M  V30 10329 C 1836.94 -4.20027 4.08623 0
M  V30 10330 N 1836.99 -2.76189 3.71603 0
M  V30 10331 C 1836.91 -1.64862 4.52822 0
M  V30 10332 N 1836.99 -0.512671 3.88633 0
M  V30 10333 C 1837.13 -0.888083 2.54977 0
M  V30 10334 C 1837.26 -0.094668 1.38677 0
M  V30 10335 N 1837.38 -0.890102 0.232633 0
M  V30 10336 C 1837.38 -2.26958 0.21772 0
M  V30 10337 N 1837.51 -2.84626 -0.97925 0
M  V30 10338 N 1837.25 -3.0178 1.31033 0
M  V30 10339 C 1837.13 -2.26781 2.43843 0
M  V30 10340 H 1834.15 -4.797 7.24003 0
M  V30 10341 H 1833.88 -3.69856 5.84513 0
M  V30 10342 H 1834.75 -6.10356 5.41441 0
M  V30 10343 P 1838.71 -7.20834 5.23717 0
M  V30 10344 O 1838.93 -8.66104 5.38572 0
M  V30 10345 O 1839.5 -6.33544 6.1349 0
M  V30 10346 O 1838.96 -6.7751 3.72168 0
M  V30 10347 C 1838.02 -7.20825 2.7076 0
M  V30 10348 C 1838.75 -7.45864 1.40599 0
M  V30 10349 O 1838.96 -6.17651 0.734225 0
M  V30 10350 C 1840.15 -8.05808 1.51899 0
M  V30 10351 O 1840.54 -8.74358 0.335205 0
M  V30 10352 C 1841.03 -6.83093 1.70294 0
M  V30 10353 C 1840.32 -5.79992 0.836974 0
M  V30 10354 N 1840.37 -4.41864 1.38293 0
M  V30 10355 H 1837.53 -8.13644 3.0377 0
M  V30 10356 H 1837.26 -6.42788 2.55485 0
M  V30 10357 H 1838.13 -8.12039 0.792769 0
M  V30 10358 P 1842.09 -8.91 1.95866e-11 0
M  V30 10359 O 1842.31 -10.1736 -0.733766 0
M  V30 10360 O 1842.88 -8.73247 1.2395 0
M  V30 10361 O 1842.34 -7.66872 -0.971405 0
M  V30 10362 C 1841.4 -7.42212 -2.04614 0
M  V30 10363 C 1842.13 -6.86059 -3.24661 0
M  V30 10364 O 1842.34 -5.42847 -3.03646 0
M  V30 10365 C 1843.53 -7.41196 -3.50753 0
M  V30 10366 O 1843.92 -7.27073 -4.86816 0
M  V30 10367 C 1844.41 -6.5273 -2.63741 0
M  V30 10368 C 1843.7 -5.1842 -2.73198 0
M  V30 10369 N 1843.75 -4.38668 -1.47808 0
M  V30 10370 C 1843.9 -3.02239 -1.60048 0
M  V30 10371 O 1843.99 -2.46459 -2.67869 0
M  V30 10372 N 1843.94 -2.32436 -0.408571 0
M  V30 10373 C 1843.85 -2.85471 0.854993 0
M  V30 10374 O 1843.9 -2.12566 1.8531 0
M  V30 10375 C 1843.7 -4.28918 0.887335 0
M  V30 10376 C 1843.59 -4.91066 2.24619 0
M  V30 10377 C 1843.65 -5.00349 -0.255399 0
M  V30 10378 H 1840.91 -8.36803 -2.32493 0
M  V30 10379 H 1840.64 -6.701 -1.71105 0
M  V30 10380 H 1841.51 -7.03551 -4.13168 0
M  V30 10381 H 1844.16 -4.59773 -3.53894 0
M  V30 10382 H 1844.44 -6.88995 -1.59871 0
M  V30 10383 H 1845.43 -6.46749 -3.03687 0
M  V30 10384 H 1843.6 -8.46908 -3.20714 0
M  V30 10385 H 1843.53 -6.08548 -0.206986 0
M  V30 10386 H 1844.56 -5.34836 2.53099 0
M  V30 10387 H 1842.82 -5.69638 2.2291 0
M  V30 10388 H 1843.31 -4.13971 2.98044 0
M  V30 10389 H 1844.05 -1.33211 -0.474216 0
M  V30 10390 P 1845.47 -7.20834 -5.23717 0
M  V30 10391 O 1845.69 -7.79853 -6.57286 0
M  V30 10392 O 1846.26 -7.79239 -4.12957 0
M  V30 10393 O 1845.72 -5.63315 -5.29344 0
M  V30 10394 C 1844.78 -4.80255 -6.01876 0
M  V30 10395 C 1845.51 -3.64202 -6.65911 0
M  V30 10396 O 1845.72 -2.60694 -5.64732 0
M  V30 10397 C 1846.91 -3.93473 -7.1943 0
M  V30 10398 O 1847.3 -3.02071 -8.21205 0
M  V30 10399 C 1847.79 -3.73047 -5.97036 0
M  V30 10400 C 1847.08 -2.58828 -5.25741 0
M  V30 10401 N 1847.13 -2.68068 -3.77503 0
M  V30 10402 H 1844.29 -5.40332 -6.79951 0
M  V30 10403 H 1844.02 -4.41613 -5.32378 0
M  V30 10404 H 1844.89 -3.26331 -7.47797 0
M  V30 10405 P 1848.85 -2.75334 -8.47391 0
M  V30 10406 O 1849.07 -2.44571 -9.90142 0
M  V30 10407 O 1849.64 -3.87688 -7.92115 0
M  V30 10408 O 1849.1 -1.4459 -7.59357 0
M  V30 10409 C 1848.16 -0.347608 -7.69215 0
M  V30 10410 C 1848.89 0.96767 -7.52806 0
M  V30 10411 O 1849.1 1.21036 -6.1011 0
M  V30 10412 C 1850.29 1.04544 -8.13308 0
M  V30 10413 O 1850.68 2.38311 -8.41922 0
M  V30 10414 C 1851.17 0.491279 -7.02284 0
M  V30 10415 C 1850.46 0.996264 -5.77469 0
M  V30 10416 N 1850.51 0.0501916 -4.62973 0
M  V30 10417 H 1847.67 -0.374722 -8.67691 0
M  V30 10418 H 1847.4 -0.443485 -6.90277 0
M  V30 10419 H 1848.27 1.75537 -7.96793 0
M  V30 10420 P 1852.23 2.75334 -8.47391 0
M  V30 10421 O 1852.45 3.84128 -9.44797 0
M  V30 10422 O 1853.02 1.51947 -8.68712 0
M  V30 10423 O 1852.48 3.29363 -6.99321 0
M  V30 10424 C 1851.54 4.24011 -6.4274 0
M  V30 10425 C 1852.27 5.20775 -5.52155 0
M  V30 10426 O 1852.48 4.56534 -4.22446 0
M  V30 10427 C 1853.67 5.62629 -5.96531 0
M  V30 10428 O 1854.06 6.87667 -5.41053 0
M  V30 10429 C 1854.55 4.52537 -5.39283 0
M  V30 10430 C 1853.84 4.20027 -4.08623 0
M  V30 10431 N 1853.89 2.76189 -3.71603 0
M  V30 10432 H 1851.05 4.797 -7.24003 0
M  V30 10433 H 1850.78 3.69856 -5.84513 0
M  V30 10434 H 1851.65 6.10356 -5.41441 0
M  V30 10435 P 1855.61 7.20834 -5.23717 0
M  V30 10436 O 1855.83 8.66104 -5.38572 0
M  V30 10437 O 1856.4 6.33544 -6.1349 0
M  V30 10438 O 1855.86 6.7751 -3.72168 0
M  V30 10439 C 1854.92 7.20825 -2.7076 0
M  V30 10440 C 1855.65 7.45864 -1.40599 0
M  V30 10441 O 1855.86 6.17651 -0.734225 0
M  V30 10442 C 1857.05 8.05808 -1.51899 0
M  V30 10443 O 1857.44 8.74358 -0.335205 0
M  V30 10444 C 1857.93 6.83093 -1.70294 0
M  V30 10445 C 1857.22 5.79992 -0.836974 0
M  V30 10446 N 1857.27 4.41864 -1.38293 0
M  V30 10447 H 1854.43 8.13644 -3.0377 0
M  V30 10448 H 1854.16 6.42788 -2.55485 0
M  V30 10449 H 1855.03 8.12039 -0.792769 0
M  V30 10450 P 1858.99 8.91 -2.06956e-11 0
M  V30 10451 O 1859.21 10.1726 0.733694 0
M  V30 10452 O 1859.78 8.73148 -1.23936 0
M  V30 10453 O 1859.24 7.66872 0.971405 0
M  V30 10454 C 1858.3 7.42309 2.04641 0
M  V30 10455 C 1859.03 6.86059 3.24661 0
M  V30 10456 O 1859.24 5.42847 3.03646 0
M  V30 10457 C 1860.43 7.41196 3.50753 0
M  V30 10458 O 1860.82 7.27073 4.86816 0
M  V30 10459 C 1861.31 6.5273 2.63741 0
M  V30 10460 C 1860.6 5.1842 2.73198 0
M  V30 10461 N 1860.65 4.38762 1.4784 0
M  V30 10462 H 1857.81 8.36803 2.32493 0
M  V30 10463 H 1857.54 6.70197 1.71129 0
M  V30 10464 H 1858.41 7.03551 4.13168 0
M  V30 10465 P 1862.37 7.20834 5.23717 0
M  V30 10466 O 1862.59 7.79853 6.57286 0
M  V30 10467 O 1863.16 7.79239 4.12957 0
M  V30 10468 O 1862.62 5.63315 5.29344 0
M  V30 10469 C 1861.68 4.80255 6.01876 0
M  V30 10470 C 1862.41 3.64202 6.65911 0
M  V30 10471 O 1862.62 2.60694 5.64732 0
M  V30 10472 C 1863.81 3.93473 7.1943 0
M  V30 10473 O 1864.2 3.02071 8.21205 0
M  V30 10474 C 1864.69 3.73047 5.97036 0
M  V30 10475 C 1863.98 2.58828 5.25741 0
M  V30 10476 N 1864.03 2.68068 3.77503 0
M  V30 10477 C 1863.95 3.79715 2.96723 0
M  V30 10478 N 1864.03 3.5377 1.68852 0
M  V30 10479 C 1864.17 2.15054 1.63254 0
M  V30 10480 C 1864.3 1.28964 0.518571 0
M  V30 10481 N 1864.42 -0.0538097 0.918425 0
M  V30 10482 C 1864.42 -0.494275 2.22578 0
M  V30 10483 N 1864.55 -1.81086 2.40434 0
M  V30 10484 N 1864.29 0.313645 3.27502 0
M  V30 10485 C 1864.17 1.61829 2.91033 0
M  V30 10486 H 1861.19 5.40332 6.79951 0
M  V30 10487 H 1860.92 4.41613 5.32378 0
M  V30 10488 H 1861.79 3.26331 7.47797 0
M  V30 10489 P 1865.75 2.75334 8.47391 0
M  V30 10490 O 1865.97 2.44619 9.90336 0
M  V30 10491 O 1866.54 3.87776 7.92294 0
M  V30 10492 O 1866 1.4459 7.59357 0
M  V30 10493 C 1865.06 0.347653 7.69315 0
M  V30 10494 C 1865.79 -0.96767 7.52806 0
M  V30 10495 O 1866 -1.21055 6.10208 0
M  V30 10496 C 1867.19 -1.04557 8.13408 0
M  V30 10497 O 1867.58 -2.38311 8.41922 0
M  V30 10498 C 1868.07 -0.491279 7.02284 0
M  V30 10499 C 1867.36 -0.996264 5.77469 0
M  V30 10500 N 1867.41 -0.0501916 4.62973 0
M  V30 10501 H 1864.57 0.374765 8.67791 0
M  V30 10502 H 1864.3 0.443613 6.90476 0
M  V30 10503 H 1865.17 -1.75559 7.96891 0
M  V30 10504 H 1867.82 -1.94563 5.46818 0
M  V30 10505 H 1868.1 0.608651 7.04676 0
M  V30 10506 H 1869.09 -0.889796 7.09039 0
M  V30 10507 H 1867.26 -0.433128 9.04664 0
M  V30 10508 P 1869.13 -2.75334 8.47391 0
M  V30 10509 O 1869.35 -3.84204 9.44982 0
M  V30 10510 O 1869.92 -1.51982 8.68909 0
M  V30 10511 O 1869.38 -3.29363 6.99321 0
M  V30 10512 C 1868.44 -4.24066 6.42823 0
M  V30 10513 C 1869.17 -5.20775 5.52155 0
M  V30 10514 O 1869.38 -4.56607 4.22514 0
M  V30 10515 C 1870.57 -5.62697 5.96604 0
M  V30 10516 O 1870.96 -6.87667 5.41053 0
M  V30 10517 C 1871.45 -4.52537 5.39283 0
M  V30 10518 C 1870.74 -4.20027 4.08623 0
M  V30 10519 N 1870.79 -2.76189 3.71603 0
M  V30 10520 C 1870.71 -1.66944 4.54297 0
M  V30 10521 N 1870.78 -0.536169 3.91344 0
M  V30 10522 C 1870.93 -0.901569 2.58849 0
M  V30 10523 C 1871.06 -0.146599 1.40236 0
M  V30 10524 N 1871.07 1.18234 1.37046 0
M  V30 10525 N 1871.18 -0.822941 0.249738 0
M  V30 10526 C 1871.17 -2.15179 0.280525 0
M  V30 10527 N 1871.05 -2.96414 1.30822 0
M  V30 10528 C 1870.93 -2.25804 2.44748 0
M  V30 10529 H 1867.95 -4.79756 7.24086 0
M  V30 10530 H 1867.68 -3.69963 5.84682 0
M  V30 10531 H 1868.55 -6.10431 5.41508 0
M  V30 10532 H 1871.2 -4.78816 3.28024 0
M  V30 10533 H 1871.48 -3.64957 6.05871 0
M  V30 10534 H 1872.47 -4.88748 5.21323 0
M  V30 10535 H 1870.64 -5.66789 7.0643 0
M  V30 10536 H 1870.6 -1.74684 5.62396 0
M  V30 10537 H 1870.98 1.71949 2.24394 0
M  V30 10538 H 1871.17 1.67511 0.470742 0
M  V30 10539 H 1871.28 -2.63704 -0.6828 0
M  V30 10540 P 1872.51 -7.20834 5.23717 0
M  V30 10541 O 1872.73 -8.66104 5.38572 0
M  V30 10542 O 1873.3 -6.33544 6.1349 0
M  V30 10543 O 1872.76 -6.7751 3.72168 0
M  V30 10544 C 1871.82 -7.20825 2.7076 0
M  V30 10545 C 1872.55 -7.45864 1.40599 0
M  V30 10546 O 1872.76 -6.17651 0.734225 0
M  V30 10547 C 1873.95 -8.05808 1.51899 0
M  V30 10548 O 1874.34 -8.74358 0.335205 0
M  V30 10549 C 1874.83 -6.83093 1.70294 0
M  V30 10550 C 1874.12 -5.79992 0.836974 0
M  V30 10551 N 1874.17 -4.41864 1.38293 0
M  V30 10552 H 1871.33 -8.13644 3.0377 0
M  V30 10553 H 1871.06 -6.42788 2.55485 0
M  V30 10554 H 1871.93 -8.12039 0.792769 0
M  V30 10555 P 1875.89 -8.91 2.18046e-11 0
M  V30 10556 O 1876.11 -10.1726 -0.733694 0
M  V30 10557 O 1876.68 -8.73148 1.23936 0
M  V30 10558 O 1876.14 -7.66872 -0.971405 0
M  V30 10559 C 1875.2 -7.42309 -2.04641 0
M  V30 10560 C 1875.93 -6.86059 -3.24661 0
M  V30 10561 O 1876.14 -5.42847 -3.03646 0
M  V30 10562 C 1877.33 -7.41196 -3.50753 0
M  V30 10563 O 1877.72 -7.27073 -4.86816 0
M  V30 10564 C 1878.21 -6.5273 -2.63741 0
M  V30 10565 C 1877.5 -5.1842 -2.73198 0
M  V30 10566 N 1877.55 -4.38762 -1.4784 0
M  V30 10567 H 1874.71 -8.36803 -2.32493 0
M  V30 10568 H 1874.44 -6.70197 -1.71129 0
M  V30 10569 H 1875.31 -7.03551 -4.13168 0
M  V30 10570 P 1879.27 -7.20834 -5.23717 0
M  V30 10571 O 1879.49 -7.79853 -6.57286 0
M  V30 10572 O 1880.06 -7.79239 -4.12957 0
M  V30 10573 O 1879.52 -5.63315 -5.29344 0
M  V30 10574 C 1878.58 -4.80255 -6.01876 0
M  V30 10575 C 1879.31 -3.64202 -6.65911 0
M  V30 10576 O 1879.52 -2.60694 -5.64732 0
M  V30 10577 C 1880.71 -3.93473 -7.1943 0
M  V30 10578 O 1881.1 -3.02071 -8.21205 0
M  V30 10579 C 1881.59 -3.73047 -5.97036 0
M  V30 10580 C 1880.88 -2.58828 -5.25741 0
M  V30 10581 N 1880.93 -2.68068 -3.77503 0
M  V30 10582 H 1878.09 -5.40332 -6.79951 0
M  V30 10583 H 1877.82 -4.41613 -5.32378 0
M  V30 10584 H 1878.69 -3.26331 -7.47797 0
M  V30 10585 P 1882.65 -2.75334 -8.47391 0
M  V30 10586 O 1882.87 -2.44571 -9.90142 0
M  V30 10587 O 1883.44 -3.87688 -7.92115 0
M  V30 10588 O 1882.9 -1.4459 -7.59357 0
M  V30 10589 C 1881.96 -0.347608 -7.69215 0
M  V30 10590 C 1882.69 0.96767 -7.52806 0
M  V30 10591 O 1882.9 1.21036 -6.1011 0
M  V30 10592 C 1884.09 1.04544 -8.13308 0
M  V30 10593 O 1884.48 2.38311 -8.41922 0
M  V30 10594 C 1884.97 0.491279 -7.02284 0
M  V30 10595 C 1884.26 0.996264 -5.77469 0
M  V30 10596 N 1884.31 0.0501916 -4.62973 0
M  V30 10597 H 1881.47 -0.374722 -8.67691 0
M  V30 10598 H 1881.2 -0.443485 -6.90277 0
M  V30 10599 H 1882.07 1.75537 -7.96793 0
M  V30 10600 P 1886.03 2.75334 -8.47391 0
M  V30 10601 O 1886.25 3.84128 -9.44797 0
M  V30 10602 O 1886.82 1.51947 -8.68712 0
M  V30 10603 O 1886.28 3.29363 -6.99321 0
M  V30 10604 C 1885.34 4.24011 -6.4274 0
M  V30 10605 C 1886.07 5.20775 -5.52155 0
M  V30 10606 O 1886.28 4.56534 -4.22446 0
M  V30 10607 C 1887.47 5.62629 -5.96531 0
M  V30 10608 O 1887.86 6.87667 -5.41053 0
M  V30 10609 C 1888.35 4.52537 -5.39283 0
M  V30 10610 C 1887.64 4.20027 -4.08623 0
M  V30 10611 N 1887.69 2.76189 -3.71603 0
M  V30 10612 H 1884.85 4.797 -7.24003 0
M  V30 10613 H 1884.58 3.69856 -5.84513 0
M  V30 10614 H 1885.45 6.10356 -5.41441 0
M  V30 10615 P 1889.41 7.20834 -5.23717 0
M  V30 10616 O 1889.63 8.66104 -5.38572 0
M  V30 10617 O 1890.2 6.33544 -6.1349 0
M  V30 10618 O 1889.66 6.7751 -3.72168 0
M  V30 10619 C 1888.72 7.20825 -2.7076 0
M  V30 10620 C 1889.45 7.45864 -1.40599 0
M  V30 10621 O 1889.66 6.17651 -0.734225 0
M  V30 10622 C 1890.85 8.05808 -1.51899 0
M  V30 10623 O 1891.24 8.74358 -0.335205 0
M  V30 10624 C 1891.73 6.83093 -1.70294 0
M  V30 10625 C 1891.02 5.79992 -0.836974 0
M  V30 10626 N 1891.07 4.41864 -1.38293 0
M  V30 10627 H 1888.23 8.13644 -3.0377 0
M  V30 10628 H 1887.96 6.42788 -2.55485 0
M  V30 10629 H 1888.83 8.12039 -0.792769 0
M  V30 10630 P 1892.79 8.91 -2.29136e-11 0
M  V30 10631 O 1893.01 10.1726 0.733694 0
M  V30 10632 O 1893.58 8.73148 -1.23936 0
M  V30 10633 O 1893.04 7.66872 0.971405 0
M  V30 10634 C 1892.1 7.42309 2.04641 0
M  V30 10635 C 1892.83 6.86059 3.24661 0
M  V30 10636 O 1893.04 5.42847 3.03646 0
M  V30 10637 C 1894.23 7.41196 3.50753 0
M  V30 10638 O 1894.62 7.27073 4.86816 0
M  V30 10639 C 1895.11 6.5273 2.63741 0
M  V30 10640 C 1894.4 5.1842 2.73198 0
M  V30 10641 N 1894.45 4.38762 1.4784 0
M  V30 10642 H 1891.61 8.36803 2.32493 0
M  V30 10643 H 1891.34 6.70197 1.71129 0
M  V30 10644 H 1892.21 7.03551 4.13168 0
M  V30 10645 P 1896.17 7.20834 5.23717 0
M  V30 10646 O 1896.39 7.79853 6.57286 0
M  V30 10647 O 1896.96 7.79239 4.12957 0
M  V30 10648 O 1896.42 5.63315 5.29344 0
M  V30 10649 C 1895.48 4.80255 6.01876 0
M  V30 10650 C 1896.21 3.64202 6.65911 0
M  V30 10651 O 1896.42 2.60694 5.64732 0
M  V30 10652 C 1897.61 3.93473 7.1943 0
M  V30 10653 O 1898 3.02071 8.21205 0
M  V30 10654 C 1898.49 3.73047 5.97036 0
M  V30 10655 C 1897.78 2.58828 5.25741 0
M  V30 10656 N 1897.83 2.68068 3.77503 0
M  V30 10657 H 1894.99 5.40332 6.79951 0
M  V30 10658 H 1894.72 4.41613 5.32378 0
M  V30 10659 H 1895.59 3.26331 7.47797 0
M  V30 10660 P 1899.55 2.75334 8.47391 0
M  V30 10661 O 1899.77 2.44571 9.90142 0
M  V30 10662 O 1900.34 3.87688 7.92115 0
M  V30 10663 O 1899.8 1.4459 7.59357 0
M  V30 10664 C 1898.86 0.347608 7.69215 0
M  V30 10665 C 1899.59 -0.96767 7.52806 0
M  V30 10666 O 1899.8 -1.21036 6.1011 0
M  V30 10667 C 1900.99 -1.04544 8.13308 0
M  V30 10668 O 1901.38 -2.38311 8.41922 0
M  V30 10669 C 1901.87 -0.491279 7.02284 0
M  V30 10670 C 1901.16 -0.996264 5.77469 0
M  V30 10671 N 1901.21 -0.0501916 4.62973 0
M  V30 10672 H 1898.37 0.374722 8.67691 0
M  V30 10673 H 1898.1 0.443485 6.90277 0
M  V30 10674 H 1898.97 -1.75537 7.96793 0
M  V30 10675 P 1902.93 -2.75334 8.47391 0
M  V30 10676 O 1903.15 -3.84166 9.4489 0
M  V30 10677 O 1903.72 -1.51964 8.6881 0
M  V30 10678 O 1903.18 -3.29363 6.99321 0
M  V30 10679 C 1902.24 -4.23956 6.42656 0
M  V30 10680 C 1902.97 -5.20775 5.52155 0
M  V30 10681 O 1903.18 -4.56534 4.22446 0
M  V30 10682 C 1904.37 -5.62629 5.96531 0
M  V30 10683 O 1904.76 -6.87667 5.41053 0
M  V30 10684 C 1905.25 -4.52537 5.39283 0
M  V30 10685 C 1904.54 -4.20027 4.08623 0
M  V30 10686 N 1904.59 -2.7613 3.71522 0
M  V30 10687 C 1904.74 -2.45612 2.37989 0
M  V30 10688 O 1904.83 -3.30919 1.51621 0
M  V30 10689 N 1904.78 -1.10684 2.08435 0
M  V30 10690 C 1904.69 -0.0690084 2.9792 0
M  V30 10691 C 1904.54 -0.481522 4.35345 0
M  V30 10692 C 1904.49 -1.78906 4.67968 0
M  V30 10693 H 1901.75 -4.797 7.24003 0
M  V30 10694 H 1901.48 -3.69802 5.84429 0
M  V30 10695 H 1902.35 -6.10356 5.41441 0
M  V30 10696 H 1905 -4.78651 3.27911 0
M  V30 10697 H 1905.28 -3.64957 6.05871 0
M  V30 10698 H 1906.27 -4.8868 5.2125 0
M  V30 10699 H 1904.44 -5.66726 7.06352 0
M  V30 10700 H 1904.37 -2.07737 5.72367 0
M  V30 10701 P 1906.31 -7.20834 5.23717 0
M  V30 10702 O 1906.53 -8.66104 5.38572 0
M  V30 10703 O 1907.1 -6.33544 6.1349 0
M  V30 10704 O 1906.56 -6.7751 3.72168 0
M  V30 10705 C 1905.62 -7.20825 2.7076 0
M  V30 10706 C 1906.35 -7.45864 1.40599 0
M  V30 10707 O 1906.56 -6.17651 0.734225 0
M  V30 10708 C 1907.75 -8.05808 1.51899 0
M  V30 10709 O 1908.14 -8.74358 0.335205 0
M  V30 10710 C 1908.63 -6.83093 1.70294 0
M  V30 10711 C 1907.92 -5.79992 0.836974 0
M  V30 10712 N 1907.97 -4.41864 1.38293 0
M  V30 10713 H 1905.13 -8.13644 3.0377 0
M  V30 10714 H 1904.86 -6.42788 2.55485 0
M  V30 10715 H 1905.73 -8.12039 0.792769 0
M  V30 10716 P 1909.69 -8.91 2.40226e-11 0
M  V30 10717 O 1909.91 -10.1726 -0.733694 0
M  V30 10718 O 1910.48 -8.73148 1.23936 0
M  V30 10719 O 1909.94 -7.66872 -0.971405 0
M  V30 10720 C 1909 -7.42309 -2.04641 0
M  V30 10721 C 1909.73 -6.86059 -3.24661 0
M  V30 10722 O 1909.94 -5.42847 -3.03646 0
M  V30 10723 C 1911.13 -7.41196 -3.50753 0
M  V30 10724 O 1911.52 -7.27073 -4.86816 0
M  V30 10725 C 1912.01 -6.5273 -2.63741 0
M  V30 10726 C 1911.3 -5.1842 -2.73198 0
M  V30 10727 N 1911.35 -4.38762 -1.4784 0
M  V30 10728 H 1908.51 -8.36803 -2.32493 0
M  V30 10729 H 1908.24 -6.70197 -1.71129 0
M  V30 10730 H 1909.11 -7.03551 -4.13168 0
M  V30 10731 P 1913.07 -7.20834 -5.23717 0
M  V30 10732 O 1913.29 -7.80006 -6.57415 0
M  V30 10733 O 1913.86 -7.79416 -4.13051 0
M  V30 10734 O 1913.32 -5.63315 -5.29344 0
M  V30 10735 C 1912.38 -4.80318 -6.01954 0
M  V30 10736 C 1913.11 -3.64202 -6.65911 0
M  V30 10737 O 1913.32 -2.60736 -5.64823 0
M  V30 10738 C 1914.51 -3.93521 -7.19518 0
M  V30 10739 O 1914.9 -3.02071 -8.21205 0
M  V30 10740 C 1915.39 -3.73047 -5.97036 0
M  V30 10741 C 1914.68 -2.58828 -5.25741 0
M  V30 10742 N 1914.73 -2.68068 -3.77503 0
M  V30 10743 C 1914.65 -3.80474 -2.99159 0
M  V30 10744 N 1914.72 -3.55622 -1.71925 0
M  V30 10745 C 1914.87 -2.1832 -1.65733 0
M  V30 10746 C 1915 -1.28842 -0.572777 0
M  V30 10747 N 1915.01 -1.66875 0.70098 0
M  V30 10748 N 1915.12 0.016788 -0.859836 0
M  V30 10749 C 1915.11 0.398145 -2.13316 0
M  V30 10750 N 1914.99 -0.328224 -3.22333 0
M  V30 10751 C 1914.87 -1.62992 -2.90383 0
M  V30 10752 H 1911.89 -5.40394 -6.8003 0
M  V30 10753 H 1911.62 -4.41741 -5.32532 0
M  V30 10754 H 1912.49 -3.26371 -7.47889 0
M  V30 10755 H 1915.14 -1.64007 -5.56746 0
M  V30 10756 H 1915.42 -4.63439 -5.3432 0
M  V30 10757 H 1916.41 -3.44776 -6.25925 0
M  V30 10758 H 1914.58 -4.96707 -7.57347 0
M  V30 10759 H 1914.54 -4.8089 -3.39924 0
M  V30 10760 H 1914.92 -2.66547 0.941919 0
M  V30 10761 H 1915.11 -0.965341 1.44766 0
M  V30 10762 H 1915.22 1.46427 -2.29697 0
M  V30 10763 P 1916.45 -2.75334 -8.47391 0
M  V30 10764 O 1916.67 -2.44571 -9.90142 0
M  V30 10765 O 1917.24 -3.87688 -7.92115 0
M  V30 10766 O 1916.7 -1.4459 -7.59357 0
M  V30 10767 C 1915.76 -0.347608 -7.69215 0
M  V30 10768 C 1916.49 0.96767 -7.52806 0
M  V30 10769 O 1916.7 1.21036 -6.1011 0
M  V30 10770 C 1917.89 1.04544 -8.13308 0
M  V30 10771 O 1918.28 2.38311 -8.41922 0
M  V30 10772 C 1918.77 0.491279 -7.02284 0
M  V30 10773 C 1918.06 0.996264 -5.77469 0
M  V30 10774 N 1918.11 0.0501916 -4.62973 0
M  V30 10775 C 1918.03 -1.32786 -4.63244 0
M  V30 10776 N 1918.11 -1.86957 -3.44545 0
M  V30 10777 C 1918.25 -0.780241 -2.58481 0
M  V30 10778 C 1918.38 -0.738536 -1.17757 0
M  V30 10779 O 1918.4 -1.66794 -0.372349 0
M  V30 10780 N 1918.5 0.58337 -0.711393 0
M  V30 10781 C 1918.5 1.70816 -1.51017 0
M  V30 10782 N 1918.63 2.87826 -0.880757 0
M  V30 10783 N 1918.37 1.67126 -2.8339 0
M  V30 10784 C 1918.25 0.401421 -3.30572 0
M  V30 10785 H 1915.27 -0.374722 -8.67691 0
M  V30 10786 H 1915 -0.443485 -6.90277 0
M  V30 10787 H 1915.87 1.75537 -7.96793 0
M  V30 10788 H 1918.52 1.95076 -5.46529 0
M  V30 10789 H 1918.8 -0.608565 -7.04577 0
M  V30 10790 H 1919.79 0.889672 -7.08939 0
M  V30 10791 H 1917.96 0.43308 -9.04564 0
M  V30 10792 H 1917.91 -1.91249 -5.54442 0
M  V30 10793 H 1918.59 0.718054 0.275244 0
M  V30 10794 H 1918.63 3.75721 -1.41832 0
M  V30 10795 H 1918.73 2.90436 0.145468 0
M  V30 10796 P 1919.83 2.75334 -8.47391 0
M  V30 10797 O 1920.05 3.84128 -9.44797 0
M  V30 10798 O 1920.62 1.51947 -8.68712 0
M  V30 10799 O 1920.08 3.29363 -6.99321 0
M  V30 10800 C 1919.14 4.24011 -6.4274 0
M  V30 10801 C 1919.87 5.20775 -5.52155 0
M  V30 10802 O 1920.08 4.56534 -4.22446 0
M  V30 10803 C 1921.27 5.62629 -5.96531 0
M  V30 10804 O 1921.66 6.87667 -5.41053 0
M  V30 10805 C 1922.15 4.52537 -5.39283 0
M  V30 10806 C 1921.44 4.20027 -4.08623 0
M  V30 10807 N 1921.49 2.76189 -3.71603 0
M  V30 10808 H 1918.65 4.797 -7.24003 0
M  V30 10809 H 1918.38 3.69856 -5.84513 0
M  V30 10810 H 1919.25 6.10356 -5.41441 0
M  V30 10811 P 1923.21 7.20834 -5.23717 0
M  V30 10812 O 1923.43 8.66104 -5.38572 0
M  V30 10813 O 1924 6.33544 -6.1349 0
M  V30 10814 O 1923.46 6.7751 -3.72168 0
M  V30 10815 C 1922.52 7.20825 -2.7076 0
M  V30 10816 C 1923.25 7.45864 -1.40599 0
M  V30 10817 O 1923.46 6.17651 -0.734225 0
M  V30 10818 C 1924.65 8.05808 -1.51899 0
M  V30 10819 O 1925.04 8.74358 -0.335205 0
M  V30 10820 C 1925.53 6.83093 -1.70294 0
M  V30 10821 C 1924.82 5.79992 -0.836974 0
M  V30 10822 N 1924.87 4.41864 -1.38293 0
M  V30 10823 H 1922.03 8.13644 -3.0377 0
M  V30 10824 H 1921.76 6.42788 -2.55485 0
M  V30 10825 H 1922.63 8.12039 -0.792769 0
M  V30 10826 P 1926.59 8.91 -2.51316e-11 0
M  V30 10827 O 1926.81 10.1726 0.733694 0
M  V30 10828 O 1927.38 8.73148 -1.23936 0
M  V30 10829 O 1926.84 7.66872 0.971405 0
M  V30 10830 C 1925.9 7.42309 2.04641 0
M  V30 10831 C 1926.63 6.86059 3.24661 0
M  V30 10832 O 1926.84 5.42847 3.03646 0
M  V30 10833 C 1928.03 7.41196 3.50753 0
M  V30 10834 O 1928.42 7.27073 4.86816 0
M  V30 10835 C 1928.91 6.5273 2.63741 0
M  V30 10836 C 1928.2 5.1842 2.73198 0
M  V30 10837 N 1928.25 4.38762 1.4784 0
M  V30 10838 H 1925.41 8.36803 2.32493 0
M  V30 10839 H 1925.14 6.70197 1.71129 0
M  V30 10840 H 1926.01 7.03551 4.13168 0
M  V30 10841 P 1929.97 7.20834 5.23717 0
M  V30 10842 O 1930.19 7.79853 6.57286 0
M  V30 10843 O 1930.76 7.79239 4.12957 0
M  V30 10844 O 1930.22 5.63315 5.29344 0
M  V30 10845 C 1929.28 4.80255 6.01876 0
M  V30 10846 C 1930.01 3.64202 6.65911 0
M  V30 10847 O 1930.22 2.60694 5.64732 0
M  V30 10848 C 1931.41 3.93473 7.1943 0
M  V30 10849 O 1931.8 3.02071 8.21205 0
M  V30 10850 C 1932.29 3.73047 5.97036 0
M  V30 10851 C 1931.58 2.58828 5.25741 0
M  V30 10852 N 1931.63 2.68068 3.77503 0
M  V30 10853 H 1928.79 5.40332 6.79951 0
M  V30 10854 H 1928.52 4.41613 5.32378 0
M  V30 10855 H 1929.39 3.26331 7.47797 0
M  V30 10856 P 1933.35 2.75334 8.47391 0
M  V30 10857 O 1933.57 2.44571 9.90142 0
M  V30 10858 O 1934.14 3.87688 7.92115 0
M  V30 10859 O 1933.6 1.4459 7.59357 0
M  V30 10860 C 1932.66 0.347608 7.69215 0
M  V30 10861 C 1933.39 -0.96767 7.52806 0
M  V30 10862 O 1933.6 -1.21036 6.1011 0
M  V30 10863 C 1934.79 -1.04544 8.13308 0
M  V30 10864 O 1935.18 -2.38311 8.41922 0
M  V30 10865 C 1935.67 -0.491279 7.02284 0
M  V30 10866 C 1934.96 -0.996264 5.77469 0
M  V30 10867 N 1935.01 -0.0501916 4.62973 0
M  V30 10868 H 1932.17 0.374722 8.67691 0
M  V30 10869 H 1931.9 0.443485 6.90277 0
M  V30 10870 H 1932.77 -1.75537 7.96793 0
M  V30 10871 P 1936.73 -2.75334 8.47391 0
M  V30 10872 O 1936.95 -3.84128 9.44797 0
M  V30 10873 O 1937.52 -1.51947 8.68712 0
M  V30 10874 O 1936.98 -3.29363 6.99321 0
M  V30 10875 C 1936.04 -4.24011 6.4274 0
M  V30 10876 C 1936.77 -5.20775 5.52155 0
M  V30 10877 O 1936.98 -4.56534 4.22446 0
M  V30 10878 C 1938.17 -5.62629 5.96531 0
M  V30 10879 O 1938.56 -6.87667 5.41053 0
M  V30 10880 C 1939.05 -4.52537 5.39283 0
M  V30 10881 C 1938.34 -4.20027 4.08623 0
M  V30 10882 N 1938.39 -2.76189 3.71603 0
M  V30 10883 H 1935.55 -4.797 7.24003 0
M  V30 10884 H 1935.28 -3.69856 5.84513 0
M  V30 10885 H 1936.15 -6.10356 5.41441 0
M  V30 10886 P 1940.11 -7.20834 5.23717 0
M  V30 10887 O 1940.33 -8.66104 5.38572 0
M  V30 10888 O 1940.9 -6.33544 6.1349 0
M  V30 10889 O 1940.36 -6.7751 3.72168 0
M  V30 10890 C 1939.42 -7.20825 2.7076 0
M  V30 10891 C 1940.15 -7.45864 1.40599 0
M  V30 10892 O 1940.36 -6.17651 0.734225 0
M  V30 10893 C 1941.55 -8.05808 1.51899 0
M  V30 10894 O 1941.94 -8.74358 0.335205 0
M  V30 10895 C 1942.43 -6.83093 1.70294 0
M  V30 10896 C 1941.72 -5.79992 0.836974 0
M  V30 10897 N 1941.77 -4.41864 1.38293 0
M  V30 10898 H 1938.93 -8.13644 3.0377 0
M  V30 10899 H 1938.66 -6.42788 2.55485 0
M  V30 10900 H 1939.53 -8.12039 0.792769 0
M  V30 10901 P 1943.49 -8.91 2.62406e-11 0
M  V30 10902 O 1943.71 -10.1726 -0.733694 0
M  V30 10903 O 1944.28 -8.73148 1.23936 0
M  V30 10904 O 1943.74 -7.66872 -0.971405 0
M  V30 10905 C 1942.8 -7.42309 -2.04641 0
M  V30 10906 C 1943.53 -6.86059 -3.24661 0
M  V30 10907 O 1943.74 -5.42847 -3.03646 0
M  V30 10908 C 1944.93 -7.41196 -3.50753 0
M  V30 10909 O 1945.32 -7.27073 -4.86816 0
M  V30 10910 C 1945.81 -6.5273 -2.63741 0
M  V30 10911 C 1945.1 -5.1842 -2.73198 0
M  V30 10912 N 1945.15 -4.38762 -1.4784 0
M  V30 10913 H 1942.31 -8.36803 -2.32493 0
M  V30 10914 H 1942.04 -6.70197 -1.71129 0
M  V30 10915 H 1942.91 -7.03551 -4.13168 0
M  V30 10916 P 1946.87 -7.20834 -5.23717 0
M  V30 10917 O 1947.09 -7.79853 -6.57286 0
M  V30 10918 O 1947.66 -7.79239 -4.12957 0
M  V30 10919 O 1947.12 -5.63315 -5.29344 0
M  V30 10920 C 1946.18 -4.80255 -6.01876 0
M  V30 10921 C 1946.91 -3.64202 -6.65911 0
M  V30 10922 O 1947.12 -2.60694 -5.64732 0
M  V30 10923 C 1948.31 -3.93473 -7.1943 0
M  V30 10924 O 1948.7 -3.02071 -8.21205 0
M  V30 10925 C 1949.19 -3.73047 -5.97036 0
M  V30 10926 C 1948.48 -2.58828 -5.25741 0
M  V30 10927 N 1948.53 -2.68068 -3.77503 0
M  V30 10928 H 1945.69 -5.40332 -6.79951 0
M  V30 10929 H 1945.42 -4.41613 -5.32378 0
M  V30 10930 H 1946.29 -3.26331 -7.47797 0
M  V30 10931 P 1950.25 -2.75334 -8.47391 0
M  V30 10932 O 1950.47 -2.44595 -9.90239 0
M  V30 10933 O 1951.04 -3.87732 -7.92204 0
M  V30 10934 O 1950.5 -1.4459 -7.59357 0
M  V30 10935 C 1949.56 -0.347563 -7.69115 0
M  V30 10936 C 1950.29 0.96767 -7.52806 0
M  V30 10937 O 1950.5 1.21036 -6.1011 0
M  V30 10938 C 1951.69 1.04544 -8.13308 0
M  V30 10939 O 1952.08 2.38311 -8.41922 0
M  V30 10940 C 1952.57 0.491279 -7.02284 0
M  V30 10941 C 1951.86 0.996264 -5.77469 0
M  V30 10942 N 1951.91 0.0501808 -4.62873 0
M  V30 10943 C 1952.06 0.588177 -3.36904 0
M  V30 10944 O 1952.15 1.78598 -3.17173 0
M  V30 10945 N 1952.1 -0.329694 -2.33686 0
M  V30 10946 C 1952.01 -1.6953 -2.45079 0
M  V30 10947 O 1952.06 -2.41926 -1.44899 0
M  V30 10948 C 1951.86 -2.16933 -3.80505 0
M  V30 10949 C 1951.75 -3.65373 -3.97621 0
M  V30 10950 C 1951.81 -1.30326 -4.83752 0
M  V30 10951 H 1949.07 -0.374722 -8.67691 0
M  V30 10952 H 1948.8 -0.443421 -6.90177 0
M  V30 10953 H 1949.67 1.75537 -7.96793 0
M  V30 10954 H 1952.32 1.94496 -5.46629 0
M  V30 10955 H 1952.6 -0.608651 -7.04676 0
M  V30 10956 H 1953.59 0.889672 -7.08939 0
M  V30 10957 H 1951.76 0.43308 -9.04564 0
M  V30 10958 H 1951.69 -1.68366 -5.8516 0
M  V30 10959 H 1952.72 -4.05985 -4.30448 0
M  V30 10960 H 1950.98 -3.88028 -4.72875 0
M  V30 10961 H 1951.47 -4.11381 -3.01609 0
M  V30 10962 H 1952.2 0.0393617 -1.41345 0
M  V30 10963 P 1953.63 2.75334 -8.47391 0
M  V30 10964 O 1953.85 3.84128 -9.44797 0
M  V30 10965 O 1954.42 1.51947 -8.68712 0
M  V30 10966 O 1953.88 3.29363 -6.99321 0
M  V30 10967 C 1952.94 4.24011 -6.4274 0
M  V30 10968 C 1953.67 5.20775 -5.52155 0
M  V30 10969 O 1953.88 4.56534 -4.22446 0
M  V30 10970 C 1955.07 5.62629 -5.96531 0
M  V30 10971 O 1955.46 6.87667 -5.41053 0
M  V30 10972 C 1955.95 4.52537 -5.39283 0
M  V30 10973 C 1955.24 4.20027 -4.08623 0
M  V30 10974 N 1955.29 2.76189 -3.71603 0
M  V30 10975 H 1952.45 4.797 -7.24003 0
M  V30 10976 H 1952.18 3.69856 -5.84513 0
M  V30 10977 H 1953.05 6.10356 -5.41441 0
M  V30 10978 P 1957.01 7.20834 -5.23717 0
M  V30 10979 O 1957.23 8.66189 -5.38625 0
M  V30 10980 O 1957.8 6.33615 -6.1356 0
M  V30 10981 O 1957.26 6.7751 -3.72168 0
M  V30 10982 C 1956.32 7.20825 -2.7076 0
M  V30 10983 C 1957.05 7.45864 -1.40599 0
M  V30 10984 O 1957.26 6.17651 -0.734225 0
M  V30 10985 C 1958.45 8.05808 -1.51899 0
M  V30 10986 O 1958.84 8.74358 -0.335205 0
M  V30 10987 C 1959.33 6.83093 -1.70294 0
M  V30 10988 C 1958.62 5.79992 -0.836974 0
M  V30 10989 N 1958.67 4.41769 -1.38263 0
M  V30 10990 C 1958.82 3.36514 -0.485617 0
M  V30 10991 O 1958.91 3.61814 0.724703 0
M  V30 10992 N 1958.87 2.00746 -1.14492 0
M  V30 10993 C 1958.77 1.85887 -2.27776 0
M  V30 10994 N 1958.82 0.600907 -2.69379 0
M  V30 10995 C 1958.62 2.92182 -3.22265 0
M  V30 10996 C 1958.57 4.18399 -2.71925 0
M  V30 10997 H 1955.83 8.1355 -3.03735 0
M  V30 10998 H 1955.56 6.42695 -2.55448 0
M  V30 10999 H 1956.43 8.12139 -0.792866 0
M  V30 11000 H 1959.08 5.80078 0.160615 0
M  V30 11001 H 1959.36 6.51379 -2.75643 0
M  V30 11002 H 1960.35 7.01734 -1.34462 0
M  V30 11003 H 1958.52 8.73674 -2.38337 0
M  V30 11004 H 1958.45 5.02669 -3.39718 0
M  V30 11005 H 1958.55 2.73001 -4.29239 0
M  V30 11006 H 1958.94 -0.162318 -2.01146 0
M  V30 11007 H 1958.74 0.387742 -3.69773 0
M  V30 11008 P 1960.39 8.91 -2.73496e-11 0
M  V30 11009 O 1960.61 10.1746 0.733838 0
M  V30 11010 O 1961.18 8.73346 -1.23964 0
M  V30 11011 O 1960.64 7.66872 0.971405 0
M  V30 11012 C 1959.7 7.42405 2.04668 0
M  V30 11013 C 1960.43 6.86059 3.24661 0
M  V30 11014 O 1960.64 5.42934 3.03695 0
M  V30 11015 C 1961.83 7.41287 3.50796 0
M  V30 11016 O 1962.22 7.27073 4.86816 0
M  V30 11017 C 1962.71 6.5273 2.63741 0
M  V30 11018 C 1962 5.1842 2.73198 0
M  V30 11019 N 1962.05 4.38762 1.4784 0
M  V30 11020 H 1959.21 8.36899 2.3252 0
M  V30 11021 H 1958.94 6.70391 1.71179 0
M  V30 11022 H 1959.81 7.03638 4.13219 0
M  V30 11023 H 1962.46 4.59931 3.54016 0
M  V30 11024 H 1962.74 6.88995 1.59871 0
M  V30 11025 H 1963.73 6.4684 3.0373 0
M  V30 11026 H 1961.9 8.47002 3.20749 0
M  V30 11027 P 1963.77 7.20834 5.23717 0
M  V30 11028 O 1963.99 7.79853 6.57286 0
M  V30 11029 O 1964.56 7.79239 4.12957 0
M  V30 11030 O 1964.02 5.63315 5.29344 0
M  V30 11031 C 1963.08 4.80255 6.01876 0
M  V30 11032 C 1963.81 3.64202 6.65911 0
M  V30 11033 O 1964.02 2.60694 5.64732 0
M  V30 11034 C 1965.21 3.93473 7.1943 0
M  V30 11035 O 1965.6 3.02071 8.21205 0
M  V30 11036 C 1966.09 3.73047 5.97036 0
M  V30 11037 C 1965.38 2.58828 5.25741 0
M  V30 11038 N 1965.43 2.68068 3.77503 0
M  V30 11039 C 1965.35 3.79715 2.96723 0
M  V30 11040 N 1965.43 3.5377 1.68852 0
M  V30 11041 C 1965.57 2.15054 1.63254 0
M  V30 11042 C 1965.7 1.28964 0.518571 0
M  V30 11043 N 1965.82 -0.0538097 0.918425 0
M  V30 11044 C 1965.82 -0.494275 2.22578 0
M  V30 11045 N 1965.95 -1.81086 2.40434 0
M  V30 11046 N 1965.69 0.313645 3.27502 0
M  V30 11047 C 1965.57 1.61829 2.91033 0
M  V30 11048 H 1962.59 5.40332 6.79951 0
M  V30 11049 H 1962.32 4.41613 5.32378 0
M  V30 11050 H 1963.19 3.26331 7.47797 0
M  V30 11051 P 1967.15 2.75334 8.47391 0
M  V30 11052 O 1967.37 2.44571 9.90142 0
M  V30 11053 O 1967.94 3.87688 7.92115 0
M  V30 11054 O 1967.4 1.4459 7.59357 0
M  V30 11055 C 1966.46 0.347608 7.69215 0
M  V30 11056 C 1967.19 -0.96767 7.52806 0
M  V30 11057 O 1967.4 -1.21036 6.1011 0
M  V30 11058 C 1968.59 -1.04544 8.13308 0
M  V30 11059 O 1968.98 -2.38311 8.41922 0
M  V30 11060 C 1969.47 -0.491279 7.02284 0
M  V30 11061 C 1968.76 -0.996264 5.77469 0
M  V30 11062 N 1968.81 -0.0501916 4.62973 0
M  V30 11063 H 1965.97 0.374722 8.67691 0
M  V30 11064 H 1965.7 0.443485 6.90277 0
M  V30 11065 H 1966.57 -1.75537 7.96793 0
M  V30 11066 P 1970.53 -2.75334 8.47391 0
M  V30 11067 O 1970.75 -3.84128 9.44797 0
M  V30 11068 O 1971.32 -1.51947 8.68712 0
M  V30 11069 O 1970.78 -3.29363 6.99321 0
M  V30 11070 C 1969.84 -4.24011 6.4274 0
M  V30 11071 C 1970.57 -5.20775 5.52155 0
M  V30 11072 O 1970.78 -4.56534 4.22446 0
M  V30 11073 C 1971.97 -5.62629 5.96531 0
M  V30 11074 O 1972.36 -6.87667 5.41053 0
M  V30 11075 C 1972.85 -4.52537 5.39283 0
M  V30 11076 C 1972.14 -4.20027 4.08623 0
M  V30 11077 N 1972.19 -2.76189 3.71603 0
M  V30 11078 H 1969.35 -4.797 7.24003 0
M  V30 11079 H 1969.08 -3.69856 5.84513 0
M  V30 11080 H 1969.95 -6.10356 5.41441 0
M  V30 11081 P 1973.91 -7.20834 5.23717 0
M  V30 11082 O 1974.13 -8.66104 5.38572 0
M  V30 11083 O 1974.7 -6.33544 6.1349 0
M  V30 11084 O 1974.16 -6.7751 3.72168 0
M  V30 11085 C 1973.22 -7.20825 2.7076 0
M  V30 11086 C 1973.95 -7.45864 1.40599 0
M  V30 11087 O 1974.16 -6.17651 0.734225 0
M  V30 11088 C 1975.35 -8.05808 1.51899 0
M  V30 11089 O 1975.74 -8.74358 0.335205 0
M  V30 11090 C 1976.23 -6.83093 1.70294 0
M  V30 11091 C 1975.52 -5.79992 0.836974 0
M  V30 11092 N 1975.57 -4.41864 1.38293 0
M  V30 11093 H 1972.73 -8.13644 3.0377 0
M  V30 11094 H 1972.46 -6.42788 2.55485 0
M  V30 11095 H 1973.33 -8.12039 0.792769 0
M  V30 11096 P 1977.29 -8.91 2.84586e-11 0
M  V30 11097 O 1977.51 -10.1726 -0.733694 0
M  V30 11098 O 1978.08 -8.73148 1.23936 0
M  V30 11099 O 1977.54 -7.66872 -0.971405 0
M  V30 11100 C 1976.6 -7.42309 -2.04641 0
M  V30 11101 C 1977.33 -6.86059 -3.24661 0
M  V30 11102 O 1977.54 -5.42847 -3.03646 0
M  V30 11103 C 1978.73 -7.41196 -3.50753 0
M  V30 11104 O 1979.12 -7.27073 -4.86816 0
M  V30 11105 C 1979.61 -6.5273 -2.63741 0
M  V30 11106 C 1978.9 -5.1842 -2.73198 0
M  V30 11107 N 1978.95 -4.38762 -1.4784 0
M  V30 11108 H 1976.11 -8.36803 -2.32493 0
M  V30 11109 H 1975.84 -6.70197 -1.71129 0
M  V30 11110 H 1976.71 -7.03551 -4.13168 0
M  V30 11111 P 1980.67 -7.20834 -5.23717 0
M  V30 11112 O 1980.89 -7.79853 -6.57286 0
M  V30 11113 O 1981.46 -7.79239 -4.12957 0
M  V30 11114 O 1980.92 -5.63315 -5.29344 0
M  V30 11115 C 1979.98 -4.80255 -6.01876 0
M  V30 11116 C 1980.71 -3.64202 -6.65911 0
M  V30 11117 O 1980.92 -2.60694 -5.64732 0
M  V30 11118 C 1982.11 -3.93473 -7.1943 0
M  V30 11119 O 1982.5 -3.02071 -8.21205 0
M  V30 11120 C 1982.99 -3.73047 -5.97036 0
M  V30 11121 C 1982.28 -2.58828 -5.25741 0
M  V30 11122 N 1982.33 -2.68068 -3.77503 0
M  V30 11123 H 1979.49 -5.40332 -6.79951 0
M  V30 11124 H 1979.22 -4.41613 -5.32378 0
M  V30 11125 H 1980.09 -3.26331 -7.47797 0
M  V30 11126 P 1984.05 -2.75334 -8.47391 0
M  V30 11127 O 1984.27 -2.44619 -9.90336 0
M  V30 11128 O 1984.84 -3.87776 -7.92294 0
M  V30 11129 O 1984.3 -1.4459 -7.59357 0
M  V30 11130 C 1983.36 -0.347653 -7.69315 0
M  V30 11131 C 1984.09 0.96767 -7.52806 0
M  V30 11132 O 1984.3 1.21055 -6.10208 0
M  V30 11133 C 1985.49 1.04557 -8.13408 0
M  V30 11134 O 1985.88 2.38311 -8.41922 0
M  V30 11135 C 1986.37 0.491279 -7.02284 0
M  V30 11136 C 1985.66 0.996264 -5.77469 0
M  V30 11137 N 1985.71 0.0501916 -4.62973 0
M  V30 11138 C 1985.63 -1.31969 -4.65661 0
M  V30 11139 N 1985.7 -1.86649 -3.48119 0
M  V30 11140 C 1985.85 -0.792089 -2.62406 0
M  V30 11141 C 1985.98 -0.705684 -1.2207 0
M  V30 11142 N 1985.99 -1.76207 -0.413762 0
M  V30 11143 N 1986.1 0.518981 -0.685754 0
M  V30 11144 C 1986.09 1.57595 -1.49174 0
M  V30 11145 N 1985.97 1.62909 -2.80066 0
M  V30 11146 C 1985.85 0.388195 -3.3073 0
M  V30 11147 H 1982.87 -0.374765 -8.67791 0
M  V30 11148 H 1982.6 -0.443613 -6.90476 0
M  V30 11149 H 1983.47 1.75559 -7.96891 0
M  V30 11150 H 1986.12 1.94563 -5.46818 0
M  V30 11151 H 1986.4 -0.608651 -7.04676 0
M  V30 11152 H 1987.39 0.889796 -7.09039 0
M  V30 11153 H 1985.56 0.433128 -9.04664 0
M  V30 11154 H 1985.52 -1.89246 -5.57664 0
M  V30 11155 H 1985.9 -2.71005 -0.804694 0
M  V30 11156 H 1986.09 -1.63189 0.603768 0
M  V30 11157 H 1986.2 2.53475 -0.997614 0
M  V30 11158 P 1987.43 2.75334 -8.47391 0
M  V30 11159 O 1987.65 3.84128 -9.44797 0
M  V30 11160 O 1988.22 1.51947 -8.68712 0
M  V30 11161 O 1987.68 3.29363 -6.99321 0
M  V30 11162 C 1986.74 4.24011 -6.4274 0
M  V30 11163 C 1987.47 5.20775 -5.52155 0
M  V30 11164 O 1987.68 4.56534 -4.22446 0
M  V30 11165 C 1988.87 5.62629 -5.96531 0
M  V30 11166 O 1989.26 6.87667 -5.41053 0
M  V30 11167 C 1989.75 4.52537 -5.39283 0
M  V30 11168 C 1989.04 4.20027 -4.08623 0
M  V30 11169 N 1989.09 2.76189 -3.71603 0
M  V30 11170 C 1989.01 1.64862 -4.52822 0
M  V30 11171 N 1989.09 0.512671 -3.88633 0
M  V30 11172 C 1989.23 0.888083 -2.54977 0
M  V30 11173 C 1989.36 0.094668 -1.38677 0
M  V30 11174 O 1989.38 -1.13053 -1.28163 0
M  V30 11175 N 1989.48 0.890102 -0.232633 0
M  V30 11176 C 1989.48 2.26958 -0.21772 0
M  V30 11177 N 1989.61 2.84626 0.97925 0
M  V30 11178 N 1989.35 3.0178 -1.31033 0
M  V30 11179 C 1989.23 2.26781 -2.43843 0
M  V30 11180 H 1986.25 4.797 -7.24003 0
M  V30 11181 H 1985.98 3.69856 -5.84513 0
M  V30 11182 H 1986.85 6.10356 -5.41441 0
M  V30 11183 H 1989.5 4.79061 -3.27488 0
M  V30 11184 H 1989.78 3.64906 -6.05785 0
M  V30 11185 H 1990.77 4.8868 -5.2125 0
M  V30 11186 H 1988.94 5.66726 -7.06352 0
M  V30 11187 H 1988.89 1.71169 -5.60966 0
M  V30 11188 H 1989.57 0.419134 0.644739 0
M  V30 11189 H 1989.61 3.87332 1.06098 0
M  V30 11190 H 1989.71 2.26417 1.82483 0
M  V30 11191 P 1990.81 7.20834 -5.23717 0
M  V30 11192 O 1991.03 8.66104 -5.38572 0
M  V30 11193 O 1991.6 6.33544 -6.1349 0
M  V30 11194 O 1991.06 6.7751 -3.72168 0
M  V30 11195 C 1990.12 7.20825 -2.7076 0
M  V30 11196 C 1990.85 7.45864 -1.40599 0
M  V30 11197 O 1991.06 6.17651 -0.734225 0
M  V30 11198 C 1992.25 8.05808 -1.51899 0
M  V30 11199 O 1992.64 8.74358 -0.335205 0
M  V30 11200 C 1993.13 6.83093 -1.70294 0
M  V30 11201 C 1992.42 5.79992 -0.836974 0
M  V30 11202 N 1992.47 4.41864 -1.38293 0
M  V30 11203 H 1989.63 8.13644 -3.0377 0
M  V30 11204 H 1989.36 6.42788 -2.55485 0
M  V30 11205 H 1990.23 8.12039 -0.792769 0
M  V30 11206 P 1994.19 8.91 -2.95676e-11 0
M  V30 11207 O 1994.41 10.1736 0.733766 0
M  V30 11208 O 1994.98 8.73247 -1.2395 0
M  V30 11209 O 1994.44 7.66872 0.971405 0
M  V30 11210 C 1993.5 7.42212 2.04614 0
M  V30 11211 C 1994.23 6.86059 3.24661 0
M  V30 11212 O 1994.44 5.42847 3.03646 0
M  V30 11213 C 1995.63 7.41196 3.50753 0
M  V30 11214 O 1996.02 7.27073 4.86816 0
M  V30 11215 C 1996.51 6.5273 2.63741 0
M  V30 11216 C 1995.8 5.1842 2.73198 0
M  V30 11217 N 1995.85 4.38668 1.47808 0
M  V30 11218 C 1996 3.02239 1.60048 0
M  V30 11219 O 1996.09 2.46459 2.67869 0
M  V30 11220 N 1996.04 2.32436 0.408571 0
M  V30 11221 C 1995.95 2.85471 -0.854993 0
M  V30 11222 O 1996 2.12566 -1.8531 0
M  V30 11223 C 1995.8 4.28918 -0.887335 0
M  V30 11224 C 1995.69 4.91066 -2.24619 0
M  V30 11225 C 1995.75 5.00349 0.255399 0
M  V30 11226 H 1993.01 8.36803 2.32493 0
M  V30 11227 H 1992.74 6.701 1.71105 0
M  V30 11228 H 1993.61 7.03551 4.13168 0
M  V30 11229 H 1996.26 4.59773 3.53894 0
M  V30 11230 H 1996.54 6.88995 1.59871 0
M  V30 11231 H 1997.53 6.46749 3.03687 0
M  V30 11232 H 1995.7 8.46908 3.20714 0
M  V30 11233 H 1995.63 6.08548 0.206986 0
M  V30 11234 H 1996.66 5.34836 -2.53099 0
M  V30 11235 H 1994.92 5.69638 -2.2291 0
M  V30 11236 H 1995.41 4.13971 -2.98044 0
M  V30 11237 H 1996.14 1.33211 0.474216 0
M  V30 11238 P 1997.57 7.20834 5.23717 0
M  V30 11239 O 1997.79 7.79853 6.57286 0
M  V30 11240 O 1998.36 7.79239 4.12957 0
M  V30 11241 O 1997.82 5.63315 5.29344 0
M  V30 11242 C 1996.88 4.80255 6.01876 0
M  V30 11243 C 1997.61 3.64202 6.65911 0
M  V30 11244 O 1997.82 2.60694 5.64732 0
M  V30 11245 C 1999.01 3.93473 7.1943 0
M  V30 11246 O 1999.4 3.02071 8.21205 0
M  V30 11247 C 1999.89 3.73047 5.97036 0
M  V30 11248 C 1999.18 2.58828 5.25741 0
M  V30 11249 N 1999.23 2.68068 3.77503 0
M  V30 11250 H 1996.39 5.40332 6.79951 0
M  V30 11251 H 1996.12 4.41613 5.32378 0
M  V30 11252 H 1996.99 3.26331 7.47797 0
M  V30 11253 P 2000.95 2.75334 8.47391 0
M  V30 11254 O 2001.17 2.44571 9.90142 0
M  V30 11255 O 2001.74 3.87688 7.92115 0
M  V30 11256 O 2001.2 1.4459 7.59357 0
M  V30 11257 C 2000.26 0.347608 7.69215 0
M  V30 11258 C 2000.99 -0.96767 7.52806 0
M  V30 11259 O 2001.2 -1.21036 6.1011 0
M  V30 11260 C 2002.39 -1.04544 8.13308 0
M  V30 11261 O 2002.78 -2.38311 8.41922 0
M  V30 11262 C 2003.27 -0.491279 7.02284 0
M  V30 11263 C 2002.56 -0.996264 5.77469 0
M  V30 11264 N 2002.61 -0.0501916 4.62973 0
M  V30 11265 C 2002.53 1.32786 4.63244 0
M  V30 11266 N 2002.61 1.86957 3.44545 0
M  V30 11267 C 2002.75 0.780241 2.58481 0
M  V30 11268 C 2002.88 0.738536 1.17757 0
M  V30 11269 O 2002.9 1.66794 0.372349 0
M  V30 11270 N 2003 -0.58337 0.711393 0
M  V30 11271 C 2003 -1.70816 1.51017 0
M  V30 11272 N 2003.13 -2.87826 0.880757 0
M  V30 11273 N 2002.87 -1.67126 2.8339 0
M  V30 11274 C 2002.75 -0.401421 3.30572 0
M  V30 11275 H 1999.77 0.374722 8.67691 0
M  V30 11276 H 1999.5 0.443485 6.90277 0
M  V30 11277 H 2000.37 -1.75537 7.96793 0
M  V30 11278 H 2003.02 -1.95076 5.46529 0
M  V30 11279 H 2003.3 0.608565 7.04577 0
M  V30 11280 H 2004.29 -0.889672 7.08939 0
M  V30 11281 H 2002.46 -0.43308 9.04564 0
M  V30 11282 H 2002.41 1.91249 5.54442 0
M  V30 11283 H 2003.09 -0.718054 -0.275244 0
M  V30 11284 H 2003.13 -3.75721 1.41832 0
M  V30 11285 H 2003.23 -2.90436 -0.145468 0
M  V30 11286 P 2004.33 -2.75334 8.47391 0
M  V30 11287 O 2004.55 -3.84128 9.44797 0
M  V30 11288 O 2005.12 -1.51947 8.68712 0
M  V30 11289 O 2004.58 -3.29363 6.99321 0
M  V30 11290 C 2003.64 -4.24011 6.4274 0
M  V30 11291 C 2004.37 -5.20775 5.52155 0
M  V30 11292 O 2004.58 -4.56534 4.22446 0
M  V30 11293 C 2005.77 -5.62629 5.96531 0
M  V30 11294 O 2006.16 -6.87667 5.41053 0
M  V30 11295 C 2006.65 -4.52537 5.39283 0
M  V30 11296 C 2005.94 -4.20027 4.08623 0
M  V30 11297 N 2005.99 -2.76189 3.71603 0
M  V30 11298 H 2003.15 -4.797 7.24003 0
M  V30 11299 H 2002.88 -3.69856 5.84513 0
M  V30 11300 H 2003.75 -6.10356 5.41441 0
M  V30 11301 P 2007.71 -7.20834 5.23717 0
M  V30 11302 O 2007.93 -8.66104 5.38572 0
M  V30 11303 O 2008.5 -6.33544 6.1349 0
M  V30 11304 O 2007.96 -6.7751 3.72168 0
M  V30 11305 C 2007.02 -7.20825 2.7076 0
M  V30 11306 C 2007.75 -7.45864 1.40599 0
M  V30 11307 O 2007.96 -6.17651 0.734225 0
M  V30 11308 C 2009.15 -8.05808 1.51899 0
M  V30 11309 O 2009.54 -8.74358 0.335205 0
M  V30 11310 C 2010.03 -6.83093 1.70294 0
M  V30 11311 C 2009.32 -5.79992 0.836974 0
M  V30 11312 N 2009.37 -4.41864 1.38293 0
M  V30 11313 C 2009.29 -3.99538 2.69438 0
M  V30 11314 N 2009.37 -2.69909 2.84277 0
M  V30 11315 C 2009.51 -2.21719 1.5408 0
M  V30 11316 C 2009.64 -0.891712 1.06628 0
M  V30 11317 N 2009.76 -0.856846 -0.334985 0
M  V30 11318 C 2009.76 -1.9641 -1.15789 0
M  V30 11319 N 2009.89 -1.72708 -2.46522 0
M  V30 11320 N 2009.63 -3.21165 -0.713741 0
M  V30 11321 C 2009.51 -3.26797 0.639748 0
M  V30 11322 H 2006.53 -8.13644 3.0377 0
M  V30 11323 H 2006.26 -6.42788 2.55485 0
M  V30 11324 H 2007.13 -8.12039 0.792769 0
M  V30 11325 P 2011.09 -8.91 3.06766e-11 0
M  V30 11326 O 2011.31 -10.1726 -0.733694 0
M  V30 11327 O 2011.88 -8.73148 1.23936 0
M  V30 11328 O 2011.34 -7.66872 -0.971405 0
M  V30 11329 C 2010.4 -7.42309 -2.04641 0
M  V30 11330 C 2011.13 -6.86059 -3.24661 0
M  V30 11331 O 2011.34 -5.42847 -3.03646 0
M  V30 11332 C 2012.53 -7.41196 -3.50753 0
M  V30 11333 O 2012.92 -7.27073 -4.86816 0
M  V30 11334 C 2013.41 -6.5273 -2.63741 0
M  V30 11335 C 2012.7 -5.1842 -2.73198 0
M  V30 11336 N 2012.75 -4.38762 -1.4784 0
M  V30 11337 C 2012.67 -4.81605 -0.168631 0
M  V30 11338 N 2012.75 -3.85454 0.713363 0
M  V30 11339 C 2012.89 -2.6994 -0.0566958 0
M  V30 11340 C 2013.02 -1.34815 0.338502 0
M  V30 11341 N 2013.14 -0.496304 -0.77465 0
M  V30 11342 C 2013.14 -0.908403 -2.09122 0
M  V30 11343 N 2013.27 0.0517805 -3.00955 0
M  V30 11344 N 2013.01 -2.17875 -2.46519 0
M  V30 11345 C 2012.89 -3.01988 -1.4033 0
M  V30 11346 H 2009.91 -8.36803 -2.32493 0
M  V30 11347 H 2009.64 -6.70197 -1.71129 0
M  V30 11348 H 2010.51 -7.03551 -4.13168 0
M  V30 11349 P 2014.47 -7.20834 -5.23717 0
M  V30 11350 O 2014.69 -7.80006 -6.57415 0
M  V30 11351 O 2015.26 -7.79416 -4.13051 0
M  V30 11352 O 2014.72 -5.63315 -5.29344 0
M  V30 11353 C 2013.78 -4.80318 -6.01954 0
M  V30 11354 C 2014.51 -3.64202 -6.65911 0
M  V30 11355 O 2014.72 -2.60736 -5.64823 0
M  V30 11356 C 2015.91 -3.93521 -7.19518 0
M  V30 11357 O 2016.3 -3.02071 -8.21205 0
M  V30 11358 C 2016.79 -3.73047 -5.97036 0
M  V30 11359 C 2016.08 -2.58828 -5.25741 0
M  V30 11360 N 2016.13 -2.68068 -3.77503 0
M  V30 11361 C 2016.05 -3.80474 -2.99159 0
M  V30 11362 N 2016.12 -3.55622 -1.71925 0
M  V30 11363 C 2016.27 -2.1832 -1.65733 0
M  V30 11364 C 2016.4 -1.28842 -0.572777 0
M  V30 11365 N 2016.41 -1.66875 0.70098 0
M  V30 11366 N 2016.52 0.016788 -0.859836 0
M  V30 11367 C 2016.51 0.398145 -2.13316 0
M  V30 11368 N 2016.39 -0.328224 -3.22333 0
M  V30 11369 C 2016.27 -1.62992 -2.90383 0
M  V30 11370 H 2013.29 -5.40394 -6.8003 0
M  V30 11371 H 2013.02 -4.41741 -5.32532 0
M  V30 11372 H 2013.89 -3.26371 -7.47889 0
M  V30 11373 H 2016.54 -1.64007 -5.56746 0
M  V30 11374 H 2016.82 -4.63439 -5.3432 0
M  V30 11375 H 2017.81 -3.44776 -6.25925 0
M  V30 11376 H 2015.98 -4.96707 -7.57347 0
M  V30 11377 H 2015.94 -4.8089 -3.39924 0
M  V30 11378 H 2016.32 -2.66547 0.941919 0
M  V30 11379 H 2016.51 -0.965341 1.44766 0
M  V30 11380 H 2016.62 1.46427 -2.29697 0
M  V30 11381 P 2017.85 -2.75334 -8.47391 0
M  V30 11382 O 2018.07 -2.44571 -9.90142 0
M  V30 11383 O 2018.64 -3.87688 -7.92115 0
M  V30 11384 O 2018.1 -1.4459 -7.59357 0
M  V30 11385 C 2017.16 -0.347608 -7.69215 0
M  V30 11386 C 2017.89 0.96767 -7.52806 0
M  V30 11387 O 2018.1 1.21036 -6.1011 0
M  V30 11388 C 2019.29 1.04544 -8.13308 0
M  V30 11389 O 2019.68 2.38311 -8.41922 0
M  V30 11390 C 2020.17 0.491279 -7.02284 0
M  V30 11391 C 2019.46 0.996264 -5.77469 0
M  V30 11392 N 2019.51 0.0501916 -4.62973 0
M  V30 11393 H 2016.67 -0.374722 -8.67691 0
M  V30 11394 H 2016.4 -0.443485 -6.90277 0
M  V30 11395 H 2017.27 1.75537 -7.96793 0
M  V30 11396 P 2021.23 2.75334 -8.47391 0
M  V30 11397 O 2021.45 3.84204 -9.44982 0
M  V30 11398 O 2022.02 1.51982 -8.68909 0
M  V30 11399 O 2021.48 3.29363 -6.99321 0
M  V30 11400 C 2020.54 4.24066 -6.42823 0
M  V30 11401 C 2021.27 5.20775 -5.52155 0
M  V30 11402 O 2021.48 4.56607 -4.22514 0
M  V30 11403 C 2022.67 5.62697 -5.96604 0
M  V30 11404 O 2023.06 6.87667 -5.41053 0
M  V30 11405 C 2023.55 4.52537 -5.39283 0
M  V30 11406 C 2022.84 4.20027 -4.08623 0
M  V30 11407 N 2022.89 2.76189 -3.71603 0
M  V30 11408 C 2022.81 1.66944 -4.54297 0
M  V30 11409 N 2022.88 0.536169 -3.91344 0
M  V30 11410 C 2023.03 0.901569 -2.58849 0
M  V30 11411 C 2023.16 0.146599 -1.40236 0
M  V30 11412 N 2023.17 -1.18234 -1.37046 0
M  V30 11413 N 2023.28 0.822941 -0.249738 0
M  V30 11414 C 2023.27 2.15179 -0.280525 0
M  V30 11415 N 2023.15 2.96414 -1.30822 0
M  V30 11416 C 2023.03 2.25804 -2.44748 0
M  V30 11417 H 2020.05 4.79756 -7.24086 0
M  V30 11418 H 2019.78 3.69963 -5.84682 0
M  V30 11419 H 2020.65 6.10431 -5.41508 0
M  V30 11420 H 2023.3 4.78816 -3.28024 0
M  V30 11421 H 2023.58 3.64957 -6.05871 0
M  V30 11422 H 2024.57 4.88748 -5.21323 0
M  V30 11423 H 2022.74 5.66789 -7.0643 0
M  V30 11424 H 2022.7 1.74684 -5.62396 0
M  V30 11425 H 2023.08 -1.71949 -2.24394 0
M  V30 11426 H 2023.27 -1.67511 -0.470742 0
M  V30 11427 H 2023.38 2.63704 0.6828 0
M  V30 11428 P 2024.61 7.20834 -5.23717 0
M  V30 11429 O 2024.83 8.66104 -5.38572 0
M  V30 11430 O 2025.4 6.33544 -6.1349 0
M  V30 11431 O 2024.86 6.7751 -3.72168 0
M  V30 11432 C 2023.92 7.20825 -2.7076 0
M  V30 11433 C 2024.65 7.45864 -1.40599 0
M  V30 11434 O 2024.86 6.17651 -0.734225 0
M  V30 11435 C 2026.05 8.05808 -1.51899 0
M  V30 11436 O 2026.44 8.74358 -0.335205 0
M  V30 11437 C 2026.93 6.83093 -1.70294 0
M  V30 11438 C 2026.22 5.79992 -0.836974 0
M  V30 11439 N 2026.27 4.41864 -1.38293 0
M  V30 11440 C 2026.19 3.99538 -2.69438 0
M  V30 11441 N 2026.27 2.69909 -2.84277 0
M  V30 11442 C 2026.41 2.21719 -1.5408 0
M  V30 11443 C 2026.54 0.891712 -1.06628 0
M  V30 11444 N 2026.66 0.856846 0.334985 0
M  V30 11445 C 2026.66 1.9641 1.15789 0
M  V30 11446 N 2026.79 1.72708 2.46522 0
M  V30 11447 N 2026.53 3.21165 0.713741 0
M  V30 11448 C 2026.41 3.26797 -0.639748 0
M  V30 11449 H 2023.43 8.13644 -3.0377 0
M  V30 11450 H 2023.16 6.42788 -2.55485 0
M  V30 11451 H 2024.03 8.12039 -0.792769 0
M  V30 11452 P 2027.99 8.91 -3.17856e-11 0
M  V30 11453 O 2028.21 10.1726 0.733694 0
M  V30 11454 O 2028.78 8.73148 -1.23936 0
M  V30 11455 O 2028.24 7.66872 0.971405 0
M  V30 11456 C 2027.3 7.42309 2.04641 0
M  V30 11457 C 2028.03 6.86059 3.24661 0
M  V30 11458 O 2028.24 5.42847 3.03646 0
M  V30 11459 C 2029.43 7.41196 3.50753 0
M  V30 11460 O 2029.82 7.27073 4.86816 0
M  V30 11461 C 2030.31 6.5273 2.63741 0
M  V30 11462 C 2029.6 5.1842 2.73198 0
M  V30 11463 N 2029.65 4.38762 1.4784 0
M  V30 11464 C 2029.57 4.81605 0.168631 0
M  V30 11465 N 2029.65 3.85454 -0.713363 0
M  V30 11466 C 2029.79 2.6994 0.0566958 0
M  V30 11467 C 2029.92 1.34815 -0.338502 0
M  V30 11468 N 2030.04 0.496304 0.77465 0
M  V30 11469 C 2030.04 0.908403 2.09122 0
M  V30 11470 N 2030.17 -0.0517805 3.00955 0
M  V30 11471 N 2029.91 2.17875 2.46519 0
M  V30 11472 C 2029.79 3.01988 1.4033 0
M  V30 11473 H 2026.81 8.36803 2.32493 0
M  V30 11474 H 2026.54 6.70197 1.71129 0
M  V30 11475 H 2027.41 7.03551 4.13168 0
M  V30 11476 P 2031.37 7.20834 5.23717 0
M  V30 11477 O 2031.59 7.79853 6.57286 0
M  V30 11478 O 2032.16 7.79239 4.12957 0
M  V30 11479 O 2031.62 5.63315 5.29344 0
M  V30 11480 C 2030.68 4.80255 6.01876 0
M  V30 11481 C 2031.41 3.64202 6.65911 0
M  V30 11482 O 2031.62 2.60694 5.64732 0
M  V30 11483 C 2032.81 3.93473 7.1943 0
M  V30 11484 O 2033.2 3.02071 8.21205 0
M  V30 11485 C 2033.69 3.73047 5.97036 0
M  V30 11486 C 2032.98 2.58828 5.25741 0
M  V30 11487 N 2033.03 2.68068 3.77503 0
M  V30 11488 H 2030.19 5.40332 6.79951 0
M  V30 11489 H 2029.92 4.41613 5.32378 0
M  V30 11490 H 2030.79 3.26331 7.47797 0
M  V30 11491 P 2034.75 2.75334 8.47391 0
M  V30 11492 O 2034.97 2.44595 9.90239 0
M  V30 11493 O 2035.54 3.87732 7.92204 0
M  V30 11494 O 2035 1.4459 7.59357 0
M  V30 11495 C 2034.06 0.347563 7.69115 0
M  V30 11496 C 2034.79 -0.96767 7.52806 0
M  V30 11497 O 2035 -1.21036 6.1011 0
M  V30 11498 C 2036.19 -1.04544 8.13308 0
M  V30 11499 O 2036.58 -2.38311 8.41922 0
M  V30 11500 C 2037.07 -0.491279 7.02284 0
M  V30 11501 C 2036.36 -0.996264 5.77469 0
M  V30 11502 N 2036.41 -0.0501808 4.62873 0
M  V30 11503 C 2036.56 -0.588177 3.36904 0
M  V30 11504 O 2036.65 -1.78598 3.17173 0
M  V30 11505 N 2036.6 0.329694 2.33686 0
M  V30 11506 C 2036.51 1.6953 2.45079 0
M  V30 11507 O 2036.56 2.41926 1.44899 0
M  V30 11508 C 2036.36 2.16933 3.80505 0
M  V30 11509 C 2036.25 3.65373 3.97621 0
M  V30 11510 C 2036.31 1.30326 4.83752 0
M  V30 11511 H 2033.57 0.374722 8.67691 0
M  V30 11512 H 2033.3 0.443421 6.90177 0
M  V30 11513 H 2034.17 -1.75537 7.96793 0
M  V30 11514 H 2036.82 -1.94496 5.46629 0
M  V30 11515 H 2037.1 0.608651 7.04676 0
M  V30 11516 H 2038.09 -0.889672 7.08939 0
M  V30 11517 H 2036.26 -0.43308 9.04564 0
M  V30 11518 H 2036.19 1.68366 5.8516 0
M  V30 11519 H 2037.22 4.05985 4.30448 0
M  V30 11520 H 2035.48 3.88028 4.72875 0
M  V30 11521 H 2035.97 4.11381 3.01609 0
M  V30 11522 H 2036.7 -0.0393617 1.41345 0
M  V30 11523 P 2038.13 -2.75334 8.47391 0
M  V30 11524 O 2038.35 -3.84128 9.44797 0
M  V30 11525 O 2038.92 -1.51947 8.68712 0
M  V30 11526 O 2038.38 -3.29363 6.99321 0
M  V30 11527 C 2037.44 -4.24011 6.4274 0
M  V30 11528 C 2038.17 -5.20775 5.52155 0
M  V30 11529 O 2038.38 -4.56534 4.22446 0
M  V30 11530 C 2039.57 -5.62629 5.96531 0
M  V30 11531 O 2039.96 -6.87667 5.41053 0
M  V30 11532 C 2040.45 -4.52537 5.39283 0
M  V30 11533 C 2039.74 -4.20027 4.08623 0
M  V30 11534 N 2039.79 -2.76189 3.71603 0
M  V30 11535 H 2036.95 -4.797 7.24003 0
M  V30 11536 H 2036.68 -3.69856 5.84513 0
M  V30 11537 H 2037.55 -6.10356 5.41441 0
M  V30 11538 P 2041.51 -7.20834 5.23717 0
M  V30 11539 O 2041.73 -8.66104 5.38572 0
M  V30 11540 O 2042.3 -6.33544 6.1349 0
M  V30 11541 O 2041.76 -6.7751 3.72168 0
M  V30 11542 C 2040.82 -7.20825 2.7076 0
M  V30 11543 C 2041.55 -7.45864 1.40599 0
M  V30 11544 O 2041.76 -6.17651 0.734225 0
M  V30 11545 C 2042.95 -8.05808 1.51899 0
M  V30 11546 O 2043.34 -8.74358 0.335205 0
M  V30 11547 C 2043.83 -6.83093 1.70294 0
M  V30 11548 C 2043.12 -5.79992 0.836974 0
M  V30 11549 N 2043.17 -4.41864 1.38293 0
M  V30 11550 C 2043.09 -3.99538 2.69438 0
M  V30 11551 N 2043.17 -2.69909 2.84277 0
M  V30 11552 C 2043.31 -2.21719 1.5408 0
M  V30 11553 C 2043.44 -0.891712 1.06628 0
M  V30 11554 N 2043.56 -0.856846 -0.334985 0
M  V30 11555 C 2043.56 -1.9641 -1.15789 0
M  V30 11556 N 2043.69 -1.72708 -2.46522 0
M  V30 11557 N 2043.43 -3.21165 -0.713741 0
M  V30 11558 C 2043.31 -3.26797 0.639748 0
M  V30 11559 H 2040.33 -8.13644 3.0377 0
M  V30 11560 H 2040.06 -6.42788 2.55485 0
M  V30 11561 H 2040.93 -8.12039 0.792769 0
M  V30 11562 P 2044.89 -8.91 3.28946e-11 0
M  V30 11563 O 2045.11 -10.1746 -0.733838 0
M  V30 11564 O 2045.68 -8.73346 1.23964 0
M  V30 11565 O 2045.14 -7.66872 -0.971405 0
M  V30 11566 C 2044.2 -7.42405 -2.04668 0
M  V30 11567 C 2044.93 -6.86059 -3.24661 0
M  V30 11568 O 2045.14 -5.42934 -3.03695 0
M  V30 11569 C 2046.33 -7.41287 -3.50796 0
M  V30 11570 O 2046.72 -7.27073 -4.86816 0
M  V30 11571 C 2047.21 -6.5273 -2.63741 0
M  V30 11572 C 2046.5 -5.1842 -2.73198 0
M  V30 11573 N 2046.55 -4.38762 -1.4784 0
M  V30 11574 H 2043.71 -8.36899 -2.3252 0
M  V30 11575 H 2043.44 -6.70391 -1.71179 0
M  V30 11576 H 2044.31 -7.03638 -4.13219 0
M  V30 11577 H 2046.96 -4.59931 -3.54016 0
M  V30 11578 H 2047.24 -6.88995 -1.59871 0
M  V30 11579 H 2048.23 -6.4684 -3.0373 0
M  V30 11580 H 2046.4 -8.47002 -3.20749 0
M  V30 11581 P 2048.27 -7.20834 -5.23717 0
M  V30 11582 O 2048.49 -7.79853 -6.57286 0
M  V30 11583 O 2049.06 -7.79239 -4.12957 0
M  V30 11584 O 2048.52 -5.63315 -5.29344 0
M  V30 11585 C 2047.58 -4.80255 -6.01876 0
M  V30 11586 C 2048.31 -3.64202 -6.65911 0
M  V30 11587 O 2048.52 -2.60694 -5.64732 0
M  V30 11588 C 2049.71 -3.93473 -7.1943 0
M  V30 11589 O 2050.1 -3.02071 -8.21205 0
M  V30 11590 C 2050.59 -3.73047 -5.97036 0
M  V30 11591 C 2049.88 -2.58828 -5.25741 0
M  V30 11592 N 2049.93 -2.68068 -3.77503 0
M  V30 11593 H 2047.09 -5.40332 -6.79951 0
M  V30 11594 H 2046.82 -4.41613 -5.32378 0
M  V30 11595 H 2047.69 -3.26331 -7.47797 0
M  V30 11596 P 2051.65 -2.75334 -8.47391 0
M  V30 11597 O 2051.87 -2.44595 -9.90239 0
M  V30 11598 O 2052.44 -3.87732 -7.92204 0
M  V30 11599 O 2051.9 -1.4459 -7.59357 0
M  V30 11600 C 2050.96 -0.347563 -7.69115 0
M  V30 11601 C 2051.69 0.96767 -7.52806 0
M  V30 11602 O 2051.9 1.21036 -6.1011 0
M  V30 11603 C 2053.09 1.04544 -8.13308 0
M  V30 11604 O 2053.48 2.38311 -8.41922 0
M  V30 11605 C 2053.97 0.491279 -7.02284 0
M  V30 11606 C 2053.26 0.996264 -5.77469 0
M  V30 11607 N 2053.31 0.0501808 -4.62873 0
M  V30 11608 C 2053.46 0.588177 -3.36904 0
M  V30 11609 O 2053.55 1.78598 -3.17173 0
M  V30 11610 N 2053.5 -0.329694 -2.33686 0
M  V30 11611 C 2053.41 -1.6953 -2.45079 0
M  V30 11612 O 2053.46 -2.41926 -1.44899 0
M  V30 11613 C 2053.26 -2.16933 -3.80505 0
M  V30 11614 C 2053.15 -3.65373 -3.97621 0
M  V30 11615 C 2053.21 -1.30326 -4.83752 0
M  V30 11616 H 2050.47 -0.374722 -8.67691 0
M  V30 11617 H 2050.2 -0.443421 -6.90177 0
M  V30 11618 H 2051.07 1.75537 -7.96793 0
M  V30 11619 H 2053.72 1.94496 -5.46629 0
M  V30 11620 H 2054 -0.608651 -7.04676 0
M  V30 11621 H 2054.99 0.889672 -7.08939 0
M  V30 11622 H 2053.16 0.43308 -9.04564 0
M  V30 11623 H 2053.09 -1.68366 -5.8516 0
M  V30 11624 H 2054.12 -4.05985 -4.30448 0
M  V30 11625 H 2052.38 -3.88028 -4.72875 0
M  V30 11626 H 2052.87 -4.11381 -3.01609 0
M  V30 11627 H 2053.6 0.0393617 -1.41345 0
M  V30 11628 P 2055.03 2.75334 -8.47391 0
M  V30 11629 O 2055.25 3.84128 -9.44797 0
M  V30 11630 O 2055.82 1.51947 -8.68712 0
M  V30 11631 O 2055.28 3.29363 -6.99321 0
M  V30 11632 C 2054.34 4.24011 -6.4274 0
M  V30 11633 C 2055.07 5.20775 -5.52155 0
M  V30 11634 O 2055.28 4.56534 -4.22446 0
M  V30 11635 C 2056.47 5.62629 -5.96531 0
M  V30 11636 O 2056.86 6.87667 -5.41053 0
M  V30 11637 C 2057.35 4.52537 -5.39283 0
M  V30 11638 C 2056.64 4.20027 -4.08623 0
M  V30 11639 N 2056.69 2.76189 -3.71603 0
M  V30 11640 C 2056.61 1.64862 -4.52822 0
M  V30 11641 N 2056.69 0.512671 -3.88633 0
M  V30 11642 C 2056.83 0.888083 -2.54977 0
M  V30 11643 C 2056.96 0.094668 -1.38677 0
M  V30 11644 N 2057.08 0.890102 -0.232633 0
M  V30 11645 C 2057.08 2.26958 -0.21772 0
M  V30 11646 N 2057.21 2.84626 0.97925 0
M  V30 11647 N 2056.95 3.0178 -1.31033 0
M  V30 11648 C 2056.83 2.26781 -2.43843 0
M  V30 11649 H 2053.85 4.797 -7.24003 0
M  V30 11650 H 2053.58 3.69856 -5.84513 0
M  V30 11651 H 2054.45 6.10356 -5.41441 0
M  V30 11652 P 2058.41 7.20834 -5.23717 0
M  V30 11653 O 2058.63 8.66104 -5.38572 0
M  V30 11654 O 2059.2 6.33544 -6.1349 0
M  V30 11655 O 2058.66 6.7751 -3.72168 0
M  V30 11656 C 2057.72 7.20825 -2.7076 0
M  V30 11657 C 2058.45 7.45864 -1.40599 0
M  V30 11658 O 2058.66 6.17651 -0.734225 0
M  V30 11659 C 2059.85 8.05808 -1.51899 0
M  V30 11660 O 2060.24 8.74358 -0.335205 0
M  V30 11661 C 2060.73 6.83093 -1.70294 0
M  V30 11662 C 2060.02 5.79992 -0.836974 0
M  V30 11663 N 2060.07 4.41864 -1.38293 0
M  V30 11664 H 2057.23 8.13644 -3.0377 0
M  V30 11665 H 2056.96 6.42788 -2.55485 0
M  V30 11666 H 2057.83 8.12039 -0.792769 0
M  V30 11667 P 2061.79 8.91 -3.40036e-11 0
M  V30 11668 O 2062.01 10.1726 0.733694 0
M  V30 11669 O 2062.58 8.73148 -1.23936 0
M  V30 11670 O 2062.04 7.66872 0.971405 0
M  V30 11671 C 2061.1 7.42309 2.04641 0
M  V30 11672 C 2061.83 6.86059 3.24661 0
M  V30 11673 O 2062.04 5.42847 3.03646 0
M  V30 11674 C 2063.23 7.41196 3.50753 0
M  V30 11675 O 2063.62 7.27073 4.86816 0
M  V30 11676 C 2064.11 6.5273 2.63741 0
M  V30 11677 C 2063.4 5.1842 2.73198 0
M  V30 11678 N 2063.45 4.38762 1.4784 0
M  V30 11679 H 2060.61 8.36803 2.32493 0
M  V30 11680 H 2060.34 6.70197 1.71129 0
M  V30 11681 H 2061.21 7.03551 4.13168 0
M  V30 11682 P 2065.17 7.20834 5.23717 0
M  V30 11683 O 2065.39 7.79853 6.57286 0
M  V30 11684 O 2065.96 7.79239 4.12957 0
M  V30 11685 O 2065.42 5.63315 5.29344 0
M  V30 11686 C 2064.48 4.80255 6.01876 0
M  V30 11687 C 2065.21 3.64202 6.65911 0
M  V30 11688 O 2065.42 2.60694 5.64732 0
M  V30 11689 C 2066.61 3.93473 7.1943 0
M  V30 11690 O 2067 3.02071 8.21205 0
M  V30 11691 C 2067.49 3.73047 5.97036 0
M  V30 11692 C 2066.78 2.58828 5.25741 0
M  V30 11693 N 2066.83 2.68068 3.77503 0
M  V30 11694 H 2063.99 5.40332 6.79951 0
M  V30 11695 H 2063.72 4.41613 5.32378 0
M  V30 11696 H 2064.59 3.26331 7.47797 0
M  V30 11697 P 2068.55 2.75334 8.47391 0
M  V30 11698 O 2068.77 2.44571 9.90142 0
M  V30 11699 O 2069.34 3.87688 7.92115 0
M  V30 11700 O 2068.8 1.4459 7.59357 0
M  V30 11701 C 2067.86 0.347608 7.69215 0
M  V30 11702 C 2068.59 -0.96767 7.52806 0
M  V30 11703 O 2068.8 -1.21036 6.1011 0
M  V30 11704 C 2069.99 -1.04544 8.13308 0
M  V30 11705 O 2070.38 -2.38311 8.41922 0
M  V30 11706 C 2070.87 -0.491279 7.02284 0
M  V30 11707 C 2070.16 -0.996264 5.77469 0
M  V30 11708 N 2070.21 -0.0501916 4.62973 0
M  V30 11709 C 2070.13 1.32786 4.63244 0
M  V30 11710 N 2070.21 1.86957 3.44545 0
M  V30 11711 C 2070.35 0.780241 2.58481 0
M  V30 11712 C 2070.48 0.738536 1.17757 0
M  V30 11713 N 2070.6 -0.58337 0.711393 0
M  V30 11714 C 2070.6 -1.70816 1.51017 0
M  V30 11715 N 2070.73 -2.87826 0.880757 0
M  V30 11716 N 2070.47 -1.67126 2.8339 0
M  V30 11717 C 2070.35 -0.401421 3.30572 0
M  V30 11718 H 2067.37 0.374722 8.67691 0
M  V30 11719 H 2067.1 0.443485 6.90277 0
M  V30 11720 H 2067.97 -1.75537 7.96793 0
M  V30 11721 P 2071.93 -2.75334 8.47391 0
M  V30 11722 O 2072.15 -3.84128 9.44797 0
M  V30 11723 O 2072.72 -1.51947 8.68712 0
M  V30 11724 O 2072.18 -3.29363 6.99321 0
M  V30 11725 C 2071.24 -4.24011 6.4274 0
M  V30 11726 C 2071.97 -5.20775 5.52155 0
M  V30 11727 O 2072.18 -4.56534 4.22446 0
M  V30 11728 C 2073.37 -5.62629 5.96531 0
M  V30 11729 O 2073.76 -6.87667 5.41053 0
M  V30 11730 C 2074.25 -4.52537 5.39283 0
M  V30 11731 C 2073.54 -4.20027 4.08623 0
M  V30 11732 N 2073.59 -2.76189 3.71603 0
M  V30 11733 C 2073.51 -1.64862 4.52822 0
M  V30 11734 N 2073.59 -0.512671 3.88633 0
M  V30 11735 C 2073.73 -0.888083 2.54977 0
M  V30 11736 C 2073.86 -0.094668 1.38677 0
M  V30 11737 O 2073.88 1.13053 1.28163 0
M  V30 11738 N 2073.98 -0.890102 0.232633 0
M  V30 11739 C 2073.98 -2.26958 0.21772 0
M  V30 11740 N 2074.11 -2.84626 -0.97925 0
M  V30 11741 N 2073.85 -3.0178 1.31033 0
M  V30 11742 C 2073.73 -2.26781 2.43843 0
M  V30 11743 H 2070.75 -4.797 7.24003 0
M  V30 11744 H 2070.48 -3.69856 5.84513 0
M  V30 11745 H 2071.35 -6.10356 5.41441 0
M  V30 11746 H 2074 -4.79061 3.27488 0
M  V30 11747 H 2074.28 -3.64906 6.05785 0
M  V30 11748 H 2075.27 -4.8868 5.2125 0
M  V30 11749 H 2073.44 -5.66726 7.06352 0
M  V30 11750 H 2073.39 -1.71169 5.60966 0
M  V30 11751 H 2074.07 -0.419134 -0.644739 0
M  V30 11752 H 2074.11 -3.87332 -1.06098 0
M  V30 11753 H 2074.21 -2.26417 -1.82483 0
M  V30 11754 P 2075.31 -7.20834 5.23717 0
M  V30 11755 O 2075.53 -8.66104 5.38572 0
M  V30 11756 O 2076.1 -6.33544 6.1349 0
M  V30 11757 O 2075.56 -6.7751 3.72168 0
M  V30 11758 C 2074.62 -7.20825 2.7076 0
M  V30 11759 C 2075.35 -7.45864 1.40599 0
M  V30 11760 O 2075.56 -6.17651 0.734225 0
M  V30 11761 C 2076.75 -8.05808 1.51899 0
M  V30 11762 O 2077.14 -8.74358 0.335205 0
M  V30 11763 C 2077.63 -6.83093 1.70294 0
M  V30 11764 C 2076.92 -5.79992 0.836974 0
M  V30 11765 N 2076.97 -4.41864 1.38293 0
M  V30 11766 H 2074.13 -8.13644 3.0377 0
M  V30 11767 H 2073.86 -6.42788 2.55485 0
M  V30 11768 H 2074.73 -8.12039 0.792769 0
M  V30 11769 P 2078.69 -8.91 3.51126e-11 0
M  V30 11770 O 2078.91 -10.1736 -0.733766 0
M  V30 11771 O 2079.48 -8.73247 1.2395 0
M  V30 11772 O 2078.94 -7.66872 -0.971405 0
M  V30 11773 C 2078 -7.42212 -2.04614 0
M  V30 11774 C 2078.73 -6.86059 -3.24661 0
M  V30 11775 O 2078.94 -5.42847 -3.03646 0
M  V30 11776 C 2080.13 -7.41196 -3.50753 0
M  V30 11777 O 2080.52 -7.27073 -4.86816 0
M  V30 11778 C 2081.01 -6.5273 -2.63741 0
M  V30 11779 C 2080.3 -5.1842 -2.73198 0
M  V30 11780 N 2080.35 -4.38668 -1.47808 0
M  V30 11781 C 2080.5 -3.02239 -1.60048 0
M  V30 11782 O 2080.59 -2.46459 -2.67869 0
M  V30 11783 N 2080.54 -2.32436 -0.408571 0
M  V30 11784 C 2080.45 -2.85471 0.854993 0
M  V30 11785 O 2080.5 -2.12566 1.8531 0
M  V30 11786 C 2080.3 -4.28918 0.887335 0
M  V30 11787 C 2080.19 -4.91066 2.24619 0
M  V30 11788 C 2080.25 -5.00349 -0.255399 0
M  V30 11789 H 2077.51 -8.36803 -2.32493 0
M  V30 11790 H 2077.24 -6.701 -1.71105 0
M  V30 11791 H 2078.11 -7.03551 -4.13168 0
M  V30 11792 H 2080.76 -4.59773 -3.53894 0
M  V30 11793 H 2081.04 -6.88995 -1.59871 0
M  V30 11794 H 2082.03 -6.46749 -3.03687 0
M  V30 11795 H 2080.2 -8.46908 -3.20714 0
M  V30 11796 H 2080.13 -6.08548 -0.206986 0
M  V30 11797 H 2081.16 -5.34836 2.53099 0
M  V30 11798 H 2079.42 -5.69638 2.2291 0
M  V30 11799 H 2079.91 -4.13971 2.98044 0
M  V30 11800 H 2080.64 -1.33211 -0.474216 0
M  V30 11801 P 2082.07 -7.20834 -5.23717 0
M  V30 11802 O 2082.29 -7.79853 -6.57286 0
M  V30 11803 O 2082.86 -7.79239 -4.12957 0
M  V30 11804 O 2082.32 -5.63315 -5.29344 0
M  V30 11805 C 2081.38 -4.80255 -6.01876 0
M  V30 11806 C 2082.11 -3.64202 -6.65911 0
M  V30 11807 O 2082.32 -2.60694 -5.64732 0
M  V30 11808 C 2083.51 -3.93473 -7.1943 0
M  V30 11809 O 2083.9 -3.02071 -8.21205 0
M  V30 11810 C 2084.39 -3.73047 -5.97036 0
M  V30 11811 C 2083.68 -2.58828 -5.25741 0
M  V30 11812 N 2083.73 -2.68068 -3.77503 0
M  V30 11813 H 2080.89 -5.40332 -6.79951 0
M  V30 11814 H 2080.62 -4.41613 -5.32378 0
M  V30 11815 H 2081.49 -3.26331 -7.47797 0
M  V30 11816 P 2085.45 -2.75334 -8.47391 0
M  V30 11817 O 2085.67 -2.44619 -9.90336 0
M  V30 11818 O 2086.24 -3.87776 -7.92294 0
M  V30 11819 O 2085.7 -1.4459 -7.59357 0
M  V30 11820 C 2084.76 -0.347653 -7.69315 0
M  V30 11821 C 2085.49 0.96767 -7.52806 0
M  V30 11822 O 2085.7 1.21055 -6.10208 0
M  V30 11823 C 2086.89 1.04557 -8.13408 0
M  V30 11824 O 2087.28 2.38311 -8.41922 0
M  V30 11825 C 2087.77 0.491279 -7.02284 0
M  V30 11826 C 2087.06 0.996264 -5.77469 0
M  V30 11827 N 2087.11 0.0501916 -4.62973 0
M  V30 11828 C 2087.03 -1.31969 -4.65661 0
M  V30 11829 N 2087.1 -1.86649 -3.48119 0
M  V30 11830 C 2087.25 -0.792089 -2.62406 0
M  V30 11831 C 2087.38 -0.705684 -1.2207 0
M  V30 11832 N 2087.39 -1.76207 -0.413762 0
M  V30 11833 N 2087.5 0.518981 -0.685754 0
M  V30 11834 C 2087.49 1.57595 -1.49174 0
M  V30 11835 N 2087.37 1.62909 -2.80066 0
M  V30 11836 C 2087.25 0.388195 -3.3073 0
M  V30 11837 H 2084.27 -0.374765 -8.67791 0
M  V30 11838 H 2084 -0.443613 -6.90476 0
M  V30 11839 H 2084.87 1.75559 -7.96891 0
M  V30 11840 H 2087.52 1.94563 -5.46818 0
M  V30 11841 H 2087.8 -0.608651 -7.04676 0
M  V30 11842 H 2088.79 0.889796 -7.09039 0
M  V30 11843 H 2086.96 0.433128 -9.04664 0
M  V30 11844 H 2086.92 -1.89246 -5.57664 0
M  V30 11845 H 2087.3 -2.71005 -0.804694 0
M  V30 11846 H 2087.49 -1.63189 0.603768 0
M  V30 11847 H 2087.59 2.53475 -0.997614 0
M  V30 11848 P 2088.83 2.75334 -8.47391 0
M  V30 11849 O 2089.05 3.84166 -9.4489 0
M  V30 11850 O 2089.62 1.51964 -8.6881 0
M  V30 11851 O 2089.08 3.29363 -6.99321 0
M  V30 11852 C 2088.14 4.23956 -6.42656 0
M  V30 11853 C 2088.87 5.20775 -5.52155 0
M  V30 11854 O 2089.08 4.56534 -4.22446 0
M  V30 11855 C 2090.27 5.62629 -5.96531 0
M  V30 11856 O 2090.66 6.87667 -5.41053 0
M  V30 11857 C 2091.15 4.52537 -5.39283 0
M  V30 11858 C 2090.44 4.20027 -4.08623 0
M  V30 11859 N 2090.49 2.7613 -3.71522 0
M  V30 11860 C 2090.64 2.45612 -2.37989 0
M  V30 11861 O 2090.73 3.30919 -1.51621 0
M  V30 11862 N 2090.68 1.10684 -2.08435 0
M  V30 11863 C 2090.59 0.0690084 -2.9792 0
M  V30 11864 O 2090.64 -1.10553 -2.59426 0
M  V30 11865 C 2090.44 0.481522 -4.35345 0
M  V30 11866 C 2090.33 -0.618778 -5.36443 0
M  V30 11867 C 2090.39 1.78906 -4.67968 0
M  V30 11868 H 2087.65 4.797 -7.24003 0
M  V30 11869 H 2087.38 3.69802 -5.84429 0
M  V30 11870 H 2088.25 6.10356 -5.41441 0
M  V30 11871 H 2090.9 4.78651 -3.27911 0
M  V30 11872 H 2091.18 3.64957 -6.05871 0
M  V30 11873 H 2092.17 4.8868 -5.2125 0
M  V30 11874 H 2090.34 5.66726 -7.06352 0
M  V30 11875 H 2090.27 2.07737 -5.72367 0
M  V30 11876 H 2091.3 -0.754375 -5.86871 0
M  V30 11877 H 2089.56 -0.359721 -6.10641 0
M  V30 11878 H 2090.05 -1.55533 -4.8581 0
M  V30 11879 H 2090.78 0.862651 -1.12037 0
M  V30 11880 P 2092.21 7.20834 -5.23717 0
M  V30 11881 O 2092.43 8.66189 -5.38625 0
M  V30 11882 O 2093 6.33615 -6.1356 0
M  V30 11883 O 2092.46 6.7751 -3.72168 0
M  V30 11884 C 2091.52 7.20732 -2.70725 0
M  V30 11885 C 2092.25 7.45864 -1.40599 0
M  V30 11886 O 2092.46 6.17651 -0.734225 0
M  V30 11887 C 2093.65 8.05808 -1.51899 0
M  V30 11888 O 2094.04 8.74358 -0.335205 0
M  V30 11889 C 2094.53 6.83093 -1.70294 0
M  V30 11890 C 2093.82 5.79992 -0.836974 0
M  V30 11891 N 2093.87 4.41769 -1.38263 0
M  V30 11892 C 2094.02 3.38591 -0.481702 0
M  V30 11893 O 2094.11 3.56839 0.718452 0
M  V30 11894 N 2094.06 2.1206 -1.03569 0
M  V30 11895 C 2093.97 1.80696 -2.36966 0
M  V30 11896 O 2094.02 0.630473 -2.74862 0
M  V30 11897 C 2093.82 2.94845 -3.23898 0
M  V30 11898 C 2093.71 2.65253 -4.70362 0
M  V30 11899 C 2093.77 4.19803 -2.73435 0
M  V30 11900 H 2091.03 8.13644 -3.0377 0
M  V30 11901 H 2090.76 6.42695 -2.55448 0
M  V30 11902 H 2091.63 8.12039 -0.792769 0
M  V30 11903 H 2094.28 5.79978 0.160587 0
M  V30 11904 H 2094.56 6.51379 -2.75643 0
M  V30 11905 H 2095.55 7.01734 -1.34462 0
M  V30 11906 H 2093.72 8.73674 -2.38337 0
M  V30 11907 H 2093.65 5.04492 -3.4095 0
M  V30 11908 H 2094.68 2.83924 -5.1913 0
M  V30 11909 H 2092.94 3.29824 -5.15163 0
M  V30 11910 H 2093.43 1.59723 -4.84449 0
M  V30 11911 H 2094.16 1.35644 -0.399345 0
M  V30 11912 P 2095.59 8.91 -3.62216e-11 0
M  V30 11913 O 2095.81 10.1736 0.733766 0
M  V30 11914 O 2096.38 8.73247 -1.2395 0
M  V30 11915 O 2095.84 7.66872 0.971405 0
M  V30 11916 C 2094.9 7.42212 2.04614 0
M  V30 11917 C 2095.63 6.86059 3.24661 0
M  V30 11918 O 2095.84 5.42847 3.03646 0
M  V30 11919 C 2097.03 7.41196 3.50753 0
M  V30 11920 O 2097.42 7.27073 4.86816 0
M  V30 11921 C 2097.91 6.5273 2.63741 0
M  V30 11922 C 2097.2 5.1842 2.73198 0
M  V30 11923 N 2097.25 4.38668 1.47808 0
M  V30 11924 C 2097.4 3.02239 1.60048 0
M  V30 11925 O 2097.49 2.46459 2.67869 0
M  V30 11926 N 2097.44 2.32436 0.408571 0
M  V30 11927 C 2097.35 2.85471 -0.854993 0
M  V30 11928 O 2097.4 2.12566 -1.8531 0
M  V30 11929 C 2097.2 4.28918 -0.887335 0
M  V30 11930 C 2097.09 4.91066 -2.24619 0
M  V30 11931 C 2097.15 5.00349 0.255399 0
M  V30 11932 H 2094.41 8.36803 2.32493 0
M  V30 11933 H 2094.14 6.701 1.71105 0
M  V30 11934 H 2095.01 7.03551 4.13168 0
M  V30 11935 H 2097.66 4.59773 3.53894 0
M  V30 11936 H 2097.94 6.88995 1.59871 0
M  V30 11937 H 2098.93 6.46749 3.03687 0
M  V30 11938 H 2097.1 8.46908 3.20714 0
M  V30 11939 H 2097.03 6.08548 0.206986 0
M  V30 11940 H 2098.06 5.34836 -2.53099 0
M  V30 11941 H 2096.32 5.69638 -2.2291 0
M  V30 11942 H 2096.81 4.13971 -2.98044 0
M  V30 11943 H 2097.54 1.33211 0.474216 0
M  V30 11944 P 2098.97 7.20834 5.23717 0
M  V30 11945 O 2099.19 7.79853 6.57286 0
M  V30 11946 O 2099.76 7.79239 4.12957 0
M  V30 11947 O 2099.22 5.63315 5.29344 0
M  V30 11948 C 2098.28 4.80255 6.01876 0
M  V30 11949 C 2099.01 3.64202 6.65911 0
M  V30 11950 O 2099.22 2.60694 5.64732 0
M  V30 11951 C 2100.41 3.93473 7.1943 0
M  V30 11952 O 2100.8 3.02071 8.21205 0
M  V30 11953 C 2101.29 3.73047 5.97036 0
M  V30 11954 C 2100.58 2.58828 5.25741 0
M  V30 11955 N 2100.63 2.68068 3.77503 0
M  V30 11956 H 2097.79 5.40332 6.79951 0
M  V30 11957 H 2097.52 4.41613 5.32378 0
M  V30 11958 H 2098.39 3.26331 7.47797 0
M  V30 11959 P 2102.35 2.75334 8.47391 0
M  V30 11960 O 2102.57 2.44571 9.90142 0
M  V30 11961 O 2103.14 3.87688 7.92115 0
M  V30 11962 O 2102.6 1.4459 7.59357 0
M  V30 11963 C 2101.66 0.347608 7.69215 0
M  V30 11964 C 2102.39 -0.96767 7.52806 0
M  V30 11965 O 2102.6 -1.21036 6.1011 0
M  V30 11966 C 2103.79 -1.04544 8.13308 0
M  V30 11967 O 2104.18 -2.38311 8.41922 0
M  V30 11968 C 2104.67 -0.491279 7.02284 0
M  V30 11969 C 2103.96 -0.996264 5.77469 0
M  V30 11970 N 2104.01 -0.0501916 4.62973 0
M  V30 11971 H 2101.17 0.374722 8.67691 0
M  V30 11972 H 2100.9 0.443485 6.90277 0
M  V30 11973 H 2101.77 -1.75537 7.96793 0
M  V30 11974 P 2105.73 -2.75334 8.47391 0
M  V30 11975 O 2105.95 -3.84128 9.44797 0
M  V30 11976 O 2106.52 -1.51947 8.68712 0
M  V30 11977 O 2105.98 -3.29363 6.99321 0
M  V30 11978 C 2105.04 -4.24011 6.4274 0
M  V30 11979 C 2105.77 -5.20775 5.52155 0
M  V30 11980 O 2105.98 -4.56534 4.22446 0
M  V30 11981 C 2107.17 -5.62629 5.96531 0
M  V30 11982 O 2107.56 -6.87667 5.41053 0
M  V30 11983 C 2108.05 -4.52537 5.39283 0
M  V30 11984 C 2107.34 -4.20027 4.08623 0
M  V30 11985 N 2107.39 -2.76189 3.71603 0
M  V30 11986 H 2104.55 -4.797 7.24003 0
M  V30 11987 H 2104.28 -3.69856 5.84513 0
M  V30 11988 H 2105.15 -6.10356 5.41441 0
M  V30 11989 P 2109.11 -7.20834 5.23717 0
M  V30 11990 O 2109.33 -8.66189 5.38625 0
M  V30 11991 O 2109.9 -6.33615 6.1356 0
M  V30 11992 O 2109.36 -6.7751 3.72168 0
M  V30 11993 C 2108.42 -7.20732 2.70725 0
M  V30 11994 C 2109.15 -7.45864 1.40599 0
M  V30 11995 O 2109.36 -6.17651 0.734225 0
M  V30 11996 C 2110.55 -8.05808 1.51899 0
M  V30 11997 O 2110.94 -8.74358 0.335205 0
M  V30 11998 C 2111.43 -6.83093 1.70294 0
M  V30 11999 C 2110.72 -5.79992 0.836974 0
M  V30 12000 N 2110.77 -4.41769 1.38263 0
M  V30 12001 C 2110.92 -3.38591 0.481702 0
M  V30 12002 O 2111.01 -3.56839 -0.718452 0
M  V30 12003 N 2110.96 -2.1206 1.03569 0
M  V30 12004 C 2110.87 -1.80696 2.36966 0
M  V30 12005 C 2110.72 -2.94845 3.23898 0
M  V30 12006 C 2110.67 -4.19803 2.73435 0
M  V30 12007 H 2107.93 -8.13644 3.0377 0
M  V30 12008 H 2107.66 -6.42695 2.55448 0
M  V30 12009 H 2108.53 -8.12039 0.792769 0
M  V30 12010 H 2111.18 -5.79978 -0.160587 0
M  V30 12011 H 2111.46 -6.51379 2.75643 0
M  V30 12012 H 2112.45 -7.01734 1.34462 0
M  V30 12013 H 2110.62 -8.73674 2.38337 0
M  V30 12014 H 2110.55 -5.04492 3.4095 0
M  V30 12015 P 2112.49 -8.91 3.73306e-11 0
M  V30 12016 O 2112.71 -10.1726 -0.733694 0
M  V30 12017 O 2113.28 -8.73148 1.23936 0
M  V30 12018 O 2112.74 -7.66872 -0.971405 0
M  V30 12019 C 2111.8 -7.42309 -2.04641 0
M  V30 12020 C 2112.53 -6.86059 -3.24661 0
M  V30 12021 O 2112.74 -5.42847 -3.03646 0
M  V30 12022 C 2113.93 -7.41196 -3.50753 0
M  V30 12023 O 2114.32 -7.27073 -4.86816 0
M  V30 12024 C 2114.81 -6.5273 -2.63741 0
M  V30 12025 C 2114.1 -5.1842 -2.73198 0
M  V30 12026 N 2114.15 -4.38762 -1.4784 0
M  V30 12027 H 2111.31 -8.36803 -2.32493 0
M  V30 12028 H 2111.04 -6.70197 -1.71129 0
M  V30 12029 H 2111.91 -7.03551 -4.13168 0
M  V30 12030 P 2115.87 -7.20834 -5.23717 0
M  V30 12031 O 2116.09 -7.79853 -6.57286 0
M  V30 12032 O 2116.66 -7.79239 -4.12957 0
M  V30 12033 O 2116.12 -5.63315 -5.29344 0
M  V30 12034 C 2115.18 -4.80255 -6.01876 0
M  V30 12035 C 2115.91 -3.64202 -6.65911 0
M  V30 12036 O 2116.12 -2.60694 -5.64732 0
M  V30 12037 C 2117.31 -3.93473 -7.1943 0
M  V30 12038 O 2117.7 -3.02071 -8.21205 0
M  V30 12039 C 2118.19 -3.73047 -5.97036 0
M  V30 12040 C 2117.48 -2.58828 -5.25741 0
M  V30 12041 N 2117.53 -2.68068 -3.77503 0
M  V30 12042 H 2114.69 -5.40332 -6.79951 0
M  V30 12043 H 2114.42 -4.41613 -5.32378 0
M  V30 12044 H 2115.29 -3.26331 -7.47797 0
M  V30 12045 P 2119.25 -2.75334 -8.47391 0
M  V30 12046 O 2119.47 -2.44571 -9.90142 0
M  V30 12047 O 2120.04 -3.87688 -7.92115 0
M  V30 12048 O 2119.5 -1.4459 -7.59357 0
M  V30 12049 C 2118.56 -0.347608 -7.69215 0
M  V30 12050 C 2119.29 0.96767 -7.52806 0
M  V30 12051 O 2119.5 1.21036 -6.1011 0
M  V30 12052 C 2120.69 1.04544 -8.13308 0
M  V30 12053 O 2121.08 2.38311 -8.41922 0
M  V30 12054 C 2121.57 0.491279 -7.02284 0
M  V30 12055 C 2120.86 0.996264 -5.77469 0
M  V30 12056 N 2120.91 0.0501916 -4.62973 0
M  V30 12057 H 2118.07 -0.374722 -8.67691 0
M  V30 12058 H 2117.8 -0.443485 -6.90277 0
M  V30 12059 H 2118.67 1.75537 -7.96793 0
M  V30 12060 P 2122.63 2.75334 -8.47391 0
M  V30 12061 O 2122.85 3.84128 -9.44797 0
M  V30 12062 O 2123.42 1.51947 -8.68712 0
M  V30 12063 O 2122.88 3.29363 -6.99321 0
M  V30 12064 C 2121.94 4.24011 -6.4274 0
M  V30 12065 C 2122.67 5.20775 -5.52155 0
M  V30 12066 O 2122.88 4.56534 -4.22446 0
M  V30 12067 C 2124.07 5.62629 -5.96531 0
M  V30 12068 O 2124.46 6.87667 -5.41053 0
M  V30 12069 C 2124.95 4.52537 -5.39283 0
M  V30 12070 C 2124.24 4.20027 -4.08623 0
M  V30 12071 N 2124.29 2.76189 -3.71603 0
M  V30 12072 H 2121.45 4.797 -7.24003 0
M  V30 12073 H 2121.18 3.69856 -5.84513 0
M  V30 12074 H 2122.05 6.10356 -5.41441 0
M  V30 12075 P 2126.01 7.20834 -5.23717 0
M  V30 12076 O 2126.23 8.66189 -5.38625 0
M  V30 12077 O 2126.8 6.33615 -6.1356 0
M  V30 12078 O 2126.26 6.7751 -3.72168 0
M  V30 12079 C 2125.32 7.20732 -2.70725 0
M  V30 12080 C 2126.05 7.45864 -1.40599 0
M  V30 12081 O 2126.26 6.17651 -0.734225 0
M  V30 12082 C 2127.45 8.05808 -1.51899 0
M  V30 12083 O 2127.84 8.74358 -0.335205 0
M  V30 12084 C 2128.33 6.83093 -1.70294 0
M  V30 12085 C 2127.62 5.79992 -0.836974 0
M  V30 12086 N 2127.67 4.41769 -1.38263 0
M  V30 12087 C 2127.82 3.38591 -0.481702 0
M  V30 12088 O 2127.91 3.56839 0.718452 0
M  V30 12089 N 2127.86 2.1206 -1.03569 0
M  V30 12090 C 2127.77 1.80696 -2.36966 0
M  V30 12091 O 2127.82 0.630473 -2.74862 0
M  V30 12092 C 2127.62 2.94845 -3.23898 0
M  V30 12093 C 2127.51 2.65253 -4.70362 0
M  V30 12094 C 2127.57 4.19803 -2.73435 0
M  V30 12095 H 2124.83 8.13644 -3.0377 0
M  V30 12096 H 2124.56 6.42695 -2.55448 0
M  V30 12097 H 2125.43 8.12039 -0.792769 0
M  V30 12098 H 2128.08 5.79978 0.160587 0
M  V30 12099 H 2128.36 6.51379 -2.75643 0
M  V30 12100 H 2129.35 7.01734 -1.34462 0
M  V30 12101 H 2127.52 8.73674 -2.38337 0
M  V30 12102 H 2127.45 5.04492 -3.4095 0
M  V30 12103 H 2128.48 2.83924 -5.1913 0
M  V30 12104 H 2126.74 3.29824 -5.15163 0
M  V30 12105 H 2127.23 1.59723 -4.84449 0
M  V30 12106 H 2127.96 1.35644 -0.399345 0
M  V30 12107 P 2129.39 8.91 -3.84396e-11 0
M  V30 12108 O 2129.61 10.1726 0.733694 0
M  V30 12109 O 2130.18 8.73148 -1.23936 0
M  V30 12110 O 2129.64 7.66872 0.971405 0
M  V30 12111 C 2128.7 7.42309 2.04641 0
M  V30 12112 C 2129.43 6.86059 3.24661 0
M  V30 12113 O 2129.64 5.42847 3.03646 0
M  V30 12114 C 2130.83 7.41196 3.50753 0
M  V30 12115 O 2131.22 7.27073 4.86816 0
M  V30 12116 C 2131.71 6.5273 2.63741 0
M  V30 12117 C 2131 5.1842 2.73198 0
M  V30 12118 N 2131.05 4.38762 1.4784 0
M  V30 12119 H 2128.21 8.36803 2.32493 0
M  V30 12120 H 2127.94 6.70197 1.71129 0
M  V30 12121 H 2128.81 7.03551 4.13168 0
M  V30 12122 P 2132.77 7.20834 5.23717 0
M  V30 12123 O 2132.99 7.79853 6.57286 0
M  V30 12124 O 2133.56 7.79239 4.12957 0
M  V30 12125 O 2133.02 5.63315 5.29344 0
M  V30 12126 C 2132.08 4.80255 6.01876 0
M  V30 12127 C 2132.81 3.64202 6.65911 0
M  V30 12128 O 2133.02 2.60694 5.64732 0
M  V30 12129 C 2134.21 3.93473 7.1943 0
M  V30 12130 O 2134.6 3.02071 8.21205 0
M  V30 12131 C 2135.09 3.73047 5.97036 0
M  V30 12132 C 2134.38 2.58828 5.25741 0
M  V30 12133 N 2134.43 2.68068 3.77503 0
M  V30 12134 H 2131.59 5.40332 6.79951 0
M  V30 12135 H 2131.32 4.41613 5.32378 0
M  V30 12136 H 2132.19 3.26331 7.47797 0
M  V30 12137 P 2136.15 2.75334 8.47391 0
M  V30 12138 O 2136.37 2.44619 9.90336 0
M  V30 12139 O 2136.94 3.87776 7.92294 0
M  V30 12140 O 2136.4 1.4459 7.59357 0
M  V30 12141 C 2135.46 0.347653 7.69315 0
M  V30 12142 C 2136.19 -0.96767 7.52806 0
M  V30 12143 O 2136.4 -1.21055 6.10208 0
M  V30 12144 C 2137.59 -1.04557 8.13408 0
M  V30 12145 O 2137.98 -2.38311 8.41922 0
M  V30 12146 C 2138.47 -0.491279 7.02284 0
M  V30 12147 C 2137.76 -0.996264 5.77469 0
M  V30 12148 N 2137.81 -0.0501916 4.62973 0
M  V30 12149 C 2137.73 1.31969 4.65661 0
M  V30 12150 N 2137.8 1.86649 3.48119 0
M  V30 12151 C 2137.95 0.792089 2.62406 0
M  V30 12152 C 2138.08 0.705684 1.2207 0
M  V30 12153 N 2138.09 1.76207 0.413762 0
M  V30 12154 N 2138.2 -0.518981 0.685754 0
M  V30 12155 C 2138.19 -1.57595 1.49174 0
M  V30 12156 N 2138.07 -1.62909 2.80066 0
M  V30 12157 C 2137.95 -0.388195 3.3073 0
M  V30 12158 H 2134.97 0.374765 8.67791 0
M  V30 12159 H 2134.7 0.443613 6.90476 0
M  V30 12160 H 2135.57 -1.75559 7.96891 0
M  V30 12161 H 2138.22 -1.94563 5.46818 0
M  V30 12162 H 2138.5 0.608651 7.04676 0
M  V30 12163 H 2139.49 -0.889796 7.09039 0
M  V30 12164 H 2137.66 -0.433128 9.04664 0
M  V30 12165 H 2137.62 1.89246 5.57664 0
M  V30 12166 H 2138 2.71005 0.804694 0
M  V30 12167 H 2138.19 1.63189 -0.603768 0
M  V30 12168 H 2138.29 -2.53475 0.997614 0
M  V30 12169 P 2139.53 -2.75334 8.47391 0
M  V30 12170 O 2139.75 -3.84128 9.44797 0
M  V30 12171 O 2140.32 -1.51947 8.68712 0
M  V30 12172 O 2139.78 -3.29363 6.99321 0
M  V30 12173 C 2138.84 -4.24011 6.4274 0
M  V30 12174 C 2139.57 -5.20775 5.52155 0
M  V30 12175 O 2139.78 -4.56534 4.22446 0
M  V30 12176 C 2140.97 -5.62629 5.96531 0
M  V30 12177 O 2141.36 -6.87667 5.41053 0
M  V30 12178 C 2141.85 -4.52537 5.39283 0
M  V30 12179 C 2141.14 -4.20027 4.08623 0
M  V30 12180 N 2141.19 -2.76189 3.71603 0
M  V30 12181 H 2138.35 -4.797 7.24003 0
M  V30 12182 H 2138.08 -3.69856 5.84513 0
M  V30 12183 H 2138.95 -6.10356 5.41441 0
M  V30 12184 P 2142.91 -7.20834 5.23717 0
M  V30 12185 O 2143.13 -8.66104 5.38572 0
M  V30 12186 O 2143.7 -6.33544 6.1349 0
M  V30 12187 O 2143.16 -6.7751 3.72168 0
M  V30 12188 C 2142.22 -7.20825 2.7076 0
M  V30 12189 C 2142.95 -7.45864 1.40599 0
M  V30 12190 O 2143.16 -6.17651 0.734225 0
M  V30 12191 C 2144.35 -8.05808 1.51899 0
M  V30 12192 O 2144.74 -8.74358 0.335205 0
M  V30 12193 C 2145.23 -6.83093 1.70294 0
M  V30 12194 C 2144.52 -5.79992 0.836974 0
M  V30 12195 N 2144.57 -4.41864 1.38293 0
M  V30 12196 H 2141.73 -8.13644 3.0377 0
M  V30 12197 H 2141.46 -6.42788 2.55485 0
M  V30 12198 H 2142.33 -8.12039 0.792769 0
M  V30 12199 P 2146.29 -8.91 3.95487e-11 0
M  V30 12200 O 2146.51 -10.1726 -0.733694 0
M  V30 12201 O 2147.08 -8.73148 1.23936 0
M  V30 12202 O 2146.54 -7.66872 -0.971405 0
M  V30 12203 C 2145.6 -7.42309 -2.04641 0
M  V30 12204 C 2146.33 -6.86059 -3.24661 0
M  V30 12205 O 2146.54 -5.42847 -3.03646 0
M  V30 12206 C 2147.73 -7.41196 -3.50753 0
M  V30 12207 O 2148.12 -7.27073 -4.86816 0
M  V30 12208 C 2148.61 -6.5273 -2.63741 0
M  V30 12209 C 2147.9 -5.1842 -2.73198 0
M  V30 12210 N 2147.95 -4.38762 -1.4784 0
M  V30 12211 H 2145.11 -8.36803 -2.32493 0
M  V30 12212 H 2144.84 -6.70197 -1.71129 0
M  V30 12213 H 2145.71 -7.03551 -4.13168 0
M  V30 12214 P 2149.67 -7.20834 -5.23717 0
M  V30 12215 O 2149.89 -7.79853 -6.57286 0
M  V30 12216 O 2150.46 -7.79239 -4.12957 0
M  V30 12217 O 2149.92 -5.63315 -5.29344 0
M  V30 12218 C 2148.98 -4.80255 -6.01876 0
M  V30 12219 C 2149.71 -3.64202 -6.65911 0
M  V30 12220 O 2149.92 -2.60694 -5.64732 0
M  V30 12221 C 2151.11 -3.93473 -7.1943 0
M  V30 12222 O 2151.5 -3.02071 -8.21205 0
M  V30 12223 C 2151.99 -3.73047 -5.97036 0
M  V30 12224 C 2151.28 -2.58828 -5.25741 0
M  V30 12225 N 2151.33 -2.68068 -3.77503 0
M  V30 12226 H 2148.49 -5.40332 -6.79951 0
M  V30 12227 H 2148.22 -4.41613 -5.32378 0
M  V30 12228 H 2149.09 -3.26331 -7.47797 0
M  V30 12229 P 2153.05 -2.75334 -8.47391 0
M  V30 12230 O 2153.27 -2.44571 -9.90142 0
M  V30 12231 O 2153.84 -3.87688 -7.92115 0
M  V30 12232 O 2153.3 -1.4459 -7.59357 0
M  V30 12233 C 2152.36 -0.347608 -7.69215 0
M  V30 12234 C 2153.09 0.96767 -7.52806 0
M  V30 12235 O 2153.3 1.21036 -6.1011 0
M  V30 12236 C 2154.49 1.04544 -8.13308 0
M  V30 12237 O 2154.88 2.38311 -8.41922 0
M  V30 12238 C 2155.37 0.491279 -7.02284 0
M  V30 12239 C 2154.66 0.996264 -5.77469 0
M  V30 12240 N 2154.71 0.0501916 -4.62973 0
M  V30 12241 H 2151.87 -0.374722 -8.67691 0
M  V30 12242 H 2151.6 -0.443485 -6.90277 0
M  V30 12243 H 2152.47 1.75537 -7.96793 0
M  V30 12244 P 2156.43 2.75334 -8.47391 0
M  V30 12245 O 2156.65 3.84128 -9.44797 0
M  V30 12246 O 2157.22 1.51947 -8.68712 0
M  V30 12247 O 2156.68 3.29363 -6.99321 0
M  V30 12248 C 2155.74 4.24011 -6.4274 0
M  V30 12249 C 2156.47 5.20775 -5.52155 0
M  V30 12250 O 2156.68 4.56534 -4.22446 0
M  V30 12251 C 2157.87 5.62629 -5.96531 0
M  V30 12252 O 2158.26 6.87667 -5.41053 0
M  V30 12253 C 2158.75 4.52537 -5.39283 0
M  V30 12254 C 2158.04 4.20027 -4.08623 0
M  V30 12255 N 2158.09 2.76189 -3.71603 0
M  V30 12256 H 2155.25 4.797 -7.24003 0
M  V30 12257 H 2154.98 3.69856 -5.84513 0
M  V30 12258 H 2155.85 6.10356 -5.41441 0
M  V30 12259 P 2159.81 7.20834 -5.23717 0
M  V30 12260 O 2160.03 8.66104 -5.38572 0
M  V30 12261 O 2160.6 6.33544 -6.1349 0
M  V30 12262 O 2160.06 6.7751 -3.72168 0
M  V30 12263 C 2159.12 7.20825 -2.7076 0
M  V30 12264 C 2159.85 7.45864 -1.40599 0
M  V30 12265 O 2160.06 6.17651 -0.734225 0
M  V30 12266 C 2161.25 8.05808 -1.51899 0
M  V30 12267 O 2161.64 8.74358 -0.335205 0
M  V30 12268 C 2162.13 6.83093 -1.70294 0
M  V30 12269 C 2161.42 5.79992 -0.836974 0
M  V30 12270 N 2161.47 4.41864 -1.38293 0
M  V30 12271 H 2158.63 8.13644 -3.0377 0
M  V30 12272 H 2158.36 6.42788 -2.55485 0
M  V30 12273 H 2159.23 8.12039 -0.792769 0
M  V30 12274 P 2163.19 8.91 -4.06577e-11 0
M  V30 12275 O 2163.41 10.1726 0.733694 0
M  V30 12276 O 2163.98 8.73148 -1.23936 0
M  V30 12277 O 2163.44 7.66872 0.971405 0
M  V30 12278 C 2162.5 7.42309 2.04641 0
M  V30 12279 C 2163.23 6.86059 3.24661 0
M  V30 12280 O 2163.44 5.42847 3.03646 0
M  V30 12281 C 2164.63 7.41196 3.50753 0
M  V30 12282 O 2165.02 7.27073 4.86816 0
M  V30 12283 C 2165.51 6.5273 2.63741 0
M  V30 12284 C 2164.8 5.1842 2.73198 0
M  V30 12285 N 2164.85 4.38762 1.4784 0
M  V30 12286 C 2164.77 4.81605 0.168631 0
M  V30 12287 N 2164.85 3.85454 -0.713363 0
M  V30 12288 C 2164.99 2.6994 0.0566958 0
M  V30 12289 C 2165.12 1.34815 -0.338502 0
M  V30 12290 N 2165.24 0.496304 0.77465 0
M  V30 12291 C 2165.24 0.908403 2.09122 0
M  V30 12292 N 2165.37 -0.0517805 3.00955 0
M  V30 12293 N 2165.11 2.17875 2.46519 0
M  V30 12294 C 2164.99 3.01988 1.4033 0
M  V30 12295 H 2162.01 8.36803 2.32493 0
M  V30 12296 H 2161.74 6.70197 1.71129 0
M  V30 12297 H 2162.61 7.03551 4.13168 0
M  V30 12298 P 2166.57 7.20834 5.23717 0
M  V30 12299 O 2166.79 7.79853 6.57286 0
M  V30 12300 O 2167.36 7.79239 4.12957 0
M  V30 12301 O 2166.82 5.63315 5.29344 0
M  V30 12302 C 2165.88 4.80255 6.01876 0
M  V30 12303 C 2166.61 3.64202 6.65911 0
M  V30 12304 O 2166.82 2.60694 5.64732 0
M  V30 12305 C 2168.01 3.93473 7.1943 0
M  V30 12306 O 2168.4 3.02071 8.21205 0
M  V30 12307 C 2168.89 3.73047 5.97036 0
M  V30 12308 C 2168.18 2.58828 5.25741 0
M  V30 12309 N 2168.23 2.68068 3.77503 0
M  V30 12310 H 2165.39 5.40332 6.79951 0
M  V30 12311 H 2165.12 4.41613 5.32378 0
M  V30 12312 H 2165.99 3.26331 7.47797 0
M  V30 12313 P 2169.95 2.75334 8.47391 0
M  V30 12314 O 2170.17 2.44571 9.90142 0
M  V30 12315 O 2170.74 3.87688 7.92115 0
M  V30 12316 O 2170.2 1.4459 7.59357 0
M  V30 12317 C 2169.26 0.347608 7.69215 0
M  V30 12318 C 2169.99 -0.96767 7.52806 0
M  V30 12319 O 2170.2 -1.21036 6.1011 0
M  V30 12320 C 2171.39 -1.04544 8.13308 0
M  V30 12321 O 2171.78 -2.38311 8.41922 0
M  V30 12322 C 2172.27 -0.491279 7.02284 0
M  V30 12323 C 2171.56 -0.996264 5.77469 0
M  V30 12324 N 2171.61 -0.0501916 4.62973 0
M  V30 12325 H 2168.77 0.374722 8.67691 0
M  V30 12326 H 2168.5 0.443485 6.90277 0
M  V30 12327 H 2169.37 -1.75537 7.96793 0
M  V30 12328 P 2173.33 -2.75334 8.47391 0
M  V30 12329 O 2173.55 -3.84128 9.44797 0
M  V30 12330 O 2174.12 -1.51947 8.68712 0
M  V30 12331 O 2173.58 -3.29363 6.99321 0
M  V30 12332 C 2172.64 -4.24011 6.4274 0
M  V30 12333 C 2173.37 -5.20775 5.52155 0
M  V30 12334 O 2173.58 -4.56534 4.22446 0
M  V30 12335 C 2174.77 -5.62629 5.96531 0
M  V30 12336 O 2175.16 -6.87667 5.41053 0
M  V30 12337 C 2175.65 -4.52537 5.39283 0
M  V30 12338 C 2174.94 -4.20027 4.08623 0
M  V30 12339 N 2174.99 -2.76189 3.71603 0
M  V30 12340 H 2172.15 -4.797 7.24003 0
M  V30 12341 H 2171.88 -3.69856 5.84513 0
M  V30 12342 H 2172.75 -6.10356 5.41441 0
M  V30 12343 P 2176.71 -7.20834 5.23717 0
M  V30 12344 O 2176.93 -8.66104 5.38572 0
M  V30 12345 O 2177.5 -6.33544 6.1349 0
M  V30 12346 O 2176.96 -6.7751 3.72168 0
M  V30 12347 C 2176.02 -7.20825 2.7076 0
M  V30 12348 C 2176.75 -7.45864 1.40599 0
M  V30 12349 O 2176.96 -6.17651 0.734225 0
M  V30 12350 C 2178.15 -8.05808 1.51899 0
M  V30 12351 O 2178.54 -8.74358 0.335205 0
M  V30 12352 C 2179.03 -6.83093 1.70294 0
M  V30 12353 C 2178.32 -5.79992 0.836974 0
M  V30 12354 N 2178.37 -4.41864 1.38293 0
M  V30 12355 H 2175.53 -8.13644 3.0377 0
M  V30 12356 H 2175.26 -6.42788 2.55485 0
M  V30 12357 H 2176.13 -8.12039 0.792769 0
M  V30 12358 P 2180.09 -8.91 4.17667e-11 0
M  V30 12359 O 2180.31 -10.1726 -0.733694 0
M  V30 12360 O 2180.88 -8.73148 1.23936 0
M  V30 12361 O 2180.34 -7.66872 -0.971405 0
M  V30 12362 C 2179.4 -7.42309 -2.04641 0
M  V30 12363 C 2180.13 -6.86059 -3.24661 0
M  V30 12364 O 2180.34 -5.42847 -3.03646 0
M  V30 12365 C 2181.53 -7.41196 -3.50753 0
M  V30 12366 O 2181.92 -7.27073 -4.86816 0
M  V30 12367 C 2182.41 -6.5273 -2.63741 0
M  V30 12368 C 2181.7 -5.1842 -2.73198 0
M  V30 12369 N 2181.75 -4.38762 -1.4784 0
M  V30 12370 H 2178.91 -8.36803 -2.32493 0
M  V30 12371 H 2178.64 -6.70197 -1.71129 0
M  V30 12372 H 2179.51 -7.03551 -4.13168 0
M  V30 12373 P 2183.47 -7.20834 -5.23717 0
M  V30 12374 O 2183.69 -7.80006 -6.57415 0
M  V30 12375 O 2184.26 -7.79416 -4.13051 0
M  V30 12376 O 2183.72 -5.63315 -5.29344 0
M  V30 12377 C 2182.78 -4.80318 -6.01954 0
M  V30 12378 C 2183.51 -3.64202 -6.65911 0
M  V30 12379 O 2183.72 -2.60736 -5.64823 0
M  V30 12380 C 2184.91 -3.93521 -7.19518 0
M  V30 12381 O 2185.3 -3.02071 -8.21205 0
M  V30 12382 C 2185.79 -3.73047 -5.97036 0
M  V30 12383 C 2185.08 -2.58828 -5.25741 0
M  V30 12384 N 2185.13 -2.68068 -3.77503 0
M  V30 12385 C 2185.05 -3.80474 -2.99159 0
M  V30 12386 N 2185.12 -3.55622 -1.71925 0
M  V30 12387 C 2185.27 -2.1832 -1.65733 0
M  V30 12388 C 2185.4 -1.28842 -0.572777 0
M  V30 12389 N 2185.41 -1.66875 0.70098 0
M  V30 12390 N 2185.52 0.016788 -0.859836 0
M  V30 12391 C 2185.51 0.398145 -2.13316 0
M  V30 12392 N 2185.39 -0.328224 -3.22333 0
M  V30 12393 C 2185.27 -1.62992 -2.90383 0
M  V30 12394 H 2182.29 -5.40394 -6.8003 0
M  V30 12395 H 2182.02 -4.41741 -5.32532 0
M  V30 12396 H 2182.89 -3.26371 -7.47889 0
M  V30 12397 H 2185.54 -1.64007 -5.56746 0
M  V30 12398 H 2185.82 -4.63439 -5.3432 0
M  V30 12399 H 2186.81 -3.44776 -6.25925 0
M  V30 12400 H 2184.98 -4.96707 -7.57347 0
M  V30 12401 H 2184.94 -4.8089 -3.39924 0
M  V30 12402 H 2185.32 -2.66547 0.941919 0
M  V30 12403 H 2185.51 -0.965341 1.44766 0
M  V30 12404 H 2185.61 1.46427 -2.29697 0
M  V30 12405 P 2186.85 -2.75334 -8.47391 0
M  V30 12406 O 2187.07 -2.44571 -9.90142 0
M  V30 12407 O 2187.64 -3.87688 -7.92115 0
M  V30 12408 O 2187.1 -1.4459 -7.59357 0
M  V30 12409 C 2186.16 -0.347608 -7.69215 0
M  V30 12410 C 2186.89 0.96767 -7.52806 0
M  V30 12411 O 2187.1 1.21036 -6.1011 0
M  V30 12412 C 2188.29 1.04544 -8.13308 0
M  V30 12413 O 2188.68 2.38311 -8.41922 0
M  V30 12414 C 2189.17 0.491279 -7.02284 0
M  V30 12415 C 2188.46 0.996264 -5.77469 0
M  V30 12416 N 2188.51 0.0501916 -4.62973 0
M  V30 12417 H 2185.67 -0.374722 -8.67691 0
M  V30 12418 H 2185.4 -0.443485 -6.90277 0
M  V30 12419 H 2186.27 1.75537 -7.96793 0
M  V30 12420 P 2190.23 2.75334 -8.47391 0
M  V30 12421 O 2190.45 3.84128 -9.44797 0
M  V30 12422 O 2191.02 1.51947 -8.68712 0
M  V30 12423 O 2190.48 3.29363 -6.99321 0
M  V30 12424 C 2189.54 4.24011 -6.4274 0
M  V30 12425 C 2190.27 5.20775 -5.52155 0
M  V30 12426 O 2190.48 4.56534 -4.22446 0
M  V30 12427 C 2191.67 5.62629 -5.96531 0
M  V30 12428 O 2192.06 6.87667 -5.41053 0
M  V30 12429 C 2192.55 4.52537 -5.39283 0
M  V30 12430 C 2191.84 4.20027 -4.08623 0
M  V30 12431 N 2191.89 2.76189 -3.71603 0
M  V30 12432 H 2189.05 4.797 -7.24003 0
M  V30 12433 H 2188.78 3.69856 -5.84513 0
M  V30 12434 H 2189.65 6.10356 -5.41441 0
M  V30 12435 P 2193.61 7.20834 -5.23717 0
M  V30 12436 O 2193.83 8.66104 -5.38572 0
M  V30 12437 O 2194.4 6.33544 -6.1349 0
M  V30 12438 O 2193.86 6.7751 -3.72168 0
M  V30 12439 C 2192.92 7.20825 -2.7076 0
M  V30 12440 C 2193.65 7.45864 -1.40599 0
M  V30 12441 O 2193.86 6.17651 -0.734225 0
M  V30 12442 C 2195.05 8.05808 -1.51899 0
M  V30 12443 O 2195.44 8.74358 -0.335205 0
M  V30 12444 C 2195.93 6.83093 -1.70294 0
M  V30 12445 C 2195.22 5.79992 -0.836974 0
M  V30 12446 N 2195.27 4.41864 -1.38293 0
M  V30 12447 C 2195.19 3.99538 -2.69438 0
M  V30 12448 N 2195.27 2.69909 -2.84277 0
M  V30 12449 C 2195.41 2.21719 -1.5408 0
M  V30 12450 C 2195.54 0.891712 -1.06628 0
M  V30 12451 N 2195.66 0.856846 0.334985 0
M  V30 12452 C 2195.66 1.9641 1.15789 0
M  V30 12453 N 2195.79 1.72708 2.46522 0
M  V30 12454 N 2195.53 3.21165 0.713741 0
M  V30 12455 C 2195.41 3.26797 -0.639748 0
M  V30 12456 H 2192.43 8.13644 -3.0377 0
M  V30 12457 H 2192.16 6.42788 -2.55485 0
M  V30 12458 H 2193.03 8.12039 -0.792769 0
M  V30 12459 P 2196.99 8.91 -4.28757e-11 0
M  V30 12460 O 2197.21 10.1726 0.733694 0
M  V30 12461 O 2197.78 8.73148 -1.23936 0
M  V30 12462 O 2197.24 7.66872 0.971405 0
M  V30 12463 C 2196.3 7.42309 2.04641 0
M  V30 12464 C 2197.03 6.86059 3.24661 0
M  V30 12465 O 2197.24 5.42847 3.03646 0
M  V30 12466 C 2198.43 7.41196 3.50753 0
M  V30 12467 O 2198.82 7.27073 4.86816 0
M  V30 12468 C 2199.31 6.5273 2.63741 0
M  V30 12469 C 2198.6 5.1842 2.73198 0
M  V30 12470 N 2198.65 4.38762 1.4784 0
M  V30 12471 C 2198.57 4.81605 0.168631 0
M  V30 12472 N 2198.65 3.85454 -0.713363 0
M  V30 12473 C 2198.79 2.6994 0.0566958 0
M  V30 12474 C 2198.92 1.34815 -0.338502 0
M  V30 12475 N 2199.04 0.496304 0.77465 0
M  V30 12476 C 2199.04 0.908403 2.09122 0
M  V30 12477 N 2199.17 -0.0517805 3.00955 0
M  V30 12478 N 2198.91 2.17875 2.46519 0
M  V30 12479 C 2198.79 3.01988 1.4033 0
M  V30 12480 H 2195.81 8.36803 2.32493 0
M  V30 12481 H 2195.54 6.70197 1.71129 0
M  V30 12482 H 2196.4 7.03551 4.13168 0
M  V30 12483 P 2200.37 7.20834 5.23717 0
M  V30 12484 O 2200.59 7.79853 6.57286 0
M  V30 12485 O 2201.16 7.79239 4.12957 0
M  V30 12486 O 2200.62 5.63315 5.29344 0
M  V30 12487 C 2199.68 4.80255 6.01876 0
M  V30 12488 C 2200.41 3.64202 6.65911 0
M  V30 12489 O 2200.62 2.60694 5.64732 0
M  V30 12490 C 2201.81 3.93473 7.1943 0
M  V30 12491 O 2202.2 3.02071 8.21205 0
M  V30 12492 C 2202.69 3.73047 5.97036 0
M  V30 12493 C 2201.98 2.58828 5.25741 0
M  V30 12494 N 2202.03 2.68068 3.77503 0
M  V30 12495 C 2201.95 3.79715 2.96723 0
M  V30 12496 N 2202.03 3.5377 1.68852 0
M  V30 12497 C 2202.17 2.15054 1.63254 0
M  V30 12498 C 2202.3 1.28964 0.518571 0
M  V30 12499 N 2202.42 -0.0538097 0.918425 0
M  V30 12500 C 2202.42 -0.494275 2.22578 0
M  V30 12501 N 2202.55 -1.81086 2.40434 0
M  V30 12502 N 2202.29 0.313645 3.27502 0
M  V30 12503 C 2202.17 1.61829 2.91033 0
M  V30 12504 H 2199.19 5.40332 6.79951 0
M  V30 12505 H 2198.92 4.41613 5.32378 0
M  V30 12506 H 2199.78 3.26331 7.47797 0
M  V30 12507 P 2203.75 2.75334 8.47391 0
M  V30 12508 O 2203.97 2.44595 9.90239 0
M  V30 12509 O 2204.54 3.87732 7.92204 0
M  V30 12510 O 2204 1.4459 7.59357 0
M  V30 12511 C 2203.06 0.347608 7.69215 0
M  V30 12512 C 2203.79 -0.96767 7.52806 0
M  V30 12513 O 2204 -1.21036 6.1011 0
M  V30 12514 C 2205.19 -1.04544 8.13308 0
M  V30 12515 O 2205.58 -2.38311 8.41922 0
M  V30 12516 C 2206.07 -0.491279 7.02284 0
M  V30 12517 C 2205.36 -0.996264 5.77469 0
M  V30 12518 N 2205.41 -0.0501808 4.62873 0
M  V30 12519 C 2205.56 -0.578037 3.3505 0
M  V30 12520 O 2205.65 -1.8073 3.21711 0
M  V30 12521 N 2205.61 0.468541 2.263 0
M  V30 12522 C 2205.51 1.59186 2.47176 0
M  V30 12523 N 2205.56 2.37626 1.40392 0
M  V30 12524 C 2205.36 2.16203 3.77467 0
M  V30 12525 C 2205.31 1.29324 4.8195 0
M  V30 12526 H 2202.57 0.374679 8.67591 0
M  V30 12527 H 2202.3 0.443421 6.90177 0
M  V30 12528 H 2203.16 -1.75559 7.96891 0
M  V30 12529 H 2205.82 -1.94529 5.46723 0
M  V30 12530 H 2206.1 0.608651 7.04676 0
M  V30 12531 H 2207.09 -0.889672 7.08939 0
M  V30 12532 H 2205.26 -0.43308 9.04564 0
M  V30 12533 H 2205.18 1.67758 5.83046 0
M  V30 12534 H 2205.29 3.23869 3.92281 0
M  V30 12535 H 2205.67 1.96317 0.467202 0
M  V30 12536 H 2205.48 3.39693 1.51142 0
M  V30 12537 P 2207.13 -2.75334 8.47391 0
M  V30 12538 O 2207.35 -3.84128 9.44797 0
M  V30 12539 O 2207.92 -1.51947 8.68712 0
M  V30 12540 O 2207.38 -3.29363 6.99321 0
M  V30 12541 C 2206.44 -4.24011 6.4274 0
M  V30 12542 C 2207.17 -5.20775 5.52155 0
M  V30 12543 O 2207.38 -4.56534 4.22446 0
M  V30 12544 C 2208.57 -5.62629 5.96531 0
M  V30 12545 O 2208.96 -6.87667 5.41053 0
M  V30 12546 C 2209.45 -4.52537 5.39283 0
M  V30 12547 C 2208.74 -4.20027 4.08623 0
M  V30 12548 N 2208.79 -2.76189 3.71603 0
M  V30 12549 C 2208.71 -1.64862 4.52822 0
M  V30 12550 N 2208.79 -0.512671 3.88633 0
M  V30 12551 C 2208.93 -0.888083 2.54977 0
M  V30 12552 C 2209.06 -0.094668 1.38677 0
M  V30 12553 O 2209.08 1.13053 1.28163 0
M  V30 12554 N 2209.18 -0.890102 0.232633 0
M  V30 12555 C 2209.18 -2.26958 0.21772 0
M  V30 12556 N 2209.31 -2.84626 -0.97925 0
M  V30 12557 N 2209.05 -3.0178 1.31033 0
M  V30 12558 C 2208.93 -2.26781 2.43843 0
M  V30 12559 H 2205.95 -4.797 7.24003 0
M  V30 12560 H 2205.68 -3.69856 5.84513 0
M  V30 12561 H 2206.54 -6.10356 5.41441 0
M  V30 12562 H 2209.2 -4.79061 3.27488 0
M  V30 12563 H 2209.48 -3.64906 6.05785 0
M  V30 12564 H 2210.47 -4.8868 5.2125 0
M  V30 12565 H 2208.64 -5.66726 7.06352 0
M  V30 12566 H 2208.59 -1.71169 5.60966 0
M  V30 12567 H 2209.27 -0.419134 -0.644739 0
M  V30 12568 H 2209.31 -3.87332 -1.06098 0
M  V30 12569 H 2209.41 -2.26417 -1.82483 0
M  V30 12570 P 2210.51 -7.20834 5.23717 0
M  V30 12571 O 2210.73 -8.66104 5.38572 0
M  V30 12572 O 2211.3 -6.33544 6.1349 0
M  V30 12573 O 2210.76 -6.7751 3.72168 0
M  V30 12574 C 2209.82 -7.20825 2.7076 0
M  V30 12575 C 2210.55 -7.45864 1.40599 0
M  V30 12576 O 2210.76 -6.17651 0.734225 0
M  V30 12577 C 2211.95 -8.05808 1.51899 0
M  V30 12578 O 2212.34 -8.74358 0.335205 0
M  V30 12579 C 2212.83 -6.83093 1.70294 0
M  V30 12580 C 2212.12 -5.79992 0.836974 0
M  V30 12581 N 2212.17 -4.41864 1.38293 0
M  V30 12582 H 2209.33 -8.13644 3.0377 0
M  V30 12583 H 2209.06 -6.42788 2.55485 0
M  V30 12584 H 2209.92 -8.12039 0.792769 0
M  V30 12585 P 2213.89 -8.91 4.39847e-11 0
M  V30 12586 O 2214.11 -10.1736 -0.733766 0
M  V30 12587 O 2214.68 -8.73247 1.2395 0
M  V30 12588 O 2214.14 -7.66872 -0.971405 0
M  V30 12589 C 2213.2 -7.42309 -2.04641 0
M  V30 12590 C 2213.93 -6.86059 -3.24661 0
M  V30 12591 O 2214.14 -5.42847 -3.03646 0
M  V30 12592 C 2215.33 -7.41196 -3.50753 0
M  V30 12593 O 2215.72 -7.27073 -4.86816 0
M  V30 12594 C 2216.21 -6.5273 -2.63741 0
M  V30 12595 C 2215.5 -5.1842 -2.73198 0
M  V30 12596 N 2215.55 -4.38668 -1.47808 0
M  V30 12597 C 2215.7 -3.00789 -1.58511 0
M  V30 12598 O 2215.79 -2.50116 -2.71298 0
M  V30 12599 N 2215.75 -2.29703 -0.253698 0
M  V30 12600 C 2215.65 -2.84269 0.750133 0
M  V30 12601 N 2215.7 -2.06951 1.82612 0
M  V30 12602 C 2215.5 -4.25803 0.889776 0
M  V30 12603 C 2215.45 -4.98326 -0.259363 0
M  V30 12604 H 2212.71 -8.36707 -2.32466 0
M  V30 12605 H 2212.44 -6.701 -1.71105 0
M  V30 12606 H 2213.3 -7.03638 -4.13219 0
M  V30 12607 H 2215.96 -4.59852 -3.53955 0
M  V30 12608 H 2216.24 -6.88995 -1.59871 0
M  V30 12609 H 2217.23 -6.46749 -3.03687 0
M  V30 12610 H 2215.4 -8.46908 -3.20714 0
M  V30 12611 H 2215.32 -6.06349 -0.206238 0
M  V30 12612 H 2215.43 -4.73163 1.86796 0
M  V30 12613 H 2215.81 -1.05099 1.72271 0
M  V30 12614 H 2215.62 -2.48716 2.76361 0
M  V30 12615 P 2217.27 -7.20834 -5.23717 0
M  V30 12616 O 2217.49 -7.79853 -6.57286 0
M  V30 12617 O 2218.06 -7.79239 -4.12957 0
M  V30 12618 O 2217.52 -5.63315 -5.29344 0
M  V30 12619 C 2216.58 -4.80255 -6.01876 0
M  V30 12620 C 2217.31 -3.64202 -6.65911 0
M  V30 12621 O 2217.52 -2.60694 -5.64732 0
M  V30 12622 C 2218.71 -3.93473 -7.1943 0
M  V30 12623 O 2219.1 -3.02071 -8.21205 0
M  V30 12624 C 2219.59 -3.73047 -5.97036 0
M  V30 12625 C 2218.88 -2.58828 -5.25741 0
M  V30 12626 N 2218.93 -2.68068 -3.77503 0
M  V30 12627 H 2216.09 -5.40332 -6.79951 0
M  V30 12628 H 2215.82 -4.41613 -5.32378 0
M  V30 12629 H 2216.68 -3.26331 -7.47797 0
M  V30 12630 P 2220.65 -2.75334 -8.47391 0
M  V30 12631 O 2220.87 -2.44571 -9.90142 0
M  V30 12632 O 2221.44 -3.87688 -7.92115 0
M  V30 12633 O 2220.9 -1.4459 -7.59357 0
M  V30 12634 C 2219.96 -0.347608 -7.69215 0
M  V30 12635 C 2220.69 0.96767 -7.52806 0
M  V30 12636 O 2220.9 1.21036 -6.1011 0
M  V30 12637 C 2222.09 1.04544 -8.13308 0
M  V30 12638 O 2222.48 2.38311 -8.41922 0
M  V30 12639 C 2222.97 0.491279 -7.02284 0
M  V30 12640 C 2222.26 0.996264 -5.77469 0
M  V30 12641 N 2222.31 0.0501916 -4.62973 0
M  V30 12642 H 2219.47 -0.374722 -8.67691 0
M  V30 12643 H 2219.2 -0.443485 -6.90277 0
M  V30 12644 H 2220.06 1.75537 -7.96793 0
M  V30 12645 P 2224.03 2.75334 -8.47391 0
M  V30 12646 O 2224.25 3.84166 -9.4489 0
M  V30 12647 O 2224.82 1.51964 -8.6881 0
M  V30 12648 O 2224.28 3.29363 -6.99321 0
M  V30 12649 C 2223.34 4.24011 -6.4274 0
M  V30 12650 C 2224.07 5.20775 -5.52155 0
M  V30 12651 O 2224.28 4.56534 -4.22446 0
M  V30 12652 C 2225.47 5.62629 -5.96531 0
M  V30 12653 O 2225.86 6.87667 -5.41053 0
M  V30 12654 C 2226.35 4.52537 -5.39283 0
M  V30 12655 C 2225.64 4.20027 -4.08623 0
M  V30 12656 N 2225.69 2.7613 -3.71522 0
M  V30 12657 C 2225.84 2.43702 -2.37085 0
M  V30 12658 O 2225.93 3.3531 -1.54039 0
M  V30 12659 N 2225.89 0.951103 -2.10621 0
M  V30 12660 C 2225.79 0.165021 -2.93537 0
M  V30 12661 N 2225.84 -1.09723 -2.53253 0
M  V30 12662 C 2225.64 0.469576 -4.32458 0
M  V30 12663 C 2225.59 1.78658 -4.65921 0
M  V30 12664 H 2222.85 4.79645 -7.23919 0
M  V30 12665 H 2222.58 3.69802 -5.84429 0
M  V30 12666 H 2223.44 6.10431 -5.41508 0
M  V30 12667 H 2226.1 4.78733 -3.27967 0
M  V30 12668 H 2226.38 3.64957 -6.05871 0
M  V30 12669 H 2227.37 4.8868 -5.2125 0
M  V30 12670 H 2225.54 5.66726 -7.06352 0
M  V30 12671 H 2225.46 2.06987 -5.70299 0
M  V30 12672 H 2225.57 -0.314383 -5.07728 0
M  V30 12673 H 2225.95 -1.31363 -1.5319 0
M  V30 12674 H 2225.76 -1.85978 -3.21943 0
M  V30 12675 P 2227.41 7.20834 -5.23717 0
M  V30 12676 O 2227.63 8.66104 -5.38572 0
M  V30 12677 O 2228.2 6.33544 -6.1349 0
M  V30 12678 O 2227.66 6.7751 -3.72168 0
M  V30 12679 C 2226.72 7.20825 -2.7076 0
M  V30 12680 C 2227.45 7.45864 -1.40599 0
M  V30 12681 O 2227.66 6.17651 -0.734225 0
M  V30 12682 C 2228.85 8.05808 -1.51899 0
M  V30 12683 O 2229.24 8.74358 -0.335205 0
M  V30 12684 C 2229.73 6.83093 -1.70294 0
M  V30 12685 C 2229.02 5.79992 -0.836974 0
M  V30 12686 N 2229.07 4.41864 -1.38293 0
M  V30 12687 H 2226.23 8.13644 -3.0377 0
M  V30 12688 H 2225.96 6.42788 -2.55485 0
M  V30 12689 H 2226.82 8.12039 -0.792769 0
M  V30 12690 P 2230.79 8.91 -4.50937e-11 0
M  V30 12691 O 2231.01 10.1726 0.733694 0
M  V30 12692 O 2231.58 8.73148 -1.23936 0
M  V30 12693 O 2231.04 7.66872 0.971405 0
M  V30 12694 C 2230.1 7.42309 2.04641 0
M  V30 12695 C 2230.83 6.86059 3.24661 0
M  V30 12696 O 2231.04 5.42847 3.03646 0
M  V30 12697 C 2232.23 7.41196 3.50753 0
M  V30 12698 O 2232.62 7.27073 4.86816 0
M  V30 12699 C 2233.11 6.5273 2.63741 0
M  V30 12700 C 2232.4 5.1842 2.73198 0
M  V30 12701 N 2232.45 4.38762 1.4784 0
M  V30 12702 H 2229.61 8.36803 2.32493 0
M  V30 12703 H 2229.34 6.70197 1.71129 0
M  V30 12704 H 2230.2 7.03551 4.13168 0
M  V30 12705 P 2234.17 7.20834 5.23717 0
M  V30 12706 O 2234.39 7.79853 6.57286 0
M  V30 12707 O 2234.96 7.79239 4.12957 0
M  V30 12708 O 2234.42 5.63315 5.29344 0
M  V30 12709 C 2233.48 4.80255 6.01876 0
M  V30 12710 C 2234.21 3.64202 6.65911 0
M  V30 12711 O 2234.42 2.60694 5.64732 0
M  V30 12712 C 2235.61 3.93473 7.1943 0
M  V30 12713 O 2236 3.02071 8.21205 0
M  V30 12714 C 2236.49 3.73047 5.97036 0
M  V30 12715 C 2235.78 2.58828 5.25741 0
M  V30 12716 N 2235.83 2.68068 3.77503 0
M  V30 12717 H 2232.99 5.40332 6.79951 0
M  V30 12718 H 2232.72 4.41613 5.32378 0
M  V30 12719 H 2233.58 3.26331 7.47797 0
M  V30 12720 P 2237.55 2.75334 8.47391 0
M  V30 12721 O 2237.77 2.44571 9.90142 0
M  V30 12722 O 2238.34 3.87688 7.92115 0
M  V30 12723 O 2237.8 1.4459 7.59357 0
M  V30 12724 C 2236.86 0.347608 7.69215 0
M  V30 12725 C 2237.59 -0.96767 7.52806 0
M  V30 12726 O 2237.8 -1.21036 6.1011 0
M  V30 12727 C 2238.99 -1.04544 8.13308 0
M  V30 12728 O 2239.38 -2.38311 8.41922 0
M  V30 12729 C 2239.87 -0.491279 7.02284 0
M  V30 12730 C 2239.16 -0.996264 5.77469 0
M  V30 12731 N 2239.21 -0.0501916 4.62973 0
M  V30 12732 H 2236.37 0.374722 8.67691 0
M  V30 12733 H 2236.1 0.443485 6.90277 0
M  V30 12734 H 2236.96 -1.75537 7.96793 0
M  V30 12735 P 2240.93 -2.75334 8.47391 0
M  V30 12736 O 2241.15 -3.84166 9.4489 0
M  V30 12737 O 2241.72 -1.51964 8.6881 0
M  V30 12738 O 2241.18 -3.29363 6.99321 0
M  V30 12739 C 2240.24 -4.24011 6.4274 0
M  V30 12740 C 2240.97 -5.20775 5.52155 0
M  V30 12741 O 2241.18 -4.56534 4.22446 0
M  V30 12742 C 2242.37 -5.62629 5.96531 0
M  V30 12743 O 2242.76 -6.87667 5.41053 0
M  V30 12744 C 2243.25 -4.52537 5.39283 0
M  V30 12745 C 2242.54 -4.20027 4.08623 0
M  V30 12746 N 2242.59 -2.7613 3.71522 0
M  V30 12747 C 2242.74 -2.43702 2.37085 0
M  V30 12748 O 2242.83 -3.3531 1.54039 0
M  V30 12749 N 2242.79 -0.951103 2.10621 0
M  V30 12750 C 2242.69 -0.165021 2.93537 0
M  V30 12751 N 2242.74 1.09723 2.53253 0
M  V30 12752 C 2242.54 -0.469576 4.32458 0
M  V30 12753 C 2242.49 -1.78658 4.65921 0
M  V30 12754 H 2239.75 -4.79645 7.23919 0
M  V30 12755 H 2239.48 -3.69802 5.84429 0
M  V30 12756 H 2240.34 -6.10431 5.41508 0
M  V30 12757 H 2243 -4.78733 3.27967 0
M  V30 12758 H 2243.28 -3.64957 6.05871 0
M  V30 12759 H 2244.27 -4.8868 5.2125 0
M  V30 12760 H 2242.44 -5.66726 7.06352 0
M  V30 12761 H 2242.36 -2.06987 5.70299 0
M  V30 12762 H 2242.47 0.314383 5.07728 0
M  V30 12763 H 2242.85 1.31363 1.5319 0
M  V30 12764 H 2242.66 1.85978 3.21943 0
M  V30 12765 P 2244.31 -7.20834 5.23717 0
M  V30 12766 O 2244.53 -8.66104 5.38572 0
M  V30 12767 O 2245.1 -6.33544 6.1349 0
M  V30 12768 O 2244.56 -6.7751 3.72168 0
M  V30 12769 C 2243.62 -7.20825 2.7076 0
M  V30 12770 C 2244.35 -7.45864 1.40599 0
M  V30 12771 O 2244.56 -6.17651 0.734225 0
M  V30 12772 C 2245.75 -8.05808 1.51899 0
M  V30 12773 O 2246.14 -8.74358 0.335205 0
M  V30 12774 C 2246.63 -6.83093 1.70294 0
M  V30 12775 C 2245.92 -5.79992 0.836974 0
M  V30 12776 N 2245.97 -4.41864 1.38293 0
M  V30 12777 C 2245.89 -3.99538 2.69438 0
M  V30 12778 N 2245.97 -2.69909 2.84277 0
M  V30 12779 C 2246.11 -2.21719 1.5408 0
M  V30 12780 C 2246.24 -0.891712 1.06628 0
M  V30 12781 O 2246.26 0.161298 1.70137 0
M  V30 12782 N 2246.36 -0.856846 -0.334985 0
M  V30 12783 C 2246.36 -1.9641 -1.15789 0
M  V30 12784 N 2246.49 -1.72708 -2.46522 0
M  V30 12785 N 2246.23 -3.21165 -0.713741 0
M  V30 12786 C 2246.11 -3.26797 0.639748 0
M  V30 12787 H 2243.13 -8.13644 3.0377 0
M  V30 12788 H 2242.86 -6.42788 2.55485 0
M  V30 12789 H 2243.72 -8.12039 0.792769 0
M  V30 12790 H 2246.38 -5.80061 -0.166416 0
M  V30 12791 H 2246.66 -6.51287 2.75604 0
M  V30 12792 H 2247.65 -7.01734 1.34462 0
M  V30 12793 H 2245.82 -8.73674 2.38337 0
M  V30 12794 H 2245.77 -4.68207 3.53221 0
M  V30 12795 H 2246.45 0.0398818 -0.767965 0
M  V30 12796 H 2246.49 -2.50995 -3.13503 0
M  V30 12797 H 2246.59 -0.759148 -2.80716 0
M  V30 12798 P 2247.69 -8.91 4.62027e-11 0
M  V30 12799 O 2247.91 -10.1726 -0.733694 0
M  V30 12800 O 2248.48 -8.73148 1.23936 0
M  V30 12801 O 2247.94 -7.66872 -0.971405 0
M  V30 12802 C 2247 -7.42309 -2.04641 0
M  V30 12803 C 2247.73 -6.86059 -3.24661 0
M  V30 12804 O 2247.94 -5.42847 -3.03646 0
M  V30 12805 C 2249.13 -7.41196 -3.50753 0
M  V30 12806 O 2249.52 -7.27073 -4.86816 0
M  V30 12807 C 2250.01 -6.5273 -2.63741 0
M  V30 12808 C 2249.3 -5.1842 -2.73198 0
M  V30 12809 N 2249.35 -4.38762 -1.4784 0
M  V30 12810 H 2246.51 -8.36803 -2.32493 0
M  V30 12811 H 2246.24 -6.70197 -1.71129 0
M  V30 12812 H 2247.1 -7.03551 -4.13168 0
M  V30 12813 P 2251.07 -7.20834 -5.23717 0
M  V30 12814 O 2251.29 -7.7993 -6.57351 0
M  V30 12815 O 2251.86 -7.79328 -4.13004 0
M  V30 12816 O 2251.32 -5.63315 -5.29344 0
M  V30 12817 C 2250.38 -4.80255 -6.01876 0
M  V30 12818 C 2251.11 -3.64202 -6.65911 0
M  V30 12819 O 2251.32 -2.60694 -5.64732 0
M  V30 12820 C 2252.51 -3.93473 -7.1943 0
M  V30 12821 O 2252.9 -3.02071 -8.21205 0
M  V30 12822 C 2253.39 -3.73047 -5.97036 0
M  V30 12823 C 2252.68 -2.58828 -5.25741 0
M  V30 12824 N 2252.73 -2.6801 -3.77422 0
M  V30 12825 C 2252.88 -1.50173 -3.05038 0
M  V30 12826 O 2252.97 -0.428832 -3.665 0
M  V30 12827 N 2252.93 -1.70922 -1.55541 0
M  V30 12828 C 2252.83 -2.7407 -1.06402 0
M  V30 12829 N 2252.88 -2.74764 0.260931 0
M  V30 12830 C 2252.68 -3.96781 -1.78296 0
M  V30 12831 C 2252.63 -3.87909 -3.13891 0
M  V30 12832 H 2249.89 -5.4027 -6.79873 0
M  V30 12833 H 2249.62 -4.41549 -5.32301 0
M  V30 12834 H 2250.48 -3.26371 -7.47889 0
M  V30 12835 H 2253.14 -1.63978 -5.5665 0
M  V30 12836 H 2253.42 -4.63439 -5.3432 0
M  V30 12837 H 2254.41 -3.44728 -6.25838 0
M  V30 12838 H 2252.58 -4.96652 -7.57263 0
M  V30 12839 H 2252.5 -4.78425 -3.73088 0
M  V30 12840 H 2252.61 -4.92593 -1.26997 0
M  V30 12841 H 2252.99 -1.86285 0.77595 0
M  V30 12842 H 2252.8 -3.63657 0.773896 0
M  V30 12843 P 2254.45 -2.75334 -8.47391 0
M  V30 12844 O 2254.67 -2.44571 -9.90142 0
M  V30 12845 O 2255.24 -3.87688 -7.92115 0
M  V30 12846 O 2254.7 -1.4459 -7.59357 0
M  V30 12847 C 2253.76 -0.347608 -7.69215 0
M  V30 12848 C 2254.49 0.96767 -7.52806 0
M  V30 12849 O 2254.7 1.21036 -6.1011 0
M  V30 12850 C 2255.89 1.04544 -8.13308 0
M  V30 12851 O 2256.28 2.38311 -8.41922 0
M  V30 12852 C 2256.77 0.491279 -7.02284 0
M  V30 12853 C 2256.06 0.996264 -5.77469 0
M  V30 12854 N 2256.11 0.0501916 -4.62973 0
M  V30 12855 H 2253.27 -0.374722 -8.67691 0
M  V30 12856 H 2253 -0.443485 -6.90277 0
M  V30 12857 H 2253.86 1.75537 -7.96793 0
M  V30 12858 P 2257.83 2.75334 -8.47391 0
M  V30 12859 O 2258.05 3.84204 -9.44982 0
M  V30 12860 O 2258.62 1.51982 -8.68909 0
M  V30 12861 O 2258.08 3.29363 -6.99321 0
M  V30 12862 C 2257.14 4.24066 -6.42823 0
M  V30 12863 C 2257.87 5.20775 -5.52155 0
M  V30 12864 O 2258.08 4.56607 -4.22514 0
M  V30 12865 C 2259.27 5.62697 -5.96604 0
M  V30 12866 O 2259.66 6.87667 -5.41053 0
M  V30 12867 C 2260.15 4.52537 -5.39283 0
M  V30 12868 C 2259.44 4.20027 -4.08623 0
M  V30 12869 N 2259.49 2.76189 -3.71603 0
M  V30 12870 C 2259.41 1.66944 -4.54297 0
M  V30 12871 N 2259.48 0.536169 -3.91344 0
M  V30 12872 C 2259.63 0.901569 -2.58849 0
M  V30 12873 C 2259.76 0.146599 -1.40236 0
M  V30 12874 N 2259.77 -1.18234 -1.37046 0
M  V30 12875 N 2259.88 0.822941 -0.249738 0
M  V30 12876 C 2259.87 2.15179 -0.280525 0
M  V30 12877 N 2259.75 2.96414 -1.30822 0
M  V30 12878 C 2259.63 2.25804 -2.44748 0
M  V30 12879 H 2256.65 4.79756 -7.24086 0
M  V30 12880 H 2256.38 3.69963 -5.84682 0
M  V30 12881 H 2257.24 6.10431 -5.41508 0
M  V30 12882 H 2259.9 4.78816 -3.28024 0
M  V30 12883 H 2260.18 3.64957 -6.05871 0
M  V30 12884 H 2261.17 4.88748 -5.21323 0
M  V30 12885 H 2259.34 5.66789 -7.0643 0
M  V30 12886 H 2259.3 1.74684 -5.62396 0
M  V30 12887 H 2259.68 -1.71949 -2.24394 0
M  V30 12888 H 2259.87 -1.67511 -0.470742 0
M  V30 12889 H 2259.97 2.63704 0.6828 0
M  V30 12890 P 2261.21 7.20834 -5.23717 0
M  V30 12891 O 2261.43 8.66189 -5.38625 0
M  V30 12892 O 2262 6.33615 -6.1356 0
M  V30 12893 O 2261.46 6.7751 -3.72168 0
M  V30 12894 C 2260.52 7.20825 -2.7076 0
M  V30 12895 C 2261.25 7.45864 -1.40599 0
M  V30 12896 O 2261.46 6.17651 -0.734225 0
M  V30 12897 C 2262.65 8.05808 -1.51899 0
M  V30 12898 O 2263.04 8.74358 -0.335205 0
M  V30 12899 C 2263.53 6.83093 -1.70294 0
M  V30 12900 C 2262.82 5.79992 -0.836974 0
M  V30 12901 N 2262.87 4.41769 -1.38263 0
M  V30 12902 C 2263.02 3.36514 -0.485617 0
M  V30 12903 O 2263.11 3.61814 0.724703 0
M  V30 12904 N 2263.07 2.00746 -1.14492 0
M  V30 12905 C 2262.97 1.85887 -2.27776 0
M  V30 12906 N 2263.02 0.600907 -2.69379 0
M  V30 12907 C 2262.82 2.92182 -3.22265 0
M  V30 12908 C 2262.77 4.18399 -2.71925 0
M  V30 12909 H 2260.03 8.1355 -3.03735 0
M  V30 12910 H 2259.76 6.42695 -2.55448 0
M  V30 12911 H 2260.62 8.12139 -0.792866 0
M  V30 12912 H 2263.28 5.80078 0.160615 0
M  V30 12913 H 2263.56 6.51379 -2.75643 0
M  V30 12914 H 2264.55 7.01734 -1.34462 0
M  V30 12915 H 2262.72 8.73674 -2.38337 0
M  V30 12916 H 2262.64 5.02669 -3.39718 0
M  V30 12917 H 2262.75 2.73001 -4.29239 0
M  V30 12918 H 2263.13 -0.162318 -2.01146 0
M  V30 12919 H 2262.94 0.387742 -3.69773 0
M  V30 12920 P 2264.59 8.91 -4.73117e-11 0
M  V30 12921 O 2264.81 10.1726 0.733694 0
M  V30 12922 O 2265.38 8.73148 -1.23936 0
M  V30 12923 O 2264.84 7.66872 0.971405 0
M  V30 12924 C 2263.9 7.42309 2.04641 0
M  V30 12925 C 2264.63 6.86059 3.24661 0
M  V30 12926 O 2264.84 5.42847 3.03646 0
M  V30 12927 C 2266.03 7.41196 3.50753 0
M  V30 12928 O 2266.42 7.27073 4.86816 0
M  V30 12929 C 2266.91 6.5273 2.63741 0
M  V30 12930 C 2266.2 5.1842 2.73198 0
M  V30 12931 N 2266.25 4.38762 1.4784 0
M  V30 12932 H 2263.41 8.36803 2.32493 0
M  V30 12933 H 2263.14 6.70197 1.71129 0
M  V30 12934 H 2264 7.03551 4.13168 0
M  V30 12935 P 2267.97 7.20834 5.23717 0
M  V30 12936 O 2268.19 7.79853 6.57286 0
M  V30 12937 O 2268.76 7.79239 4.12957 0
M  V30 12938 O 2268.22 5.63315 5.29344 0
M  V30 12939 C 2267.28 4.80255 6.01876 0
M  V30 12940 C 2268.01 3.64202 6.65911 0
M  V30 12941 O 2268.22 2.60694 5.64732 0
M  V30 12942 C 2269.41 3.93473 7.1943 0
M  V30 12943 O 2269.8 3.02071 8.21205 0
M  V30 12944 C 2270.29 3.73047 5.97036 0
M  V30 12945 C 2269.58 2.58828 5.25741 0
M  V30 12946 N 2269.63 2.68068 3.77503 0
M  V30 12947 H 2266.79 5.40332 6.79951 0
M  V30 12948 H 2266.52 4.41613 5.32378 0
M  V30 12949 H 2267.38 3.26331 7.47797 0
M  V30 12950 P 2271.35 2.75334 8.47391 0
M  V30 12951 O 2271.57 2.44619 9.90336 0
M  V30 12952 O 2272.14 3.87776 7.92294 0
M  V30 12953 O 2271.6 1.4459 7.59357 0
M  V30 12954 C 2270.66 0.347653 7.69315 0
M  V30 12955 C 2271.39 -0.96767 7.52806 0
M  V30 12956 O 2271.6 -1.21055 6.10208 0
M  V30 12957 C 2272.79 -1.04557 8.13408 0
M  V30 12958 O 2273.18 -2.38311 8.41922 0
M  V30 12959 C 2273.67 -0.491279 7.02284 0
M  V30 12960 C 2272.96 -0.996264 5.77469 0
M  V30 12961 N 2273.01 -0.0501916 4.62973 0
M  V30 12962 H 2270.17 0.374765 8.67791 0
M  V30 12963 H 2269.9 0.443613 6.90476 0
M  V30 12964 H 2270.76 -1.75559 7.96891 0
M  V30 12965 H 2273.42 -1.94563 5.46818 0
M  V30 12966 H 2273.7 0.608651 7.04676 0
M  V30 12967 H 2274.69 -0.889796 7.09039 0
M  V30 12968 H 2272.86 -0.433128 9.04664 0
M  V30 12969 P 2274.73 -2.75334 8.47391 0
M  V30 12970 O 2274.95 -3.84128 9.44797 0
M  V30 12971 O 2275.52 -1.51947 8.68712 0
M  V30 12972 O 2274.98 -3.29363 6.99321 0
M  V30 12973 C 2274.04 -4.24011 6.4274 0
M  V30 12974 C 2274.77 -5.20775 5.52155 0
M  V30 12975 O 2274.98 -4.56534 4.22446 0
M  V30 12976 C 2276.17 -5.62629 5.96531 0
M  V30 12977 O 2276.56 -6.87667 5.41053 0
M  V30 12978 C 2277.05 -4.52537 5.39283 0
M  V30 12979 C 2276.34 -4.20027 4.08623 0
M  V30 12980 N 2276.39 -2.76189 3.71603 0
M  V30 12981 H 2273.55 -4.797 7.24003 0
M  V30 12982 H 2273.28 -3.69856 5.84513 0
M  V30 12983 H 2274.14 -6.10356 5.41441 0
M  V30 12984 P 2278.11 -7.20834 5.23717 0
M  V30 12985 O 2278.33 -8.66104 5.38572 0
M  V30 12986 O 2278.9 -6.33544 6.1349 0
M  V30 12987 O 2278.36 -6.7751 3.72168 0
M  V30 12988 C 2277.42 -7.20825 2.7076 0
M  V30 12989 C 2278.15 -7.45864 1.40599 0
M  V30 12990 O 2278.36 -6.17651 0.734225 0
M  V30 12991 C 2279.55 -8.05808 1.51899 0
M  V30 12992 O 2279.94 -8.74358 0.335205 0
M  V30 12993 C 2280.43 -6.83093 1.70294 0
M  V30 12994 C 2279.72 -5.79992 0.836974 0
M  V30 12995 N 2279.77 -4.41864 1.38293 0
M  V30 12996 H 2276.93 -8.13644 3.0377 0
M  V30 12997 H 2276.66 -6.42788 2.55485 0
M  V30 12998 H 2277.52 -8.12039 0.792769 0
M  V30 12999 P 2281.49 -8.91 4.84207e-11 0
M  V30 13000 O 2281.71 -10.1726 -0.733694 0
M  V30 13001 O 2282.28 -8.73148 1.23936 0
M  V30 13002 O 2281.74 -7.66872 -0.971405 0
M  V30 13003 C 2280.8 -7.42309 -2.04641 0
M  V30 13004 C 2281.53 -6.86059 -3.24661 0
M  V30 13005 O 2281.74 -5.42847 -3.03646 0
M  V30 13006 C 2282.93 -7.41196 -3.50753 0
M  V30 13007 O 2283.32 -7.27073 -4.86816 0
M  V30 13008 C 2283.81 -6.5273 -2.63741 0
M  V30 13009 C 2283.1 -5.1842 -2.73198 0
M  V30 13010 N 2283.15 -4.38762 -1.4784 0
M  V30 13011 H 2280.31 -8.36803 -2.32493 0
M  V30 13012 H 2280.04 -6.70197 -1.71129 0
M  V30 13013 H 2280.9 -7.03551 -4.13168 0
M  V30 13014 P 2284.87 -7.20834 -5.23717 0
M  V30 13015 O 2285.09 -7.79853 -6.57286 0
M  V30 13016 O 2285.66 -7.79239 -4.12957 0
M  V30 13017 O 2285.12 -5.63315 -5.29344 0
M  V30 13018 C 2284.18 -4.80255 -6.01876 0
M  V30 13019 C 2284.91 -3.64202 -6.65911 0
M  V30 13020 O 2285.12 -2.60694 -5.64732 0
M  V30 13021 C 2286.31 -3.93473 -7.1943 0
M  V30 13022 O 2286.7 -3.02071 -8.21205 0
M  V30 13023 C 2287.19 -3.73047 -5.97036 0
M  V30 13024 C 2286.48 -2.58828 -5.25741 0
M  V30 13025 N 2286.53 -2.68068 -3.77503 0
M  V30 13026 C 2286.45 -3.79715 -2.96723 0
M  V30 13027 N 2286.53 -3.5377 -1.68852 0
M  V30 13028 C 2286.67 -2.15054 -1.63254 0
M  V30 13029 C 2286.8 -1.28964 -0.518571 0
M  V30 13030 O 2286.82 -1.56826 0.679156 0
M  V30 13031 N 2286.92 0.0538097 -0.918425 0
M  V30 13032 C 2286.92 0.494275 -2.22578 0
M  V30 13033 N 2287.05 1.81086 -2.40434 0
M  V30 13034 N 2286.79 -0.313645 -3.27502 0
M  V30 13035 C 2286.67 -1.61829 -2.91033 0
M  V30 13036 H 2283.69 -5.40332 -6.79951 0
M  V30 13037 H 2283.42 -4.41613 -5.32378 0
M  V30 13038 H 2284.28 -3.26331 -7.47797 0
M  V30 13039 H 2286.94 -1.63422 -5.56814 0
M  V30 13040 H 2287.22 -4.63374 -5.34244 0
M  V30 13041 H 2288.21 -3.44728 -6.25838 0
M  V30 13042 H 2286.38 -4.96652 -7.57263 0
M  V30 13043 H 2286.33 -4.80617 -3.3614 0
M  V30 13044 H 2287.01 0.742702 -0.199384 0
M  V30 13045 H 2287.05 2.20598 -3.35588 0
M  V30 13046 H 2287.15 2.43518 -1.58945 0
M  V30 13047 P 2288.25 -2.75334 -8.47391 0
M  V30 13048 O 2288.47 -2.44571 -9.90142 0
M  V30 13049 O 2289.04 -3.87688 -7.92115 0
M  V30 13050 O 2288.5 -1.4459 -7.59357 0
M  V30 13051 C 2287.56 -0.347608 -7.69215 0
M  V30 13052 C 2288.29 0.96767 -7.52806 0
M  V30 13053 O 2288.5 1.21036 -6.1011 0
M  V30 13054 C 2289.69 1.04544 -8.13308 0
M  V30 13055 O 2290.08 2.38311 -8.41922 0
M  V30 13056 C 2290.57 0.491279 -7.02284 0
M  V30 13057 C 2289.86 0.996264 -5.77469 0
M  V30 13058 N 2289.91 0.0501916 -4.62973 0
M  V30 13059 C 2289.83 -1.32786 -4.63244 0
M  V30 13060 N 2289.91 -1.86957 -3.44545 0
M  V30 13061 C 2290.05 -0.780241 -2.58481 0
M  V30 13062 C 2290.18 -0.738536 -1.17757 0
M  V30 13063 O 2290.2 -1.66794 -0.372349 0
M  V30 13064 N 2290.3 0.58337 -0.711393 0
M  V30 13065 C 2290.3 1.70816 -1.51017 0
M  V30 13066 N 2290.43 2.87826 -0.880757 0
M  V30 13067 N 2290.17 1.67126 -2.8339 0
M  V30 13068 C 2290.05 0.401421 -3.30572 0
M  V30 13069 H 2287.07 -0.374722 -8.67691 0
M  V30 13070 H 2286.8 -0.443485 -6.90277 0
M  V30 13071 H 2287.66 1.75537 -7.96793 0
M  V30 13072 H 2290.32 1.95076 -5.46529 0
M  V30 13073 H 2290.6 -0.608565 -7.04577 0
M  V30 13074 H 2291.59 0.889672 -7.08939 0
M  V30 13075 H 2289.76 0.43308 -9.04564 0
M  V30 13076 H 2289.71 -1.91249 -5.54442 0
M  V30 13077 H 2290.39 0.718054 0.275244 0
M  V30 13078 H 2290.43 3.75721 -1.41832 0
M  V30 13079 H 2290.53 2.90436 0.145468 0
M  V30 13080 P 2291.63 2.75334 -8.47391 0
M  V30 13081 O 2291.85 3.84128 -9.44797 0
M  V30 13082 O 2292.42 1.51947 -8.68712 0
M  V30 13083 O 2291.88 3.29363 -6.99321 0
M  V30 13084 C 2290.94 4.24011 -6.4274 0
M  V30 13085 C 2291.67 5.20775 -5.52155 0
M  V30 13086 O 2291.88 4.56534 -4.22446 0
M  V30 13087 C 2293.07 5.62629 -5.96531 0
M  V30 13088 O 2293.46 6.87667 -5.41053 0
M  V30 13089 C 2293.95 4.52537 -5.39283 0
M  V30 13090 C 2293.24 4.20027 -4.08623 0
M  V30 13091 N 2293.29 2.76189 -3.71603 0
M  V30 13092 H 2290.45 4.797 -7.24003 0
M  V30 13093 H 2290.18 3.69856 -5.84513 0
M  V30 13094 H 2291.04 6.10356 -5.41441 0
M  V30 13095 P 2295.01 7.20834 -5.23717 0
M  V30 13096 O 2295.23 8.66104 -5.38572 0
M  V30 13097 O 2295.8 6.33544 -6.1349 0
M  V30 13098 O 2295.26 6.7751 -3.72168 0
M  V30 13099 C 2294.32 7.20825 -2.7076 0
M  V30 13100 C 2295.05 7.45864 -1.40599 0
M  V30 13101 O 2295.26 6.17651 -0.734225 0
M  V30 13102 C 2296.45 8.05808 -1.51899 0
M  V30 13103 O 2296.84 8.74358 -0.335205 0
M  V30 13104 C 2297.33 6.83093 -1.70294 0
M  V30 13105 C 2296.62 5.79992 -0.836974 0
M  V30 13106 N 2296.67 4.41864 -1.38293 0
M  V30 13107 C 2296.59 3.99538 -2.69438 0
M  V30 13108 N 2296.67 2.69909 -2.84277 0
M  V30 13109 C 2296.81 2.21719 -1.5408 0
M  V30 13110 C 2296.94 0.891712 -1.06628 0
M  V30 13111 O 2296.96 -0.161298 -1.70137 0
M  V30 13112 N 2297.06 0.856846 0.334985 0
M  V30 13113 C 2297.06 1.9641 1.15789 0
M  V30 13114 N 2297.19 1.72708 2.46522 0
M  V30 13115 N 2296.93 3.21165 0.713741 0
M  V30 13116 C 2296.81 3.26797 -0.639748 0
M  V30 13117 H 2293.83 8.13644 -3.0377 0
M  V30 13118 H 2293.56 6.42788 -2.55485 0
M  V30 13119 H 2294.42 8.12039 -0.792769 0
M  V30 13120 H 2297.08 5.80061 0.166416 0
M  V30 13121 H 2297.36 6.51287 -2.75604 0
M  V30 13122 H 2298.35 7.01734 -1.34462 0
M  V30 13123 H 2296.52 8.73674 -2.38337 0
M  V30 13124 H 2296.47 4.68207 -3.53221 0
M  V30 13125 H 2297.15 -0.0398818 0.767965 0
M  V30 13126 H 2297.19 2.50995 3.13503 0
M  V30 13127 H 2297.29 0.759148 2.80716 0
M  V30 13128 P 2298.39 8.91 -4.95297e-11 0
M  V30 13129 O 2298.61 10.1726 0.733694 0
M  V30 13130 O 2299.18 8.73148 -1.23936 0
M  V30 13131 O 2298.64 7.66872 0.971405 0
M  V30 13132 C 2297.7 7.42309 2.04641 0
M  V30 13133 C 2298.43 6.86059 3.24661 0
M  V30 13134 O 2298.64 5.42847 3.03646 0
M  V30 13135 C 2299.83 7.41196 3.50753 0
M  V30 13136 O 2300.22 7.27073 4.86816 0
M  V30 13137 C 2300.71 6.5273 2.63741 0
M  V30 13138 C 2300 5.1842 2.73198 0
M  V30 13139 N 2300.05 4.38762 1.4784 0
M  V30 13140 C 2299.97 4.81605 0.168631 0
M  V30 13141 N 2300.05 3.85454 -0.713363 0
M  V30 13142 C 2300.19 2.6994 0.0566958 0
M  V30 13143 C 2300.32 1.34815 -0.338502 0
M  V30 13144 N 2300.44 0.496304 0.77465 0
M  V30 13145 C 2300.44 0.908403 2.09122 0
M  V30 13146 N 2300.57 -0.0517805 3.00955 0
M  V30 13147 N 2300.31 2.17875 2.46519 0
M  V30 13148 C 2300.19 3.01988 1.4033 0
M  V30 13149 H 2297.21 8.36803 2.32493 0
M  V30 13150 H 2296.94 6.70197 1.71129 0
M  V30 13151 H 2297.8 7.03551 4.13168 0
M  V30 13152 P 2301.77 7.20834 5.23717 0
M  V30 13153 O 2301.99 7.79853 6.57286 0
M  V30 13154 O 2302.56 7.79239 4.12957 0
M  V30 13155 O 2302.02 5.63315 5.29344 0
M  V30 13156 C 2301.08 4.80255 6.01876 0
M  V30 13157 C 2301.81 3.64202 6.65911 0
M  V30 13158 O 2302.02 2.60694 5.64732 0
M  V30 13159 C 2303.21 3.93473 7.1943 0
M  V30 13160 O 2303.6 3.02071 8.21205 0
M  V30 13161 C 2304.09 3.73047 5.97036 0
M  V30 13162 C 2303.38 2.58828 5.25741 0
M  V30 13163 N 2303.43 2.68068 3.77503 0
M  V30 13164 H 2300.59 5.40332 6.79951 0
M  V30 13165 H 2300.32 4.41613 5.32378 0
M  V30 13166 H 2301.18 3.26331 7.47797 0
M  V30 13167 P 2305.15 2.75334 8.47391 0
M  V30 13168 O 2305.37 2.44571 9.90142 0
M  V30 13169 O 2305.94 3.87688 7.92115 0
M  V30 13170 O 2305.4 1.4459 7.59357 0
M  V30 13171 C 2304.46 0.347608 7.69215 0
M  V30 13172 C 2305.19 -0.96767 7.52806 0
M  V30 13173 O 2305.4 -1.21036 6.1011 0
M  V30 13174 C 2306.59 -1.04544 8.13308 0
M  V30 13175 O 2306.98 -2.38311 8.41922 0
M  V30 13176 C 2307.47 -0.491279 7.02284 0
M  V30 13177 C 2306.76 -0.996264 5.77469 0
M  V30 13178 N 2306.81 -0.0501916 4.62973 0
M  V30 13179 H 2303.97 0.374722 8.67691 0
M  V30 13180 H 2303.7 0.443485 6.90277 0
M  V30 13181 H 2304.56 -1.75537 7.96793 0
M  V30 13182 P 2308.53 -2.75334 8.47391 0
M  V30 13183 O 2308.75 -3.84128 9.44797 0
M  V30 13184 O 2309.32 -1.51947 8.68712 0
M  V30 13185 O 2308.78 -3.29363 6.99321 0
M  V30 13186 C 2307.84 -4.24011 6.4274 0
M  V30 13187 C 2308.57 -5.20775 5.52155 0
M  V30 13188 O 2308.78 -4.56534 4.22446 0
M  V30 13189 C 2309.97 -5.62629 5.96531 0
M  V30 13190 O 2310.36 -6.87667 5.41053 0
M  V30 13191 C 2310.85 -4.52537 5.39283 0
M  V30 13192 C 2310.14 -4.20027 4.08623 0
M  V30 13193 N 2310.19 -2.76189 3.71603 0
M  V30 13194 H 2307.35 -4.797 7.24003 0
M  V30 13195 H 2307.08 -3.69856 5.84513 0
M  V30 13196 H 2307.94 -6.10356 5.41441 0
M  V30 13197 P 2311.91 -7.20834 5.23717 0
M  V30 13198 O 2312.13 -8.66274 5.38678 0
M  V30 13199 O 2312.7 -6.33687 6.13629 0
M  V30 13200 O 2312.16 -6.7751 3.72168 0
M  V30 13201 C 2311.22 -7.20919 2.70795 0
M  V30 13202 C 2311.95 -7.45864 1.40599 0
M  V30 13203 O 2312.16 -6.17751 0.734343 0
M  V30 13204 C 2313.35 -8.05906 1.51917 0
M  V30 13205 O 2313.74 -8.74358 0.335205 0
M  V30 13206 C 2314.23 -6.83093 1.70294 0
M  V30 13207 C 2313.52 -5.79992 0.836974 0
M  V30 13208 N 2313.57 -4.41864 1.38293 0
M  V30 13209 C 2313.49 -4.02089 2.69407 0
M  V30 13210 N 2313.56 -2.73403 2.85089 0
M  V30 13211 C 2313.71 -2.25086 1.5642 0
M  V30 13212 C 2313.84 -0.942887 1.04836 0
M  V30 13213 N 2313.85 0.150999 1.80369 0
M  V30 13214 N 2313.96 -0.812565 -0.28167 0
M  V30 13215 C 2313.95 -1.90572 -1.03784 0
M  V30 13216 N 2313.83 -3.167 -0.683905 0
M  V30 13217 C 2313.71 -3.26538 0.652815 0
M  V30 13218 H 2310.73 -8.13738 3.03804 0
M  V30 13219 H 2310.46 -6.42974 2.55559 0
M  V30 13220 H 2311.32 -8.12139 0.792866 0
M  V30 13221 H 2313.98 -5.80178 -0.160643 0
M  V30 13222 H 2314.26 -6.51379 2.75643 0
M  V30 13223 H 2315.25 -7.01832 1.3448 0
M  V30 13224 H 2313.42 -8.73771 2.38364 0
M  V30 13225 H 2313.38 -4.7189 3.52311 0
M  V30 13226 H 2313.76 0.0721434 2.82608 0
M  V30 13227 H 2313.95 1.0785 1.36544 0
M  V30 13228 H 2314.05 -1.73207 -2.10241 0
M  V30 13229 P 2315.29 -8.91 5.06387e-11 0
M  V30 13230 O 2315.51 -10.1736 -0.733766 0
M  V30 13231 O 2316.08 -8.73247 1.2395 0
M  V30 13232 O 2315.54 -7.66872 -0.971405 0
M  V30 13233 C 2314.6 -7.42309 -2.04641 0
M  V30 13234 C 2315.33 -6.86059 -3.24661 0
M  V30 13235 O 2315.54 -5.42847 -3.03646 0
M  V30 13236 C 2316.73 -7.41196 -3.50753 0
M  V30 13237 O 2317.12 -7.27073 -4.86816 0
M  V30 13238 C 2317.61 -6.5273 -2.63741 0
M  V30 13239 C 2316.9 -5.1842 -2.73198 0
M  V30 13240 N 2316.95 -4.38668 -1.47808 0
M  V30 13241 C 2317.1 -3.00789 -1.58511 0
M  V30 13242 O 2317.19 -2.50116 -2.71298 0
M  V30 13243 N 2317.15 -2.29703 -0.253698 0
M  V30 13244 C 2317.05 -2.84269 0.750133 0
M  V30 13245 N 2317.1 -2.06951 1.82612 0
M  V30 13246 C 2316.9 -4.25803 0.889776 0
M  V30 13247 C 2316.85 -4.98326 -0.259363 0
M  V30 13248 H 2314.11 -8.36707 -2.32466 0
M  V30 13249 H 2313.84 -6.701 -1.71105 0
M  V30 13250 H 2314.7 -7.03638 -4.13219 0
M  V30 13251 H 2317.36 -4.59852 -3.53955 0
M  V30 13252 H 2317.64 -6.88995 -1.59871 0
M  V30 13253 H 2318.63 -6.46749 -3.03687 0
M  V30 13254 H 2316.8 -8.46908 -3.20714 0
M  V30 13255 H 2316.72 -6.06349 -0.206238 0
M  V30 13256 H 2316.83 -4.73163 1.86796 0
M  V30 13257 H 2317.21 -1.05099 1.72271 0
M  V30 13258 H 2317.02 -2.48716 2.76361 0
M  V30 13259 P 2318.67 -7.20834 -5.23717 0
M  V30 13260 O 2318.89 -7.79853 -6.57286 0
M  V30 13261 O 2319.46 -7.79239 -4.12957 0
M  V30 13262 O 2318.92 -5.63315 -5.29344 0
M  V30 13263 C 2317.98 -4.80255 -6.01876 0
M  V30 13264 C 2318.71 -3.64202 -6.65911 0
M  V30 13265 O 2318.92 -2.60694 -5.64732 0
M  V30 13266 C 2320.11 -3.93473 -7.1943 0
M  V30 13267 O 2320.5 -3.02071 -8.21205 0
M  V30 13268 C 2320.99 -3.73047 -5.97036 0
M  V30 13269 C 2320.28 -2.58828 -5.25741 0
M  V30 13270 N 2320.33 -2.68068 -3.77503 0
M  V30 13271 H 2317.49 -5.40332 -6.79951 0
M  V30 13272 H 2317.22 -4.41613 -5.32378 0
M  V30 13273 H 2318.08 -3.26331 -7.47797 0
M  V30 13274 P 2322.05 -2.75334 -8.47391 0
M  V30 13275 O 2322.27 -2.44571 -9.90142 0
M  V30 13276 O 2322.84 -3.87688 -7.92115 0
M  V30 13277 O 2322.3 -1.4459 -7.59357 0
M  V30 13278 C 2321.36 -0.347608 -7.69215 0
M  V30 13279 C 2322.09 0.96767 -7.52806 0
M  V30 13280 O 2322.3 1.21036 -6.1011 0
M  V30 13281 C 2323.49 1.04544 -8.13308 0
M  V30 13282 O 2323.88 2.38311 -8.41922 0
M  V30 13283 C 2324.37 0.491279 -7.02284 0
M  V30 13284 C 2323.66 0.996264 -5.77469 0
M  V30 13285 N 2323.71 0.0501916 -4.62973 0
M  V30 13286 H 2320.87 -0.374722 -8.67691 0
M  V30 13287 H 2320.6 -0.443485 -6.90277 0
M  V30 13288 H 2321.46 1.75537 -7.96793 0
M  V30 13289 P 2325.43 2.75334 -8.47391 0
M  V30 13290 O 2325.65 3.84128 -9.44797 0
M  V30 13291 O 2326.22 1.51947 -8.68712 0
M  V30 13292 O 2325.68 3.29363 -6.99321 0
M  V30 13293 C 2324.74 4.24011 -6.4274 0
M  V30 13294 C 2325.47 5.20775 -5.52155 0
M  V30 13295 O 2325.68 4.56534 -4.22446 0
M  V30 13296 C 2326.87 5.62629 -5.96531 0
M  V30 13297 O 2327.26 6.87667 -5.41053 0
M  V30 13298 C 2327.75 4.52537 -5.39283 0
M  V30 13299 C 2327.04 4.20027 -4.08623 0
M  V30 13300 N 2327.09 2.76189 -3.71603 0
M  V30 13301 C 2327.01 1.64862 -4.52822 0
M  V30 13302 N 2327.09 0.512671 -3.88633 0
M  V30 13303 C 2327.23 0.888083 -2.54977 0
M  V30 13304 C 2327.36 0.094668 -1.38677 0
M  V30 13305 N 2327.48 0.890102 -0.232633 0
M  V30 13306 C 2327.48 2.26958 -0.21772 0
M  V30 13307 N 2327.61 2.84626 0.97925 0
M  V30 13308 N 2327.35 3.0178 -1.31033 0
M  V30 13309 C 2327.23 2.26781 -2.43843 0
M  V30 13310 H 2324.25 4.797 -7.24003 0
M  V30 13311 H 2323.98 3.69856 -5.84513 0
M  V30 13312 H 2324.84 6.10356 -5.41441 0
M  V30 13313 P 2328.81 7.20834 -5.23717 0
M  V30 13314 O 2329.03 8.66104 -5.38572 0
M  V30 13315 O 2329.6 6.33544 -6.1349 0
M  V30 13316 O 2329.06 6.7751 -3.72168 0
M  V30 13317 C 2328.12 7.20825 -2.7076 0
M  V30 13318 C 2328.85 7.45864 -1.40599 0
M  V30 13319 O 2329.06 6.17651 -0.734225 0
M  V30 13320 C 2330.25 8.05808 -1.51899 0
M  V30 13321 O 2330.64 8.74358 -0.335205 0
M  V30 13322 C 2331.13 6.83093 -1.70294 0
M  V30 13323 C 2330.42 5.79992 -0.836974 0
M  V30 13324 N 2330.47 4.41864 -1.38293 0
M  V30 13325 C 2330.39 3.99538 -2.69438 0
M  V30 13326 N 2330.47 2.69909 -2.84277 0
M  V30 13327 C 2330.61 2.21719 -1.5408 0
M  V30 13328 C 2330.74 0.891712 -1.06628 0
M  V30 13329 N 2330.86 0.856846 0.334985 0
M  V30 13330 C 2330.86 1.9641 1.15789 0
M  V30 13331 N 2330.99 1.72708 2.46522 0
M  V30 13332 N 2330.73 3.21165 0.713741 0
M  V30 13333 C 2330.61 3.26797 -0.639748 0
M  V30 13334 H 2327.63 8.13644 -3.0377 0
M  V30 13335 H 2327.36 6.42788 -2.55485 0
M  V30 13336 H 2328.22 8.12039 -0.792769 0
M  V30 13337 P 2332.19 8.91 -5.17477e-11 0
M  V30 13338 O 2332.41 10.1736 0.733766 0
M  V30 13339 O 2332.98 8.73247 -1.2395 0
M  V30 13340 O 2332.44 7.66872 0.971405 0
M  V30 13341 C 2331.5 7.42309 2.04641 0
M  V30 13342 C 2332.23 6.86059 3.24661 0
M  V30 13343 O 2332.44 5.42847 3.03646 0
M  V30 13344 C 2333.63 7.41196 3.50753 0
M  V30 13345 O 2334.02 7.27073 4.86816 0
M  V30 13346 C 2334.51 6.5273 2.63741 0
M  V30 13347 C 2333.8 5.1842 2.73198 0
M  V30 13348 N 2333.85 4.38668 1.47808 0
M  V30 13349 C 2334 3.00789 1.58511 0
M  V30 13350 O 2334.09 2.50116 2.71298 0
M  V30 13351 N 2334.05 2.29703 0.253698 0
M  V30 13352 C 2333.95 2.84269 -0.750133 0
M  V30 13353 N 2334 2.06951 -1.82612 0
M  V30 13354 C 2333.8 4.25803 -0.889776 0
M  V30 13355 C 2333.75 4.98326 0.259363 0
M  V30 13356 H 2331.01 8.36707 2.32466 0
M  V30 13357 H 2330.74 6.701 1.71105 0
M  V30 13358 H 2331.6 7.03638 4.13219 0
M  V30 13359 H 2334.26 4.59852 3.53955 0
M  V30 13360 H 2334.54 6.88995 1.59871 0
M  V30 13361 H 2335.53 6.46749 3.03687 0
M  V30 13362 H 2333.7 8.46908 3.20714 0
M  V30 13363 H 2333.62 6.06349 0.206238 0
M  V30 13364 H 2333.73 4.73163 -1.86796 0
M  V30 13365 H 2334.11 1.05099 -1.72271 0
M  V30 13366 H 2333.92 2.48716 -2.76361 0
M  V30 13367 P 2335.57 7.20834 5.23717 0
M  V30 13368 O 2335.79 7.79853 6.57286 0
M  V30 13369 O 2336.36 7.79239 4.12957 0
M  V30 13370 O 2335.82 5.63315 5.29344 0
M  V30 13371 C 2334.88 4.80255 6.01876 0
M  V30 13372 C 2335.61 3.64202 6.65911 0
M  V30 13373 O 2335.82 2.60694 5.64732 0
M  V30 13374 C 2337.01 3.93473 7.1943 0
M  V30 13375 O 2337.4 3.02071 8.21205 0
M  V30 13376 C 2337.89 3.73047 5.97036 0
M  V30 13377 C 2337.18 2.58828 5.25741 0
M  V30 13378 N 2337.23 2.68068 3.77503 0
M  V30 13379 H 2334.39 5.40332 6.79951 0
M  V30 13380 H 2334.12 4.41613 5.32378 0
M  V30 13381 H 2334.98 3.26331 7.47797 0
M  V30 13382 P 2338.95 2.75334 8.47391 0
M  V30 13383 O 2339.17 2.44571 9.90142 0
M  V30 13384 O 2339.74 3.87688 7.92115 0
M  V30 13385 O 2339.2 1.4459 7.59357 0
M  V30 13386 C 2338.26 0.347608 7.69215 0
M  V30 13387 C 2338.99 -0.96767 7.52806 0
M  V30 13388 O 2339.2 -1.21036 6.1011 0
M  V30 13389 C 2340.39 -1.04544 8.13308 0
M  V30 13390 O 2340.78 -2.38311 8.41922 0
M  V30 13391 C 2341.27 -0.491279 7.02284 0
M  V30 13392 C 2340.56 -0.996264 5.77469 0
M  V30 13393 N 2340.61 -0.0501916 4.62973 0
M  V30 13394 H 2337.77 0.374722 8.67691 0
M  V30 13395 H 2337.5 0.443485 6.90277 0
M  V30 13396 H 2338.36 -1.75537 7.96793 0
M  V30 13397 P 2342.33 -2.75334 8.47391 0
M  V30 13398 O 2342.55 -3.84204 9.44982 0
M  V30 13399 O 2343.12 -1.51982 8.68909 0
M  V30 13400 O 2342.58 -3.29363 6.99321 0
M  V30 13401 C 2341.64 -4.24066 6.42823 0
M  V30 13402 C 2342.37 -5.20775 5.52155 0
M  V30 13403 O 2342.58 -4.56607 4.22514 0
M  V30 13404 C 2343.77 -5.62697 5.96604 0
M  V30 13405 O 2344.16 -6.87667 5.41053 0
M  V30 13406 C 2344.65 -4.52537 5.39283 0
M  V30 13407 C 2343.94 -4.20027 4.08623 0
M  V30 13408 N 2343.99 -2.76189 3.71603 0
M  V30 13409 H 2341.15 -4.79756 7.24086 0
M  V30 13410 H 2340.88 -3.69963 5.84682 0
M  V30 13411 H 2341.74 -6.10431 5.41508 0
M  V30 13412 H 2344.4 -4.78816 3.28024 0
M  V30 13413 H 2344.68 -3.64957 6.05871 0
M  V30 13414 H 2345.67 -4.88748 5.21323 0
M  V30 13415 H 2343.84 -5.66789 7.0643 0
M  V30 13416 P 2345.71 -7.20834 5.23717 0
M  V30 13417 O 2345.93 -8.66274 5.38678 0
M  V30 13418 O 2346.5 -6.33687 6.13629 0
M  V30 13419 O 2345.96 -6.7751 3.72168 0
M  V30 13420 C 2345.02 -7.20919 2.70795 0
M  V30 13421 C 2345.75 -7.45864 1.40599 0
M  V30 13422 O 2345.96 -6.17751 0.734343 0
M  V30 13423 C 2347.15 -8.05906 1.51917 0
M  V30 13424 O 2347.54 -8.74358 0.335205 0
M  V30 13425 C 2348.03 -6.83093 1.70294 0
M  V30 13426 C 2347.32 -5.79992 0.836974 0
M  V30 13427 N 2347.37 -4.41864 1.38293 0
M  V30 13428 C 2347.29 -4.02089 2.69407 0
M  V30 13429 N 2347.36 -2.73403 2.85089 0
M  V30 13430 C 2347.51 -2.25086 1.5642 0
M  V30 13431 C 2347.64 -0.942887 1.04836 0
M  V30 13432 N 2347.65 0.150999 1.80369 0
M  V30 13433 N 2347.76 -0.812565 -0.28167 0
M  V30 13434 C 2347.75 -1.90572 -1.03784 0
M  V30 13435 N 2347.63 -3.167 -0.683905 0
M  V30 13436 C 2347.51 -3.26538 0.652815 0
M  V30 13437 H 2344.53 -8.13738 3.03804 0
M  V30 13438 H 2344.26 -6.42974 2.55559 0
M  V30 13439 H 2345.12 -8.12139 0.792866 0
M  V30 13440 H 2347.78 -5.80178 -0.160643 0
M  V30 13441 H 2348.06 -6.51379 2.75643 0
M  V30 13442 H 2349.05 -7.01832 1.3448 0
M  V30 13443 H 2347.22 -8.73771 2.38364 0
M  V30 13444 H 2347.18 -4.7189 3.52311 0
M  V30 13445 H 2347.56 0.0721434 2.82608 0
M  V30 13446 H 2347.75 1.0785 1.36544 0
M  V30 13447 H 2347.85 -1.73207 -2.10241 0
M  V30 13448 P 2349.09 -8.91 5.28567e-11 0
M  V30 13449 O 2349.31 -10.1746 -0.733838 0
M  V30 13450 O 2349.88 -8.73346 1.23964 0
M  V30 13451 O 2349.34 -7.66872 -0.971405 0
M  V30 13452 C 2348.4 -7.42405 -2.04668 0
M  V30 13453 C 2349.13 -6.86059 -3.24661 0
M  V30 13454 O 2349.34 -5.42934 -3.03695 0
M  V30 13455 C 2350.53 -7.41287 -3.50796 0
M  V30 13456 O 2350.92 -7.27073 -4.86816 0
M  V30 13457 C 2351.41 -6.5273 -2.63741 0
M  V30 13458 C 2350.7 -5.1842 -2.73198 0
M  V30 13459 N 2350.75 -4.38762 -1.4784 0
M  V30 13460 H 2347.91 -8.36899 -2.3252 0
M  V30 13461 H 2347.64 -6.70391 -1.71179 0
M  V30 13462 H 2348.5 -7.03638 -4.13219 0
M  V30 13463 H 2351.16 -4.59931 -3.54016 0
M  V30 13464 H 2351.44 -6.88995 -1.59871 0
M  V30 13465 H 2352.43 -6.4684 -3.0373 0
M  V30 13466 H 2350.6 -8.47002 -3.20749 0
M  V30 13467 P 2352.47 -7.20834 -5.23717 0
M  V30 13468 O 2352.69 -7.79853 -6.57286 0
M  V30 13469 O 2353.26 -7.79239 -4.12957 0
M  V30 13470 O 2352.72 -5.63315 -5.29344 0
M  V30 13471 C 2351.78 -4.80255 -6.01876 0
M  V30 13472 C 2352.51 -3.64202 -6.65911 0
M  V30 13473 O 2352.72 -2.60694 -5.64732 0
M  V30 13474 C 2353.91 -3.93473 -7.1943 0
M  V30 13475 O 2354.3 -3.02071 -8.21205 0
M  V30 13476 C 2354.79 -3.73047 -5.97036 0
M  V30 13477 C 2354.08 -2.58828 -5.25741 0
M  V30 13478 N 2354.13 -2.68068 -3.77503 0
M  V30 13479 H 2351.29 -5.40332 -6.79951 0
M  V30 13480 H 2351.02 -4.41613 -5.32378 0
M  V30 13481 H 2351.88 -3.26331 -7.47797 0
M  V30 13482 P 2355.85 -2.75334 -8.47391 0
M  V30 13483 O 2356.07 -2.44571 -9.90142 0
M  V30 13484 O 2356.64 -3.87688 -7.92115 0
M  V30 13485 O 2356.1 -1.4459 -7.59357 0
M  V30 13486 C 2355.16 -0.347608 -7.69215 0
M  V30 13487 C 2355.89 0.96767 -7.52806 0
M  V30 13488 O 2356.1 1.21036 -6.1011 0
M  V30 13489 C 2357.29 1.04544 -8.13308 0
M  V30 13490 O 2357.68 2.38311 -8.41922 0
M  V30 13491 C 2358.17 0.491279 -7.02284 0
M  V30 13492 C 2357.46 0.996264 -5.77469 0
M  V30 13493 N 2357.51 0.0501916 -4.62973 0
M  V30 13494 H 2354.67 -0.374722 -8.67691 0
M  V30 13495 H 2354.4 -0.443485 -6.90277 0
M  V30 13496 H 2355.26 1.75537 -7.96793 0
M  V30 13497 P 2359.23 2.75334 -8.47391 0
M  V30 13498 O 2359.45 3.84204 -9.44982 0
M  V30 13499 O 2360.02 1.51982 -8.68909 0
M  V30 13500 O 2359.48 3.29363 -6.99321 0
M  V30 13501 C 2358.54 4.24066 -6.42823 0
M  V30 13502 C 2359.27 5.20775 -5.52155 0
M  V30 13503 O 2359.48 4.56607 -4.22514 0
M  V30 13504 C 2360.67 5.62697 -5.96604 0
M  V30 13505 O 2361.06 6.87667 -5.41053 0
M  V30 13506 C 2361.55 4.52537 -5.39283 0
M  V30 13507 C 2360.84 4.20027 -4.08623 0
M  V30 13508 N 2360.89 2.76189 -3.71603 0
M  V30 13509 C 2360.81 1.66944 -4.54297 0
M  V30 13510 N 2360.88 0.536169 -3.91344 0
M  V30 13511 C 2361.03 0.901569 -2.58849 0
M  V30 13512 C 2361.16 0.146599 -1.40236 0
M  V30 13513 N 2361.17 -1.18234 -1.37046 0
M  V30 13514 N 2361.28 0.822941 -0.249738 0
M  V30 13515 C 2361.27 2.15179 -0.280525 0
M  V30 13516 N 2361.15 2.96414 -1.30822 0
M  V30 13517 C 2361.03 2.25804 -2.44748 0
M  V30 13518 H 2358.05 4.79756 -7.24086 0
M  V30 13519 H 2357.78 3.69963 -5.84682 0
M  V30 13520 H 2358.64 6.10431 -5.41508 0
M  V30 13521 H 2361.3 4.78816 -3.28024 0
M  V30 13522 H 2361.58 3.64957 -6.05871 0
M  V30 13523 H 2362.57 4.88748 -5.21323 0
M  V30 13524 H 2360.74 5.66789 -7.0643 0
M  V30 13525 H 2360.7 1.74684 -5.62396 0
M  V30 13526 H 2361.08 -1.71949 -2.24394 0
M  V30 13527 H 2361.27 -1.67511 -0.470742 0
M  V30 13528 H 2361.37 2.63704 0.6828 0
M  V30 13529 P 2362.61 7.20834 -5.23717 0
M  V30 13530 O 2362.83 8.66104 -5.38572 0
M  V30 13531 O 2363.4 6.33544 -6.1349 0
M  V30 13532 O 2362.86 6.7751 -3.72168 0
M  V30 13533 C 2361.92 7.20825 -2.7076 0
M  V30 13534 C 2362.65 7.45864 -1.40599 0
M  V30 13535 O 2362.86 6.17651 -0.734225 0
M  V30 13536 C 2364.05 8.05808 -1.51899 0
M  V30 13537 O 2364.44 8.74358 -0.335205 0
M  V30 13538 C 2364.93 6.83093 -1.70294 0
M  V30 13539 C 2364.22 5.79992 -0.836974 0
M  V30 13540 N 2364.27 4.41864 -1.38293 0
M  V30 13541 H 2361.43 8.13644 -3.0377 0
M  V30 13542 H 2361.16 6.42788 -2.55485 0
M  V30 13543 H 2362.02 8.12039 -0.792769 0
M  V30 13544 P 2365.99 8.91 -5.39657e-11 0
M  V30 13545 O 2366.21 10.1726 0.733694 0
M  V30 13546 O 2366.78 8.73148 -1.23936 0
M  V30 13547 O 2366.24 7.66872 0.971405 0
M  V30 13548 C 2365.3 7.42309 2.04641 0
M  V30 13549 C 2366.03 6.86059 3.24661 0
M  V30 13550 O 2366.24 5.42847 3.03646 0
M  V30 13551 C 2367.43 7.41196 3.50753 0
M  V30 13552 O 2367.82 7.27073 4.86816 0
M  V30 13553 C 2368.31 6.5273 2.63741 0
M  V30 13554 C 2367.6 5.1842 2.73198 0
M  V30 13555 N 2367.65 4.38762 1.4784 0
M  V30 13556 H 2364.81 8.36803 2.32493 0
M  V30 13557 H 2364.54 6.70197 1.71129 0
M  V30 13558 H 2365.4 7.03551 4.13168 0
M  V30 13559 P 2369.37 7.20834 5.23717 0
M  V30 13560 O 2369.59 7.79853 6.57286 0
M  V30 13561 O 2370.16 7.79239 4.12957 0
M  V30 13562 O 2369.62 5.63315 5.29344 0
M  V30 13563 C 2368.68 4.80255 6.01876 0
M  V30 13564 C 2369.41 3.64202 6.65911 0
M  V30 13565 O 2369.62 2.60694 5.64732 0
M  V30 13566 C 2370.81 3.93473 7.1943 0
M  V30 13567 O 2371.2 3.02071 8.21205 0
M  V30 13568 C 2371.69 3.73047 5.97036 0
M  V30 13569 C 2370.98 2.58828 5.25741 0
M  V30 13570 N 2371.03 2.68068 3.77503 0
M  V30 13571 H 2368.19 5.40332 6.79951 0
M  V30 13572 H 2367.92 4.41613 5.32378 0
M  V30 13573 H 2368.78 3.26331 7.47797 0
M  V30 13574 P 2372.75 2.75334 8.47391 0
M  V30 13575 O 2372.97 2.44571 9.90142 0
M  V30 13576 O 2373.54 3.87688 7.92115 0
M  V30 13577 O 2373 1.4459 7.59357 0
M  V30 13578 C 2372.06 0.347608 7.69215 0
M  V30 13579 C 2372.79 -0.96767 7.52806 0
M  V30 13580 O 2373 -1.21036 6.1011 0
M  V30 13581 C 2374.19 -1.04544 8.13308 0
M  V30 13582 O 2374.58 -2.38311 8.41922 0
M  V30 13583 C 2375.07 -0.491279 7.02284 0
M  V30 13584 C 2374.36 -0.996264 5.77469 0
M  V30 13585 N 2374.41 -0.0501916 4.62973 0
M  V30 13586 H 2371.57 0.374722 8.67691 0
M  V30 13587 H 2371.3 0.443485 6.90277 0
M  V30 13588 H 2372.16 -1.75537 7.96793 0
M  V30 13589 P 2376.13 -2.75334 8.47391 0
M  V30 13590 O 2376.35 -3.84128 9.44797 0
M  V30 13591 O 2376.92 -1.51947 8.68712 0
M  V30 13592 O 2376.38 -3.29363 6.99321 0
M  V30 13593 C 2375.44 -4.24011 6.4274 0
M  V30 13594 C 2376.17 -5.20775 5.52155 0
M  V30 13595 O 2376.38 -4.56534 4.22446 0
M  V30 13596 C 2377.57 -5.62629 5.96531 0
M  V30 13597 O 2377.96 -6.87667 5.41053 0
M  V30 13598 C 2378.45 -4.52537 5.39283 0
M  V30 13599 C 2377.74 -4.20027 4.08623 0
M  V30 13600 N 2377.79 -2.76189 3.71603 0
M  V30 13601 H 2374.95 -4.797 7.24003 0
M  V30 13602 H 2374.68 -3.69856 5.84513 0
M  V30 13603 H 2375.54 -6.10356 5.41441 0
M  V30 13604 P 2379.51 -7.20834 5.23717 0
M  V30 13605 O 2379.73 -8.66104 5.38572 0
M  V30 13606 O 2380.3 -6.33544 6.1349 0
M  V30 13607 O 2379.76 -6.7751 3.72168 0
M  V30 13608 C 2378.82 -7.20825 2.7076 0
M  V30 13609 C 2379.55 -7.45864 1.40599 0
M  V30 13610 O 2379.76 -6.17651 0.734225 0
M  V30 13611 C 2380.95 -8.05808 1.51899 0
M  V30 13612 O 2381.34 -8.74358 0.335205 0
M  V30 13613 C 2381.83 -6.83093 1.70294 0
M  V30 13614 C 2381.12 -5.79992 0.836974 0
M  V30 13615 N 2381.17 -4.41864 1.38293 0
M  V30 13616 H 2378.33 -8.13644 3.0377 0
M  V30 13617 H 2378.06 -6.42788 2.55485 0
M  V30 13618 H 2378.92 -8.12039 0.792769 0
M  V30 13619 P 2382.89 -8.91 5.50747e-11 0
M  V30 13620 O 2383.11 -10.1726 -0.733694 0
M  V30 13621 O 2383.68 -8.73148 1.23936 0
M  V30 13622 O 2383.14 -7.66872 -0.971405 0
M  V30 13623 C 2382.2 -7.42309 -2.04641 0
M  V30 13624 C 2382.93 -6.86059 -3.24661 0
M  V30 13625 O 2383.14 -5.42847 -3.03646 0
M  V30 13626 C 2384.33 -7.41196 -3.50753 0
M  V30 13627 O 2384.72 -7.27073 -4.86816 0
M  V30 13628 C 2385.21 -6.5273 -2.63741 0
M  V30 13629 C 2384.5 -5.1842 -2.73198 0
M  V30 13630 N 2384.55 -4.38762 -1.4784 0
M  V30 13631 H 2381.71 -8.36803 -2.32493 0
M  V30 13632 H 2381.44 -6.70197 -1.71129 0
M  V30 13633 H 2382.3 -7.03551 -4.13168 0
M  V30 13634 P 2386.27 -7.20834 -5.23717 0
M  V30 13635 O 2386.49 -7.79853 -6.57286 0
M  V30 13636 O 2387.06 -7.79239 -4.12957 0
M  V30 13637 O 2386.52 -5.63315 -5.29344 0
M  V30 13638 C 2385.58 -4.80255 -6.01876 0
M  V30 13639 C 2386.31 -3.64202 -6.65911 0
M  V30 13640 O 2386.52 -2.60694 -5.64732 0
M  V30 13641 C 2387.71 -3.93473 -7.1943 0
M  V30 13642 O 2388.1 -3.02071 -8.21205 0
M  V30 13643 C 2388.59 -3.73047 -5.97036 0
M  V30 13644 C 2387.88 -2.58828 -5.25741 0
M  V30 13645 N 2387.93 -2.68068 -3.77503 0
M  V30 13646 H 2385.09 -5.40332 -6.79951 0
M  V30 13647 H 2384.82 -4.41613 -5.32378 0
M  V30 13648 H 2385.68 -3.26331 -7.47797 0
M  V30 13649 P 2389.65 -2.75334 -8.47391 0
M  V30 13650 O 2389.87 -2.44571 -9.90142 0
M  V30 13651 O 2390.44 -3.87688 -7.92115 0
M  V30 13652 O 2389.9 -1.4459 -7.59357 0
M  V30 13653 C 2388.96 -0.347608 -7.69215 0
M  V30 13654 C 2389.69 0.96767 -7.52806 0
M  V30 13655 O 2389.9 1.21036 -6.1011 0
M  V30 13656 C 2391.09 1.04544 -8.13308 0
M  V30 13657 O 2391.48 2.38311 -8.41922 0
M  V30 13658 C 2391.97 0.491279 -7.02284 0
M  V30 13659 C 2391.26 0.996264 -5.77469 0
M  V30 13660 N 2391.31 0.0501916 -4.62973 0
M  V30 13661 H 2388.47 -0.374722 -8.67691 0
M  V30 13662 H 2388.2 -0.443485 -6.90277 0
M  V30 13663 H 2389.06 1.75537 -7.96793 0
M  V30 13664 P 2393.03 2.75334 -8.47391 0
M  V30 13665 O 2393.25 3.84128 -9.44797 0
M  V30 13666 O 2393.82 1.51947 -8.68712 0
M  V30 13667 O 2393.28 3.29363 -6.99321 0
M  V30 13668 C 2392.34 4.24011 -6.4274 0
M  V30 13669 C 2393.07 5.20775 -5.52155 0
M  V30 13670 O 2393.28 4.56534 -4.22446 0
M  V30 13671 C 2394.47 5.62629 -5.96531 0
M  V30 13672 O 2394.86 6.87667 -5.41053 0
M  V30 13673 C 2395.35 4.52537 -5.39283 0
M  V30 13674 C 2394.64 4.20027 -4.08623 0
M  V30 13675 N 2394.69 2.76189 -3.71603 0
M  V30 13676 H 2391.85 4.797 -7.24003 0
M  V30 13677 H 2391.58 3.69856 -5.84513 0
M  V30 13678 H 2392.44 6.10356 -5.41441 0
M  V30 13679 P 2396.41 7.20834 -5.23717 0
M  V30 13680 O 2396.63 8.66104 -5.38572 0
M  V30 13681 O 2397.2 6.33544 -6.1349 0
M  V30 13682 O 2396.66 6.7751 -3.72168 0
M  V30 13683 C 2395.72 7.20825 -2.7076 0
M  V30 13684 C 2396.45 7.45864 -1.40599 0
M  V30 13685 O 2396.66 6.17651 -0.734225 0
M  V30 13686 C 2397.85 8.05808 -1.51899 0
M  V30 13687 O 2398.24 8.74358 -0.335205 0
M  V30 13688 C 2398.73 6.83093 -1.70294 0
M  V30 13689 C 2398.02 5.79992 -0.836974 0
M  V30 13690 N 2398.07 4.41864 -1.38293 0
M  V30 13691 H 2395.23 8.13644 -3.0377 0
M  V30 13692 H 2394.96 6.42788 -2.55485 0
M  V30 13693 H 2395.82 8.12039 -0.792769 0
M  V30 13694 P 2399.79 8.91 -5.61837e-11 0
M  V30 13695 O 2400.01 10.1726 0.733694 0
M  V30 13696 O 2400.58 8.73148 -1.23936 0
M  V30 13697 O 2400.04 7.66872 0.971405 0
M  V30 13698 C 2399.1 7.42309 2.04641 0
M  V30 13699 C 2399.83 6.86059 3.24661 0
M  V30 13700 O 2400.04 5.42847 3.03646 0
M  V30 13701 C 2401.23 7.41196 3.50753 0
M  V30 13702 O 2401.62 7.27073 4.86816 0
M  V30 13703 C 2402.11 6.5273 2.63741 0
M  V30 13704 C 2401.4 5.1842 2.73198 0
M  V30 13705 N 2401.45 4.38762 1.4784 0
M  V30 13706 H 2398.61 8.36803 2.32493 0
M  V30 13707 H 2398.34 6.70197 1.71129 0
M  V30 13708 H 2399.2 7.03551 4.13168 0
M  V30 13709 P 2403.17 7.20834 5.23717 0
M  V30 13710 O 2403.39 7.80006 6.57415 0
M  V30 13711 O 2403.96 7.79416 4.13051 0
M  V30 13712 O 2403.42 5.63315 5.29344 0
M  V30 13713 C 2402.48 4.80318 6.01954 0
M  V30 13714 C 2403.21 3.64202 6.65911 0
M  V30 13715 O 2403.42 2.60736 5.64823 0
M  V30 13716 C 2404.61 3.93521 7.19518 0
M  V30 13717 O 2405 3.02071 8.21205 0
M  V30 13718 C 2405.49 3.73047 5.97036 0
M  V30 13719 C 2404.78 2.58828 5.25741 0
M  V30 13720 N 2404.83 2.68068 3.77503 0
M  V30 13721 H 2401.99 5.40394 6.8003 0
M  V30 13722 H 2401.72 4.41741 5.32532 0
M  V30 13723 H 2402.58 3.26371 7.47889 0
M  V30 13724 H 2405.24 1.64007 5.56746 0
M  V30 13725 H 2405.52 4.63439 5.3432 0
M  V30 13726 H 2406.51 3.44776 6.25925 0
M  V30 13727 H 2404.68 4.96707 7.57347 0
M  V30 13728 P 2406.55 2.75334 8.47391 0
M  V30 13729 O 2406.77 2.44571 9.90142 0
M  V30 13730 O 2407.34 3.87688 7.92115 0
M  V30 13731 O 2406.8 1.4459 7.59357 0
M  V30 13732 C 2405.86 0.347608 7.69215 0
M  V30 13733 C 2406.59 -0.96767 7.52806 0
M  V30 13734 O 2406.8 -1.21036 6.1011 0
M  V30 13735 C 2407.99 -1.04544 8.13308 0
M  V30 13736 O 2408.38 -2.38311 8.41922 0
M  V30 13737 C 2408.87 -0.491279 7.02284 0
M  V30 13738 C 2408.16 -0.996264 5.77469 0
M  V30 13739 N 2408.21 -0.0501916 4.62973 0
M  V30 13740 H 2405.37 0.374722 8.67691 0
M  V30 13741 H 2405.1 0.443485 6.90277 0
M  V30 13742 H 2405.96 -1.75537 7.96793 0
M  V30 13743 P 2409.93 -2.75334 8.47391 0
M  V30 13744 O 2410.15 -3.84128 9.44797 0
M  V30 13745 O 2410.72 -1.51947 8.68712 0
M  V30 13746 O 2410.18 -3.29363 6.99321 0
M  V30 13747 C 2409.24 -4.24011 6.4274 0
M  V30 13748 C 2409.97 -5.20775 5.52155 0
M  V30 13749 O 2410.18 -4.56534 4.22446 0
M  V30 13750 C 2411.37 -5.62629 5.96531 0
M  V30 13751 O 2411.76 -6.87667 5.41053 0
M  V30 13752 C 2412.25 -4.52537 5.39283 0
M  V30 13753 C 2411.54 -4.20027 4.08623 0
M  V30 13754 N 2411.59 -2.76189 3.71603 0
M  V30 13755 H 2408.75 -4.797 7.24003 0
M  V30 13756 H 2408.48 -3.69856 5.84513 0
M  V30 13757 H 2409.34 -6.10356 5.41441 0
M  V30 13758 P 2413.31 -7.20834 5.23717 0
M  V30 13759 O 2413.53 -8.66104 5.38572 0
M  V30 13760 O 2414.1 -6.33544 6.1349 0
M  V30 13761 O 2413.56 -6.7751 3.72168 0
M  V30 13762 C 2412.62 -7.20825 2.7076 0
M  V30 13763 C 2413.35 -7.45864 1.40599 0
M  V30 13764 O 2413.56 -6.17651 0.734225 0
M  V30 13765 C 2414.75 -8.05808 1.51899 0
M  V30 13766 O 2415.14 -8.74358 0.335205 0
M  V30 13767 C 2415.63 -6.83093 1.70294 0
M  V30 13768 C 2414.92 -5.79992 0.836974 0
M  V30 13769 N 2414.97 -4.41864 1.38293 0
M  V30 13770 H 2412.13 -8.13644 3.0377 0
M  V30 13771 H 2411.86 -6.42788 2.55485 0
M  V30 13772 H 2412.72 -8.12039 0.792769 0
M  V30 13773 P 2416.69 -8.91 5.72927e-11 0
M  V30 13774 O 2416.91 -10.1726 -0.733694 0
M  V30 13775 O 2417.48 -8.73148 1.23936 0
M  V30 13776 O 2416.94 -7.66872 -0.971405 0
M  V30 13777 C 2416 -7.42309 -2.04641 0
M  V30 13778 C 2416.73 -6.86059 -3.24661 0
M  V30 13779 O 2416.94 -5.42847 -3.03646 0
M  V30 13780 C 2418.13 -7.41196 -3.50753 0
M  V30 13781 O 2418.52 -7.27073 -4.86816 0
M  V30 13782 C 2419.01 -6.5273 -2.63741 0
M  V30 13783 C 2418.3 -5.1842 -2.73198 0
M  V30 13784 N 2418.35 -4.38762 -1.4784 0
M  V30 13785 H 2415.51 -8.36803 -2.32493 0
M  V30 13786 H 2415.24 -6.70197 -1.71129 0
M  V30 13787 H 2416.1 -7.03551 -4.13168 0
M  V30 13788 P 2420.07 -7.20834 -5.23717 0
M  V30 13789 O 2420.29 -7.79853 -6.57286 0
M  V30 13790 O 2420.86 -7.79239 -4.12957 0
M  V30 13791 O 2420.32 -5.63315 -5.29344 0
M  V30 13792 C 2419.38 -4.80255 -6.01876 0
M  V30 13793 C 2420.11 -3.64202 -6.65911 0
M  V30 13794 O 2420.32 -2.60694 -5.64732 0
M  V30 13795 C 2421.51 -3.93473 -7.1943 0
M  V30 13796 O 2421.9 -3.02071 -8.21205 0
M  V30 13797 C 2422.39 -3.73047 -5.97036 0
M  V30 13798 C 2421.68 -2.58828 -5.25741 0
M  V30 13799 N 2421.73 -2.68068 -3.77503 0
M  V30 13800 H 2418.89 -5.40332 -6.79951 0
M  V30 13801 H 2418.62 -4.41613 -5.32378 0
M  V30 13802 H 2419.48 -3.26331 -7.47797 0
M  V30 13803 P 2423.45 -2.75334 -8.47391 0
M  V30 13804 O 2423.67 -2.44619 -9.90336 0
M  V30 13805 O 2424.24 -3.87776 -7.92294 0
M  V30 13806 O 2423.7 -1.4459 -7.59357 0
M  V30 13807 C 2422.76 -0.347653 -7.69315 0
M  V30 13808 C 2423.49 0.96767 -7.52806 0
M  V30 13809 O 2423.7 1.21055 -6.10208 0
M  V30 13810 C 2424.89 1.04557 -8.13408 0
M  V30 13811 O 2425.28 2.38311 -8.41922 0
M  V30 13812 C 2425.77 0.491279 -7.02284 0
M  V30 13813 C 2425.06 0.996264 -5.77469 0
M  V30 13814 N 2425.11 0.0501916 -4.62973 0
M  V30 13815 H 2422.27 -0.374765 -8.67791 0
M  V30 13816 H 2422 -0.443613 -6.90476 0
M  V30 13817 H 2422.86 1.75559 -7.96891 0
M  V30 13818 H 2425.52 1.94563 -5.46818 0
M  V30 13819 H 2425.8 -0.608651 -7.04676 0
M  V30 13820 H 2426.79 0.889796 -7.09039 0
M  V30 13821 H 2424.96 0.433128 -9.04664 0
M  V30 13822 P 2426.83 2.75334 -8.47391 0
M  V30 13823 O 2427.05 3.84204 -9.44982 0
M  V30 13824 O 2427.62 1.51982 -8.68909 0
M  V30 13825 O 2427.08 3.29363 -6.99321 0
M  V30 13826 C 2426.14 4.24066 -6.42823 0
M  V30 13827 C 2426.87 5.20775 -5.52155 0
M  V30 13828 O 2427.08 4.56607 -4.22514 0
M  V30 13829 C 2428.27 5.62697 -5.96604 0
M  V30 13830 O 2428.66 6.87667 -5.41053 0
M  V30 13831 C 2429.15 4.52537 -5.39283 0
M  V30 13832 C 2428.44 4.20027 -4.08623 0
M  V30 13833 N 2428.49 2.76189 -3.71603 0
M  V30 13834 H 2425.65 4.79756 -7.24086 0
M  V30 13835 H 2425.38 3.69963 -5.84682 0
M  V30 13836 H 2426.24 6.10431 -5.41508 0
M  V30 13837 H 2428.9 4.78816 -3.28024 0
M  V30 13838 H 2429.18 3.64957 -6.05871 0
M  V30 13839 H 2430.17 4.88748 -5.21323 0
M  V30 13840 H 2428.34 5.66789 -7.0643 0
M  V30 13841 P 2430.21 7.20834 -5.23717 0
M  V30 13842 O 2430.43 8.66104 -5.38572 0
M  V30 13843 O 2431 6.33544 -6.1349 0
M  V30 13844 O 2430.46 6.7751 -3.72168 0
M  V30 13845 C 2429.52 7.20825 -2.7076 0
M  V30 13846 C 2430.25 7.45864 -1.40599 0
M  V30 13847 O 2430.46 6.17651 -0.734225 0
M  V30 13848 C 2431.65 8.05808 -1.51899 0
M  V30 13849 O 2432.04 8.74358 -0.335205 0
M  V30 13850 C 2432.53 6.83093 -1.70294 0
M  V30 13851 C 2431.82 5.79992 -0.836974 0
M  V30 13852 N 2431.87 4.41864 -1.38293 0
M  V30 13853 H 2429.03 8.13644 -3.0377 0
M  V30 13854 H 2428.76 6.42788 -2.55485 0
M  V30 13855 H 2429.62 8.12039 -0.792769 0
M  V30 13856 P 2433.59 8.91 -5.84017e-11 0
M  V30 13857 O 2433.81 10.1726 0.733694 0
M  V30 13858 O 2434.38 8.73148 -1.23936 0
M  V30 13859 O 2433.84 7.66872 0.971405 0
M  V30 13860 C 2432.9 7.42309 2.04641 0
M  V30 13861 C 2433.63 6.86059 3.24661 0
M  V30 13862 O 2433.84 5.42847 3.03646 0
M  V30 13863 C 2435.03 7.41196 3.50753 0
M  V30 13864 O 2435.42 7.27073 4.86816 0
M  V30 13865 C 2435.91 6.5273 2.63741 0
M  V30 13866 C 2435.2 5.1842 2.73198 0
M  V30 13867 N 2435.25 4.38762 1.4784 0
M  V30 13868 C 2435.17 4.81605 0.168631 0
M  V30 13869 N 2435.25 3.85454 -0.713363 0
M  V30 13870 C 2435.39 2.6994 0.0566958 0
M  V30 13871 C 2435.52 1.34815 -0.338502 0
M  V30 13872 O 2435.54 0.869548 -1.47125 0
M  V30 13873 N 2435.64 0.496304 0.77465 0
M  V30 13874 C 2435.64 0.908403 2.09122 0
M  V30 13875 N 2435.77 -0.0517805 3.00955 0
M  V30 13876 N 2435.51 2.17875 2.46519 0
M  V30 13877 C 2435.39 3.01988 1.4033 0
M  V30 13878 H 2432.41 8.36803 2.32493 0
M  V30 13879 H 2432.14 6.70197 1.71129 0
M  V30 13880 H 2433 7.03551 4.13168 0
M  V30 13881 H 2435.66 4.59498 3.54415 0
M  V30 13882 H 2435.94 6.88898 1.59848 0
M  V30 13883 H 2436.93 6.46749 3.03687 0
M  V30 13884 H 2435.1 8.46908 3.20714 0
M  V30 13885 H 2435.05 5.86405 -0.105564 0
M  V30 13886 H 2435.73 -0.483664 0.597855 0
M  V30 13887 H 2435.77 0.187865 4.0116 0
M  V30 13888 H 2435.87 -1.03585 2.71726 0
M  V30 13889 P 2436.97 7.20834 5.23717 0
M  V30 13890 O 2437.19 7.79853 6.57286 0
M  V30 13891 O 2437.76 7.79239 4.12957 0
M  V30 13892 O 2437.22 5.63315 5.29344 0
M  V30 13893 C 2436.28 4.80255 6.01876 0
M  V30 13894 C 2437.01 3.64202 6.65911 0
M  V30 13895 O 2437.22 2.60694 5.64732 0
M  V30 13896 C 2438.41 3.93473 7.1943 0
M  V30 13897 O 2438.8 3.02071 8.21205 0
M  V30 13898 C 2439.29 3.73047 5.97036 0
M  V30 13899 C 2438.58 2.58828 5.25741 0
M  V30 13900 N 2438.63 2.68068 3.77503 0
M  V30 13901 H 2435.79 5.40332 6.79951 0
M  V30 13902 H 2435.52 4.41613 5.32378 0
M  V30 13903 H 2436.38 3.26331 7.47797 0
M  V30 13904 P 2440.35 2.75334 8.47391 0
M  V30 13905 O 2440.57 2.44571 9.90142 0
M  V30 13906 O 2441.14 3.87688 7.92115 0
M  V30 13907 O 2440.6 1.4459 7.59357 0
M  V30 13908 C 2439.66 0.347608 7.69215 0
M  V30 13909 C 2440.39 -0.96767 7.52806 0
M  V30 13910 O 2440.6 -1.21036 6.1011 0
M  V30 13911 C 2441.79 -1.04544 8.13308 0
M  V30 13912 O 2442.18 -2.38311 8.41922 0
M  V30 13913 C 2442.67 -0.491279 7.02284 0
M  V30 13914 C 2441.96 -0.996264 5.77469 0
M  V30 13915 N 2442.01 -0.0501916 4.62973 0
M  V30 13916 H 2439.17 0.374722 8.67691 0
M  V30 13917 H 2438.9 0.443485 6.90277 0
M  V30 13918 H 2439.76 -1.75537 7.96793 0
M  V30 13919 P 2443.73 -2.75334 8.47391 0
M  V30 13920 O 2443.95 -3.84128 9.44797 0
M  V30 13921 O 2444.52 -1.51947 8.68712 0
M  V30 13922 O 2443.98 -3.29363 6.99321 0
M  V30 13923 C 2443.04 -4.24011 6.4274 0
M  V30 13924 C 2443.77 -5.20775 5.52155 0
M  V30 13925 O 2443.98 -4.56534 4.22446 0
M  V30 13926 C 2445.17 -5.62629 5.96531 0
M  V30 13927 O 2445.56 -6.87667 5.41053 0
M  V30 13928 C 2446.05 -4.52537 5.39283 0
M  V30 13929 C 2445.34 -4.20027 4.08623 0
M  V30 13930 N 2445.39 -2.76189 3.71603 0
M  V30 13931 H 2442.55 -4.797 7.24003 0
M  V30 13932 H 2442.28 -3.69856 5.84513 0
M  V30 13933 H 2443.14 -6.10356 5.41441 0
M  V30 13934 P 2447.11 -7.20834 5.23717 0
M  V30 13935 O 2447.33 -8.66104 5.38572 0
M  V30 13936 O 2447.9 -6.33544 6.1349 0
M  V30 13937 O 2447.36 -6.7751 3.72168 0
M  V30 13938 C 2446.42 -7.20825 2.7076 0
M  V30 13939 C 2447.15 -7.45864 1.40599 0
M  V30 13940 O 2447.36 -6.17651 0.734225 0
M  V30 13941 C 2448.55 -8.05808 1.51899 0
M  V30 13942 O 2448.94 -8.74358 0.335205 0
M  V30 13943 C 2449.43 -6.83093 1.70294 0
M  V30 13944 C 2448.72 -5.79992 0.836974 0
M  V30 13945 N 2448.77 -4.41864 1.38293 0
M  V30 13946 H 2445.93 -8.13644 3.0377 0
M  V30 13947 H 2445.66 -6.42788 2.55485 0
M  V30 13948 H 2446.52 -8.12039 0.792769 0
M  V30 13949 P 2450.49 -8.91 5.95107e-11 0
M  V30 13950 O 2450.71 -10.1726 -0.733694 0
M  V30 13951 O 2451.28 -8.73148 1.23936 0
M  V30 13952 O 2450.74 -7.66872 -0.971405 0
M  V30 13953 C 2449.8 -7.42309 -2.04641 0
M  V30 13954 C 2450.53 -6.86059 -3.24661 0
M  V30 13955 O 2450.74 -5.42847 -3.03646 0
M  V30 13956 C 2451.93 -7.41196 -3.50753 0
M  V30 13957 O 2452.32 -7.27073 -4.86816 0
M  V30 13958 C 2452.81 -6.5273 -2.63741 0
M  V30 13959 C 2452.1 -5.1842 -2.73198 0
M  V30 13960 N 2452.15 -4.38762 -1.4784 0
M  V30 13961 H 2449.31 -8.36803 -2.32493 0
M  V30 13962 H 2449.04 -6.70197 -1.71129 0
M  V30 13963 H 2449.9 -7.03551 -4.13168 0
M  V30 13964 P 2453.87 -7.20834 -5.23717 0
M  V30 13965 O 2454.09 -7.79853 -6.57286 0
M  V30 13966 O 2454.66 -7.79239 -4.12957 0
M  V30 13967 O 2454.12 -5.63315 -5.29344 0
M  V30 13968 C 2453.18 -4.80255 -6.01876 0
M  V30 13969 C 2453.91 -3.64202 -6.65911 0
M  V30 13970 O 2454.12 -2.60694 -5.64732 0
M  V30 13971 C 2455.31 -3.93473 -7.1943 0
M  V30 13972 O 2455.7 -3.02071 -8.21205 0
M  V30 13973 C 2456.19 -3.73047 -5.97036 0
M  V30 13974 C 2455.48 -2.58828 -5.25741 0
M  V30 13975 N 2455.53 -2.68068 -3.77503 0
M  V30 13976 H 2452.69 -5.40332 -6.79951 0
M  V30 13977 H 2452.42 -4.41613 -5.32378 0
M  V30 13978 H 2453.28 -3.26331 -7.47797 0
M  V30 13979 P 2457.25 -2.75334 -8.47391 0
M  V30 13980 O 2457.47 -2.44571 -9.90142 0
M  V30 13981 O 2458.04 -3.87688 -7.92115 0
M  V30 13982 O 2457.5 -1.4459 -7.59357 0
M  V30 13983 C 2456.56 -0.347608 -7.69215 0
M  V30 13984 C 2457.29 0.96767 -7.52806 0
M  V30 13985 O 2457.5 1.21036 -6.1011 0
M  V30 13986 C 2458.69 1.04544 -8.13308 0
M  V30 13987 O 2459.08 2.38311 -8.41922 0
M  V30 13988 C 2459.57 0.491279 -7.02284 0
M  V30 13989 C 2458.86 0.996264 -5.77469 0
M  V30 13990 N 2458.91 0.0501916 -4.62973 0
M  V30 13991 H 2456.07 -0.374722 -8.67691 0
M  V30 13992 H 2455.8 -0.443485 -6.90277 0
M  V30 13993 H 2456.66 1.75537 -7.96793 0
M  V30 13994 P 2460.63 2.75334 -8.47391 0
M  V30 13995 O 2460.85 3.84128 -9.44797 0
M  V30 13996 O 2461.42 1.51947 -8.68712 0
M  V30 13997 O 2460.88 3.29363 -6.99321 0
M  V30 13998 C 2459.94 4.24011 -6.4274 0
M  V30 13999 C 2460.67 5.20775 -5.52155 0
M  V30 14000 O 2460.88 4.56534 -4.22446 0
M  V30 14001 C 2462.07 5.62629 -5.96531 0
M  V30 14002 O 2462.46 6.87667 -5.41053 0
M  V30 14003 C 2462.95 4.52537 -5.39283 0
M  V30 14004 C 2462.24 4.20027 -4.08623 0
M  V30 14005 N 2462.29 2.76189 -3.71603 0
M  V30 14006 H 2459.45 4.797 -7.24003 0
M  V30 14007 H 2459.18 3.69856 -5.84513 0
M  V30 14008 H 2460.04 6.10356 -5.41441 0
M  V30 14009 P 2464.01 7.20834 -5.23717 0
M  V30 14010 O 2464.23 8.66104 -5.38572 0
M  V30 14011 O 2464.8 6.33544 -6.1349 0
M  V30 14012 O 2464.26 6.7751 -3.72168 0
M  V30 14013 C 2463.32 7.20825 -2.7076 0
M  V30 14014 C 2464.05 7.45864 -1.40599 0
M  V30 14015 O 2464.26 6.17651 -0.734225 0
M  V30 14016 C 2465.45 8.05808 -1.51899 0
M  V30 14017 O 2465.84 8.74358 -0.335205 0
M  V30 14018 C 2466.33 6.83093 -1.70294 0
M  V30 14019 C 2465.62 5.79992 -0.836974 0
M  V30 14020 N 2465.67 4.41864 -1.38293 0
M  V30 14021 C 2465.59 3.99538 -2.69438 0
M  V30 14022 N 2465.67 2.69909 -2.84277 0
M  V30 14023 C 2465.81 2.21719 -1.5408 0
M  V30 14024 C 2465.94 0.891712 -1.06628 0
M  V30 14025 N 2466.06 0.856846 0.334985 0
M  V30 14026 C 2466.06 1.9641 1.15789 0
M  V30 14027 N 2466.19 1.72708 2.46522 0
M  V30 14028 N 2465.93 3.21165 0.713741 0
M  V30 14029 C 2465.81 3.26797 -0.639748 0
M  V30 14030 H 2462.83 8.13644 -3.0377 0
M  V30 14031 H 2462.56 6.42788 -2.55485 0
M  V30 14032 H 2463.42 8.12039 -0.792769 0
M  V30 14033 P 2467.39 8.91 -6.06197e-11 0
M  V30 14034 O 2467.61 10.1726 0.733694 0
M  V30 14035 O 2468.18 8.73148 -1.23936 0
M  V30 14036 O 2467.64 7.66872 0.971405 0
M  V30 14037 C 2466.7 7.42309 2.04641 0
M  V30 14038 C 2467.43 6.86059 3.24661 0
M  V30 14039 O 2467.64 5.42847 3.03646 0
M  V30 14040 C 2468.83 7.41196 3.50753 0
M  V30 14041 O 2469.22 7.27073 4.86816 0
M  V30 14042 C 2469.71 6.5273 2.63741 0
M  V30 14043 C 2469 5.1842 2.73198 0
M  V30 14044 N 2469.05 4.38762 1.4784 0
M  V30 14045 H 2466.21 8.36803 2.32493 0
M  V30 14046 H 2465.94 6.70197 1.71129 0
M  V30 14047 H 2466.8 7.03551 4.13168 0
M  V30 14048 P 2470.77 7.20834 5.23717 0
M  V30 14049 O 2470.99 7.79853 6.57286 0
M  V30 14050 O 2471.56 7.79239 4.12957 0
M  V30 14051 O 2471.02 5.63315 5.29344 0
M  V30 14052 C 2470.08 4.80255 6.01876 0
M  V30 14053 C 2470.81 3.64202 6.65911 0
M  V30 14054 O 2471.02 2.60694 5.64732 0
M  V30 14055 C 2472.21 3.93473 7.1943 0
M  V30 14056 O 2472.6 3.02071 8.21205 0
M  V30 14057 C 2473.09 3.73047 5.97036 0
M  V30 14058 C 2472.38 2.58828 5.25741 0
M  V30 14059 N 2472.43 2.68068 3.77503 0
M  V30 14060 H 2469.59 5.40332 6.79951 0
M  V30 14061 H 2469.32 4.41613 5.32378 0
M  V30 14062 H 2470.18 3.26331 7.47797 0
M  V30 14063 P 2474.15 2.75334 8.47391 0
M  V30 14064 O 2474.37 2.44619 9.90336 0
M  V30 14065 O 2474.94 3.87776 7.92294 0
M  V30 14066 O 2474.4 1.4459 7.59357 0
M  V30 14067 C 2473.46 0.347653 7.69315 0
M  V30 14068 C 2474.19 -0.96767 7.52806 0
M  V30 14069 O 2474.4 -1.21055 6.10208 0
M  V30 14070 C 2475.59 -1.04557 8.13408 0
M  V30 14071 O 2475.98 -2.38311 8.41922 0
M  V30 14072 C 2476.47 -0.491279 7.02284 0
M  V30 14073 C 2475.76 -0.996264 5.77469 0
M  V30 14074 N 2475.81 -0.0501916 4.62973 0
M  V30 14075 H 2472.97 0.374765 8.67791 0
M  V30 14076 H 2472.7 0.443613 6.90476 0
M  V30 14077 H 2473.56 -1.75559 7.96891 0
M  V30 14078 H 2476.22 -1.94563 5.46818 0
M  V30 14079 H 2476.5 0.608651 7.04676 0
M  V30 14080 H 2477.49 -0.889796 7.09039 0
M  V30 14081 H 2475.66 -0.433128 9.04664 0
M  V30 14082 P 2477.53 -2.75334 8.47391 0
M  V30 14083 O 2477.75 -3.84128 9.44797 0
M  V30 14084 O 2478.32 -1.51947 8.68712 0
M  V30 14085 O 2477.78 -3.29363 6.99321 0
M  V30 14086 C 2476.84 -4.24011 6.4274 0
M  V30 14087 C 2477.57 -5.20775 5.52155 0
M  V30 14088 O 2477.78 -4.56534 4.22446 0
M  V30 14089 C 2478.97 -5.62629 5.96531 0
M  V30 14090 O 2479.36 -6.87667 5.41053 0
M  V30 14091 C 2479.85 -4.52537 5.39283 0
M  V30 14092 C 2479.14 -4.20027 4.08623 0
M  V30 14093 N 2479.19 -2.76189 3.71603 0
M  V30 14094 H 2476.35 -4.797 7.24003 0
M  V30 14095 H 2476.08 -3.69856 5.84513 0
M  V30 14096 H 2476.94 -6.10356 5.41441 0
M  V30 14097 P 2480.91 -7.20834 5.23717 0
M  V30 14098 O 2481.13 -8.66104 5.38572 0
M  V30 14099 O 2481.7 -6.33544 6.1349 0
M  V30 14100 O 2481.16 -6.7751 3.72168 0
M  V30 14101 C 2480.22 -7.20825 2.7076 0
M  V30 14102 C 2480.95 -7.45864 1.40599 0
M  V30 14103 O 2481.16 -6.17651 0.734225 0
M  V30 14104 C 2482.35 -8.05808 1.51899 0
M  V30 14105 O 2482.74 -8.74358 0.335205 0
M  V30 14106 C 2483.23 -6.83093 1.70294 0
M  V30 14107 C 2482.52 -5.79992 0.836974 0
M  V30 14108 N 2482.57 -4.41864 1.38293 0
M  V30 14109 C 2482.49 -3.99538 2.69438 0
M  V30 14110 N 2482.57 -2.69909 2.84277 0
M  V30 14111 C 2482.71 -2.21719 1.5408 0
M  V30 14112 C 2482.84 -0.891712 1.06628 0
M  V30 14113 O 2482.86 0.161298 1.70137 0
M  V30 14114 N 2482.96 -0.856846 -0.334985 0
M  V30 14115 C 2482.96 -1.9641 -1.15789 0
M  V30 14116 N 2483.09 -1.72708 -2.46522 0
M  V30 14117 N 2482.83 -3.21165 -0.713741 0
M  V30 14118 C 2482.71 -3.26797 0.639748 0
M  V30 14119 H 2479.73 -8.13644 3.0377 0
M  V30 14120 H 2479.46 -6.42788 2.55485 0
M  V30 14121 H 2480.32 -8.12039 0.792769 0
M  V30 14122 H 2482.98 -5.80061 -0.166416 0
M  V30 14123 H 2483.26 -6.51287 2.75604 0
M  V30 14124 H 2484.25 -7.01734 1.34462 0
M  V30 14125 H 2482.42 -8.73674 2.38337 0
M  V30 14126 H 2482.37 -4.68207 3.53221 0
M  V30 14127 H 2483.05 0.0398818 -0.767965 0
M  V30 14128 H 2483.09 -2.50995 -3.13503 0
M  V30 14129 H 2483.19 -0.759148 -2.80716 0
M  V30 14130 P 2484.29 -8.91 6.17288e-11 0
M  V30 14131 O 2484.51 -10.1726 -0.733694 0
M  V30 14132 O 2485.08 -8.73148 1.23936 0
M  V30 14133 O 2484.54 -7.66872 -0.971405 0
M  V30 14134 C 2483.6 -7.42309 -2.04641 0
M  V30 14135 C 2484.33 -6.86059 -3.24661 0
M  V30 14136 O 2484.54 -5.42847 -3.03646 0
M  V30 14137 C 2485.73 -7.41196 -3.50753 0
M  V30 14138 O 2486.12 -7.27073 -4.86816 0
M  V30 14139 C 2486.61 -6.5273 -2.63741 0
M  V30 14140 C 2485.9 -5.1842 -2.73198 0
M  V30 14141 N 2485.95 -4.38762 -1.4784 0
M  V30 14142 H 2483.11 -8.36803 -2.32493 0
M  V30 14143 H 2482.84 -6.70197 -1.71129 0
M  V30 14144 H 2483.7 -7.03551 -4.13168 0
M  V30 14145 P 2487.67 -7.20834 -5.23717 0
M  V30 14146 O 2487.89 -7.80006 -6.57415 0
M  V30 14147 O 2488.46 -7.79416 -4.13051 0
M  V30 14148 O 2487.92 -5.63315 -5.29344 0
M  V30 14149 C 2486.98 -4.80318 -6.01954 0
M  V30 14150 C 2487.71 -3.64202 -6.65911 0
M  V30 14151 O 2487.92 -2.60736 -5.64823 0
M  V30 14152 C 2489.11 -3.93521 -7.19518 0
M  V30 14153 O 2489.5 -3.02071 -8.21205 0
M  V30 14154 C 2489.99 -3.73047 -5.97036 0
M  V30 14155 C 2489.28 -2.58828 -5.25741 0
M  V30 14156 N 2489.33 -2.68068 -3.77503 0
M  V30 14157 C 2489.25 -3.80474 -2.99159 0
M  V30 14158 N 2489.32 -3.55622 -1.71925 0
M  V30 14159 C 2489.47 -2.1832 -1.65733 0
M  V30 14160 C 2489.6 -1.28842 -0.572777 0
M  V30 14161 N 2489.61 -1.66875 0.70098 0
M  V30 14162 N 2489.72 0.016788 -0.859836 0
M  V30 14163 C 2489.71 0.398145 -2.13316 0
M  V30 14164 N 2489.59 -0.328224 -3.22333 0
M  V30 14165 C 2489.47 -1.62992 -2.90383 0
M  V30 14166 H 2486.49 -5.40394 -6.8003 0
M  V30 14167 H 2486.22 -4.41741 -5.32532 0
M  V30 14168 H 2487.08 -3.26371 -7.47889 0
M  V30 14169 H 2489.74 -1.64007 -5.56746 0
M  V30 14170 H 2490.02 -4.63439 -5.3432 0
M  V30 14171 H 2491.01 -3.44776 -6.25925 0
M  V30 14172 H 2489.18 -4.96707 -7.57347 0
M  V30 14173 H 2489.13 -4.8089 -3.39924 0
M  V30 14174 H 2489.52 -2.66547 0.941919 0
M  V30 14175 H 2489.7 -0.965341 1.44766 0
M  V30 14176 H 2489.81 1.46427 -2.29697 0
M  V30 14177 P 2491.05 -2.75334 -8.47391 0
M  V30 14178 O 2491.27 -2.44571 -9.90142 0
M  V30 14179 O 2491.84 -3.87688 -7.92115 0
M  V30 14180 O 2491.3 -1.4459 -7.59357 0
M  V30 14181 C 2490.36 -0.347608 -7.69215 0
M  V30 14182 C 2491.09 0.96767 -7.52806 0
M  V30 14183 O 2491.3 1.21036 -6.1011 0
M  V30 14184 C 2492.49 1.04544 -8.13308 0
M  V30 14185 O 2492.88 2.38311 -8.41922 0
M  V30 14186 C 2493.37 0.491279 -7.02284 0
M  V30 14187 C 2492.66 0.996264 -5.77469 0
M  V30 14188 N 2492.71 0.0501916 -4.62973 0
M  V30 14189 H 2489.87 -0.374722 -8.67691 0
M  V30 14190 H 2489.6 -0.443485 -6.90277 0
M  V30 14191 H 2490.46 1.75537 -7.96793 0
M  V30 14192 P 2494.43 2.75334 -8.47391 0
M  V30 14193 O 2494.65 3.84128 -9.44797 0
M  V30 14194 O 2495.22 1.51947 -8.68712 0
M  V30 14195 O 2494.68 3.29363 -6.99321 0
M  V30 14196 C 2493.74 4.24011 -6.4274 0
M  V30 14197 C 2494.47 5.20775 -5.52155 0
M  V30 14198 O 2494.68 4.56534 -4.22446 0
M  V30 14199 C 2495.87 5.62629 -5.96531 0
M  V30 14200 O 2496.26 6.87667 -5.41053 0
M  V30 14201 C 2496.75 4.52537 -5.39283 0
M  V30 14202 C 2496.04 4.20027 -4.08623 0
M  V30 14203 N 2496.09 2.76189 -3.71603 0
M  V30 14204 H 2493.25 4.797 -7.24003 0
M  V30 14205 H 2492.98 3.69856 -5.84513 0
M  V30 14206 H 2493.84 6.10356 -5.41441 0
M  V30 14207 P 2497.81 7.20834 -5.23717 0
M  V30 14208 O 2498.03 8.66189 -5.38625 0
M  V30 14209 O 2498.6 6.33615 -6.1356 0
M  V30 14210 O 2498.06 6.7751 -3.72168 0
M  V30 14211 C 2497.12 7.20732 -2.70725 0
M  V30 14212 C 2497.85 7.45864 -1.40599 0
M  V30 14213 O 2498.06 6.17651 -0.734225 0
M  V30 14214 C 2499.25 8.05808 -1.51899 0
M  V30 14215 O 2499.64 8.74358 -0.335205 0
M  V30 14216 C 2500.13 6.83093 -1.70294 0
M  V30 14217 C 2499.42 5.79992 -0.836974 0
M  V30 14218 N 2499.47 4.41769 -1.38263 0
M  V30 14219 C 2499.62 3.38591 -0.481702 0
M  V30 14220 O 2499.71 3.56839 0.718452 0
M  V30 14221 N 2499.66 2.1206 -1.03569 0
M  V30 14222 C 2499.57 1.80696 -2.36966 0
M  V30 14223 O 2499.62 0.630473 -2.74862 0
M  V30 14224 C 2499.42 2.94845 -3.23898 0
M  V30 14225 C 2499.31 2.65253 -4.70362 0
M  V30 14226 C 2499.37 4.19803 -2.73435 0
M  V30 14227 H 2496.63 8.13644 -3.0377 0
M  V30 14228 H 2496.36 6.42695 -2.55448 0
M  V30 14229 H 2497.22 8.12039 -0.792769 0
M  V30 14230 H 2499.88 5.79978 0.160587 0
M  V30 14231 H 2500.16 6.51379 -2.75643 0
M  V30 14232 H 2501.15 7.01734 -1.34462 0
M  V30 14233 H 2499.32 8.73674 -2.38337 0
M  V30 14234 H 2499.24 5.04492 -3.4095 0
M  V30 14235 H 2500.27 2.83924 -5.1913 0
M  V30 14236 H 2498.54 3.29824 -5.15163 0
M  V30 14237 H 2499.03 1.59723 -4.84449 0
M  V30 14238 H 2499.76 1.35644 -0.399345 0
M  V30 14239 P 2501.19 8.91 -6.28378e-11 0
M  V30 14240 O 2501.41 10.1726 0.733694 0
M  V30 14241 O 2501.98 8.73148 -1.23936 0
M  V30 14242 O 2501.44 7.66872 0.971405 0
M  V30 14243 C 2500.5 7.42309 2.04641 0
M  V30 14244 C 2501.23 6.86059 3.24661 0
M  V30 14245 O 2501.44 5.42847 3.03646 0
M  V30 14246 C 2502.63 7.41196 3.50753 0
M  V30 14247 O 2503.02 7.27073 4.86816 0
M  V30 14248 C 2503.51 6.5273 2.63741 0
M  V30 14249 C 2502.8 5.1842 2.73198 0
M  V30 14250 N 2502.85 4.38762 1.4784 0
M  V30 14251 H 2500.01 8.36803 2.32493 0
M  V30 14252 H 2499.74 6.70197 1.71129 0
M  V30 14253 H 2500.6 7.03551 4.13168 0
M  V30 14254 P 2504.57 7.20834 5.23717 0
M  V30 14255 O 2504.79 7.79853 6.57286 0
M  V30 14256 O 2505.36 7.79239 4.12957 0
M  V30 14257 O 2504.82 5.63315 5.29344 0
M  V30 14258 C 2503.88 4.80255 6.01876 0
M  V30 14259 C 2504.61 3.64202 6.65911 0
M  V30 14260 O 2504.82 2.60694 5.64732 0
M  V30 14261 C 2506.01 3.93473 7.1943 0
M  V30 14262 O 2506.4 3.02071 8.21205 0
M  V30 14263 C 2506.89 3.73047 5.97036 0
M  V30 14264 C 2506.18 2.58828 5.25741 0
M  V30 14265 N 2506.23 2.68068 3.77503 0
M  V30 14266 C 2506.15 3.79715 2.96723 0
M  V30 14267 N 2506.23 3.5377 1.68852 0
M  V30 14268 C 2506.37 2.15054 1.63254 0
M  V30 14269 C 2506.5 1.28964 0.518571 0
M  V30 14270 O 2506.52 1.56826 -0.679156 0
M  V30 14271 N 2506.62 -0.0538097 0.918425 0
M  V30 14272 C 2506.62 -0.494275 2.22578 0
M  V30 14273 N 2506.75 -1.81086 2.40434 0
M  V30 14274 N 2506.49 0.313645 3.27502 0
M  V30 14275 C 2506.37 1.61829 2.91033 0
M  V30 14276 H 2503.39 5.40332 6.79951 0
M  V30 14277 H 2503.12 4.41613 5.32378 0
M  V30 14278 H 2503.98 3.26331 7.47797 0
M  V30 14279 H 2506.64 1.63422 5.56814 0
M  V30 14280 H 2506.92 4.63374 5.34244 0
M  V30 14281 H 2507.91 3.44728 6.25838 0
M  V30 14282 H 2506.08 4.96652 7.57263 0
M  V30 14283 H 2506.03 4.80617 3.3614 0
M  V30 14284 H 2506.71 -0.742702 0.199384 0
M  V30 14285 H 2506.75 -2.20598 3.35588 0
M  V30 14286 H 2506.85 -2.43518 1.58945 0
M  V30 14287 P 2507.95 2.75334 8.47391 0
M  V30 14288 O 2508.17 2.44571 9.90142 0
M  V30 14289 O 2508.74 3.87688 7.92115 0
M  V30 14290 O 2508.2 1.4459 7.59357 0
M  V30 14291 C 2507.26 0.347608 7.69215 0
M  V30 14292 C 2507.99 -0.96767 7.52806 0
M  V30 14293 O 2508.2 -1.21036 6.1011 0
M  V30 14294 C 2509.39 -1.04544 8.13308 0
M  V30 14295 O 2509.78 -2.38311 8.41922 0
M  V30 14296 C 2510.27 -0.491279 7.02284 0
M  V30 14297 C 2509.56 -0.996264 5.77469 0
M  V30 14298 N 2509.61 -0.0501916 4.62973 0
M  V30 14299 H 2506.77 0.374722 8.67691 0
M  V30 14300 H 2506.5 0.443485 6.90277 0
M  V30 14301 H 2507.36 -1.75537 7.96793 0
M  V30 14302 P 2511.33 -2.75334 8.47391 0
M  V30 14303 O 2511.55 -3.84128 9.44797 0
M  V30 14304 O 2512.12 -1.51947 8.68712 0
M  V30 14305 O 2511.58 -3.29363 6.99321 0
M  V30 14306 C 2510.64 -4.24011 6.4274 0
M  V30 14307 C 2511.37 -5.20775 5.52155 0
M  V30 14308 O 2511.58 -4.56534 4.22446 0
M  V30 14309 C 2512.77 -5.62629 5.96531 0
M  V30 14310 O 2513.16 -6.87667 5.41053 0
M  V30 14311 C 2513.65 -4.52537 5.39283 0
M  V30 14312 C 2512.94 -4.20027 4.08623 0
M  V30 14313 N 2512.99 -2.76189 3.71603 0
M  V30 14314 H 2510.15 -4.797 7.24003 0
M  V30 14315 H 2509.88 -3.69856 5.84513 0
M  V30 14316 H 2510.74 -6.10356 5.41441 0
M  V30 14317 P 2514.71 -7.20834 5.23717 0
M  V30 14318 O 2514.93 -8.66104 5.38572 0
M  V30 14319 O 2515.5 -6.33544 6.1349 0
M  V30 14320 O 2514.96 -6.7751 3.72168 0
M  V30 14321 C 2514.02 -7.20825 2.7076 0
M  V30 14322 C 2514.75 -7.45864 1.40599 0
M  V30 14323 O 2514.96 -6.17651 0.734225 0
M  V30 14324 C 2516.15 -8.05808 1.51899 0
M  V30 14325 O 2516.54 -8.74358 0.335205 0
M  V30 14326 C 2517.03 -6.83093 1.70294 0
M  V30 14327 C 2516.32 -5.79992 0.836974 0
M  V30 14328 N 2516.37 -4.41864 1.38293 0
M  V30 14329 H 2513.53 -8.13644 3.0377 0
M  V30 14330 H 2513.26 -6.42788 2.55485 0
M  V30 14331 H 2514.12 -8.12039 0.792769 0
M  V30 14332 P 2518.09 -8.91 6.39468e-11 0
M  V30 14333 O 2518.31 -10.1736 -0.733766 0
M  V30 14334 O 2518.88 -8.73247 1.2395 0
M  V30 14335 O 2518.34 -7.66872 -0.971405 0
M  V30 14336 C 2517.4 -7.42212 -2.04614 0
M  V30 14337 C 2518.13 -6.86059 -3.24661 0
M  V30 14338 O 2518.34 -5.42847 -3.03646 0
M  V30 14339 C 2519.53 -7.41196 -3.50753 0
M  V30 14340 O 2519.92 -7.27073 -4.86816 0
M  V30 14341 C 2520.41 -6.5273 -2.63741 0
M  V30 14342 C 2519.7 -5.1842 -2.73198 0
M  V30 14343 N 2519.75 -4.38668 -1.47808 0
M  V30 14344 C 2519.9 -3.02239 -1.60048 0
M  V30 14345 O 2519.99 -2.46459 -2.67869 0
M  V30 14346 N 2519.94 -2.32436 -0.408571 0
M  V30 14347 C 2519.85 -2.85471 0.854993 0
M  V30 14348 C 2519.7 -4.28918 0.887335 0
M  V30 14349 C 2519.65 -5.00349 -0.255399 0
M  V30 14350 H 2516.91 -8.36803 -2.32493 0
M  V30 14351 H 2516.64 -6.701 -1.71105 0
M  V30 14352 H 2517.5 -7.03551 -4.13168 0
M  V30 14353 H 2520.16 -4.59773 -3.53894 0
M  V30 14354 H 2520.44 -6.88995 -1.59871 0
M  V30 14355 H 2521.43 -6.46749 -3.03687 0
M  V30 14356 H 2519.6 -8.46908 -3.20714 0
M  V30 14357 H 2519.52 -6.08548 -0.206986 0
M  V30 14358 P 2521.47 -7.20834 -5.23717 0
M  V30 14359 O 2521.69 -7.7993 -6.57351 0
M  V30 14360 O 2522.26 -7.79328 -4.13004 0
M  V30 14361 O 2521.72 -5.63315 -5.29344 0
M  V30 14362 C 2520.78 -4.80193 -6.01798 0
M  V30 14363 C 2521.51 -3.64202 -6.65911 0
M  V30 14364 O 2521.72 -2.60694 -5.64732 0
M  V30 14365 C 2522.91 -3.93473 -7.1943 0
M  V30 14366 O 2523.3 -3.02071 -8.21205 0
M  V30 14367 C 2523.79 -3.73047 -5.97036 0
M  V30 14368 C 2523.08 -2.58828 -5.25741 0
M  V30 14369 N 2523.13 -2.6801 -3.77422 0
M  V30 14370 C 2523.28 -1.50443 -3.07133 0
M  V30 14371 O 2523.37 -0.419406 -3.61576 0
M  V30 14372 N 2523.32 -1.6403 -1.69677 0
M  V30 14373 C 2523.23 -2.81206 -0.986255 0
M  V30 14374 C 2523.08 -3.99158 -1.80325 0
M  V30 14375 C 2523.03 -3.89779 -3.1476 0
M  V30 14376 H 2520.29 -5.40332 -6.79951 0
M  V30 14377 H 2520.02 -4.41549 -5.32301 0
M  V30 14378 H 2520.88 -3.26331 -7.47797 0
M  V30 14379 H 2523.54 -1.6395 -5.56554 0
M  V30 14380 H 2523.82 -4.63439 -5.3432 0
M  V30 14381 H 2524.81 -3.44728 -6.25838 0
M  V30 14382 H 2522.98 -4.96652 -7.57263 0
M  V30 14383 H 2522.9 -4.80159 -3.74441 0
M  V30 14384 P 2524.85 -2.75334 -8.47391 0
M  V30 14385 O 2525.07 -2.44571 -9.90142 0
M  V30 14386 O 2525.64 -3.87688 -7.92115 0
M  V30 14387 O 2525.1 -1.4459 -7.59357 0
M  V30 14388 C 2524.16 -0.347608 -7.69215 0
M  V30 14389 C 2524.89 0.96767 -7.52806 0
M  V30 14390 O 2525.1 1.21036 -6.1011 0
M  V30 14391 C 2526.29 1.04544 -8.13308 0
M  V30 14392 O 2526.68 2.38311 -8.41922 0
M  V30 14393 C 2527.17 0.491279 -7.02284 0
M  V30 14394 C 2526.46 0.996264 -5.77469 0
M  V30 14395 N 2526.51 0.0501916 -4.62973 0
M  V30 14396 H 2523.67 -0.374722 -8.67691 0
M  V30 14397 H 2523.4 -0.443485 -6.90277 0
M  V30 14398 H 2524.26 1.75537 -7.96793 0
M  V30 14399 P 2528.23 2.75334 -8.47391 0
M  V30 14400 O 2528.45 3.84128 -9.44797 0
M  V30 14401 O 2529.02 1.51947 -8.68712 0
M  V30 14402 O 2528.48 3.29363 -6.99321 0
M  V30 14403 C 2527.54 4.24011 -6.4274 0
M  V30 14404 C 2528.27 5.20775 -5.52155 0
M  V30 14405 O 2528.48 4.56534 -4.22446 0
M  V30 14406 C 2529.67 5.62629 -5.96531 0
M  V30 14407 O 2530.06 6.87667 -5.41053 0
M  V30 14408 C 2530.55 4.52537 -5.39283 0
M  V30 14409 C 2529.84 4.20027 -4.08623 0
M  V30 14410 N 2529.89 2.76189 -3.71603 0
M  V30 14411 H 2527.05 4.797 -7.24003 0
M  V30 14412 H 2526.78 3.69856 -5.84513 0
M  V30 14413 H 2527.64 6.10356 -5.41441 0
M  V30 14414 P 2531.61 7.20834 -5.23717 0
M  V30 14415 O 2531.83 8.66104 -5.38572 0
M  V30 14416 O 2532.4 6.33544 -6.1349 0
M  V30 14417 O 2531.86 6.7751 -3.72168 0
M  V30 14418 C 2530.92 7.20825 -2.7076 0
M  V30 14419 C 2531.65 7.45864 -1.40599 0
M  V30 14420 O 2531.86 6.17651 -0.734225 0
M  V30 14421 C 2533.05 8.05808 -1.51899 0
M  V30 14422 O 2533.44 8.74358 -0.335205 0
M  V30 14423 C 2533.93 6.83093 -1.70294 0
M  V30 14424 C 2533.22 5.79992 -0.836974 0
M  V30 14425 N 2533.27 4.41864 -1.38293 0
M  V30 14426 H 2530.43 8.13644 -3.0377 0
M  V30 14427 H 2530.16 6.42788 -2.55485 0
M  V30 14428 H 2531.02 8.12039 -0.792769 0
M  V30 14429 P 2534.99 8.91 -6.50558e-11 0
M  V30 14430 O 2535.21 10.1736 0.733766 0
M  V30 14431 O 2535.78 8.73247 -1.2395 0
M  V30 14432 O 2535.24 7.66872 0.971405 0
M  V30 14433 C 2534.3 7.42309 2.04641 0
M  V30 14434 C 2535.03 6.86059 3.24661 0
M  V30 14435 O 2535.24 5.42847 3.03646 0
M  V30 14436 C 2536.43 7.41196 3.50753 0
M  V30 14437 O 2536.82 7.27073 4.86816 0
M  V30 14438 C 2537.31 6.5273 2.63741 0
M  V30 14439 C 2536.6 5.1842 2.73198 0
M  V30 14440 N 2536.65 4.38668 1.47808 0
M  V30 14441 C 2536.8 3.00789 1.58511 0
M  V30 14442 O 2536.89 2.50116 2.71298 0
M  V30 14443 N 2536.85 2.29703 0.253698 0
M  V30 14444 C 2536.75 2.84269 -0.750133 0
M  V30 14445 N 2536.8 2.06951 -1.82612 0
M  V30 14446 C 2536.6 4.25803 -0.889776 0
M  V30 14447 C 2536.55 4.98326 0.259363 0
M  V30 14448 H 2533.81 8.36707 2.32466 0
M  V30 14449 H 2533.54 6.701 1.71105 0
M  V30 14450 H 2534.4 7.03638 4.13219 0
M  V30 14451 H 2537.06 4.59852 3.53955 0
M  V30 14452 H 2537.34 6.88995 1.59871 0
M  V30 14453 H 2538.33 6.46749 3.03687 0
M  V30 14454 H 2536.5 8.46908 3.20714 0
M  V30 14455 H 2536.42 6.06349 0.206238 0
M  V30 14456 H 2536.53 4.73163 -1.86796 0
M  V30 14457 H 2536.91 1.05099 -1.72271 0
M  V30 14458 H 2536.72 2.48716 -2.76361 0
M  V30 14459 P 2538.36 7.20834 5.23717 0
M  V30 14460 O 2538.58 7.79853 6.57286 0
M  V30 14461 O 2539.15 7.79239 4.12957 0
M  V30 14462 O 2538.61 5.63315 5.29344 0
M  V30 14463 C 2537.67 4.80255 6.01876 0
M  V30 14464 C 2538.4 3.64202 6.65911 0
M  V30 14465 O 2538.61 2.60694 5.64732 0
M  V30 14466 C 2539.8 3.93473 7.1943 0
M  V30 14467 O 2540.19 3.02071 8.21205 0
M  V30 14468 C 2540.68 3.73047 5.97036 0
M  V30 14469 C 2539.97 2.58828 5.25741 0
M  V30 14470 N 2540.02 2.68068 3.77503 0
M  V30 14471 H 2537.19 5.40332 6.79951 0
M  V30 14472 H 2536.92 4.41613 5.32378 0
M  V30 14473 H 2537.78 3.26331 7.47797 0
M  V30 14474 P 2541.74 2.75334 8.47391 0
M  V30 14475 O 2541.96 2.44571 9.90142 0
M  V30 14476 O 2542.53 3.87688 7.92115 0
M  V30 14477 O 2541.99 1.4459 7.59357 0
M  V30 14478 C 2541.05 0.347608 7.69215 0
M  V30 14479 C 2541.78 -0.96767 7.52806 0
M  V30 14480 O 2541.99 -1.21036 6.1011 0
M  V30 14481 C 2543.18 -1.04544 8.13308 0
M  V30 14482 O 2543.57 -2.38311 8.41922 0
M  V30 14483 C 2544.06 -0.491279 7.02284 0
M  V30 14484 C 2543.35 -0.996264 5.77469 0
M  V30 14485 N 2543.4 -0.0501916 4.62973 0
M  V30 14486 H 2540.57 0.374722 8.67691 0
M  V30 14487 H 2540.3 0.443485 6.90277 0
M  V30 14488 H 2541.16 -1.75537 7.96793 0
M  V30 14489 P 2545.12 -2.75334 8.47391 0
M  V30 14490 O 2545.34 -3.84204 9.44982 0
M  V30 14491 O 2545.91 -1.51982 8.68909 0
M  V30 14492 O 2545.37 -3.29363 6.99321 0
M  V30 14493 C 2544.43 -4.24066 6.42823 0
M  V30 14494 C 2545.16 -5.20775 5.52155 0
M  V30 14495 O 2545.37 -4.56607 4.22514 0
M  V30 14496 C 2546.56 -5.62697 5.96604 0
M  V30 14497 O 2546.95 -6.87667 5.41053 0
M  V30 14498 C 2547.44 -4.52537 5.39283 0
M  V30 14499 C 2546.73 -4.20027 4.08623 0
M  V30 14500 N 2546.78 -2.76189 3.71603 0
M  V30 14501 C 2546.7 -1.66944 4.54297 0
M  V30 14502 N 2546.77 -0.536169 3.91344 0
M  V30 14503 C 2546.92 -0.901569 2.58849 0
M  V30 14504 C 2547.05 -0.146599 1.40236 0
M  V30 14505 N 2547.06 1.18234 1.37046 0
M  V30 14506 N 2547.17 -0.822941 0.249738 0
M  V30 14507 C 2547.16 -2.15179 0.280525 0
M  V30 14508 N 2547.04 -2.96414 1.30822 0
M  V30 14509 C 2546.92 -2.25804 2.44748 0
M  V30 14510 H 2543.95 -4.79756 7.24086 0
M  V30 14511 H 2543.67 -3.69963 5.84682 0
M  V30 14512 H 2544.54 -6.10431 5.41508 0
M  V30 14513 H 2547.2 -4.78816 3.28024 0
M  V30 14514 H 2547.48 -3.64957 6.05871 0
M  V30 14515 H 2548.47 -4.88748 5.21323 0
M  V30 14516 H 2546.63 -5.66789 7.0643 0
M  V30 14517 H 2546.59 -1.74684 5.62396 0
M  V30 14518 H 2546.97 1.71949 2.24394 0
M  V30 14519 H 2547.16 1.67511 0.470742 0
M  V30 14520 H 2547.27 -2.63704 -0.6828 0
M  V30 14521 P 2548.5 -7.20834 5.23717 0
M  V30 14522 O 2548.72 -8.66104 5.38572 0
M  V30 14523 O 2549.29 -6.33544 6.1349 0
M  V30 14524 O 2548.75 -6.7751 3.72168 0
M  V30 14525 C 2547.81 -7.20825 2.7076 0
M  V30 14526 C 2548.54 -7.45864 1.40599 0
M  V30 14527 O 2548.75 -6.17651 0.734225 0
M  V30 14528 C 2549.94 -8.05808 1.51899 0
M  V30 14529 O 2550.33 -8.74358 0.335205 0
M  V30 14530 C 2550.82 -6.83093 1.70294 0
M  V30 14531 C 2550.11 -5.79992 0.836974 0
M  V30 14532 N 2550.16 -4.41864 1.38293 0
M  V30 14533 H 2547.33 -8.13644 3.0377 0
M  V30 14534 H 2547.06 -6.42788 2.55485 0
M  V30 14535 H 2547.92 -8.12039 0.792769 0
M  V30 14536 P 2551.88 -8.91 6.61648e-11 0
M  V30 14537 O 2552.1 -10.1736 -0.733766 0
M  V30 14538 O 2552.67 -8.73247 1.2395 0
M  V30 14539 O 2552.13 -7.66872 -0.971405 0
M  V30 14540 C 2551.19 -7.42212 -2.04614 0
M  V30 14541 C 2551.92 -6.86059 -3.24661 0
M  V30 14542 O 2552.13 -5.42847 -3.03646 0
M  V30 14543 C 2553.32 -7.41196 -3.50753 0
M  V30 14544 O 2553.71 -7.27073 -4.86816 0
M  V30 14545 C 2554.2 -6.5273 -2.63741 0
M  V30 14546 C 2553.49 -5.1842 -2.73198 0
M  V30 14547 N 2553.54 -4.38668 -1.47808 0
M  V30 14548 C 2553.69 -3.02239 -1.60048 0
M  V30 14549 O 2553.78 -2.46459 -2.67869 0
M  V30 14550 N 2553.73 -2.32436 -0.408571 0
M  V30 14551 C 2553.64 -2.85471 0.854993 0
M  V30 14552 O 2553.69 -2.12566 1.8531 0
M  V30 14553 C 2553.49 -4.28918 0.887335 0
M  V30 14554 C 2553.38 -4.91066 2.24619 0
M  V30 14555 C 2553.44 -5.00349 -0.255399 0
M  V30 14556 H 2550.7 -8.36803 -2.32493 0
M  V30 14557 H 2550.44 -6.701 -1.71105 0
M  V30 14558 H 2551.3 -7.03551 -4.13168 0
M  V30 14559 H 2553.96 -4.59773 -3.53894 0
M  V30 14560 H 2554.24 -6.88995 -1.59871 0
M  V30 14561 H 2555.23 -6.46749 -3.03687 0
M  V30 14562 H 2553.39 -8.46908 -3.20714 0
M  V30 14563 H 2553.32 -6.08548 -0.206986 0
M  V30 14564 H 2554.35 -5.34836 2.53099 0
M  V30 14565 H 2552.62 -5.69638 2.2291 0
M  V30 14566 H 2553.1 -4.13971 2.98044 0
M  V30 14567 H 2553.84 -1.33211 -0.474216 0
M  V30 14568 P 2555.26 -7.20834 -5.23717 0
M  V30 14569 O 2555.48 -7.79853 -6.57286 0
M  V30 14570 O 2556.05 -7.79239 -4.12957 0
M  V30 14571 O 2555.51 -5.63315 -5.29344 0
M  V30 14572 C 2554.57 -4.80255 -6.01876 0
M  V30 14573 C 2555.3 -3.64202 -6.65911 0
M  V30 14574 O 2555.51 -2.60694 -5.64732 0
M  V30 14575 C 2556.7 -3.93473 -7.1943 0
M  V30 14576 O 2557.09 -3.02071 -8.21205 0
M  V30 14577 C 2557.58 -3.73047 -5.97036 0
M  V30 14578 C 2556.87 -2.58828 -5.25741 0
M  V30 14579 N 2556.92 -2.68068 -3.77503 0
M  V30 14580 H 2554.09 -5.40332 -6.79951 0
M  V30 14581 H 2553.82 -4.41613 -5.32378 0
M  V30 14582 H 2554.68 -3.26331 -7.47797 0
M  V30 14583 P 2558.64 -2.75334 -8.47391 0
M  V30 14584 O 2558.86 -2.44571 -9.90142 0
M  V30 14585 O 2559.43 -3.87688 -7.92115 0
M  V30 14586 O 2558.89 -1.4459 -7.59357 0
M  V30 14587 C 2557.95 -0.347608 -7.69215 0
M  V30 14588 C 2558.68 0.96767 -7.52806 0
M  V30 14589 O 2558.89 1.21036 -6.1011 0
M  V30 14590 C 2560.08 1.04544 -8.13308 0
M  V30 14591 O 2560.47 2.38311 -8.41922 0
M  V30 14592 C 2560.96 0.491279 -7.02284 0
M  V30 14593 C 2560.25 0.996264 -5.77469 0
M  V30 14594 N 2560.3 0.0501916 -4.62973 0
M  V30 14595 H 2557.47 -0.374722 -8.67691 0
M  V30 14596 H 2557.2 -0.443485 -6.90277 0
M  V30 14597 H 2558.06 1.75537 -7.96793 0
M  V30 14598 P 2562.02 2.75334 -8.47391 0
M  V30 14599 O 2562.24 3.84128 -9.44797 0
M  V30 14600 O 2562.81 1.51947 -8.68712 0
M  V30 14601 O 2562.27 3.29363 -6.99321 0
M  V30 14602 C 2561.33 4.24011 -6.4274 0
M  V30 14603 C 2562.06 5.20775 -5.52155 0
M  V30 14604 O 2562.27 4.56534 -4.22446 0
M  V30 14605 C 2563.46 5.62629 -5.96531 0
M  V30 14606 O 2563.85 6.87667 -5.41053 0
M  V30 14607 C 2564.34 4.52537 -5.39283 0
M  V30 14608 C 2563.63 4.20027 -4.08623 0
M  V30 14609 N 2563.68 2.76189 -3.71603 0
M  V30 14610 H 2560.85 4.797 -7.24003 0
M  V30 14611 H 2560.58 3.69856 -5.84513 0
M  V30 14612 H 2561.44 6.10356 -5.41441 0
M  V30 14613 P 2565.4 7.20834 -5.23717 0
M  V30 14614 O 2565.62 8.66104 -5.38572 0
M  V30 14615 O 2566.19 6.33544 -6.1349 0
M  V30 14616 O 2565.65 6.7751 -3.72168 0
M  V30 14617 C 2564.71 7.20825 -2.7076 0
M  V30 14618 C 2565.44 7.45864 -1.40599 0
M  V30 14619 O 2565.65 6.17651 -0.734225 0
M  V30 14620 C 2566.84 8.05808 -1.51899 0
M  V30 14621 O 2567.23 8.74358 -0.335205 0
M  V30 14622 C 2567.72 6.83093 -1.70294 0
M  V30 14623 C 2567.01 5.79992 -0.836974 0
M  V30 14624 N 2567.06 4.41864 -1.38293 0
M  V30 14625 C 2566.98 3.99538 -2.69438 0
M  V30 14626 N 2567.06 2.69909 -2.84277 0
M  V30 14627 C 2567.2 2.21719 -1.5408 0
M  V30 14628 C 2567.33 0.891712 -1.06628 0
M  V30 14629 O 2567.35 -0.161298 -1.70137 0
M  V30 14630 N 2567.45 0.856846 0.334985 0
M  V30 14631 C 2567.45 1.9641 1.15789 0
M  V30 14632 N 2567.58 1.72708 2.46522 0
M  V30 14633 N 2567.32 3.21165 0.713741 0
M  V30 14634 C 2567.2 3.26797 -0.639748 0
M  V30 14635 H 2564.23 8.13644 -3.0377 0
M  V30 14636 H 2563.96 6.42788 -2.55485 0
M  V30 14637 H 2564.82 8.12039 -0.792769 0
M  V30 14638 H 2567.48 5.80061 0.166416 0
M  V30 14639 H 2567.76 6.51287 -2.75604 0
M  V30 14640 H 2568.75 7.01734 -1.34462 0
M  V30 14641 H 2566.91 8.73674 -2.38337 0
M  V30 14642 H 2566.87 4.68207 -3.53221 0
M  V30 14643 H 2567.55 -0.0398818 0.767965 0
M  V30 14644 H 2567.58 2.50995 3.13503 0
M  V30 14645 H 2567.69 0.759148 2.80716 0
M  V30 14646 P 2568.78 8.91 -6.72738e-11 0
M  V30 14647 O 2569 10.1726 0.733694 0
M  V30 14648 O 2569.57 8.73148 -1.23936 0
M  V30 14649 O 2569.03 7.66872 0.971405 0
M  V30 14650 C 2568.09 7.42309 2.04641 0
M  V30 14651 C 2568.82 6.86059 3.24661 0
M  V30 14652 O 2569.03 5.42847 3.03646 0
M  V30 14653 C 2570.22 7.41196 3.50753 0
M  V30 14654 O 2570.61 7.27073 4.86816 0
M  V30 14655 C 2571.1 6.5273 2.63741 0
M  V30 14656 C 2570.39 5.1842 2.73198 0
M  V30 14657 N 2570.44 4.38762 1.4784 0
M  V30 14658 H 2567.61 8.36803 2.32493 0
M  V30 14659 H 2567.34 6.70197 1.71129 0
M  V30 14660 H 2568.2 7.03551 4.13168 0
M  V30 14661 P 2572.16 7.20834 5.23717 0
M  V30 14662 O 2572.38 7.7993 6.57351 0
M  V30 14663 O 2572.95 7.79328 4.13004 0
M  V30 14664 O 2572.41 5.63315 5.29344 0
M  V30 14665 C 2571.47 4.80255 6.01876 0
M  V30 14666 C 2572.2 3.64202 6.65911 0
M  V30 14667 O 2572.41 2.60694 5.64732 0
M  V30 14668 C 2573.6 3.93473 7.1943 0
M  V30 14669 O 2573.99 3.02071 8.21205 0
M  V30 14670 C 2574.48 3.73047 5.97036 0
M  V30 14671 C 2573.77 2.58828 5.25741 0
M  V30 14672 N 2573.82 2.6801 3.77422 0
M  V30 14673 C 2573.97 1.50173 3.05038 0
M  V30 14674 O 2574.06 0.428832 3.665 0
M  V30 14675 N 2574.02 1.70922 1.55541 0
M  V30 14676 C 2573.92 2.7407 1.06402 0
M  V30 14677 N 2573.97 2.74764 -0.260931 0
M  V30 14678 C 2573.77 3.96781 1.78296 0
M  V30 14679 C 2573.72 3.87909 3.13891 0
M  V30 14680 H 2570.98 5.4027 6.79873 0
M  V30 14681 H 2570.72 4.41549 5.32301 0
M  V30 14682 H 2571.58 3.26371 7.47889 0
M  V30 14683 H 2574.24 1.63978 5.5665 0
M  V30 14684 H 2574.52 4.63439 5.3432 0
M  V30 14685 H 2575.51 3.44728 6.25838 0
M  V30 14686 H 2573.67 4.96652 7.57263 0
M  V30 14687 H 2573.6 4.78425 3.73088 0
M  V30 14688 H 2573.7 4.92593 1.26997 0
M  V30 14689 H 2574.09 1.86285 -0.77595 0
M  V30 14690 H 2573.9 3.63657 -0.773896 0
M  V30 14691 P 2575.54 2.75334 8.47391 0
M  V30 14692 O 2575.76 2.44571 9.90142 0
M  V30 14693 O 2576.33 3.87688 7.92115 0
M  V30 14694 O 2575.79 1.4459 7.59357 0
M  V30 14695 C 2574.85 0.347608 7.69215 0
M  V30 14696 C 2575.58 -0.96767 7.52806 0
M  V30 14697 O 2575.79 -1.21036 6.1011 0
M  V30 14698 C 2576.98 -1.04544 8.13308 0
M  V30 14699 O 2577.37 -2.38311 8.41922 0
M  V30 14700 C 2577.86 -0.491279 7.02284 0
M  V30 14701 C 2577.15 -0.996264 5.77469 0
M  V30 14702 N 2577.2 -0.0501916 4.62973 0
M  V30 14703 H 2574.37 0.374722 8.67691 0
M  V30 14704 H 2574.1 0.443485 6.90277 0
M  V30 14705 H 2574.96 -1.75537 7.96793 0
M  V30 14706 P 2578.92 -2.75334 8.47391 0
M  V30 14707 O 2579.14 -3.84128 9.44797 0
M  V30 14708 O 2579.71 -1.51947 8.68712 0
M  V30 14709 O 2579.17 -3.29363 6.99321 0
M  V30 14710 C 2578.23 -4.24011 6.4274 0
M  V30 14711 C 2578.96 -5.20775 5.52155 0
M  V30 14712 O 2579.17 -4.56534 4.22446 0
M  V30 14713 C 2580.36 -5.62629 5.96531 0
M  V30 14714 O 2580.75 -6.87667 5.41053 0
M  V30 14715 C 2581.24 -4.52537 5.39283 0
M  V30 14716 C 2580.53 -4.20027 4.08623 0
M  V30 14717 N 2580.58 -2.76189 3.71603 0
M  V30 14718 H 2577.75 -4.797 7.24003 0
M  V30 14719 H 2577.48 -3.69856 5.84513 0
M  V30 14720 H 2578.34 -6.10356 5.41441 0
M  V30 14721 P 2582.3 -7.20834 5.23717 0
M  V30 14722 O 2582.52 -8.66104 5.38572 0
M  V30 14723 O 2583.09 -6.33544 6.1349 0
M  V30 14724 O 2582.55 -6.7751 3.72168 0
M  V30 14725 C 2581.61 -7.20825 2.7076 0
M  V30 14726 C 2582.34 -7.45864 1.40599 0
M  V30 14727 O 2582.55 -6.17651 0.734225 0
M  V30 14728 C 2583.74 -8.05808 1.51899 0
M  V30 14729 O 2584.13 -8.74358 0.335205 0
M  V30 14730 C 2584.62 -6.83093 1.70294 0
M  V30 14731 C 2583.91 -5.79992 0.836974 0
M  V30 14732 N 2583.96 -4.41864 1.38293 0
M  V30 14733 H 2581.13 -8.13644 3.0377 0
M  V30 14734 H 2580.86 -6.42788 2.55485 0
M  V30 14735 H 2581.72 -8.12039 0.792769 0
M  V30 14736 P 2585.68 -8.91 6.83828e-11 0
M  V30 14737 O 2585.9 -10.1726 -0.733694 0
M  V30 14738 O 2586.47 -8.73148 1.23936 0
M  V30 14739 O 2585.93 -7.66872 -0.971405 0
M  V30 14740 C 2584.99 -7.42309 -2.04641 0
M  V30 14741 C 2585.72 -6.86059 -3.24661 0
M  V30 14742 O 2585.93 -5.42847 -3.03646 0
M  V30 14743 C 2587.12 -7.41196 -3.50753 0
M  V30 14744 O 2587.51 -7.27073 -4.86816 0
M  V30 14745 C 2588 -6.5273 -2.63741 0
M  V30 14746 C 2587.29 -5.1842 -2.73198 0
M  V30 14747 N 2587.34 -4.38762 -1.4784 0
M  V30 14748 H 2584.51 -8.36803 -2.32493 0
M  V30 14749 H 2584.24 -6.70197 -1.71129 0
M  V30 14750 H 2585.1 -7.03551 -4.13168 0
M  V30 14751 P 2589.06 -7.20834 -5.23717 0
M  V30 14752 O 2589.28 -7.79853 -6.57286 0
M  V30 14753 O 2589.85 -7.79239 -4.12957 0
M  V30 14754 O 2589.31 -5.63315 -5.29344 0
M  V30 14755 C 2588.37 -4.80255 -6.01876 0
M  V30 14756 C 2589.1 -3.64202 -6.65911 0
M  V30 14757 O 2589.31 -2.60694 -5.64732 0
M  V30 14758 C 2590.5 -3.93473 -7.1943 0
M  V30 14759 O 2590.89 -3.02071 -8.21205 0
M  V30 14760 C 2591.38 -3.73047 -5.97036 0
M  V30 14761 C 2590.67 -2.58828 -5.25741 0
M  V30 14762 N 2590.72 -2.68068 -3.77503 0
M  V30 14763 H 2587.89 -5.40332 -6.79951 0
M  V30 14764 H 2587.62 -4.41613 -5.32378 0
M  V30 14765 H 2588.48 -3.26331 -7.47797 0
M  V30 14766 P 2592.44 -2.75334 -8.47391 0
M  V30 14767 O 2592.66 -2.44571 -9.90142 0
M  V30 14768 O 2593.23 -3.87688 -7.92115 0
M  V30 14769 O 2592.69 -1.4459 -7.59357 0
M  V30 14770 C 2591.75 -0.347608 -7.69215 0
M  V30 14771 C 2592.48 0.96767 -7.52806 0
M  V30 14772 O 2592.69 1.21036 -6.1011 0
M  V30 14773 C 2593.88 1.04544 -8.13308 0
M  V30 14774 O 2594.27 2.38311 -8.41922 0
M  V30 14775 C 2594.76 0.491279 -7.02284 0
M  V30 14776 C 2594.05 0.996264 -5.77469 0
M  V30 14777 N 2594.1 0.0501916 -4.62973 0
M  V30 14778 H 2591.27 -0.374722 -8.67691 0
M  V30 14779 H 2591 -0.443485 -6.90277 0
M  V30 14780 H 2591.86 1.75537 -7.96793 0
M  V30 14781 P 2595.82 2.75334 -8.47391 0
M  V30 14782 O 2596.04 3.84128 -9.44797 0
M  V30 14783 O 2596.61 1.51947 -8.68712 0
M  V30 14784 O 2596.07 3.29363 -6.99321 0
M  V30 14785 C 2595.13 4.24011 -6.4274 0
M  V30 14786 C 2595.86 5.20775 -5.52155 0
M  V30 14787 O 2596.07 4.56534 -4.22446 0
M  V30 14788 C 2597.26 5.62629 -5.96531 0
M  V30 14789 O 2597.65 6.87667 -5.41053 0
M  V30 14790 C 2598.14 4.52537 -5.39283 0
M  V30 14791 C 2597.43 4.20027 -4.08623 0
M  V30 14792 N 2597.48 2.76189 -3.71603 0
M  V30 14793 H 2594.65 4.797 -7.24003 0
M  V30 14794 H 2594.38 3.69856 -5.84513 0
M  V30 14795 H 2595.24 6.10356 -5.41441 0
M  V30 14796 P 2599.2 7.20834 -5.23717 0
M  V30 14797 O 2599.42 8.66104 -5.38572 0
M  V30 14798 O 2599.99 6.33544 -6.1349 0
M  V30 14799 O 2599.45 6.7751 -3.72168 0
M  V30 14800 C 2598.51 7.20825 -2.7076 0
M  V30 14801 C 2599.24 7.45864 -1.40599 0
M  V30 14802 O 2599.45 6.17651 -0.734225 0
M  V30 14803 C 2600.64 8.05808 -1.51899 0
M  V30 14804 O 2601.03 8.74358 -0.335205 0
M  V30 14805 C 2601.52 6.83093 -1.70294 0
M  V30 14806 C 2600.81 5.79992 -0.836974 0
M  V30 14807 N 2600.86 4.41864 -1.38293 0
M  V30 14808 H 2598.03 8.13644 -3.0377 0
M  V30 14809 H 2597.76 6.42788 -2.55485 0
M  V30 14810 H 2598.62 8.12039 -0.792769 0
M  V30 14811 P 2602.58 8.91 -6.94918e-11 0
M  V30 14812 O 2602.8 10.1726 0.733694 0
M  V30 14813 O 2603.37 8.73148 -1.23936 0
M  V30 14814 O 2602.83 7.66872 0.971405 0
M  V30 14815 C 2601.89 7.42309 2.04641 0
M  V30 14816 C 2602.62 6.86059 3.24661 0
M  V30 14817 O 2602.83 5.42847 3.03646 0
M  V30 14818 C 2604.02 7.41196 3.50753 0
M  V30 14819 O 2604.41 7.27073 4.86816 0
M  V30 14820 C 2604.9 6.5273 2.63741 0
M  V30 14821 C 2604.19 5.1842 2.73198 0
M  V30 14822 N 2604.24 4.38762 1.4784 0
M  V30 14823 H 2601.41 8.36803 2.32493 0
M  V30 14824 H 2601.14 6.70197 1.71129 0
M  V30 14825 H 2602 7.03551 4.13168 0
M  V30 14826 P 2605.96 7.20834 5.23717 0
M  V30 14827 O 2606.18 7.79853 6.57286 0
M  V30 14828 O 2606.75 7.79239 4.12957 0
M  V30 14829 O 2606.21 5.63315 5.29344 0
M  V30 14830 C 2605.27 4.80255 6.01876 0
M  V30 14831 C 2606 3.64202 6.65911 0
M  V30 14832 O 2606.21 2.60694 5.64732 0
M  V30 14833 C 2607.4 3.93473 7.1943 0
M  V30 14834 O 2607.79 3.02071 8.21205 0
M  V30 14835 C 2608.28 3.73047 5.97036 0
M  V30 14836 C 2607.57 2.58828 5.25741 0
M  V30 14837 N 2607.62 2.68068 3.77503 0
M  V30 14838 H 2604.79 5.40332 6.79951 0
M  V30 14839 H 2604.52 4.41613 5.32378 0
M  V30 14840 H 2605.38 3.26331 7.47797 0
M  V30 14841 P 2609.34 2.75334 8.47391 0
M  V30 14842 O 2609.56 2.44571 9.90142 0
M  V30 14843 O 2610.13 3.87688 7.92115 0
M  V30 14844 O 2609.59 1.4459 7.59357 0
M  V30 14845 C 2608.65 0.347608 7.69215 0
M  V30 14846 C 2609.38 -0.96767 7.52806 0
M  V30 14847 O 2609.59 -1.21036 6.1011 0
M  V30 14848 C 2610.78 -1.04544 8.13308 0
M  V30 14849 O 2611.17 -2.38311 8.41922 0
M  V30 14850 C 2611.66 -0.491279 7.02284 0
M  V30 14851 C 2610.95 -0.996264 5.77469 0
M  V30 14852 N 2611 -0.0501916 4.62973 0
M  V30 14853 H 2608.17 0.374722 8.67691 0
M  V30 14854 H 2607.9 0.443485 6.90277 0
M  V30 14855 H 2608.76 -1.75537 7.96793 0
M  V30 14856 P 2612.72 -2.75334 8.47391 0
M  V30 14857 O 2612.94 -3.84128 9.44797 0
M  V30 14858 O 2613.51 -1.51947 8.68712 0
M  V30 14859 O 2612.97 -3.29363 6.99321 0
M  V30 14860 C 2612.03 -4.24011 6.4274 0
M  V30 14861 C 2612.76 -5.20775 5.52155 0
M  V30 14862 O 2612.97 -4.56534 4.22446 0
M  V30 14863 C 2614.16 -5.62629 5.96531 0
M  V30 14864 O 2614.55 -6.87667 5.41053 0
M  V30 14865 C 2615.04 -4.52537 5.39283 0
M  V30 14866 C 2614.33 -4.20027 4.08623 0
M  V30 14867 N 2614.38 -2.76189 3.71603 0
M  V30 14868 H 2611.55 -4.797 7.24003 0
M  V30 14869 H 2611.28 -3.69856 5.84513 0
M  V30 14870 H 2612.14 -6.10356 5.41441 0
M  V30 14871 P 2616.1 -7.20834 5.23717 0
M  V30 14872 O 2616.32 -8.66189 5.38625 0
M  V30 14873 O 2616.89 -6.33615 6.1356 0
M  V30 14874 O 2616.35 -6.7751 3.72168 0
M  V30 14875 C 2615.41 -7.20732 2.70725 0
M  V30 14876 C 2616.14 -7.45864 1.40599 0
M  V30 14877 O 2616.35 -6.17651 0.734225 0
M  V30 14878 C 2617.54 -8.05808 1.51899 0
M  V30 14879 O 2617.93 -8.74358 0.335205 0
M  V30 14880 C 2618.42 -6.83093 1.70294 0
M  V30 14881 C 2617.71 -5.79992 0.836974 0
M  V30 14882 N 2617.76 -4.41769 1.38263 0
M  V30 14883 C 2617.91 -3.38591 0.481702 0
M  V30 14884 O 2618 -3.56839 -0.718452 0
M  V30 14885 N 2617.95 -2.1206 1.03569 0
M  V30 14886 C 2617.86 -1.80696 2.36966 0
M  V30 14887 C 2617.71 -2.94845 3.23898 0
M  V30 14888 C 2617.66 -4.19803 2.73435 0
M  V30 14889 H 2614.92 -8.13644 3.0377 0
M  V30 14890 H 2614.66 -6.42695 2.55448 0
M  V30 14891 H 2615.52 -8.12039 0.792769 0
M  V30 14892 H 2618.18 -5.79978 -0.160587 0
M  V30 14893 H 2618.46 -6.51379 2.75643 0
M  V30 14894 H 2619.45 -7.01734 1.34462 0
M  V30 14895 H 2617.61 -8.73674 2.38337 0
M  V30 14896 H 2617.54 -5.04492 3.4095 0
M  V30 14897 P 2619.48 -8.91 7.06008e-11 0
M  V30 14898 O 2619.7 -10.1726 -0.733694 0
M  V30 14899 O 2620.27 -8.73148 1.23936 0
M  V30 14900 O 2619.73 -7.66872 -0.971405 0
M  V30 14901 C 2618.79 -7.42309 -2.04641 0
M  V30 14902 C 2619.52 -6.86059 -3.24661 0
M  V30 14903 O 2619.73 -5.42847 -3.03646 0
M  V30 14904 C 2620.92 -7.41196 -3.50753 0
M  V30 14905 O 2621.31 -7.27073 -4.86816 0
M  V30 14906 C 2621.8 -6.5273 -2.63741 0
M  V30 14907 C 2621.09 -5.1842 -2.73198 0
M  V30 14908 N 2621.14 -4.38762 -1.4784 0
M  V30 14909 H 2618.31 -8.36803 -2.32493 0
M  V30 14910 H 2618.04 -6.70197 -1.71129 0
M  V30 14911 H 2618.9 -7.03551 -4.13168 0
M  V30 14912 P 2622.86 -7.20834 -5.23717 0
M  V30 14913 O 2623.08 -7.80006 -6.57415 0
M  V30 14914 O 2623.65 -7.79416 -4.13051 0
M  V30 14915 O 2623.11 -5.63315 -5.29344 0
M  V30 14916 C 2622.17 -4.80318 -6.01954 0
M  V30 14917 C 2622.9 -3.64202 -6.65911 0
M  V30 14918 O 2623.11 -2.60736 -5.64823 0
M  V30 14919 C 2624.3 -3.93521 -7.19518 0
M  V30 14920 O 2624.69 -3.02071 -8.21205 0
M  V30 14921 C 2625.18 -3.73047 -5.97036 0
M  V30 14922 C 2624.47 -2.58828 -5.25741 0
M  V30 14923 N 2624.52 -2.68068 -3.77503 0
M  V30 14924 C 2624.44 -3.80474 -2.99159 0
M  V30 14925 N 2624.51 -3.55622 -1.71925 0
M  V30 14926 C 2624.66 -2.1832 -1.65733 0
M  V30 14927 C 2624.79 -1.28842 -0.572777 0
M  V30 14928 N 2624.8 -1.66875 0.70098 0
M  V30 14929 N 2624.91 0.016788 -0.859836 0
M  V30 14930 C 2624.9 0.398145 -2.13316 0
M  V30 14931 N 2624.78 -0.328224 -3.22333 0
M  V30 14932 C 2624.66 -1.62992 -2.90383 0
M  V30 14933 H 2621.69 -5.40394 -6.8003 0
M  V30 14934 H 2621.41 -4.41741 -5.32532 0
M  V30 14935 H 2622.28 -3.26371 -7.47889 0
M  V30 14936 H 2624.94 -1.64007 -5.56746 0
M  V30 14937 H 2625.22 -4.63439 -5.3432 0
M  V30 14938 H 2626.21 -3.44776 -6.25925 0
M  V30 14939 H 2624.37 -4.96707 -7.57347 0
M  V30 14940 H 2624.33 -4.8089 -3.39924 0
M  V30 14941 H 2624.71 -2.66547 0.941919 0
M  V30 14942 H 2624.9 -0.965341 1.44766 0
M  V30 14943 H 2625.01 1.46427 -2.29697 0
M  V30 14944 P 2626.24 -2.75334 -8.47391 0
M  V30 14945 O 2626.46 -2.44571 -9.90142 0
M  V30 14946 O 2627.03 -3.87688 -7.92115 0
M  V30 14947 O 2626.49 -1.4459 -7.59357 0
M  V30 14948 C 2625.55 -0.347608 -7.69215 0
M  V30 14949 C 2626.28 0.96767 -7.52806 0
M  V30 14950 O 2626.49 1.21036 -6.1011 0
M  V30 14951 C 2627.68 1.04544 -8.13308 0
M  V30 14952 O 2628.07 2.38311 -8.41922 0
M  V30 14953 C 2628.56 0.491279 -7.02284 0
M  V30 14954 C 2627.85 0.996264 -5.77469 0
M  V30 14955 N 2627.9 0.0501916 -4.62973 0
M  V30 14956 C 2627.82 -1.32786 -4.63244 0
M  V30 14957 N 2627.9 -1.86957 -3.44545 0
M  V30 14958 C 2628.04 -0.780241 -2.58481 0
M  V30 14959 C 2628.17 -0.738536 -1.17757 0
M  V30 14960 N 2628.29 0.58337 -0.711393 0
M  V30 14961 C 2628.29 1.70816 -1.51017 0
M  V30 14962 N 2628.42 2.87826 -0.880757 0
M  V30 14963 N 2628.16 1.67126 -2.8339 0
M  V30 14964 C 2628.04 0.401421 -3.30572 0
M  V30 14965 H 2625.07 -0.374722 -8.67691 0
M  V30 14966 H 2624.8 -0.443485 -6.90277 0
M  V30 14967 H 2625.66 1.75537 -7.96793 0
M  V30 14968 P 2629.62 2.75334 -8.47391 0
M  V30 14969 O 2629.84 3.84128 -9.44797 0
M  V30 14970 O 2630.41 1.51947 -8.68712 0
M  V30 14971 O 2629.87 3.29363 -6.99321 0
M  V30 14972 C 2628.93 4.24011 -6.4274 0
M  V30 14973 C 2629.66 5.20775 -5.52155 0
M  V30 14974 O 2629.87 4.56534 -4.22446 0
M  V30 14975 C 2631.06 5.62629 -5.96531 0
M  V30 14976 O 2631.45 6.87667 -5.41053 0
M  V30 14977 C 2631.94 4.52537 -5.39283 0
M  V30 14978 C 2631.23 4.20027 -4.08623 0
M  V30 14979 N 2631.28 2.76189 -3.71603 0
M  V30 14980 H 2628.45 4.797 -7.24003 0
M  V30 14981 H 2628.18 3.69856 -5.84513 0
M  V30 14982 H 2629.04 6.10356 -5.41441 0
M  V30 14983 P 2633 7.20834 -5.23717 0
M  V30 14984 O 2633.22 8.66189 -5.38625 0
M  V30 14985 O 2633.79 6.33615 -6.1356 0
M  V30 14986 O 2633.25 6.7751 -3.72168 0
M  V30 14987 C 2632.31 7.20732 -2.70725 0
M  V30 14988 C 2633.04 7.45864 -1.40599 0
M  V30 14989 O 2633.25 6.17651 -0.734225 0
M  V30 14990 C 2634.44 8.05808 -1.51899 0
M  V30 14991 O 2634.83 8.74358 -0.335205 0
M  V30 14992 C 2635.32 6.83093 -1.70294 0
M  V30 14993 C 2634.61 5.79992 -0.836974 0
M  V30 14994 N 2634.66 4.41769 -1.38263 0
M  V30 14995 C 2634.81 3.38591 -0.481702 0
M  V30 14996 O 2634.9 3.56839 0.718452 0
M  V30 14997 N 2634.85 2.1206 -1.03569 0
M  V30 14998 C 2634.76 1.80696 -2.36966 0
M  V30 14999 O 2634.81 0.630473 -2.74862 0
M  V30 15000 C 2634.61 2.94845 -3.23898 0
M  V30 15001 C 2634.5 2.65253 -4.70362 0
M  V30 15002 C 2634.56 4.19803 -2.73435 0
M  V30 15003 H 2631.82 8.13644 -3.0377 0
M  V30 15004 H 2631.56 6.42695 -2.55448 0
M  V30 15005 H 2632.42 8.12039 -0.792769 0
M  V30 15006 H 2635.08 5.79978 0.160587 0
M  V30 15007 H 2635.36 6.51379 -2.75643 0
M  V30 15008 H 2636.35 7.01734 -1.34462 0
M  V30 15009 H 2634.51 8.73674 -2.38337 0
M  V30 15010 H 2634.44 5.04492 -3.4095 0
M  V30 15011 H 2635.47 2.83924 -5.1913 0
M  V30 15012 H 2633.74 3.29824 -5.15163 0
M  V30 15013 H 2634.22 1.59723 -4.84449 0
M  V30 15014 H 2634.96 1.35644 -0.399345 0
M  V30 15015 P 2636.38 8.91 -7.17098e-11 0
M  V30 15016 O 2636.6 10.1746 0.733838 0
M  V30 15017 O 2637.17 8.73346 -1.23964 0
M  V30 15018 O 2636.63 7.66872 0.971405 0
M  V30 15019 C 2635.69 7.42405 2.04668 0
M  V30 15020 C 2636.42 6.86059 3.24661 0
M  V30 15021 O 2636.63 5.42934 3.03695 0
M  V30 15022 C 2637.82 7.41287 3.50796 0
M  V30 15023 O 2638.21 7.27073 4.86816 0
M  V30 15024 C 2638.7 6.5273 2.63741 0
M  V30 15025 C 2637.99 5.1842 2.73198 0
M  V30 15026 N 2638.04 4.38762 1.4784 0
M  V30 15027 C 2637.96 4.83651 0.183876 0
M  V30 15028 N 2638.03 3.88759 -0.699393 0
M  V30 15029 C 2638.18 2.7404 0.0575568 0
M  V30 15030 C 2638.31 1.37902 -0.293928 0
M  V30 15031 N 2638.32 0.938021 -1.54797 0
M  V30 15032 N 2638.43 0.491817 0.70549 0
M  V30 15033 C 2638.42 0.931735 1.95979 0
M  V30 15034 N 2638.3 2.16017 2.41481 0
M  V30 15035 C 2638.18 3.02547 1.39121 0
M  V30 15036 H 2635.21 8.36899 2.3252 0
M  V30 15037 H 2634.93 6.70391 1.71179 0
M  V30 15038 H 2635.8 7.03638 4.13219 0
M  V30 15039 H 2638.46 4.59931 3.54016 0
M  V30 15040 H 2638.74 6.88995 1.59871 0
M  V30 15041 H 2639.73 6.4684 3.0373 0
M  V30 15042 H 2637.89 8.47002 3.20749 0
M  V30 15043 H 2637.85 5.8885 -0.0765548 0
M  V30 15044 H 2638.23 1.60276 -2.32875 0
M  V30 15045 H 2638.42 -0.0699355 -1.73859 0
M  V30 15046 H 2638.53 0.165507 2.71897 0
M  V30 15047 P 2639.76 7.20834 5.23717 0
M  V30 15048 O 2639.98 7.79853 6.57286 0
M  V30 15049 O 2640.55 7.79239 4.12957 0
M  V30 15050 O 2640.01 5.63315 5.29344 0
M  V30 15051 C 2639.07 4.80255 6.01876 0
M  V30 15052 C 2639.8 3.64202 6.65911 0
M  V30 15053 O 2640.01 2.60694 5.64732 0
M  V30 15054 C 2641.2 3.93473 7.1943 0
M  V30 15055 O 2641.59 3.02071 8.21205 0
M  V30 15056 C 2642.08 3.73047 5.97036 0
M  V30 15057 C 2641.37 2.58828 5.25741 0
M  V30 15058 N 2641.42 2.68068 3.77503 0
M  V30 15059 H 2638.59 5.40332 6.79951 0
M  V30 15060 H 2638.32 4.41613 5.32378 0
M  V30 15061 H 2639.18 3.26331 7.47797 0
M  V30 15062 P 2643.14 2.75334 8.47391 0
M  V30 15063 O 2643.36 2.44619 9.90336 0
M  V30 15064 O 2643.93 3.87776 7.92294 0
M  V30 15065 O 2643.39 1.4459 7.59357 0
M  V30 15066 C 2642.45 0.347653 7.69315 0
M  V30 15067 C 2643.18 -0.96767 7.52806 0
M  V30 15068 O 2643.39 -1.21055 6.10208 0
M  V30 15069 C 2644.58 -1.04557 8.13408 0
M  V30 15070 O 2644.97 -2.38311 8.41922 0
M  V30 15071 C 2645.46 -0.491279 7.02284 0
M  V30 15072 C 2644.75 -0.996264 5.77469 0
M  V30 15073 N 2644.8 -0.0501916 4.62973 0
M  V30 15074 H 2641.97 0.374765 8.67791 0
M  V30 15075 H 2641.69 0.443613 6.90476 0
M  V30 15076 H 2642.56 -1.75559 7.96891 0
M  V30 15077 H 2645.22 -1.94563 5.46818 0
M  V30 15078 H 2645.5 0.608651 7.04676 0
M  V30 15079 H 2646.49 -0.889796 7.09039 0
M  V30 15080 H 2644.65 -0.433128 9.04664 0
M  V30 15081 P 2646.52 -2.75334 8.47391 0
M  V30 15082 O 2646.74 -3.84128 9.44797 0
M  V30 15083 O 2647.31 -1.51947 8.68712 0
M  V30 15084 O 2646.77 -3.29363 6.99321 0
M  V30 15085 C 2645.83 -4.24011 6.4274 0
M  V30 15086 C 2646.56 -5.20775 5.52155 0
M  V30 15087 O 2646.77 -4.56534 4.22446 0
M  V30 15088 C 2647.96 -5.62629 5.96531 0
M  V30 15089 O 2648.35 -6.87667 5.41053 0
M  V30 15090 C 2648.84 -4.52537 5.39283 0
M  V30 15091 C 2648.13 -4.20027 4.08623 0
M  V30 15092 N 2648.18 -2.76189 3.71603 0
M  V30 15093 H 2645.35 -4.797 7.24003 0
M  V30 15094 H 2645.08 -3.69856 5.84513 0
M  V30 15095 H 2645.94 -6.10356 5.41441 0
M  V30 15096 P 2649.9 -7.20834 5.23717 0
M  V30 15097 O 2650.12 -8.66104 5.38572 0
M  V30 15098 O 2650.69 -6.33544 6.1349 0
M  V30 15099 O 2650.15 -6.7751 3.72168 0
M  V30 15100 C 2649.21 -7.20825 2.7076 0
M  V30 15101 C 2649.94 -7.45864 1.40599 0
M  V30 15102 O 2650.15 -6.17651 0.734225 0
M  V30 15103 C 2651.34 -8.05808 1.51899 0
M  V30 15104 O 2651.73 -8.74358 0.335205 0
M  V30 15105 C 2652.22 -6.83093 1.70294 0
M  V30 15106 C 2651.51 -5.79992 0.836974 0
M  V30 15107 N 2651.56 -4.41864 1.38293 0
M  V30 15108 H 2648.73 -8.13644 3.0377 0
M  V30 15109 H 2648.46 -6.42788 2.55485 0
M  V30 15110 H 2649.32 -8.12039 0.792769 0
M  V30 15111 P 2653.28 -8.91 7.28188e-11 0
M  V30 15112 O 2653.5 -10.1726 -0.733694 0
M  V30 15113 O 2654.07 -8.73148 1.23936 0
M  V30 15114 O 2653.53 -7.66872 -0.971405 0
M  V30 15115 C 2652.59 -7.42309 -2.04641 0
M  V30 15116 C 2653.32 -6.86059 -3.24661 0
M  V30 15117 O 2653.53 -5.42847 -3.03646 0
M  V30 15118 C 2654.72 -7.41196 -3.50753 0
M  V30 15119 O 2655.11 -7.27073 -4.86816 0
M  V30 15120 C 2655.6 -6.5273 -2.63741 0
M  V30 15121 C 2654.89 -5.1842 -2.73198 0
M  V30 15122 N 2654.94 -4.38762 -1.4784 0
M  V30 15123 H 2652.11 -8.36803 -2.32493 0
M  V30 15124 H 2651.84 -6.70197 -1.71129 0
M  V30 15125 H 2652.7 -7.03551 -4.13168 0
M  V30 15126 P 2656.66 -7.20834 -5.23717 0
M  V30 15127 O 2656.88 -7.79853 -6.57286 0
M  V30 15128 O 2657.45 -7.79239 -4.12957 0
M  V30 15129 O 2656.91 -5.63315 -5.29344 0
M  V30 15130 C 2655.97 -4.80255 -6.01876 0
M  V30 15131 C 2656.7 -3.64202 -6.65911 0
M  V30 15132 O 2656.91 -2.60694 -5.64732 0
M  V30 15133 C 2658.1 -3.93473 -7.1943 0
M  V30 15134 O 2658.49 -3.02071 -8.21205 0
M  V30 15135 C 2658.98 -3.73047 -5.97036 0
M  V30 15136 C 2658.27 -2.58828 -5.25741 0
M  V30 15137 N 2658.32 -2.68068 -3.77503 0
M  V30 15138 H 2655.49 -5.40332 -6.79951 0
M  V30 15139 H 2655.22 -4.41613 -5.32378 0
M  V30 15140 H 2656.08 -3.26331 -7.47797 0
M  V30 15141 P 2660.04 -2.75334 -8.47391 0
M  V30 15142 O 2660.26 -2.44571 -9.90142 0
M  V30 15143 O 2660.83 -3.87688 -7.92115 0
M  V30 15144 O 2660.29 -1.4459 -7.59357 0
M  V30 15145 C 2659.35 -0.347608 -7.69215 0
M  V30 15146 C 2660.08 0.96767 -7.52806 0
M  V30 15147 O 2660.29 1.21036 -6.1011 0
M  V30 15148 C 2661.48 1.04544 -8.13308 0
M  V30 15149 O 2661.87 2.38311 -8.41922 0
M  V30 15150 C 2662.36 0.491279 -7.02284 0
M  V30 15151 C 2661.65 0.996264 -5.77469 0
M  V30 15152 N 2661.7 0.0501916 -4.62973 0
M  V30 15153 H 2658.87 -0.374722 -8.67691 0
M  V30 15154 H 2658.6 -0.443485 -6.90277 0
M  V30 15155 H 2659.46 1.75537 -7.96793 0
M  V30 15156 P 2663.42 2.75334 -8.47391 0
M  V30 15157 O 2663.64 3.84128 -9.44797 0
M  V30 15158 O 2664.21 1.51947 -8.68712 0
M  V30 15159 O 2663.67 3.29363 -6.99321 0
M  V30 15160 C 2662.73 4.24011 -6.4274 0
M  V30 15161 C 2663.46 5.20775 -5.52155 0
M  V30 15162 O 2663.67 4.56534 -4.22446 0
M  V30 15163 C 2664.86 5.62629 -5.96531 0
M  V30 15164 O 2665.25 6.87667 -5.41053 0
M  V30 15165 C 2665.74 4.52537 -5.39283 0
M  V30 15166 C 2665.03 4.20027 -4.08623 0
M  V30 15167 N 2665.08 2.76189 -3.71603 0
M  V30 15168 C 2665 1.64862 -4.52822 0
M  V30 15169 N 2665.08 0.512671 -3.88633 0
M  V30 15170 C 2665.22 0.888083 -2.54977 0
M  V30 15171 C 2665.35 0.094668 -1.38677 0
M  V30 15172 O 2665.37 -1.13053 -1.28163 0
M  V30 15173 N 2665.47 0.890102 -0.232633 0
M  V30 15174 C 2665.47 2.26958 -0.21772 0
M  V30 15175 N 2665.6 2.84626 0.97925 0
M  V30 15176 N 2665.34 3.0178 -1.31033 0
M  V30 15177 C 2665.22 2.26781 -2.43843 0
M  V30 15178 H 2662.25 4.797 -7.24003 0
M  V30 15179 H 2661.98 3.69856 -5.84513 0
M  V30 15180 H 2662.84 6.10356 -5.41441 0
M  V30 15181 H 2665.5 4.79061 -3.27488 0
M  V30 15182 H 2665.78 3.64906 -6.05785 0
M  V30 15183 H 2666.77 4.8868 -5.2125 0
M  V30 15184 H 2664.93 5.66726 -7.06352 0
M  V30 15185 H 2664.89 1.71169 -5.60966 0
M  V30 15186 H 2665.57 0.419134 0.644739 0
M  V30 15187 H 2665.6 3.87332 1.06098 0
M  V30 15188 H 2665.71 2.26417 1.82483 0
M  V30 15189 P 2666.8 7.20834 -5.23717 0
M  V30 15190 O 2667.02 8.66104 -5.38572 0
M  V30 15191 O 2667.59 6.33544 -6.1349 0
M  V30 15192 O 2667.05 6.7751 -3.72168 0
M  V30 15193 C 2666.11 7.20825 -2.7076 0
M  V30 15194 C 2666.84 7.45864 -1.40599 0
M  V30 15195 O 2667.05 6.17651 -0.734225 0
M  V30 15196 C 2668.24 8.05808 -1.51899 0
M  V30 15197 O 2668.63 8.74358 -0.335205 0
M  V30 15198 C 2669.12 6.83093 -1.70294 0
M  V30 15199 C 2668.41 5.79992 -0.836974 0
M  V30 15200 N 2668.46 4.41864 -1.38293 0
M  V30 15201 H 2665.63 8.13644 -3.0377 0
M  V30 15202 H 2665.36 6.42788 -2.55485 0
M  V30 15203 H 2666.22 8.12039 -0.792769 0
M  V30 15204 P 2670.18 8.91 -7.39278e-11 0
M  V30 15205 O 2670.4 10.1746 0.733838 0
M  V30 15206 O 2670.97 8.73346 -1.23964 0
M  V30 15207 O 2670.43 7.66872 0.971405 0
M  V30 15208 C 2669.49 7.42405 2.04668 0
M  V30 15209 C 2670.22 6.86059 3.24661 0
M  V30 15210 O 2670.43 5.42934 3.03695 0
M  V30 15211 C 2671.62 7.41287 3.50796 0
M  V30 15212 O 2672.01 7.27073 4.86816 0
M  V30 15213 C 2672.5 6.5273 2.63741 0
M  V30 15214 C 2671.79 5.1842 2.73198 0
M  V30 15215 N 2671.84 4.38762 1.4784 0
M  V30 15216 H 2669.01 8.36899 2.3252 0
M  V30 15217 H 2668.73 6.70391 1.71179 0
M  V30 15218 H 2669.6 7.03638 4.13219 0
M  V30 15219 H 2672.26 4.59931 3.54016 0
M  V30 15220 H 2672.54 6.88995 1.59871 0
M  V30 15221 H 2673.53 6.4684 3.0373 0
M  V30 15222 H 2671.69 8.47002 3.20749 0
M  V30 15223 P 2673.56 7.20834 5.23717 0
M  V30 15224 O 2673.78 7.79853 6.57286 0
M  V30 15225 O 2674.35 7.79239 4.12957 0
M  V30 15226 O 2673.81 5.63315 5.29344 0
M  V30 15227 C 2672.87 4.80255 6.01876 0
M  V30 15228 C 2673.6 3.64202 6.65911 0
M  V30 15229 O 2673.81 2.60694 5.64732 0
M  V30 15230 C 2675 3.93473 7.1943 0
M  V30 15231 O 2675.39 3.02071 8.21205 0
M  V30 15232 C 2675.88 3.73047 5.97036 0
M  V30 15233 C 2675.17 2.58828 5.25741 0
M  V30 15234 N 2675.22 2.68068 3.77503 0
M  V30 15235 H 2672.39 5.40332 6.79951 0
M  V30 15236 H 2672.12 4.41613 5.32378 0
M  V30 15237 H 2672.98 3.26331 7.47797 0
M  V30 15238 P 2676.94 2.75334 8.47391 0
M  V30 15239 O 2677.16 2.44619 9.90336 0
M  V30 15240 O 2677.73 3.87776 7.92294 0
M  V30 15241 O 2677.19 1.4459 7.59357 0
M  V30 15242 C 2676.25 0.347653 7.69315 0
M  V30 15243 C 2676.98 -0.96767 7.52806 0
M  V30 15244 O 2677.19 -1.21055 6.10208 0
M  V30 15245 C 2678.38 -1.04557 8.13408 0
M  V30 15246 O 2678.77 -2.38311 8.41922 0
M  V30 15247 C 2679.26 -0.491279 7.02284 0
M  V30 15248 C 2678.55 -0.996264 5.77469 0
M  V30 15249 N 2678.6 -0.0501916 4.62973 0
M  V30 15250 H 2675.77 0.374765 8.67791 0
M  V30 15251 H 2675.49 0.443613 6.90476 0
M  V30 15252 H 2676.36 -1.75559 7.96891 0
M  V30 15253 H 2679.02 -1.94563 5.46818 0
M  V30 15254 H 2679.3 0.608651 7.04676 0
M  V30 15255 H 2680.29 -0.889796 7.09039 0
M  V30 15256 H 2678.45 -0.433128 9.04664 0
M  V30 15257 P 2680.32 -2.75334 8.47391 0
M  V30 15258 O 2680.54 -3.84204 9.44982 0
M  V30 15259 O 2681.11 -1.51982 8.68909 0
M  V30 15260 O 2680.57 -3.29363 6.99321 0
M  V30 15261 C 2679.63 -4.24066 6.42823 0
M  V30 15262 C 2680.36 -5.20775 5.52155 0
M  V30 15263 O 2680.57 -4.56607 4.22514 0
M  V30 15264 C 2681.76 -5.62697 5.96604 0
M  V30 15265 O 2682.15 -6.87667 5.41053 0
M  V30 15266 C 2682.64 -4.52537 5.39283 0
M  V30 15267 C 2681.93 -4.20027 4.08623 0
M  V30 15268 N 2681.98 -2.76189 3.71603 0
M  V30 15269 C 2681.9 -1.66944 4.54297 0
M  V30 15270 N 2681.97 -0.536169 3.91344 0
M  V30 15271 C 2682.12 -0.901569 2.58849 0
M  V30 15272 C 2682.25 -0.146599 1.40236 0
M  V30 15273 N 2682.26 1.18234 1.37046 0
M  V30 15274 N 2682.37 -0.822941 0.249738 0
M  V30 15275 C 2682.36 -2.15179 0.280525 0
M  V30 15276 N 2682.24 -2.96414 1.30822 0
M  V30 15277 C 2682.12 -2.25804 2.44748 0
M  V30 15278 H 2679.15 -4.79756 7.24086 0
M  V30 15279 H 2678.87 -3.69963 5.84682 0
M  V30 15280 H 2679.74 -6.10431 5.41508 0
M  V30 15281 H 2682.4 -4.78816 3.28024 0
M  V30 15282 H 2682.68 -3.64957 6.05871 0
M  V30 15283 H 2683.67 -4.88748 5.21323 0
M  V30 15284 H 2681.83 -5.66789 7.0643 0
M  V30 15285 H 2681.79 -1.74684 5.62396 0
M  V30 15286 H 2682.17 1.71949 2.24394 0
M  V30 15287 H 2682.36 1.67511 0.470742 0
M  V30 15288 H 2682.47 -2.63704 -0.6828 0
M  V30 15289 P 2683.7 -7.20834 5.23717 0
M  V30 15290 O 2683.92 -8.66274 5.38678 0
M  V30 15291 O 2684.49 -6.33687 6.13629 0
M  V30 15292 O 2683.95 -6.7751 3.72168 0
M  V30 15293 C 2683.01 -7.20919 2.70795 0
M  V30 15294 C 2683.74 -7.45864 1.40599 0
M  V30 15295 O 2683.95 -6.17751 0.734343 0
M  V30 15296 C 2685.14 -8.05906 1.51917 0
M  V30 15297 O 2685.53 -8.74358 0.335205 0
M  V30 15298 C 2686.02 -6.83093 1.70294 0
M  V30 15299 C 2685.31 -5.79992 0.836974 0
M  V30 15300 N 2685.36 -4.41864 1.38293 0
M  V30 15301 H 2682.53 -8.13738 3.03804 0
M  V30 15302 H 2682.25 -6.42974 2.55559 0
M  V30 15303 H 2683.12 -8.12139 0.792866 0
M  V30 15304 H 2685.78 -5.80178 -0.160643 0
M  V30 15305 H 2686.06 -6.51379 2.75643 0
M  V30 15306 H 2687.05 -7.01832 1.3448 0
M  V30 15307 H 2685.21 -8.73771 2.38364 0
M  V30 15308 P 2687.08 -8.91 7.50368e-11 0
M  V30 15309 O 2687.3 -10.1746 -0.733838 0
M  V30 15310 O 2687.87 -8.73346 1.23964 0
M  V30 15311 O 2687.33 -7.66872 -0.971405 0
M  V30 15312 C 2686.39 -7.42405 -2.04668 0
M  V30 15313 C 2687.12 -6.86059 -3.24661 0
M  V30 15314 O 2687.33 -5.42934 -3.03695 0
M  V30 15315 C 2688.52 -7.41287 -3.50796 0
M  V30 15316 O 2688.91 -7.27073 -4.86816 0
M  V30 15317 C 2689.4 -6.5273 -2.63741 0
M  V30 15318 C 2688.69 -5.1842 -2.73198 0
M  V30 15319 N 2688.74 -4.38762 -1.4784 0
M  V30 15320 H 2685.91 -8.36899 -2.3252 0
M  V30 15321 H 2685.63 -6.70391 -1.71179 0
M  V30 15322 H 2686.5 -7.03638 -4.13219 0
M  V30 15323 H 2689.16 -4.59931 -3.54016 0
M  V30 15324 H 2689.44 -6.88995 -1.59871 0
M  V30 15325 H 2690.43 -6.4684 -3.0373 0
M  V30 15326 H 2688.59 -8.47002 -3.20749 0
M  V30 15327 P 2690.46 -7.20834 -5.23717 0
M  V30 15328 O 2690.68 -7.79853 -6.57286 0
M  V30 15329 O 2691.25 -7.79239 -4.12957 0
M  V30 15330 O 2690.71 -5.63315 -5.29344 0
M  V30 15331 C 2689.77 -4.80255 -6.01876 0
M  V30 15332 C 2690.5 -3.64202 -6.65911 0
M  V30 15333 O 2690.71 -2.60694 -5.64732 0
M  V30 15334 C 2691.9 -3.93473 -7.1943 0
M  V30 15335 O 2692.29 -3.02071 -8.21205 0
M  V30 15336 C 2692.78 -3.73047 -5.97036 0
M  V30 15337 C 2692.07 -2.58828 -5.25741 0
M  V30 15338 N 2692.12 -2.68068 -3.77503 0
M  V30 15339 H 2689.29 -5.40332 -6.79951 0
M  V30 15340 H 2689.02 -4.41613 -5.32378 0
M  V30 15341 H 2689.88 -3.26331 -7.47797 0
M  V30 15342 P 2693.84 -2.75334 -8.47391 0
M  V30 15343 O 2694.06 -2.44595 -9.90239 0
M  V30 15344 O 2694.63 -3.87732 -7.92204 0
M  V30 15345 O 2694.09 -1.4459 -7.59357 0
M  V30 15346 C 2693.15 -0.347608 -7.69215 0
M  V30 15347 C 2693.88 0.96767 -7.52806 0
M  V30 15348 O 2694.09 1.21036 -6.1011 0
M  V30 15349 C 2695.28 1.04544 -8.13308 0
M  V30 15350 O 2695.67 2.38311 -8.41922 0
M  V30 15351 C 2696.16 0.491279 -7.02284 0
M  V30 15352 C 2695.45 0.996264 -5.77469 0
M  V30 15353 N 2695.5 0.0501808 -4.62873 0
M  V30 15354 C 2695.65 0.578037 -3.3505 0
M  V30 15355 O 2695.74 1.8073 -3.21711 0
M  V30 15356 N 2695.7 -0.468541 -2.263 0
M  V30 15357 C 2695.6 -1.59186 -2.47176 0
M  V30 15358 N 2695.65 -2.37626 -1.40392 0
M  V30 15359 C 2695.45 -2.16203 -3.77467 0
M  V30 15360 C 2695.4 -1.29324 -4.8195 0
M  V30 15361 H 2692.66 -0.374679 -8.67591 0
M  V30 15362 H 2692.4 -0.443421 -6.90177 0
M  V30 15363 H 2693.26 1.75559 -7.96891 0
M  V30 15364 H 2695.92 1.94529 -5.46723 0
M  V30 15365 H 2696.2 -0.608651 -7.04676 0
M  V30 15366 H 2697.19 0.889672 -7.08939 0
M  V30 15367 H 2695.35 0.43308 -9.04564 0
M  V30 15368 H 2695.28 -1.67758 -5.83046 0
M  V30 15369 H 2695.38 -3.23869 -3.92281 0
M  V30 15370 H 2695.77 -1.96317 -0.467202 0
M  V30 15371 H 2695.58 -3.39693 -1.51142 0
M  V30 15372 P 2697.22 2.75334 -8.47391 0
M  V30 15373 O 2697.44 3.84204 -9.44982 0
M  V30 15374 O 2698.01 1.51982 -8.68909 0
M  V30 15375 O 2697.47 3.29363 -6.99321 0
M  V30 15376 C 2696.53 4.24066 -6.42823 0
M  V30 15377 C 2697.26 5.20775 -5.52155 0
M  V30 15378 O 2697.47 4.56607 -4.22514 0
M  V30 15379 C 2698.66 5.62697 -5.96604 0
M  V30 15380 O 2699.05 6.87667 -5.41053 0
M  V30 15381 C 2699.54 4.52537 -5.39283 0
M  V30 15382 C 2698.83 4.20027 -4.08623 0
M  V30 15383 N 2698.88 2.76189 -3.71603 0
M  V30 15384 C 2698.8 1.66944 -4.54297 0
M  V30 15385 N 2698.87 0.536169 -3.91344 0
M  V30 15386 C 2699.02 0.901569 -2.58849 0
M  V30 15387 C 2699.15 0.146599 -1.40236 0
M  V30 15388 N 2699.16 -1.18234 -1.37046 0
M  V30 15389 N 2699.27 0.822941 -0.249738 0
M  V30 15390 C 2699.26 2.15179 -0.280525 0
M  V30 15391 N 2699.14 2.96414 -1.30822 0
M  V30 15392 C 2699.02 2.25804 -2.44748 0
M  V30 15393 H 2696.05 4.79756 -7.24086 0
M  V30 15394 H 2695.77 3.69963 -5.84682 0
M  V30 15395 H 2696.64 6.10431 -5.41508 0
M  V30 15396 H 2699.3 4.78816 -3.28024 0
M  V30 15397 H 2699.58 3.64957 -6.05871 0
M  V30 15398 H 2700.57 4.88748 -5.21323 0
M  V30 15399 H 2698.73 5.66789 -7.0643 0
M  V30 15400 H 2698.69 1.74684 -5.62396 0
M  V30 15401 H 2699.07 -1.71949 -2.24394 0
M  V30 15402 H 2699.26 -1.67511 -0.470742 0
M  V30 15403 H 2699.37 2.63704 0.6828 0
M  V30 15404 P 2700.6 7.20834 -5.23717 0
M  V30 15405 O 2700.82 8.66104 -5.38572 0
M  V30 15406 O 2701.39 6.33544 -6.1349 0
M  V30 15407 O 2700.85 6.7751 -3.72168 0
M  V30 15408 C 2699.91 7.20825 -2.7076 0
M  V30 15409 C 2700.64 7.45864 -1.40599 0
M  V30 15410 O 2700.85 6.17651 -0.734225 0
M  V30 15411 C 2702.04 8.05808 -1.51899 0
M  V30 15412 O 2702.43 8.74358 -0.335205 0
M  V30 15413 C 2702.92 6.83093 -1.70294 0
M  V30 15414 C 2702.21 5.79992 -0.836974 0
M  V30 15415 N 2702.26 4.41864 -1.38293 0
M  V30 15416 C 2702.18 3.99538 -2.69438 0
M  V30 15417 N 2702.26 2.69909 -2.84277 0
M  V30 15418 C 2702.4 2.21719 -1.5408 0
M  V30 15419 C 2702.53 0.891712 -1.06628 0
M  V30 15420 O 2702.55 -0.161298 -1.70137 0
M  V30 15421 N 2702.65 0.856846 0.334985 0
M  V30 15422 C 2702.65 1.9641 1.15789 0
M  V30 15423 N 2702.78 1.72708 2.46522 0
M  V30 15424 N 2702.52 3.21165 0.713741 0
M  V30 15425 C 2702.4 3.26797 -0.639748 0
M  V30 15426 H 2699.43 8.13644 -3.0377 0
M  V30 15427 H 2699.16 6.42788 -2.55485 0
M  V30 15428 H 2700.02 8.12039 -0.792769 0
M  V30 15429 H 2702.68 5.80061 0.166416 0
M  V30 15430 H 2702.96 6.51287 -2.75604 0
M  V30 15431 H 2703.95 7.01734 -1.34462 0
M  V30 15432 H 2702.11 8.73674 -2.38337 0
M  V30 15433 H 2702.07 4.68207 -3.53221 0
M  V30 15434 H 2702.75 -0.0398818 0.767965 0
M  V30 15435 H 2702.78 2.50995 3.13503 0
M  V30 15436 H 2702.89 0.759148 2.80716 0
M  V30 15437 P 2703.98 8.91 -7.61458e-11 0
M  V30 15438 O 2704.2 10.1736 0.733766 0
M  V30 15439 O 2704.77 8.73247 -1.2395 0
M  V30 15440 O 2704.23 7.66872 0.971405 0
M  V30 15441 C 2703.29 7.42212 2.04614 0
M  V30 15442 C 2704.02 6.86059 3.24661 0
M  V30 15443 O 2704.23 5.42847 3.03646 0
M  V30 15444 C 2705.42 7.41196 3.50753 0
M  V30 15445 O 2705.81 7.27073 4.86816 0
M  V30 15446 C 2706.3 6.5273 2.63741 0
M  V30 15447 C 2705.59 5.1842 2.73198 0
M  V30 15448 N 2705.64 4.38668 1.47808 0
M  V30 15449 C 2705.79 3.02239 1.60048 0
M  V30 15450 O 2705.88 2.46459 2.67869 0
M  V30 15451 N 2705.83 2.32436 0.408571 0
M  V30 15452 C 2705.74 2.85471 -0.854993 0
M  V30 15453 O 2705.79 2.12566 -1.8531 0
M  V30 15454 C 2705.59 4.28918 -0.887335 0
M  V30 15455 C 2705.48 4.91066 -2.24619 0
M  V30 15456 C 2705.54 5.00349 0.255399 0
M  V30 15457 H 2702.8 8.36803 2.32493 0
M  V30 15458 H 2702.54 6.701 1.71105 0
M  V30 15459 H 2703.4 7.03551 4.13168 0
M  V30 15460 H 2706.06 4.59773 3.53894 0
M  V30 15461 H 2706.34 6.88995 1.59871 0
M  V30 15462 H 2707.33 6.46749 3.03687 0
M  V30 15463 H 2705.49 8.46908 3.20714 0
M  V30 15464 H 2705.42 6.08548 0.206986 0
M  V30 15465 H 2706.45 5.34836 -2.53099 0
M  V30 15466 H 2704.72 5.69638 -2.2291 0
M  V30 15467 H 2705.2 4.13971 -2.98044 0
M  V30 15468 H 2705.94 1.33211 0.474216 0
M  V30 15469 P 2707.36 7.20834 5.23717 0
M  V30 15470 O 2707.58 7.79853 6.57286 0
M  V30 15471 O 2708.15 7.79239 4.12957 0
M  V30 15472 O 2707.61 5.63315 5.29344 0
M  V30 15473 C 2706.67 4.80255 6.01876 0
M  V30 15474 C 2707.4 3.64202 6.65911 0
M  V30 15475 O 2707.61 2.60694 5.64732 0
M  V30 15476 C 2708.8 3.93473 7.1943 0
M  V30 15477 O 2709.19 3.02071 8.21205 0
M  V30 15478 C 2709.68 3.73047 5.97036 0
M  V30 15479 C 2708.97 2.58828 5.25741 0
M  V30 15480 N 2709.02 2.68068 3.77503 0
M  V30 15481 H 2706.18 5.40332 6.79951 0
M  V30 15482 H 2705.91 4.41613 5.32378 0
M  V30 15483 H 2706.78 3.26331 7.47797 0
M  V30 15484 P 2710.74 2.75334 8.47391 0
M  V30 15485 O 2710.96 2.44595 9.90239 0
M  V30 15486 O 2711.53 3.87732 7.92204 0
M  V30 15487 O 2710.99 1.4459 7.59357 0
M  V30 15488 C 2710.05 0.347563 7.69115 0
M  V30 15489 C 2710.78 -0.96767 7.52806 0
M  V30 15490 O 2710.99 -1.21036 6.1011 0
M  V30 15491 C 2712.18 -1.04544 8.13308 0
M  V30 15492 O 2712.57 -2.38311 8.41922 0
M  V30 15493 C 2713.06 -0.491279 7.02284 0
M  V30 15494 C 2712.35 -0.996264 5.77469 0
M  V30 15495 N 2712.4 -0.0501808 4.62873 0
M  V30 15496 C 2712.55 -0.588177 3.36904 0
M  V30 15497 O 2712.64 -1.78598 3.17173 0
M  V30 15498 N 2712.59 0.329694 2.33686 0
M  V30 15499 C 2712.5 1.6953 2.45079 0
M  V30 15500 O 2712.55 2.41926 1.44899 0
M  V30 15501 C 2712.35 2.16933 3.80505 0
M  V30 15502 C 2712.24 3.65373 3.97621 0
M  V30 15503 C 2712.3 1.30326 4.83752 0
M  V30 15504 H 2709.56 0.374722 8.67691 0
M  V30 15505 H 2709.29 0.443421 6.90177 0
M  V30 15506 H 2710.16 -1.75537 7.96793 0
M  V30 15507 H 2712.82 -1.94496 5.46629 0
M  V30 15508 H 2713.1 0.608651 7.04676 0
M  V30 15509 H 2714.09 -0.889672 7.08939 0
M  V30 15510 H 2712.25 -0.43308 9.04564 0
M  V30 15511 H 2712.18 1.68366 5.8516 0
M  V30 15512 H 2713.21 4.05985 4.30448 0
M  V30 15513 H 2711.48 3.88028 4.72875 0
M  V30 15514 H 2711.96 4.11381 3.01609 0
M  V30 15515 H 2712.7 -0.0393617 1.41345 0
M  V30 15516 P 2714.12 -2.75334 8.47391 0
M  V30 15517 O 2714.34 -3.84128 9.44797 0
M  V30 15518 O 2714.91 -1.51947 8.68712 0
M  V30 15519 O 2714.37 -3.29363 6.99321 0
M  V30 15520 C 2713.43 -4.24011 6.4274 0
M  V30 15521 C 2714.16 -5.20775 5.52155 0
M  V30 15522 O 2714.37 -4.56534 4.22446 0
M  V30 15523 C 2715.56 -5.62629 5.96531 0
M  V30 15524 O 2715.95 -6.87667 5.41053 0
M  V30 15525 C 2716.44 -4.52537 5.39283 0
M  V30 15526 C 2715.73 -4.20027 4.08623 0
M  V30 15527 N 2715.78 -2.76189 3.71603 0
M  V30 15528 H 2712.94 -4.797 7.24003 0
M  V30 15529 H 2712.67 -3.69856 5.84513 0
M  V30 15530 H 2713.54 -6.10356 5.41441 0
M  V30 15531 P 2717.5 -7.20834 5.23717 0
M  V30 15532 O 2717.72 -8.66104 5.38572 0
M  V30 15533 O 2718.29 -6.33544 6.1349 0
M  V30 15534 O 2717.75 -6.7751 3.72168 0
M  V30 15535 C 2716.81 -7.20825 2.7076 0
M  V30 15536 C 2717.54 -7.45864 1.40599 0
M  V30 15537 O 2717.75 -6.17651 0.734225 0
M  V30 15538 C 2718.94 -8.05808 1.51899 0
M  V30 15539 O 2719.33 -8.74358 0.335205 0
M  V30 15540 C 2719.82 -6.83093 1.70294 0
M  V30 15541 C 2719.11 -5.79992 0.836974 0
M  V30 15542 N 2719.16 -4.41864 1.38293 0
M  V30 15543 H 2716.32 -8.13644 3.0377 0
M  V30 15544 H 2716.05 -6.42788 2.55485 0
M  V30 15545 H 2716.92 -8.12039 0.792769 0
M  V30 15546 P 2720.88 -8.91 7.72548e-11 0
M  V30 15547 O 2721.1 -10.1726 -0.733694 0
M  V30 15548 O 2721.67 -8.73148 1.23936 0
M  V30 15549 O 2721.13 -7.66872 -0.971405 0
M  V30 15550 C 2720.19 -7.42309 -2.04641 0
M  V30 15551 C 2720.92 -6.86059 -3.24661 0
M  V30 15552 O 2721.13 -5.42847 -3.03646 0
M  V30 15553 C 2722.32 -7.41196 -3.50753 0
M  V30 15554 O 2722.71 -7.27073 -4.86816 0
M  V30 15555 C 2723.2 -6.5273 -2.63741 0
M  V30 15556 C 2722.49 -5.1842 -2.73198 0
M  V30 15557 N 2722.54 -4.38762 -1.4784 0
M  V30 15558 C 2722.46 -4.81605 -0.168631 0
M  V30 15559 N 2722.54 -3.85454 0.713363 0
M  V30 15560 C 2722.68 -2.6994 -0.0566958 0
M  V30 15561 C 2722.81 -1.34815 0.338502 0
M  V30 15562 O 2722.83 -0.869548 1.47125 0
M  V30 15563 N 2722.93 -0.496304 -0.77465 0
M  V30 15564 C 2722.93 -0.908403 -2.09122 0
M  V30 15565 N 2723.06 0.0517805 -3.00955 0
M  V30 15566 N 2722.8 -2.17875 -2.46519 0
M  V30 15567 C 2722.68 -3.01988 -1.4033 0
M  V30 15568 H 2719.7 -8.36803 -2.32493 0
M  V30 15569 H 2719.43 -6.70197 -1.71129 0
M  V30 15570 H 2720.3 -7.03551 -4.13168 0
M  V30 15571 H 2722.96 -4.59498 -3.54415 0
M  V30 15572 H 2723.24 -6.88898 -1.59848 0
M  V30 15573 H 2724.23 -6.46749 -3.03687 0
M  V30 15574 H 2722.39 -8.46908 -3.20714 0
M  V30 15575 H 2722.34 -5.86405 0.105564 0
M  V30 15576 H 2723.03 0.483664 -0.597855 0
M  V30 15577 H 2723.06 -0.187865 -4.0116 0
M  V30 15578 H 2723.16 1.03585 -2.71726 0
M  V30 15579 P 2724.26 -7.20834 -5.23717 0
M  V30 15580 O 2724.48 -7.80006 -6.57415 0
M  V30 15581 O 2725.05 -7.79416 -4.13051 0
M  V30 15582 O 2724.51 -5.63315 -5.29344 0
M  V30 15583 C 2723.57 -4.80318 -6.01954 0
M  V30 15584 C 2724.3 -3.64202 -6.65911 0
M  V30 15585 O 2724.51 -2.60736 -5.64823 0
M  V30 15586 C 2725.7 -3.93521 -7.19518 0
M  V30 15587 O 2726.09 -3.02071 -8.21205 0
M  V30 15588 C 2726.58 -3.73047 -5.97036 0
M  V30 15589 C 2725.87 -2.58828 -5.25741 0
M  V30 15590 N 2725.92 -2.68068 -3.77503 0
M  V30 15591 C 2725.84 -3.80474 -2.99159 0
M  V30 15592 N 2725.91 -3.55622 -1.71925 0
M  V30 15593 C 2726.06 -2.1832 -1.65733 0
M  V30 15594 C 2726.19 -1.28842 -0.572777 0
M  V30 15595 N 2726.2 -1.66875 0.70098 0
M  V30 15596 N 2726.31 0.016788 -0.859836 0
M  V30 15597 C 2726.3 0.398145 -2.13316 0
M  V30 15598 N 2726.18 -0.328224 -3.22333 0
M  V30 15599 C 2726.06 -1.62992 -2.90383 0
M  V30 15600 H 2723.09 -5.40394 -6.8003 0
M  V30 15601 H 2722.81 -4.41741 -5.32532 0
M  V30 15602 H 2723.68 -3.26371 -7.47889 0
M  V30 15603 H 2726.34 -1.64007 -5.56746 0
M  V30 15604 H 2726.62 -4.63439 -5.3432 0
M  V30 15605 H 2727.61 -3.44776 -6.25925 0
M  V30 15606 H 2725.77 -4.96707 -7.57347 0
M  V30 15607 H 2725.73 -4.8089 -3.39924 0
M  V30 15608 H 2726.11 -2.66547 0.941919 0
M  V30 15609 H 2726.3 -0.965341 1.44766 0
M  V30 15610 H 2726.41 1.46427 -2.29697 0
M  V30 15611 P 2727.64 -2.75334 -8.47391 0
M  V30 15612 O 2727.86 -2.44595 -9.90239 0
M  V30 15613 O 2728.43 -3.87732 -7.92204 0
M  V30 15614 O 2727.89 -1.4459 -7.59357 0
M  V30 15615 C 2726.95 -0.347563 -7.69115 0
M  V30 15616 C 2727.68 0.96767 -7.52806 0
M  V30 15617 O 2727.89 1.21036 -6.1011 0
M  V30 15618 C 2729.08 1.04544 -8.13308 0
M  V30 15619 O 2729.47 2.38311 -8.41922 0
M  V30 15620 C 2729.96 0.491279 -7.02284 0
M  V30 15621 C 2729.25 0.996264 -5.77469 0
M  V30 15622 N 2729.3 0.0501808 -4.62873 0
M  V30 15623 C 2729.45 0.588177 -3.36904 0
M  V30 15624 O 2729.54 1.78598 -3.17173 0
M  V30 15625 N 2729.49 -0.329694 -2.33686 0
M  V30 15626 C 2729.4 -1.6953 -2.45079 0
M  V30 15627 O 2729.45 -2.41926 -1.44899 0
M  V30 15628 C 2729.25 -2.16933 -3.80505 0
M  V30 15629 C 2729.14 -3.65373 -3.97621 0
M  V30 15630 C 2729.2 -1.30326 -4.83752 0
M  V30 15631 H 2726.46 -0.374722 -8.67691 0
M  V30 15632 H 2726.19 -0.443421 -6.90177 0
M  V30 15633 H 2727.06 1.75537 -7.96793 0
M  V30 15634 H 2729.72 1.94496 -5.46629 0
M  V30 15635 H 2730 -0.608651 -7.04676 0
M  V30 15636 H 2730.99 0.889672 -7.08939 0
M  V30 15637 H 2729.15 0.43308 -9.04564 0
M  V30 15638 H 2729.08 -1.68366 -5.8516 0
M  V30 15639 H 2730.11 -4.05985 -4.30448 0
M  V30 15640 H 2728.38 -3.88028 -4.72875 0
M  V30 15641 H 2728.86 -4.11381 -3.01609 0
M  V30 15642 H 2729.6 0.0393617 -1.41345 0
M  V30 15643 P 2731.02 2.75334 -8.47391 0
M  V30 15644 O 2731.24 3.84128 -9.44797 0
M  V30 15645 O 2731.81 1.51947 -8.68712 0
M  V30 15646 O 2731.27 3.29363 -6.99321 0
M  V30 15647 C 2730.33 4.24011 -6.4274 0
M  V30 15648 C 2731.06 5.20775 -5.52155 0
M  V30 15649 O 2731.27 4.56534 -4.22446 0
M  V30 15650 C 2732.46 5.62629 -5.96531 0
M  V30 15651 O 2732.85 6.87667 -5.41053 0
M  V30 15652 C 2733.34 4.52537 -5.39283 0
M  V30 15653 C 2732.63 4.20027 -4.08623 0
M  V30 15654 N 2732.68 2.76189 -3.71603 0
M  V30 15655 H 2729.84 4.797 -7.24003 0
M  V30 15656 H 2729.57 3.69856 -5.84513 0
M  V30 15657 H 2730.44 6.10356 -5.41441 0
M  V30 15658 P 2734.4 7.20834 -5.23717 0
M  V30 15659 O 2734.62 8.66104 -5.38572 0
M  V30 15660 O 2735.19 6.33544 -6.1349 0
M  V30 15661 O 2734.65 6.7751 -3.72168 0
M  V30 15662 C 2733.71 7.20825 -2.7076 0
M  V30 15663 C 2734.44 7.45864 -1.40599 0
M  V30 15664 O 2734.65 6.17651 -0.734225 0
M  V30 15665 C 2735.84 8.05808 -1.51899 0
M  V30 15666 O 2736.23 8.74358 -0.335205 0
M  V30 15667 C 2736.72 6.83093 -1.70294 0
M  V30 15668 C 2736.01 5.79992 -0.836974 0
M  V30 15669 N 2736.06 4.41864 -1.38293 0
M  V30 15670 H 2733.22 8.13644 -3.0377 0
M  V30 15671 H 2732.95 6.42788 -2.55485 0
M  V30 15672 H 2733.82 8.12039 -0.792769 0
M  V30 15673 P 2737.78 8.91 -7.83638e-11 0
M  V30 15674 O 2738 10.1726 0.733694 0
M  V30 15675 O 2738.57 8.73148 -1.23936 0
M  V30 15676 O 2738.03 7.66872 0.971405 0
M  V30 15677 C 2737.09 7.42309 2.04641 0
M  V30 15678 C 2737.82 6.86059 3.24661 0
M  V30 15679 O 2738.03 5.42847 3.03646 0
M  V30 15680 C 2739.22 7.41196 3.50753 0
M  V30 15681 O 2739.61 7.27073 4.86816 0
M  V30 15682 C 2740.1 6.5273 2.63741 0
M  V30 15683 C 2739.39 5.1842 2.73198 0
M  V30 15684 N 2739.44 4.38762 1.4784 0
M  V30 15685 H 2736.6 8.36803 2.32493 0
M  V30 15686 H 2736.33 6.70197 1.71129 0
M  V30 15687 H 2737.2 7.03551 4.13168 0
M  V30 15688 P 2741.16 7.20834 5.23717 0
M  V30 15689 O 2741.38 7.79853 6.57286 0
M  V30 15690 O 2741.95 7.79239 4.12957 0
M  V30 15691 O 2741.41 5.63315 5.29344 0
M  V30 15692 C 2740.47 4.80255 6.01876 0
M  V30 15693 C 2741.2 3.64202 6.65911 0
M  V30 15694 O 2741.41 2.60694 5.64732 0
M  V30 15695 C 2742.6 3.93473 7.1943 0
M  V30 15696 O 2742.99 3.02071 8.21205 0
M  V30 15697 C 2743.48 3.73047 5.97036 0
M  V30 15698 C 2742.77 2.58828 5.25741 0
M  V30 15699 N 2742.82 2.68068 3.77503 0
M  V30 15700 H 2739.98 5.40332 6.79951 0
M  V30 15701 H 2739.71 4.41613 5.32378 0
M  V30 15702 H 2740.58 3.26331 7.47797 0
M  V30 15703 P 2744.54 2.75334 8.47391 0
M  V30 15704 O 2744.76 2.44571 9.90142 0
M  V30 15705 O 2745.33 3.87688 7.92115 0
M  V30 15706 O 2744.79 1.4459 7.59357 0
M  V30 15707 C 2743.85 0.347608 7.69215 0
M  V30 15708 C 2744.58 -0.96767 7.52806 0
M  V30 15709 O 2744.79 -1.21036 6.1011 0
M  V30 15710 C 2745.98 -1.04544 8.13308 0
M  V30 15711 O 2746.37 -2.38311 8.41922 0
M  V30 15712 C 2746.86 -0.491279 7.02284 0
M  V30 15713 C 2746.15 -0.996264 5.77469 0
M  V30 15714 N 2746.2 -0.0501916 4.62973 0
M  V30 15715 H 2743.36 0.374722 8.67691 0
M  V30 15716 H 2743.09 0.443485 6.90277 0
M  V30 15717 H 2743.96 -1.75537 7.96793 0
M  V30 15718 P 2747.92 -2.75334 8.47391 0
M  V30 15719 O 2748.14 -3.84128 9.44797 0
M  V30 15720 O 2748.71 -1.51947 8.68712 0
M  V30 15721 O 2748.17 -3.29363 6.99321 0
M  V30 15722 C 2747.23 -4.24011 6.4274 0
M  V30 15723 C 2747.96 -5.20775 5.52155 0
M  V30 15724 O 2748.17 -4.56534 4.22446 0
M  V30 15725 C 2749.36 -5.62629 5.96531 0
M  V30 15726 O 2749.75 -6.87667 5.41053 0
M  V30 15727 C 2750.24 -4.52537 5.39283 0
M  V30 15728 C 2749.53 -4.20027 4.08623 0
M  V30 15729 N 2749.58 -2.76189 3.71603 0
M  V30 15730 H 2746.74 -4.797 7.24003 0
M  V30 15731 H 2746.47 -3.69856 5.84513 0
M  V30 15732 H 2747.34 -6.10356 5.41441 0
M  V30 15733 P 2751.3 -7.20834 5.23717 0
M  V30 15734 O 2751.52 -8.66104 5.38572 0
M  V30 15735 O 2752.09 -6.33544 6.1349 0
M  V30 15736 O 2751.55 -6.7751 3.72168 0
M  V30 15737 C 2750.61 -7.20825 2.7076 0
M  V30 15738 C 2751.34 -7.45864 1.40599 0
M  V30 15739 O 2751.55 -6.17651 0.734225 0
M  V30 15740 C 2752.74 -8.05808 1.51899 0
M  V30 15741 O 2753.13 -8.74358 0.335205 0
M  V30 15742 C 2753.62 -6.83093 1.70294 0
M  V30 15743 C 2752.91 -5.79992 0.836974 0
M  V30 15744 N 2752.96 -4.41864 1.38293 0
M  V30 15745 H 2750.12 -8.13644 3.0377 0
M  V30 15746 H 2749.85 -6.42788 2.55485 0
M  V30 15747 H 2750.72 -8.12039 0.792769 0
M  V30 15748 P 2754.68 -8.91 7.94728e-11 0
M  V30 15749 O 2754.9 -10.1726 -0.733694 0
M  V30 15750 O 2755.47 -8.73148 1.23936 0
M  V30 15751 O 2754.93 -7.66872 -0.971405 0
M  V30 15752 C 2753.99 -7.42309 -2.04641 0
M  V30 15753 C 2754.72 -6.86059 -3.24661 0
M  V30 15754 O 2754.93 -5.42847 -3.03646 0
M  V30 15755 C 2756.12 -7.41196 -3.50753 0
M  V30 15756 O 2756.51 -7.27073 -4.86816 0
M  V30 15757 C 2757 -6.5273 -2.63741 0
M  V30 15758 C 2756.29 -5.1842 -2.73198 0
M  V30 15759 N 2756.34 -4.38762 -1.4784 0
M  V30 15760 H 2753.5 -8.36803 -2.32493 0
M  V30 15761 H 2753.23 -6.70197 -1.71129 0
M  V30 15762 H 2754.1 -7.03551 -4.13168 0
M  V30 15763 P 2758.06 -7.20834 -5.23717 0
M  V30 15764 O 2758.28 -7.79853 -6.57286 0
M  V30 15765 O 2758.85 -7.79239 -4.12957 0
M  V30 15766 O 2758.31 -5.63315 -5.29344 0
M  V30 15767 C 2757.37 -4.80255 -6.01876 0
M  V30 15768 C 2758.1 -3.64202 -6.65911 0
M  V30 15769 O 2758.31 -2.60694 -5.64732 0
M  V30 15770 C 2759.5 -3.93473 -7.1943 0
M  V30 15771 O 2759.89 -3.02071 -8.21205 0
M  V30 15772 C 2760.38 -3.73047 -5.97036 0
M  V30 15773 C 2759.67 -2.58828 -5.25741 0
M  V30 15774 N 2759.72 -2.68068 -3.77503 0
M  V30 15775 H 2756.88 -5.40332 -6.79951 0
M  V30 15776 H 2756.61 -4.41613 -5.32378 0
M  V30 15777 H 2757.48 -3.26331 -7.47797 0
M  V30 15778 P 2761.44 -2.75334 -8.47391 0
M  V30 15779 O 2761.66 -2.44571 -9.90142 0
M  V30 15780 O 2762.23 -3.87688 -7.92115 0
M  V30 15781 O 2761.69 -1.4459 -7.59357 0
M  V30 15782 C 2760.75 -0.347608 -7.69215 0
M  V30 15783 C 2761.48 0.96767 -7.52806 0
M  V30 15784 O 2761.69 1.21036 -6.1011 0
M  V30 15785 C 2762.88 1.04544 -8.13308 0
M  V30 15786 O 2763.27 2.38311 -8.41922 0
M  V30 15787 C 2763.76 0.491279 -7.02284 0
M  V30 15788 C 2763.05 0.996264 -5.77469 0
M  V30 15789 N 2763.1 0.0501916 -4.62973 0
M  V30 15790 H 2760.26 -0.374722 -8.67691 0
M  V30 15791 H 2759.99 -0.443485 -6.90277 0
M  V30 15792 H 2760.86 1.75537 -7.96793 0
M  V30 15793 P 2764.82 2.75334 -8.47391 0
M  V30 15794 O 2765.04 3.84128 -9.44797 0
M  V30 15795 O 2765.61 1.51947 -8.68712 0
M  V30 15796 O 2765.07 3.29363 -6.99321 0
M  V30 15797 C 2764.13 4.24011 -6.4274 0
M  V30 15798 C 2764.86 5.20775 -5.52155 0
M  V30 15799 O 2765.07 4.56534 -4.22446 0
M  V30 15800 C 2766.26 5.62629 -5.96531 0
M  V30 15801 O 2766.65 6.87667 -5.41053 0
M  V30 15802 C 2767.14 4.52537 -5.39283 0
M  V30 15803 C 2766.43 4.20027 -4.08623 0
M  V30 15804 N 2766.48 2.76189 -3.71603 0
M  V30 15805 H 2763.64 4.797 -7.24003 0
M  V30 15806 H 2763.37 3.69856 -5.84513 0
M  V30 15807 H 2764.24 6.10356 -5.41441 0
M  V30 15808 P 2768.2 7.20834 -5.23717 0
M  V30 15809 O 2768.42 8.66189 -5.38625 0
M  V30 15810 O 2768.99 6.33615 -6.1356 0
M  V30 15811 O 2768.45 6.7751 -3.72168 0
M  V30 15812 C 2767.51 7.20825 -2.7076 0
M  V30 15813 C 2768.24 7.45864 -1.40599 0
M  V30 15814 O 2768.45 6.17651 -0.734225 0
M  V30 15815 C 2769.64 8.05808 -1.51899 0
M  V30 15816 O 2770.03 8.74358 -0.335205 0
M  V30 15817 C 2770.52 6.83093 -1.70294 0
M  V30 15818 C 2769.81 5.79992 -0.836974 0
M  V30 15819 N 2769.86 4.41769 -1.38263 0
M  V30 15820 C 2770.01 3.36514 -0.485617 0
M  V30 15821 O 2770.1 3.61814 0.724703 0
M  V30 15822 N 2770.06 2.00746 -1.14492 0
M  V30 15823 C 2769.96 1.85887 -2.27776 0
M  V30 15824 N 2770.01 0.600907 -2.69379 0
M  V30 15825 C 2769.81 2.92182 -3.22265 0
M  V30 15826 C 2769.76 4.18399 -2.71925 0
M  V30 15827 H 2767.02 8.1355 -3.03735 0
M  V30 15828 H 2766.75 6.42695 -2.55448 0
M  V30 15829 H 2767.62 8.12139 -0.792866 0
M  V30 15830 H 2770.28 5.80078 0.160615 0
M  V30 15831 H 2770.56 6.51379 -2.75643 0
M  V30 15832 H 2771.55 7.01734 -1.34462 0
M  V30 15833 H 2769.71 8.73674 -2.38337 0
M  V30 15834 H 2769.64 5.02669 -3.39718 0
M  V30 15835 H 2769.74 2.73001 -4.29239 0
M  V30 15836 H 2770.13 -0.162318 -2.01146 0
M  V30 15837 H 2769.93 0.387742 -3.69773 0
M  V30 15838 P 2771.58 8.91 -8.05818e-11 0
M  V30 15839 O 2771.8 10.1726 0.733694 0
M  V30 15840 O 2772.37 8.73148 -1.23936 0
M  V30 15841 O 2771.83 7.66872 0.971405 0
M  V30 15842 C 2770.89 7.42309 2.04641 0
M  V30 15843 C 2771.62 6.86059 3.24661 0
M  V30 15844 O 2771.83 5.42847 3.03646 0
M  V30 15845 C 2773.02 7.41196 3.50753 0
M  V30 15846 O 2773.41 7.27073 4.86816 0
M  V30 15847 C 2773.9 6.5273 2.63741 0
M  V30 15848 C 2773.19 5.1842 2.73198 0
M  V30 15849 N 2773.24 4.38762 1.4784 0
M  V30 15850 H 2770.4 8.36803 2.32493 0
M  V30 15851 H 2770.13 6.70197 1.71129 0
M  V30 15852 H 2771 7.03551 4.13168 0
M  V30 15853 P 2774.96 7.20834 5.23717 0
M  V30 15854 O 2775.18 7.79853 6.57286 0
M  V30 15855 O 2775.75 7.79239 4.12957 0
M  V30 15856 O 2775.21 5.63315 5.29344 0
M  V30 15857 C 2774.27 4.80255 6.01876 0
M  V30 15858 C 2775 3.64202 6.65911 0
M  V30 15859 O 2775.21 2.60694 5.64732 0
M  V30 15860 C 2776.4 3.93473 7.1943 0
M  V30 15861 O 2776.79 3.02071 8.21205 0
M  V30 15862 C 2777.28 3.73047 5.97036 0
M  V30 15863 C 2776.57 2.58828 5.25741 0
M  V30 15864 N 2776.62 2.68068 3.77503 0
M  V30 15865 H 2773.78 5.40332 6.79951 0
M  V30 15866 H 2773.51 4.41613 5.32378 0
M  V30 15867 H 2774.38 3.26331 7.47797 0
M  V30 15868 P 2778.34 2.75334 8.47391 0
M  V30 15869 O 2778.56 2.44619 9.90336 0
M  V30 15870 O 2779.13 3.87776 7.92294 0
M  V30 15871 O 2778.59 1.4459 7.59357 0
M  V30 15872 C 2777.65 0.347653 7.69315 0
M  V30 15873 C 2778.38 -0.96767 7.52806 0
M  V30 15874 O 2778.59 -1.21055 6.10208 0
M  V30 15875 C 2779.78 -1.04557 8.13408 0
M  V30 15876 O 2780.17 -2.38311 8.41922 0
M  V30 15877 C 2780.66 -0.491279 7.02284 0
M  V30 15878 C 2779.95 -0.996264 5.77469 0
M  V30 15879 N 2780 -0.0501916 4.62973 0
M  V30 15880 H 2777.17 0.374765 8.67791 0
M  V30 15881 H 2776.89 0.443613 6.90476 0
M  V30 15882 H 2777.76 -1.75559 7.96891 0
M  V30 15883 H 2780.42 -1.94563 5.46818 0
M  V30 15884 H 2780.7 0.608651 7.04676 0
M  V30 15885 H 2781.69 -0.889796 7.09039 0
M  V30 15886 H 2779.85 -0.433128 9.04664 0
M  V30 15887 P 2781.72 -2.75334 8.47391 0
M  V30 15888 O 2781.94 -3.84128 9.44797 0
M  V30 15889 O 2782.51 -1.51947 8.68712 0
M  V30 15890 O 2781.97 -3.29363 6.99321 0
M  V30 15891 C 2781.03 -4.24011 6.4274 0
M  V30 15892 C 2781.76 -5.20775 5.52155 0
M  V30 15893 O 2781.97 -4.56534 4.22446 0
M  V30 15894 C 2783.16 -5.62629 5.96531 0
M  V30 15895 O 2783.55 -6.87667 5.41053 0
M  V30 15896 C 2784.04 -4.52537 5.39283 0
M  V30 15897 C 2783.33 -4.20027 4.08623 0
M  V30 15898 N 2783.38 -2.76189 3.71603 0
M  V30 15899 H 2780.54 -4.797 7.24003 0
M  V30 15900 H 2780.27 -3.69856 5.84513 0
M  V30 15901 H 2781.14 -6.10356 5.41441 0
M  V30 15902 P 2785.1 -7.20834 5.23717 0
M  V30 15903 O 2785.32 -8.66104 5.38572 0
M  V30 15904 O 2785.89 -6.33544 6.1349 0
M  V30 15905 O 2785.35 -6.7751 3.72168 0
M  V30 15906 C 2784.41 -7.20825 2.7076 0
M  V30 15907 C 2785.14 -7.45864 1.40599 0
M  V30 15908 O 2785.35 -6.17651 0.734225 0
M  V30 15909 C 2786.54 -8.05808 1.51899 0
M  V30 15910 O 2786.93 -8.74358 0.335205 0
M  V30 15911 C 2787.42 -6.83093 1.70294 0
M  V30 15912 C 2786.71 -5.79992 0.836974 0
M  V30 15913 N 2786.76 -4.41864 1.38293 0
M  V30 15914 H 2783.92 -8.13644 3.0377 0
M  V30 15915 H 2783.65 -6.42788 2.55485 0
M  V30 15916 H 2784.52 -8.12039 0.792769 0
M  V30 15917 P 2788.48 -8.91 8.16908e-11 0
M  V30 15918 O 2788.7 -10.1726 -0.733694 0
M  V30 15919 O 2789.27 -8.73148 1.23936 0
M  V30 15920 O 2788.73 -7.66872 -0.971405 0
M  V30 15921 C 2787.79 -7.42309 -2.04641 0
M  V30 15922 C 2788.52 -6.86059 -3.24661 0
M  V30 15923 O 2788.73 -5.42847 -3.03646 0
M  V30 15924 C 2789.92 -7.41196 -3.50753 0
M  V30 15925 O 2790.31 -7.27073 -4.86816 0
M  V30 15926 C 2790.8 -6.5273 -2.63741 0
M  V30 15927 C 2790.09 -5.1842 -2.73198 0
M  V30 15928 N 2790.14 -4.38762 -1.4784 0
M  V30 15929 H 2787.3 -8.36803 -2.32493 0
M  V30 15930 H 2787.03 -6.70197 -1.71129 0
M  V30 15931 H 2787.9 -7.03551 -4.13168 0
M  V30 15932 P 2791.86 -7.20834 -5.23717 0
M  V30 15933 O 2792.08 -7.7993 -6.57351 0
M  V30 15934 O 2792.65 -7.79328 -4.13004 0
M  V30 15935 O 2792.11 -5.63315 -5.29344 0
M  V30 15936 C 2791.17 -4.80193 -6.01798 0
M  V30 15937 C 2791.9 -3.64202 -6.65911 0
M  V30 15938 O 2792.11 -2.60694 -5.64732 0
M  V30 15939 C 2793.3 -3.93473 -7.1943 0
M  V30 15940 O 2793.69 -3.02071 -8.21205 0
M  V30 15941 C 2794.18 -3.73047 -5.97036 0
M  V30 15942 C 2793.47 -2.58828 -5.25741 0
M  V30 15943 N 2793.52 -2.6801 -3.77422 0
M  V30 15944 C 2793.67 -1.50443 -3.07133 0
M  V30 15945 O 2793.76 -0.419406 -3.61576 0
M  V30 15946 N 2793.71 -1.6403 -1.69677 0
M  V30 15947 C 2793.62 -2.81206 -0.986255 0
M  V30 15948 C 2793.47 -3.99158 -1.80325 0
M  V30 15949 C 2793.42 -3.89779 -3.1476 0
M  V30 15950 H 2790.68 -5.40332 -6.79951 0
M  V30 15951 H 2790.41 -4.41549 -5.32301 0
M  V30 15952 H 2791.28 -3.26331 -7.47797 0
M  V30 15953 H 2793.94 -1.6395 -5.56554 0
M  V30 15954 H 2794.22 -4.63439 -5.3432 0
M  V30 15955 H 2795.21 -3.44728 -6.25838 0
M  V30 15956 H 2793.37 -4.96652 -7.57263 0
M  V30 15957 H 2793.3 -4.80159 -3.74441 0
M  V30 15958 P 2795.24 -2.75334 -8.47391 0
M  V30 15959 O 2795.46 -2.44571 -9.90142 0
M  V30 15960 O 2796.03 -3.87688 -7.92115 0
M  V30 15961 O 2795.49 -1.4459 -7.59357 0
M  V30 15962 C 2794.55 -0.347608 -7.69215 0
M  V30 15963 C 2795.28 0.96767 -7.52806 0
M  V30 15964 O 2795.49 1.21036 -6.1011 0
M  V30 15965 C 2796.68 1.04544 -8.13308 0
M  V30 15966 O 2797.07 2.38311 -8.41922 0
M  V30 15967 C 2797.56 0.491279 -7.02284 0
M  V30 15968 C 2796.85 0.996264 -5.77469 0
M  V30 15969 N 2796.9 0.0501916 -4.62973 0
M  V30 15970 H 2794.06 -0.374722 -8.67691 0
M  V30 15971 H 2793.79 -0.443485 -6.90277 0
M  V30 15972 H 2794.66 1.75537 -7.96793 0
M  V30 15973 P 2798.62 2.75334 -8.47391 0
M  V30 15974 O 2798.84 3.84204 -9.44982 0
M  V30 15975 O 2799.41 1.51982 -8.68909 0
M  V30 15976 O 2798.87 3.29363 -6.99321 0
M  V30 15977 C 2797.93 4.24066 -6.42823 0
M  V30 15978 C 2798.66 5.20775 -5.52155 0
M  V30 15979 O 2798.87 4.56607 -4.22514 0
M  V30 15980 C 2800.06 5.62697 -5.96604 0
M  V30 15981 O 2800.45 6.87667 -5.41053 0
M  V30 15982 C 2800.94 4.52537 -5.39283 0
M  V30 15983 C 2800.23 4.20027 -4.08623 0
M  V30 15984 N 2800.28 2.76189 -3.71603 0
M  V30 15985 H 2797.45 4.79756 -7.24086 0
M  V30 15986 H 2797.17 3.69963 -5.84682 0
M  V30 15987 H 2798.04 6.10431 -5.41508 0
M  V30 15988 H 2800.7 4.78816 -3.28024 0
M  V30 15989 H 2800.98 3.64957 -6.05871 0
M  V30 15990 H 2801.97 4.88748 -5.21323 0
M  V30 15991 H 2800.13 5.66789 -7.0643 0
M  V30 15992 P 2802 7.20834 -5.23717 0
M  V30 15993 O 2802.22 8.66104 -5.38572 0
M  V30 15994 O 2802.79 6.33544 -6.1349 0
M  V30 15995 O 2802.25 6.7751 -3.72168 0
M  V30 15996 C 2801.31 7.20825 -2.7076 0
M  V30 15997 C 2802.04 7.45864 -1.40599 0
M  V30 15998 O 2802.25 6.17651 -0.734225 0
M  V30 15999 C 2803.44 8.05808 -1.51899 0
M  V30 16000 O 2803.83 8.74358 -0.335205 0
M  V30 16001 C 2804.32 6.83093 -1.70294 0
M  V30 16002 C 2803.61 5.79992 -0.836974 0
M  V30 16003 N 2803.66 4.41864 -1.38293 0
M  V30 16004 H 2800.82 8.13644 -3.0377 0
M  V30 16005 H 2800.55 6.42788 -2.55485 0
M  V30 16006 H 2801.42 8.12039 -0.792769 0
M  V30 16007 P 2805.38 8.91 -8.27998e-11 0
M  V30 16008 O 2805.6 10.1726 0.733694 0
M  V30 16009 O 2806.17 8.73148 -1.23936 0
M  V30 16010 O 2805.63 7.66872 0.971405 0
M  V30 16011 C 2804.69 7.42309 2.04641 0
M  V30 16012 C 2805.42 6.86059 3.24661 0
M  V30 16013 O 2805.63 5.42847 3.03646 0
M  V30 16014 C 2806.82 7.41196 3.50753 0
M  V30 16015 O 2807.21 7.27073 4.86816 0
M  V30 16016 C 2807.7 6.5273 2.63741 0
M  V30 16017 C 2806.99 5.1842 2.73198 0
M  V30 16018 N 2807.04 4.38762 1.4784 0
M  V30 16019 H 2804.2 8.36803 2.32493 0
M  V30 16020 H 2803.93 6.70197 1.71129 0
M  V30 16021 H 2804.8 7.03551 4.13168 0
M  V30 16022 P 2808.76 7.20834 5.23717 0
M  V30 16023 O 2808.98 7.79853 6.57286 0
M  V30 16024 O 2809.55 7.79239 4.12957 0
M  V30 16025 O 2809.01 5.63315 5.29344 0
M  V30 16026 C 2808.07 4.80255 6.01876 0
M  V30 16027 C 2808.8 3.64202 6.65911 0
M  V30 16028 O 2809.01 2.60694 5.64732 0
M  V30 16029 C 2810.2 3.93473 7.1943 0
M  V30 16030 O 2810.59 3.02071 8.21205 0
M  V30 16031 C 2811.08 3.73047 5.97036 0
M  V30 16032 C 2810.37 2.58828 5.25741 0
M  V30 16033 N 2810.42 2.68068 3.77503 0
M  V30 16034 H 2807.58 5.40332 6.79951 0
M  V30 16035 H 2807.31 4.41613 5.32378 0
M  V30 16036 H 2808.18 3.26331 7.47797 0
M  V30 16037 P 2812.14 2.75334 8.47391 0
M  V30 16038 O 2812.36 2.44571 9.90142 0
M  V30 16039 O 2812.93 3.87688 7.92115 0
M  V30 16040 O 2812.39 1.4459 7.59357 0
M  V30 16041 C 2811.45 0.347608 7.69215 0
M  V30 16042 C 2812.18 -0.96767 7.52806 0
M  V30 16043 O 2812.39 -1.21036 6.1011 0
M  V30 16044 C 2813.58 -1.04544 8.13308 0
M  V30 16045 O 2813.97 -2.38311 8.41922 0
M  V30 16046 C 2814.46 -0.491279 7.02284 0
M  V30 16047 C 2813.75 -0.996264 5.77469 0
M  V30 16048 N 2813.8 -0.0501916 4.62973 0
M  V30 16049 H 2810.96 0.374722 8.67691 0
M  V30 16050 H 2810.69 0.443485 6.90277 0
M  V30 16051 H 2811.56 -1.75537 7.96793 0
M  V30 16052 P 2815.52 -2.75334 8.47391 0
M  V30 16053 O 2815.74 -3.84128 9.44797 0
M  V30 16054 O 2816.31 -1.51947 8.68712 0
M  V30 16055 O 2815.77 -3.29363 6.99321 0
M  V30 16056 C 2814.83 -4.24011 6.4274 0
M  V30 16057 C 2815.56 -5.20775 5.52155 0
M  V30 16058 O 2815.77 -4.56534 4.22446 0
M  V30 16059 C 2816.96 -5.62629 5.96531 0
M  V30 16060 O 2817.35 -6.87667 5.41053 0
M  V30 16061 C 2817.84 -4.52537 5.39283 0
M  V30 16062 C 2817.13 -4.20027 4.08623 0
M  V30 16063 N 2817.18 -2.76189 3.71603 0
M  V30 16064 H 2814.34 -4.797 7.24003 0
M  V30 16065 H 2814.07 -3.69856 5.84513 0
M  V30 16066 H 2814.94 -6.10356 5.41441 0
M  V30 16067 P 2818.9 -7.20834 5.23717 0
M  V30 16068 O 2819.12 -8.66104 5.38572 0
M  V30 16069 O 2819.69 -6.33544 6.1349 0
M  V30 16070 O 2819.15 -6.7751 3.72168 0
M  V30 16071 C 2818.21 -7.20825 2.7076 0
M  V30 16072 C 2818.94 -7.45864 1.40599 0
M  V30 16073 O 2819.15 -6.17651 0.734225 0
M  V30 16074 C 2820.34 -8.05808 1.51899 0
M  V30 16075 O 2820.73 -8.74358 0.335205 0
M  V30 16076 C 2821.22 -6.83093 1.70294 0
M  V30 16077 C 2820.51 -5.79992 0.836974 0
M  V30 16078 N 2820.56 -4.41864 1.38293 0
M  V30 16079 H 2817.72 -8.13644 3.0377 0
M  V30 16080 H 2817.45 -6.42788 2.55485 0
M  V30 16081 H 2818.32 -8.12039 0.792769 0
M  V30 16082 P 2822.28 -8.91 8.39088e-11 0
M  V30 16083 O 2822.5 -10.1736 -0.733766 0
M  V30 16084 O 2823.07 -8.73247 1.2395 0
M  V30 16085 O 2822.53 -7.66872 -0.971405 0
M  V30 16086 C 2821.59 -7.42212 -2.04614 0
M  V30 16087 C 2822.32 -6.86059 -3.24661 0
M  V30 16088 O 2822.53 -5.42847 -3.03646 0
M  V30 16089 C 2823.72 -7.41196 -3.50753 0
M  V30 16090 O 2824.11 -7.27073 -4.86816 0
M  V30 16091 C 2824.6 -6.5273 -2.63741 0
M  V30 16092 C 2823.89 -5.1842 -2.73198 0
M  V30 16093 N 2823.94 -4.38668 -1.47808 0
M  V30 16094 C 2824.09 -3.02239 -1.60048 0
M  V30 16095 O 2824.18 -2.46459 -2.67869 0
M  V30 16096 N 2824.13 -2.32436 -0.408571 0
M  V30 16097 C 2824.04 -2.85471 0.854993 0
M  V30 16098 C 2823.89 -4.28918 0.887335 0
M  V30 16099 C 2823.84 -5.00349 -0.255399 0
M  V30 16100 H 2821.1 -8.36803 -2.32493 0
M  V30 16101 H 2820.83 -6.701 -1.71105 0
M  V30 16102 H 2821.7 -7.03551 -4.13168 0
M  V30 16103 H 2824.36 -4.59773 -3.53894 0
M  V30 16104 H 2824.64 -6.88995 -1.59871 0
M  V30 16105 H 2825.63 -6.46749 -3.03687 0
M  V30 16106 H 2823.79 -8.46908 -3.20714 0
M  V30 16107 H 2823.72 -6.08548 -0.206986 0
M  V30 16108 P 2825.66 -7.20834 -5.23717 0
M  V30 16109 O 2825.88 -7.79853 -6.57286 0
M  V30 16110 O 2826.45 -7.79239 -4.12957 0
M  V30 16111 O 2825.91 -5.63315 -5.29344 0
M  V30 16112 C 2824.97 -4.80255 -6.01876 0
M  V30 16113 C 2825.7 -3.64202 -6.65911 0
M  V30 16114 O 2825.91 -2.60694 -5.64732 0
M  V30 16115 C 2827.1 -3.93473 -7.1943 0
M  V30 16116 O 2827.49 -3.02071 -8.21205 0
M  V30 16117 C 2827.98 -3.73047 -5.97036 0
M  V30 16118 C 2827.27 -2.58828 -5.25741 0
M  V30 16119 N 2827.32 -2.68068 -3.77503 0
M  V30 16120 H 2824.48 -5.40332 -6.79951 0
M  V30 16121 H 2824.21 -4.41613 -5.32378 0
M  V30 16122 H 2825.08 -3.26331 -7.47797 0
M  V30 16123 P 2829.04 -2.75334 -8.47391 0
M  V30 16124 O 2829.26 -2.44619 -9.90336 0
M  V30 16125 O 2829.83 -3.87776 -7.92294 0
M  V30 16126 O 2829.29 -1.4459 -7.59357 0
M  V30 16127 C 2828.35 -0.347653 -7.69315 0
M  V30 16128 C 2829.08 0.96767 -7.52806 0
M  V30 16129 O 2829.29 1.21055 -6.10208 0
M  V30 16130 C 2830.48 1.04557 -8.13408 0
M  V30 16131 O 2830.87 2.38311 -8.41922 0
M  V30 16132 C 2831.36 0.491279 -7.02284 0
M  V30 16133 C 2830.65 0.996264 -5.77469 0
M  V30 16134 N 2830.7 0.0501916 -4.62973 0
M  V30 16135 C 2830.62 -1.31969 -4.65661 0
M  V30 16136 N 2830.69 -1.86649 -3.48119 0
M  V30 16137 C 2830.84 -0.792089 -2.62406 0
M  V30 16138 C 2830.97 -0.705684 -1.2207 0
M  V30 16139 N 2830.98 -1.76207 -0.413762 0
M  V30 16140 N 2831.09 0.518981 -0.685754 0
M  V30 16141 C 2831.08 1.57595 -1.49174 0
M  V30 16142 N 2830.96 1.62909 -2.80066 0
M  V30 16143 C 2830.84 0.388195 -3.3073 0
M  V30 16144 H 2827.87 -0.374765 -8.67791 0
M  V30 16145 H 2827.59 -0.443613 -6.90476 0
M  V30 16146 H 2828.46 1.75559 -7.96891 0
M  V30 16147 H 2831.12 1.94563 -5.46818 0
M  V30 16148 H 2831.4 -0.608651 -7.04676 0
M  V30 16149 H 2832.39 0.889796 -7.09039 0
M  V30 16150 H 2830.55 0.433128 -9.04664 0
M  V30 16151 H 2830.51 -1.89246 -5.57664 0
M  V30 16152 H 2830.89 -2.71005 -0.804694 0
M  V30 16153 H 2831.08 -1.63189 0.603768 0
M  V30 16154 H 2831.19 2.53475 -0.997614 0
M  V30 16155 P 2832.42 2.75334 -8.47391 0
M  V30 16156 O 2832.64 3.84128 -9.44797 0
M  V30 16157 O 2833.21 1.51947 -8.68712 0
M  V30 16158 O 2832.67 3.29363 -6.99321 0
M  V30 16159 C 2831.73 4.24011 -6.4274 0
M  V30 16160 C 2832.46 5.20775 -5.52155 0
M  V30 16161 O 2832.67 4.56534 -4.22446 0
M  V30 16162 C 2833.86 5.62629 -5.96531 0
M  V30 16163 O 2834.25 6.87667 -5.41053 0
M  V30 16164 C 2834.74 4.52537 -5.39283 0
M  V30 16165 C 2834.03 4.20027 -4.08623 0
M  V30 16166 N 2834.08 2.76189 -3.71603 0
M  V30 16167 H 2831.24 4.797 -7.24003 0
M  V30 16168 H 2830.97 3.69856 -5.84513 0
M  V30 16169 H 2831.84 6.10356 -5.41441 0
M  V30 16170 P 2835.8 7.20834 -5.23717 0
M  V30 16171 O 2836.02 8.66104 -5.38572 0
M  V30 16172 O 2836.59 6.33544 -6.1349 0
M  V30 16173 O 2836.05 6.7751 -3.72168 0
M  V30 16174 C 2835.11 7.20825 -2.7076 0
M  V30 16175 C 2835.84 7.45864 -1.40599 0
M  V30 16176 O 2836.05 6.17651 -0.734225 0
M  V30 16177 C 2837.24 8.05808 -1.51899 0
M  V30 16178 O 2837.63 8.74358 -0.335205 0
M  V30 16179 C 2838.12 6.83093 -1.70294 0
M  V30 16180 C 2837.41 5.79992 -0.836974 0
M  V30 16181 N 2837.46 4.41864 -1.38293 0
M  V30 16182 H 2834.62 8.13644 -3.0377 0
M  V30 16183 H 2834.35 6.42788 -2.55485 0
M  V30 16184 H 2835.22 8.12039 -0.792769 0
M  V30 16185 P 2839.18 8.91 -8.50179e-11 0
M  V30 16186 O 2839.4 10.1726 0.733694 0
M  V30 16187 O 2839.97 8.73148 -1.23936 0
M  V30 16188 O 2839.43 7.66872 0.971405 0
M  V30 16189 C 2838.49 7.42309 2.04641 0
M  V30 16190 C 2839.22 6.86059 3.24661 0
M  V30 16191 O 2839.43 5.42847 3.03646 0
M  V30 16192 C 2840.62 7.41196 3.50753 0
M  V30 16193 O 2841.01 7.27073 4.86816 0
M  V30 16194 C 2841.5 6.5273 2.63741 0
M  V30 16195 C 2840.79 5.1842 2.73198 0
M  V30 16196 N 2840.84 4.38762 1.4784 0
M  V30 16197 H 2838 8.36803 2.32493 0
M  V30 16198 H 2837.73 6.70197 1.71129 0
M  V30 16199 H 2838.6 7.03551 4.13168 0
M  V30 16200 P 2842.56 7.20834 5.23717 0
M  V30 16201 O 2842.78 7.79853 6.57286 0
M  V30 16202 O 2843.35 7.79239 4.12957 0
M  V30 16203 O 2842.81 5.63315 5.29344 0
M  V30 16204 C 2841.87 4.80255 6.01876 0
M  V30 16205 C 2842.6 3.64202 6.65911 0
M  V30 16206 O 2842.81 2.60694 5.64732 0
M  V30 16207 C 2844 3.93473 7.1943 0
M  V30 16208 O 2844.39 3.02071 8.21205 0
M  V30 16209 C 2844.88 3.73047 5.97036 0
M  V30 16210 C 2844.17 2.58828 5.25741 0
M  V30 16211 N 2844.22 2.68068 3.77503 0
M  V30 16212 H 2841.38 5.40332 6.79951 0
M  V30 16213 H 2841.11 4.41613 5.32378 0
M  V30 16214 H 2841.98 3.26331 7.47797 0
M  V30 16215 P 2845.94 2.75334 8.47391 0
M  V30 16216 O 2846.16 2.44619 9.90336 0
M  V30 16217 O 2846.73 3.87776 7.92294 0
M  V30 16218 O 2846.19 1.4459 7.59357 0
M  V30 16219 C 2845.25 0.347653 7.69315 0
M  V30 16220 C 2845.98 -0.96767 7.52806 0
M  V30 16221 O 2846.19 -1.21055 6.10208 0
M  V30 16222 C 2847.38 -1.04557 8.13408 0
M  V30 16223 O 2847.77 -2.38311 8.41922 0
M  V30 16224 C 2848.26 -0.491279 7.02284 0
M  V30 16225 C 2847.55 -0.996264 5.77469 0
M  V30 16226 N 2847.6 -0.0501916 4.62973 0
M  V30 16227 H 2844.77 0.374765 8.67791 0
M  V30 16228 H 2844.49 0.443613 6.90476 0
M  V30 16229 H 2845.36 -1.75559 7.96891 0
M  V30 16230 H 2848.02 -1.94563 5.46818 0
M  V30 16231 H 2848.3 0.608651 7.04676 0
M  V30 16232 H 2849.29 -0.889796 7.09039 0
M  V30 16233 H 2847.45 -0.433128 9.04664 0
M  V30 16234 P 2849.32 -2.75334 8.47391 0
M  V30 16235 O 2849.54 -3.84204 9.44982 0
M  V30 16236 O 2850.11 -1.51982 8.68909 0
M  V30 16237 O 2849.57 -3.29363 6.99321 0
M  V30 16238 C 2848.63 -4.24066 6.42823 0
M  V30 16239 C 2849.36 -5.20775 5.52155 0
M  V30 16240 O 2849.57 -4.56607 4.22514 0
M  V30 16241 C 2850.76 -5.62697 5.96604 0
M  V30 16242 O 2851.15 -6.87667 5.41053 0
M  V30 16243 C 2851.64 -4.52537 5.39283 0
M  V30 16244 C 2850.93 -4.20027 4.08623 0
M  V30 16245 N 2850.98 -2.76189 3.71603 0
M  V30 16246 C 2850.9 -1.66944 4.54297 0
M  V30 16247 N 2850.97 -0.536169 3.91344 0
M  V30 16248 C 2851.12 -0.901569 2.58849 0
M  V30 16249 C 2851.25 -0.146599 1.40236 0
M  V30 16250 N 2851.26 1.18234 1.37046 0
M  V30 16251 N 2851.37 -0.822941 0.249738 0
M  V30 16252 C 2851.36 -2.15179 0.280525 0
M  V30 16253 N 2851.24 -2.96414 1.30822 0
M  V30 16254 C 2851.12 -2.25804 2.44748 0
M  V30 16255 H 2848.15 -4.79756 7.24086 0
M  V30 16256 H 2847.87 -3.69963 5.84682 0
M  V30 16257 H 2848.74 -6.10431 5.41508 0
M  V30 16258 H 2851.4 -4.78816 3.28024 0
M  V30 16259 H 2851.68 -3.64957 6.05871 0
M  V30 16260 H 2852.67 -4.88748 5.21323 0
M  V30 16261 H 2850.83 -5.66789 7.0643 0
M  V30 16262 H 2850.79 -1.74684 5.62396 0
M  V30 16263 H 2851.17 1.71949 2.24394 0
M  V30 16264 H 2851.36 1.67511 0.470742 0
M  V30 16265 H 2851.47 -2.63704 -0.6828 0
M  V30 16266 P 2852.7 -7.20834 5.23717 0
M  V30 16267 O 2852.92 -8.66274 5.38678 0
M  V30 16268 O 2853.49 -6.33687 6.13629 0
M  V30 16269 O 2852.95 -6.7751 3.72168 0
M  V30 16270 C 2852.01 -7.20919 2.70795 0
M  V30 16271 C 2852.74 -7.45864 1.40599 0
M  V30 16272 O 2852.95 -6.17751 0.734343 0
M  V30 16273 C 2854.14 -8.05906 1.51917 0
M  V30 16274 O 2854.53 -8.74358 0.335205 0
M  V30 16275 C 2855.02 -6.83093 1.70294 0
M  V30 16276 C 2854.31 -5.79992 0.836974 0
M  V30 16277 N 2854.36 -4.41864 1.38293 0
M  V30 16278 H 2851.53 -8.13738 3.03804 0
M  V30 16279 H 2851.25 -6.42974 2.55559 0
M  V30 16280 H 2852.12 -8.12139 0.792866 0
M  V30 16281 H 2854.78 -5.80178 -0.160643 0
M  V30 16282 H 2855.06 -6.51379 2.75643 0
M  V30 16283 H 2856.05 -7.01832 1.3448 0
M  V30 16284 H 2854.21 -8.73771 2.38364 0
M  V30 16285 P 2856.08 -8.91 8.61269e-11 0
M  V30 16286 O 2856.3 -10.1726 -0.733694 0
M  V30 16287 O 2856.87 -8.73148 1.23936 0
M  V30 16288 O 2856.33 -7.66872 -0.971405 0
M  V30 16289 C 2855.39 -7.42309 -2.04641 0
M  V30 16290 C 2856.12 -6.86059 -3.24661 0
M  V30 16291 O 2856.33 -5.42847 -3.03646 0
M  V30 16292 C 2857.52 -7.41196 -3.50753 0
M  V30 16293 O 2857.91 -7.27073 -4.86816 0
M  V30 16294 C 2858.4 -6.5273 -2.63741 0
M  V30 16295 C 2857.69 -5.1842 -2.73198 0
M  V30 16296 N 2857.74 -4.38762 -1.4784 0
M  V30 16297 H 2854.9 -8.36803 -2.32493 0
M  V30 16298 H 2854.63 -6.70197 -1.71129 0
M  V30 16299 H 2855.5 -7.03551 -4.13168 0
M  V30 16300 P 2859.46 -7.20834 -5.23717 0
M  V30 16301 O 2859.68 -7.79853 -6.57286 0
M  V30 16302 O 2860.25 -7.79239 -4.12957 0
M  V30 16303 O 2859.71 -5.63315 -5.29344 0
M  V30 16304 C 2858.77 -4.80255 -6.01876 0
M  V30 16305 C 2859.5 -3.64202 -6.65911 0
M  V30 16306 O 2859.71 -2.60694 -5.64732 0
M  V30 16307 C 2860.9 -3.93473 -7.1943 0
M  V30 16308 O 2861.29 -3.02071 -8.21205 0
M  V30 16309 C 2861.78 -3.73047 -5.97036 0
M  V30 16310 C 2861.07 -2.58828 -5.25741 0
M  V30 16311 N 2861.12 -2.68068 -3.77503 0
M  V30 16312 C 2861.04 -3.79715 -2.96723 0
M  V30 16313 N 2861.12 -3.5377 -1.68852 0
M  V30 16314 C 2861.26 -2.15054 -1.63254 0
M  V30 16315 C 2861.39 -1.28964 -0.518571 0
M  V30 16316 O 2861.41 -1.56826 0.679156 0
M  V30 16317 N 2861.51 0.0538097 -0.918425 0
M  V30 16318 C 2861.51 0.494275 -2.22578 0
M  V30 16319 N 2861.64 1.81086 -2.40434 0
M  V30 16320 N 2861.38 -0.313645 -3.27502 0
M  V30 16321 C 2861.26 -1.61829 -2.91033 0
M  V30 16322 H 2858.28 -5.40332 -6.79951 0
M  V30 16323 H 2858.01 -4.41613 -5.32378 0
M  V30 16324 H 2858.88 -3.26331 -7.47797 0
M  V30 16325 H 2861.54 -1.63422 -5.56814 0
M  V30 16326 H 2861.82 -4.63374 -5.34244 0
M  V30 16327 H 2862.81 -3.44728 -6.25838 0
M  V30 16328 H 2860.97 -4.96652 -7.57263 0
M  V30 16329 H 2860.92 -4.80617 -3.3614 0
M  V30 16330 H 2861.61 0.742702 -0.199384 0
M  V30 16331 H 2861.64 2.20598 -3.35588 0
M  V30 16332 H 2861.74 2.43518 -1.58945 0
M  V30 16333 P 2862.84 -2.75334 -8.47391 0
M  V30 16334 O 2863.06 -2.44571 -9.90142 0
M  V30 16335 O 2863.63 -3.87688 -7.92115 0
M  V30 16336 O 2863.09 -1.4459 -7.59357 0
M  V30 16337 C 2862.15 -0.347608 -7.69215 0
M  V30 16338 C 2862.88 0.96767 -7.52806 0
M  V30 16339 O 2863.09 1.21036 -6.1011 0
M  V30 16340 C 2864.28 1.04544 -8.13308 0
M  V30 16341 O 2864.67 2.38311 -8.41922 0
M  V30 16342 C 2865.16 0.491279 -7.02284 0
M  V30 16343 C 2864.45 0.996264 -5.77469 0
M  V30 16344 N 2864.5 0.0501916 -4.62973 0
M  V30 16345 C 2864.42 -1.32786 -4.63244 0
M  V30 16346 N 2864.5 -1.86957 -3.44545 0
M  V30 16347 C 2864.64 -0.780241 -2.58481 0
M  V30 16348 C 2864.77 -0.738536 -1.17757 0
M  V30 16349 O 2864.79 -1.66794 -0.372349 0
M  V30 16350 N 2864.89 0.58337 -0.711393 0
M  V30 16351 C 2864.89 1.70816 -1.51017 0
M  V30 16352 N 2865.02 2.87826 -0.880757 0
M  V30 16353 N 2864.76 1.67126 -2.8339 0
M  V30 16354 C 2864.64 0.401421 -3.30572 0
M  V30 16355 H 2861.66 -0.374722 -8.67691 0
M  V30 16356 H 2861.39 -0.443485 -6.90277 0
M  V30 16357 H 2862.26 1.75537 -7.96793 0
M  V30 16358 H 2864.92 1.95076 -5.46529 0
M  V30 16359 H 2865.2 -0.608565 -7.04577 0
M  V30 16360 H 2866.19 0.889672 -7.08939 0
M  V30 16361 H 2864.35 0.43308 -9.04564 0
M  V30 16362 H 2864.3 -1.91249 -5.54442 0
M  V30 16363 H 2864.99 0.718054 0.275244 0
M  V30 16364 H 2865.02 3.75721 -1.41832 0
M  V30 16365 H 2865.12 2.90436 0.145468 0
M  V30 16366 P 2866.22 2.75334 -8.47391 0
M  V30 16367 O 2866.44 3.84204 -9.44982 0
M  V30 16368 O 2867.01 1.51982 -8.68909 0
M  V30 16369 O 2866.47 3.29363 -6.99321 0
M  V30 16370 C 2865.53 4.24066 -6.42823 0
M  V30 16371 C 2866.26 5.20775 -5.52155 0
M  V30 16372 O 2866.47 4.56607 -4.22514 0
M  V30 16373 C 2867.66 5.62697 -5.96604 0
M  V30 16374 O 2868.05 6.87667 -5.41053 0
M  V30 16375 C 2868.54 4.52537 -5.39283 0
M  V30 16376 C 2867.83 4.20027 -4.08623 0
M  V30 16377 N 2867.88 2.76189 -3.71603 0
M  V30 16378 H 2865.05 4.79756 -7.24086 0
M  V30 16379 H 2864.77 3.69963 -5.84682 0
M  V30 16380 H 2865.64 6.10431 -5.41508 0
M  V30 16381 H 2868.3 4.78816 -3.28024 0
M  V30 16382 H 2868.58 3.64957 -6.05871 0
M  V30 16383 H 2869.57 4.88748 -5.21323 0
M  V30 16384 H 2867.73 5.66789 -7.0643 0
M  V30 16385 P 2869.6 7.20834 -5.23717 0
M  V30 16386 O 2869.82 8.66104 -5.38572 0
M  V30 16387 O 2870.39 6.33544 -6.1349 0
M  V30 16388 O 2869.85 6.7751 -3.72168 0
M  V30 16389 C 2868.91 7.20825 -2.7076 0
M  V30 16390 C 2869.64 7.45864 -1.40599 0
M  V30 16391 O 2869.85 6.17651 -0.734225 0
M  V30 16392 C 2871.04 8.05808 -1.51899 0
M  V30 16393 O 2871.43 8.74358 -0.335205 0
M  V30 16394 C 2871.92 6.83093 -1.70294 0
M  V30 16395 C 2871.21 5.79992 -0.836974 0
M  V30 16396 N 2871.26 4.41864 -1.38293 0
M  V30 16397 H 2868.42 8.13644 -3.0377 0
M  V30 16398 H 2868.15 6.42788 -2.55485 0
M  V30 16399 H 2869.02 8.12039 -0.792769 0
M  V30 16400 P 2872.98 8.91 -8.72359e-11 0
M  V30 16401 O 2873.2 10.1726 0.733694 0
M  V30 16402 O 2873.77 8.73148 -1.23936 0
M  V30 16403 O 2873.23 7.66872 0.971405 0
M  V30 16404 C 2872.29 7.42309 2.04641 0
M  V30 16405 C 2873.02 6.86059 3.24661 0
M  V30 16406 O 2873.23 5.42847 3.03646 0
M  V30 16407 C 2874.42 7.41196 3.50753 0
M  V30 16408 O 2874.81 7.27073 4.86816 0
M  V30 16409 C 2875.3 6.5273 2.63741 0
M  V30 16410 C 2874.59 5.1842 2.73198 0
M  V30 16411 N 2874.64 4.38762 1.4784 0
M  V30 16412 H 2871.8 8.36803 2.32493 0
M  V30 16413 H 2871.53 6.70197 1.71129 0
M  V30 16414 H 2872.4 7.03551 4.13168 0
M  V30 16415 P 2876.36 7.20834 5.23717 0
M  V30 16416 O 2876.58 7.79853 6.57286 0
M  V30 16417 O 2877.15 7.79239 4.12957 0
M  V30 16418 O 2876.61 5.63315 5.29344 0
M  V30 16419 C 2875.67 4.80255 6.01876 0
M  V30 16420 C 2876.4 3.64202 6.65911 0
M  V30 16421 O 2876.61 2.60694 5.64732 0
M  V30 16422 C 2877.8 3.93473 7.1943 0
M  V30 16423 O 2878.19 3.02071 8.21205 0
M  V30 16424 C 2878.68 3.73047 5.97036 0
M  V30 16425 C 2877.97 2.58828 5.25741 0
M  V30 16426 N 2878.02 2.68068 3.77503 0
M  V30 16427 H 2875.18 5.40332 6.79951 0
M  V30 16428 H 2874.91 4.41613 5.32378 0
M  V30 16429 H 2875.78 3.26331 7.47797 0
M  V30 16430 P 2879.74 2.75334 8.47391 0
M  V30 16431 O 2879.96 2.44571 9.90142 0
M  V30 16432 O 2880.53 3.87688 7.92115 0
M  V30 16433 O 2879.99 1.4459 7.59357 0
M  V30 16434 C 2879.05 0.347608 7.69215 0
M  V30 16435 C 2879.78 -0.96767 7.52806 0
M  V30 16436 O 2879.99 -1.21036 6.1011 0
M  V30 16437 C 2881.18 -1.04544 8.13308 0
M  V30 16438 O 2881.57 -2.38311 8.41922 0
M  V30 16439 C 2882.06 -0.491279 7.02284 0
M  V30 16440 C 2881.35 -0.996264 5.77469 0
M  V30 16441 N 2881.4 -0.0501916 4.62973 0
M  V30 16442 H 2878.56 0.374722 8.67691 0
M  V30 16443 H 2878.29 0.443485 6.90277 0
M  V30 16444 H 2879.16 -1.75537 7.96793 0
M  V30 16445 P 2883.12 -2.75334 8.47391 0
M  V30 16446 O 2883.34 -3.84128 9.44797 0
M  V30 16447 O 2883.91 -1.51947 8.68712 0
M  V30 16448 O 2883.37 -3.29363 6.99321 0
M  V30 16449 C 2882.43 -4.24011 6.4274 0
M  V30 16450 C 2883.16 -5.20775 5.52155 0
M  V30 16451 O 2883.37 -4.56534 4.22446 0
M  V30 16452 C 2884.56 -5.62629 5.96531 0
M  V30 16453 O 2884.95 -6.87667 5.41053 0
M  V30 16454 C 2885.44 -4.52537 5.39283 0
M  V30 16455 C 2884.73 -4.20027 4.08623 0
M  V30 16456 N 2884.78 -2.76189 3.71603 0
M  V30 16457 H 2881.94 -4.797 7.24003 0
M  V30 16458 H 2881.67 -3.69856 5.84513 0
M  V30 16459 H 2882.54 -6.10356 5.41441 0
M  V30 16460 P 2886.5 -7.20834 5.23717 0
M  V30 16461 O 2886.72 -8.66104 5.38572 0
M  V30 16462 O 2887.29 -6.33544 6.1349 0
M  V30 16463 O 2886.75 -6.7751 3.72168 0
M  V30 16464 C 2885.81 -7.20825 2.7076 0
M  V30 16465 C 2886.54 -7.45864 1.40599 0
M  V30 16466 O 2886.75 -6.17651 0.734225 0
M  V30 16467 C 2887.94 -8.05808 1.51899 0
M  V30 16468 O 2888.33 -8.74358 0.335205 0
M  V30 16469 C 2888.82 -6.83093 1.70294 0
M  V30 16470 C 2888.11 -5.79992 0.836974 0
M  V30 16471 N 2888.16 -4.41864 1.38293 0
M  V30 16472 H 2885.32 -8.13644 3.0377 0
M  V30 16473 H 2885.05 -6.42788 2.55485 0
M  V30 16474 H 2885.92 -8.12039 0.792769 0
M  V30 16475 P 2889.88 -8.91 8.83449e-11 0
M  V30 16476 O 2890.1 -10.1726 -0.733694 0
M  V30 16477 O 2890.67 -8.73148 1.23936 0
M  V30 16478 O 2890.13 -7.66872 -0.971405 0
M  V30 16479 C 2889.19 -7.42309 -2.04641 0
M  V30 16480 C 2889.92 -6.86059 -3.24661 0
M  V30 16481 O 2890.13 -5.42847 -3.03646 0
M  V30 16482 C 2891.32 -7.41196 -3.50753 0
M  V30 16483 O 2891.71 -7.27073 -4.86816 0
M  V30 16484 C 2892.2 -6.5273 -2.63741 0
M  V30 16485 C 2891.49 -5.1842 -2.73198 0
M  V30 16486 N 2891.54 -4.38762 -1.4784 0
M  V30 16487 H 2888.7 -8.36803 -2.32493 0
M  V30 16488 H 2888.43 -6.70197 -1.71129 0
M  V30 16489 H 2889.3 -7.03551 -4.13168 0
M  V30 16490 P 2893.26 -7.20834 -5.23717 0
M  V30 16491 O 2893.48 -7.79853 -6.57286 0
M  V30 16492 O 2894.05 -7.79239 -4.12957 0
M  V30 16493 O 2893.51 -5.63315 -5.29344 0
M  V30 16494 C 2892.57 -4.80255 -6.01876 0
M  V30 16495 C 2893.3 -3.64202 -6.65911 0
M  V30 16496 O 2893.51 -2.60694 -5.64732 0
M  V30 16497 C 2894.7 -3.93473 -7.1943 0
M  V30 16498 O 2895.09 -3.02071 -8.21205 0
M  V30 16499 C 2895.58 -3.73047 -5.97036 0
M  V30 16500 C 2894.87 -2.58828 -5.25741 0
M  V30 16501 N 2894.92 -2.68068 -3.77503 0
M  V30 16502 C 2894.84 -3.79715 -2.96723 0
M  V30 16503 N 2894.92 -3.5377 -1.68852 0
M  V30 16504 C 2895.06 -2.15054 -1.63254 0
M  V30 16505 C 2895.19 -1.28964 -0.518571 0
M  V30 16506 O 2895.21 -1.56826 0.679156 0
M  V30 16507 N 2895.31 0.0538097 -0.918425 0
M  V30 16508 C 2895.31 0.494275 -2.22578 0
M  V30 16509 N 2895.44 1.81086 -2.40434 0
M  V30 16510 N 2895.18 -0.313645 -3.27502 0
M  V30 16511 C 2895.06 -1.61829 -2.91033 0
M  V30 16512 H 2892.08 -5.40332 -6.79951 0
M  V30 16513 H 2891.81 -4.41613 -5.32378 0
M  V30 16514 H 2892.68 -3.26331 -7.47797 0
M  V30 16515 H 2895.34 -1.63422 -5.56814 0
M  V30 16516 H 2895.61 -4.63374 -5.34244 0
M  V30 16517 H 2896.61 -3.44728 -6.25838 0
M  V30 16518 H 2894.77 -4.96652 -7.57263 0
M  V30 16519 H 2894.72 -4.80617 -3.3614 0
M  V30 16520 H 2895.41 0.742702 -0.199384 0
M  V30 16521 H 2895.44 2.20598 -3.35588 0
M  V30 16522 H 2895.54 2.43518 -1.58945 0
M  V30 16523 P 2896.64 -2.75334 -8.47391 0
M  V30 16524 O 2896.86 -2.44571 -9.90142 0
M  V30 16525 O 2897.43 -3.87688 -7.92115 0
M  V30 16526 O 2896.89 -1.4459 -7.59357 0
M  V30 16527 C 2895.95 -0.347608 -7.69215 0
M  V30 16528 C 2896.68 0.96767 -7.52806 0
M  V30 16529 O 2896.89 1.21036 -6.1011 0
M  V30 16530 C 2898.08 1.04544 -8.13308 0
M  V30 16531 O 2898.47 2.38311 -8.41922 0
M  V30 16532 C 2898.96 0.491279 -7.02284 0
M  V30 16533 C 2898.25 0.996264 -5.77469 0
M  V30 16534 N 2898.3 0.0501916 -4.62973 0
M  V30 16535 H 2895.46 -0.374722 -8.67691 0
M  V30 16536 H 2895.19 -0.443485 -6.90277 0
M  V30 16537 H 2896.06 1.75537 -7.96793 0
M  V30 16538 P 2900.02 2.75334 -8.47391 0
M  V30 16539 O 2900.24 3.84128 -9.44797 0
M  V30 16540 O 2900.81 1.51947 -8.68712 0
M  V30 16541 O 2900.27 3.29363 -6.99321 0
M  V30 16542 C 2899.33 4.24011 -6.4274 0
M  V30 16543 C 2900.06 5.20775 -5.52155 0
M  V30 16544 O 2900.27 4.56534 -4.22446 0
M  V30 16545 C 2901.46 5.62629 -5.96531 0
M  V30 16546 O 2901.85 6.87667 -5.41053 0
M  V30 16547 C 2902.34 4.52537 -5.39283 0
M  V30 16548 C 2901.63 4.20027 -4.08623 0
M  V30 16549 N 2901.68 2.76189 -3.71603 0
M  V30 16550 H 2898.84 4.797 -7.24003 0
M  V30 16551 H 2898.57 3.69856 -5.84513 0
M  V30 16552 H 2899.44 6.10356 -5.41441 0
M  V30 16553 P 2903.4 7.20834 -5.23717 0
M  V30 16554 O 2903.62 8.66104 -5.38572 0
M  V30 16555 O 2904.19 6.33544 -6.1349 0
M  V30 16556 O 2903.65 6.7751 -3.72168 0
M  V30 16557 C 2902.71 7.20825 -2.7076 0
M  V30 16558 C 2903.44 7.45864 -1.40599 0
M  V30 16559 O 2903.65 6.17651 -0.734225 0
M  V30 16560 C 2904.84 8.05808 -1.51899 0
M  V30 16561 O 2905.23 8.74358 -0.335205 0
M  V30 16562 C 2905.72 6.83093 -1.70294 0
M  V30 16563 C 2905.01 5.79992 -0.836974 0
M  V30 16564 N 2905.06 4.41864 -1.38293 0
M  V30 16565 C 2904.98 3.99538 -2.69438 0
M  V30 16566 N 2905.06 2.69909 -2.84277 0
M  V30 16567 C 2905.2 2.21719 -1.5408 0
M  V30 16568 C 2905.33 0.891712 -1.06628 0
M  V30 16569 O 2905.35 -0.161298 -1.70137 0
M  V30 16570 N 2905.45 0.856846 0.334985 0
M  V30 16571 C 2905.45 1.9641 1.15789 0
M  V30 16572 N 2905.58 1.72708 2.46522 0
M  V30 16573 N 2905.32 3.21165 0.713741 0
M  V30 16574 C 2905.2 3.26797 -0.639748 0
M  V30 16575 H 2902.22 8.13644 -3.0377 0
M  V30 16576 H 2901.95 6.42788 -2.55485 0
M  V30 16577 H 2902.82 8.12039 -0.792769 0
M  V30 16578 H 2905.48 5.80061 0.166416 0
M  V30 16579 H 2905.75 6.51287 -2.75604 0
M  V30 16580 H 2906.75 7.01734 -1.34462 0
M  V30 16581 H 2904.91 8.73674 -2.38337 0
M  V30 16582 H 2904.86 4.68207 -3.53221 0
M  V30 16583 H 2905.55 -0.0398818 0.767965 0
M  V30 16584 H 2905.58 2.50995 3.13503 0
M  V30 16585 H 2905.68 0.759148 2.80716 0
M  V30 16586 P 2906.78 8.91 -8.94539e-11 0
M  V30 16587 O 2907 10.1726 0.733694 0
M  V30 16588 O 2907.57 8.73148 -1.23936 0
M  V30 16589 O 2907.03 7.66872 0.971405 0
M  V30 16590 C 2906.09 7.42309 2.04641 0
M  V30 16591 C 2906.82 6.86059 3.24661 0
M  V30 16592 O 2907.03 5.42847 3.03646 0
M  V30 16593 C 2908.22 7.41196 3.50753 0
M  V30 16594 O 2908.61 7.27073 4.86816 0
M  V30 16595 C 2909.1 6.5273 2.63741 0
M  V30 16596 C 2908.39 5.1842 2.73198 0
M  V30 16597 N 2908.44 4.38762 1.4784 0
M  V30 16598 H 2905.6 8.36803 2.32493 0
M  V30 16599 H 2905.33 6.70197 1.71129 0
M  V30 16600 H 2906.2 7.03551 4.13168 0
M  V30 16601 P 2910.16 7.20834 5.23717 0
M  V30 16602 O 2910.38 7.7993 6.57351 0
M  V30 16603 O 2910.95 7.79328 4.13004 0
M  V30 16604 O 2910.41 5.63315 5.29344 0
M  V30 16605 C 2909.47 4.80193 6.01798 0
M  V30 16606 C 2910.2 3.64202 6.65911 0
M  V30 16607 O 2910.41 2.60694 5.64732 0
M  V30 16608 C 2911.6 3.93473 7.1943 0
M  V30 16609 O 2911.99 3.02071 8.21205 0
M  V30 16610 C 2912.48 3.73047 5.97036 0
M  V30 16611 C 2911.77 2.58828 5.25741 0
M  V30 16612 N 2911.82 2.6801 3.77422 0
M  V30 16613 C 2911.97 1.50443 3.07133 0
M  V30 16614 O 2912.06 0.419406 3.61576 0
M  V30 16615 N 2912.01 1.6403 1.69677 0
M  V30 16616 C 2911.92 2.81206 0.986255 0
M  V30 16617 O 2911.97 2.80892 -0.249754 0
M  V30 16618 C 2911.77 3.99158 1.80325 0
M  V30 16619 C 2911.66 5.29309 1.06921 0
M  V30 16620 C 2911.72 3.89779 3.1476 0
M  V30 16621 H 2908.98 5.40332 6.79951 0
M  V30 16622 H 2908.71 4.41549 5.32301 0
M  V30 16623 H 2909.58 3.26331 7.47797 0
M  V30 16624 H 2912.24 1.6395 5.56554 0
M  V30 16625 H 2912.51 4.63439 5.3432 0
M  V30 16626 H 2913.51 3.44728 6.25838 0
M  V30 16627 H 2911.67 4.96652 7.57263 0
M  V30 16628 H 2911.6 4.80159 3.74441 0
M  V30 16629 H 2912.63 5.81459 1.09608 0
M  V30 16630 H 2910.89 5.9187 1.54487 0
M  V30 16631 H 2911.38 5.10095 0.0220288 0
M  V30 16632 H 2912.12 0.798962 1.16664 0
M  V30 16633 P 2913.54 2.75334 8.47391 0
M  V30 16634 O 2913.76 2.44595 9.90239 0
M  V30 16635 O 2914.33 3.87732 7.92204 0
M  V30 16636 O 2913.79 1.4459 7.59357 0
M  V30 16637 C 2912.85 0.347563 7.69115 0
M  V30 16638 C 2913.58 -0.96767 7.52806 0
M  V30 16639 O 2913.79 -1.21036 6.1011 0
M  V30 16640 C 2914.98 -1.04544 8.13308 0
M  V30 16641 O 2915.37 -2.38311 8.41922 0
M  V30 16642 C 2915.86 -0.491279 7.02284 0
M  V30 16643 C 2915.15 -0.996264 5.77469 0
M  V30 16644 N 2915.2 -0.0501808 4.62873 0
M  V30 16645 C 2915.35 -0.588177 3.36904 0
M  V30 16646 O 2915.44 -1.78598 3.17173 0
M  V30 16647 N 2915.39 0.329694 2.33686 0
M  V30 16648 C 2915.3 1.6953 2.45079 0
M  V30 16649 C 2915.15 2.16933 3.80505 0
M  V30 16650 C 2915.1 1.30326 4.83752 0
M  V30 16651 H 2912.36 0.374722 8.67691 0
M  V30 16652 H 2912.09 0.443421 6.90177 0
M  V30 16653 H 2912.96 -1.75537 7.96793 0
M  V30 16654 H 2915.62 -1.94496 5.46629 0
M  V30 16655 H 2915.89 0.608651 7.04676 0
M  V30 16656 H 2916.89 -0.889672 7.08939 0
M  V30 16657 H 2915.05 -0.43308 9.04564 0
M  V30 16658 H 2914.98 1.68366 5.8516 0
M  V30 16659 P 2916.92 -2.75334 8.47391 0
M  V30 16660 O 2917.14 -3.84128 9.44797 0
M  V30 16661 O 2917.71 -1.51947 8.68712 0
M  V30 16662 O 2917.17 -3.29363 6.99321 0
M  V30 16663 C 2916.23 -4.24011 6.4274 0
M  V30 16664 C 2916.96 -5.20775 5.52155 0
M  V30 16665 O 2917.17 -4.56534 4.22446 0
M  V30 16666 C 2918.36 -5.62629 5.96531 0
M  V30 16667 O 2918.75 -6.87667 5.41053 0
M  V30 16668 C 2919.24 -4.52537 5.39283 0
M  V30 16669 C 2918.53 -4.20027 4.08623 0
M  V30 16670 N 2918.58 -2.76189 3.71603 0
M  V30 16671 H 2915.74 -4.797 7.24003 0
M  V30 16672 H 2915.47 -3.69856 5.84513 0
M  V30 16673 H 2916.34 -6.10356 5.41441 0
M  V30 16674 P 2920.3 -7.20834 5.23717 0
M  V30 16675 O 2920.52 -8.66189 5.38625 0
M  V30 16676 O 2921.09 -6.33615 6.1356 0
M  V30 16677 O 2920.55 -6.7751 3.72168 0
M  V30 16678 C 2919.61 -7.20732 2.70725 0
M  V30 16679 C 2920.34 -7.45864 1.40599 0
M  V30 16680 O 2920.55 -6.17651 0.734225 0
M  V30 16681 C 2921.74 -8.05808 1.51899 0
M  V30 16682 O 2922.13 -8.74358 0.335205 0
M  V30 16683 C 2922.62 -6.83093 1.70294 0
M  V30 16684 C 2921.91 -5.79992 0.836974 0
M  V30 16685 N 2921.96 -4.41769 1.38263 0
M  V30 16686 C 2922.11 -3.38591 0.481702 0
M  V30 16687 O 2922.2 -3.56839 -0.718452 0
M  V30 16688 N 2922.15 -2.1206 1.03569 0
M  V30 16689 C 2922.06 -1.80696 2.36966 0
M  V30 16690 C 2921.91 -2.94845 3.23898 0
M  V30 16691 C 2921.86 -4.19803 2.73435 0
M  V30 16692 H 2919.12 -8.13644 3.0377 0
M  V30 16693 H 2918.85 -6.42695 2.55448 0
M  V30 16694 H 2919.72 -8.12039 0.792769 0
M  V30 16695 H 2922.38 -5.79978 -0.160587 0
M  V30 16696 H 2922.65 -6.51379 2.75643 0
M  V30 16697 H 2923.65 -7.01734 1.34462 0
M  V30 16698 H 2921.81 -8.73674 2.38337 0
M  V30 16699 H 2921.74 -5.04492 3.4095 0
M  V30 16700 P 2923.68 -8.91 9.05629e-11 0
M  V30 16701 O 2923.9 -10.1726 -0.733694 0
M  V30 16702 O 2924.47 -8.73148 1.23936 0
M  V30 16703 O 2923.93 -7.66872 -0.971405 0
M  V30 16704 C 2922.99 -7.42309 -2.04641 0
M  V30 16705 C 2923.72 -6.86059 -3.24661 0
M  V30 16706 O 2923.93 -5.42847 -3.03646 0
M  V30 16707 C 2925.12 -7.41196 -3.50753 0
M  V30 16708 O 2925.51 -7.27073 -4.86816 0
M  V30 16709 C 2926 -6.5273 -2.63741 0
M  V30 16710 C 2925.29 -5.1842 -2.73198 0
M  V30 16711 N 2925.34 -4.38762 -1.4784 0
M  V30 16712 H 2922.5 -8.36803 -2.32493 0
M  V30 16713 H 2922.23 -6.70197 -1.71129 0
M  V30 16714 H 2923.1 -7.03551 -4.13168 0
M  V30 16715 P 2927.06 -7.20834 -5.23717 0
M  V30 16716 O 2927.28 -7.79853 -6.57286 0
M  V30 16717 O 2927.85 -7.79239 -4.12957 0
M  V30 16718 O 2927.31 -5.63315 -5.29344 0
M  V30 16719 C 2926.37 -4.80255 -6.01876 0
M  V30 16720 C 2927.1 -3.64202 -6.65911 0
M  V30 16721 O 2927.31 -2.60694 -5.64732 0
M  V30 16722 C 2928.5 -3.93473 -7.1943 0
M  V30 16723 O 2928.89 -3.02071 -8.21205 0
M  V30 16724 C 2929.38 -3.73047 -5.97036 0
M  V30 16725 C 2928.67 -2.58828 -5.25741 0
M  V30 16726 N 2928.72 -2.68068 -3.77503 0
M  V30 16727 H 2925.88 -5.40332 -6.79951 0
M  V30 16728 H 2925.61 -4.41613 -5.32378 0
M  V30 16729 H 2926.48 -3.26331 -7.47797 0
M  V30 16730 P 2930.44 -2.75334 -8.47391 0
M  V30 16731 O 2930.66 -2.44619 -9.90336 0
M  V30 16732 O 2931.23 -3.87776 -7.92294 0
M  V30 16733 O 2930.69 -1.4459 -7.59357 0
M  V30 16734 C 2929.75 -0.347653 -7.69315 0
M  V30 16735 C 2930.48 0.96767 -7.52806 0
M  V30 16736 O 2930.69 1.21055 -6.10208 0
M  V30 16737 C 2931.88 1.04557 -8.13408 0
M  V30 16738 O 2932.27 2.38311 -8.41922 0
M  V30 16739 C 2932.76 0.491279 -7.02284 0
M  V30 16740 C 2932.05 0.996264 -5.77469 0
M  V30 16741 N 2932.1 0.0501916 -4.62973 0
M  V30 16742 H 2929.26 -0.374765 -8.67791 0
M  V30 16743 H 2928.99 -0.443613 -6.90476 0
M  V30 16744 H 2929.86 1.75559 -7.96891 0
M  V30 16745 H 2932.52 1.94563 -5.46818 0
M  V30 16746 H 2932.8 -0.608651 -7.04676 0
M  V30 16747 H 2933.79 0.889796 -7.09039 0
M  V30 16748 H 2931.95 0.433128 -9.04664 0
M  V30 16749 P 2933.82 2.75334 -8.47391 0
M  V30 16750 O 2934.04 3.84166 -9.4489 0
M  V30 16751 O 2934.61 1.51964 -8.6881 0
M  V30 16752 O 2934.07 3.29363 -6.99321 0
M  V30 16753 C 2933.13 4.23956 -6.42656 0
M  V30 16754 C 2933.86 5.20775 -5.52155 0
M  V30 16755 O 2934.07 4.56534 -4.22446 0
M  V30 16756 C 2935.26 5.62629 -5.96531 0
M  V30 16757 O 2935.65 6.87667 -5.41053 0
M  V30 16758 C 2936.14 4.52537 -5.39283 0
M  V30 16759 C 2935.43 4.20027 -4.08623 0
M  V30 16760 N 2935.48 2.7613 -3.71522 0
M  V30 16761 C 2935.63 2.45612 -2.37989 0
M  V30 16762 O 2935.72 3.30919 -1.51621 0
M  V30 16763 N 2935.67 1.10684 -2.08435 0
M  V30 16764 C 2935.58 0.0690084 -2.9792 0
M  V30 16765 C 2935.43 0.481522 -4.35345 0
M  V30 16766 C 2935.38 1.78906 -4.67968 0
M  V30 16767 H 2932.64 4.797 -7.24003 0
M  V30 16768 H 2932.37 3.69802 -5.84429 0
M  V30 16769 H 2933.24 6.10356 -5.41441 0
M  V30 16770 H 2935.9 4.78651 -3.27911 0
M  V30 16771 H 2936.17 3.64957 -6.05871 0
M  V30 16772 H 2937.17 4.8868 -5.2125 0
M  V30 16773 H 2935.33 5.66726 -7.06352 0
M  V30 16774 H 2935.26 2.07737 -5.72367 0
M  V30 16775 P 2937.2 7.20834 -5.23717 0
M  V30 16776 O 2937.42 8.66104 -5.38572 0
M  V30 16777 O 2937.99 6.33544 -6.1349 0
M  V30 16778 O 2937.45 6.7751 -3.72168 0
M  V30 16779 C 2936.51 7.20825 -2.7076 0
M  V30 16780 C 2937.24 7.45864 -1.40599 0
M  V30 16781 O 2937.45 6.17651 -0.734225 0
M  V30 16782 C 2938.64 8.05808 -1.51899 0
M  V30 16783 O 2939.03 8.74358 -0.335205 0
M  V30 16784 C 2939.52 6.83093 -1.70294 0
M  V30 16785 C 2938.81 5.79992 -0.836974 0
M  V30 16786 N 2938.86 4.41864 -1.38293 0
M  V30 16787 H 2936.02 8.13644 -3.0377 0
M  V30 16788 H 2935.75 6.42788 -2.55485 0
M  V30 16789 H 2936.62 8.12039 -0.792769 0
M  V30 16790 P 2940.58 8.91 -9.16719e-11 0
M  V30 16791 O 2940.8 10.1726 0.733694 0
M  V30 16792 O 2941.37 8.73148 -1.23936 0
M  V30 16793 O 2940.83 7.66872 0.971405 0
M  V30 16794 C 2939.89 7.42309 2.04641 0
M  V30 16795 C 2940.62 6.86059 3.24661 0
M  V30 16796 O 2940.83 5.42847 3.03646 0
M  V30 16797 C 2942.02 7.41196 3.50753 0
M  V30 16798 O 2942.41 7.27073 4.86816 0
M  V30 16799 C 2942.9 6.5273 2.63741 0
M  V30 16800 C 2942.19 5.1842 2.73198 0
M  V30 16801 N 2942.24 4.38762 1.4784 0
M  V30 16802 H 2939.4 8.36803 2.32493 0
M  V30 16803 H 2939.13 6.70197 1.71129 0
M  V30 16804 H 2940 7.03551 4.13168 0
M  V30 16805 P 2943.96 7.20834 5.23717 0
M  V30 16806 O 2944.18 7.79853 6.57286 0
M  V30 16807 O 2944.75 7.79239 4.12957 0
M  V30 16808 O 2944.21 5.63315 5.29344 0
M  V30 16809 C 2943.27 4.80255 6.01876 0
M  V30 16810 C 2944 3.64202 6.65911 0
M  V30 16811 O 2944.21 2.60694 5.64732 0
M  V30 16812 C 2945.4 3.93473 7.1943 0
M  V30 16813 O 2945.79 3.02071 8.21205 0
M  V30 16814 C 2946.28 3.73047 5.97036 0
M  V30 16815 C 2945.57 2.58828 5.25741 0
M  V30 16816 N 2945.62 2.68068 3.77503 0
M  V30 16817 H 2942.78 5.40332 6.79951 0
M  V30 16818 H 2942.51 4.41613 5.32378 0
M  V30 16819 H 2943.38 3.26331 7.47797 0
M  V30 16820 P 2947.34 2.75334 8.47391 0
M  V30 16821 O 2947.56 2.44595 9.90239 0
M  V30 16822 O 2948.13 3.87732 7.92204 0
M  V30 16823 O 2947.59 1.4459 7.59357 0
M  V30 16824 C 2946.65 0.347563 7.69115 0
M  V30 16825 C 2947.38 -0.96767 7.52806 0
M  V30 16826 O 2947.59 -1.21036 6.1011 0
M  V30 16827 C 2948.78 -1.04544 8.13308 0
M  V30 16828 O 2949.17 -2.38311 8.41922 0
M  V30 16829 C 2949.66 -0.491279 7.02284 0
M  V30 16830 C 2948.95 -0.996264 5.77469 0
M  V30 16831 N 2949 -0.0501808 4.62873 0
M  V30 16832 C 2949.15 -0.588177 3.36904 0
M  V30 16833 O 2949.24 -1.78598 3.17173 0
M  V30 16834 N 2949.19 0.329694 2.33686 0
M  V30 16835 C 2949.1 1.6953 2.45079 0
M  V30 16836 C 2948.95 2.16933 3.80505 0
M  V30 16837 C 2948.9 1.30326 4.83752 0
M  V30 16838 H 2946.16 0.374722 8.67691 0
M  V30 16839 H 2945.89 0.443421 6.90177 0
M  V30 16840 H 2946.76 -1.75537 7.96793 0
M  V30 16841 H 2949.42 -1.94496 5.46629 0
M  V30 16842 H 2949.69 0.608651 7.04676 0
M  V30 16843 H 2950.69 -0.889672 7.08939 0
M  V30 16844 H 2948.85 -0.43308 9.04564 0
M  V30 16845 H 2948.78 1.68366 5.8516 0
M  V30 16846 P 2950.72 -2.75334 8.47391 0
M  V30 16847 O 2950.94 -3.84204 9.44982 0
M  V30 16848 O 2951.51 -1.51982 8.68909 0
M  V30 16849 O 2950.97 -3.29363 6.99321 0
M  V30 16850 C 2950.03 -4.24066 6.42823 0
M  V30 16851 C 2950.76 -5.20775 5.52155 0
M  V30 16852 O 2950.97 -4.56607 4.22514 0
M  V30 16853 C 2952.16 -5.62697 5.96604 0
M  V30 16854 O 2952.55 -6.87667 5.41053 0
M  V30 16855 C 2953.04 -4.52537 5.39283 0
M  V30 16856 C 2952.33 -4.20027 4.08623 0
M  V30 16857 N 2952.38 -2.76189 3.71603 0
M  V30 16858 C 2952.3 -1.66944 4.54297 0
M  V30 16859 N 2952.37 -0.536169 3.91344 0
M  V30 16860 C 2952.52 -0.901569 2.58849 0
M  V30 16861 C 2952.65 -0.146599 1.40236 0
M  V30 16862 N 2952.66 1.18234 1.37046 0
M  V30 16863 N 2952.77 -0.822941 0.249738 0
M  V30 16864 C 2952.76 -2.15179 0.280525 0
M  V30 16865 N 2952.64 -2.96414 1.30822 0
M  V30 16866 C 2952.52 -2.25804 2.44748 0
M  V30 16867 H 2949.54 -4.79756 7.24086 0
M  V30 16868 H 2949.27 -3.69963 5.84682 0
M  V30 16869 H 2950.14 -6.10431 5.41508 0
M  V30 16870 H 2952.8 -4.78816 3.28024 0
M  V30 16871 H 2953.08 -3.64957 6.05871 0
M  V30 16872 H 2954.07 -4.88748 5.21323 0
M  V30 16873 H 2952.23 -5.66789 7.0643 0
M  V30 16874 H 2952.19 -1.74684 5.62396 0
M  V30 16875 H 2952.57 1.71949 2.24394 0
M  V30 16876 H 2952.76 1.67511 0.470742 0
M  V30 16877 H 2952.87 -2.63704 -0.6828 0
M  V30 16878 P 2954.1 -7.20834 5.23717 0
M  V30 16879 O 2954.32 -8.66104 5.38572 0
M  V30 16880 O 2954.89 -6.33544 6.1349 0
M  V30 16881 O 2954.35 -6.7751 3.72168 0
M  V30 16882 C 2953.41 -7.20825 2.7076 0
M  V30 16883 C 2954.14 -7.45864 1.40599 0
M  V30 16884 O 2954.35 -6.17651 0.734225 0
M  V30 16885 C 2955.54 -8.05808 1.51899 0
M  V30 16886 O 2955.93 -8.74358 0.335205 0
M  V30 16887 C 2956.42 -6.83093 1.70294 0
M  V30 16888 C 2955.71 -5.79992 0.836974 0
M  V30 16889 N 2955.76 -4.41864 1.38293 0
M  V30 16890 C 2955.68 -3.99538 2.69438 0
M  V30 16891 N 2955.76 -2.69909 2.84277 0
M  V30 16892 C 2955.9 -2.21719 1.5408 0
M  V30 16893 C 2956.03 -0.891712 1.06628 0
M  V30 16894 N 2956.15 -0.856846 -0.334985 0
M  V30 16895 C 2956.15 -1.9641 -1.15789 0
M  V30 16896 N 2956.28 -1.72708 -2.46522 0
M  V30 16897 N 2956.02 -3.21165 -0.713741 0
M  V30 16898 C 2955.9 -3.26797 0.639748 0
M  V30 16899 H 2952.92 -8.13644 3.0377 0
M  V30 16900 H 2952.65 -6.42788 2.55485 0
M  V30 16901 H 2953.52 -8.12039 0.792769 0
M  V30 16902 P 2957.48 -8.91 9.27809e-11 0
M  V30 16903 O 2957.7 -10.1726 -0.733694 0
M  V30 16904 O 2958.27 -8.73148 1.23936 0
M  V30 16905 O 2957.73 -7.66872 -0.971405 0
M  V30 16906 C 2956.79 -7.42309 -2.04641 0
M  V30 16907 C 2957.52 -6.86059 -3.24661 0
M  V30 16908 O 2957.73 -5.42847 -3.03646 0
M  V30 16909 C 2958.92 -7.41196 -3.50753 0
M  V30 16910 O 2959.31 -7.27073 -4.86816 0
M  V30 16911 C 2959.8 -6.5273 -2.63741 0
M  V30 16912 C 2959.09 -5.1842 -2.73198 0
M  V30 16913 N 2959.14 -4.38762 -1.4784 0
M  V30 16914 H 2956.3 -8.36803 -2.32493 0
M  V30 16915 H 2956.03 -6.70197 -1.71129 0
M  V30 16916 H 2956.9 -7.03551 -4.13168 0
M  V30 16917 P 2960.86 -7.20834 -5.23717 0
M  V30 16918 O 2961.08 -7.79853 -6.57286 0
M  V30 16919 O 2961.65 -7.79239 -4.12957 0
M  V30 16920 O 2961.11 -5.63315 -5.29344 0
M  V30 16921 C 2960.17 -4.80255 -6.01876 0
M  V30 16922 C 2960.9 -3.64202 -6.65911 0
M  V30 16923 O 2961.11 -2.60694 -5.64732 0
M  V30 16924 C 2962.3 -3.93473 -7.1943 0
M  V30 16925 O 2962.69 -3.02071 -8.21205 0
M  V30 16926 C 2963.18 -3.73047 -5.97036 0
M  V30 16927 C 2962.47 -2.58828 -5.25741 0
M  V30 16928 N 2962.52 -2.68068 -3.77503 0
M  V30 16929 H 2959.68 -5.40332 -6.79951 0
M  V30 16930 H 2959.41 -4.41613 -5.32378 0
M  V30 16931 H 2960.28 -3.26331 -7.47797 0
M  V30 16932 P 2964.24 -2.75334 -8.47391 0
M  V30 16933 O 2964.46 -2.44571 -9.90142 0
M  V30 16934 O 2965.03 -3.87688 -7.92115 0
M  V30 16935 O 2964.49 -1.4459 -7.59357 0
M  V30 16936 C 2963.55 -0.347608 -7.69215 0
M  V30 16937 C 2964.28 0.96767 -7.52806 0
M  V30 16938 O 2964.49 1.21036 -6.1011 0
M  V30 16939 C 2965.68 1.04544 -8.13308 0
M  V30 16940 O 2966.07 2.38311 -8.41922 0
M  V30 16941 C 2966.56 0.491279 -7.02284 0
M  V30 16942 C 2965.85 0.996264 -5.77469 0
M  V30 16943 N 2965.9 0.0501916 -4.62973 0
M  V30 16944 H 2963.06 -0.374722 -8.67691 0
M  V30 16945 H 2962.79 -0.443485 -6.90277 0
M  V30 16946 H 2963.66 1.75537 -7.96793 0
M  V30 16947 P 2967.62 2.75334 -8.47391 0
M  V30 16948 O 2967.84 3.84128 -9.44797 0
M  V30 16949 O 2968.41 1.51947 -8.68712 0
M  V30 16950 O 2967.87 3.29363 -6.99321 0
M  V30 16951 C 2966.93 4.24011 -6.4274 0
M  V30 16952 C 2967.66 5.20775 -5.52155 0
M  V30 16953 O 2967.87 4.56534 -4.22446 0
M  V30 16954 C 2969.06 5.62629 -5.96531 0
M  V30 16955 O 2969.45 6.87667 -5.41053 0
M  V30 16956 C 2969.94 4.52537 -5.39283 0
M  V30 16957 C 2969.23 4.20027 -4.08623 0
M  V30 16958 N 2969.28 2.76189 -3.71603 0
M  V30 16959 H 2966.44 4.797 -7.24003 0
M  V30 16960 H 2966.17 3.69856 -5.84513 0
M  V30 16961 H 2967.04 6.10356 -5.41441 0
M  V30 16962 P 2971 7.20834 -5.23717 0
M  V30 16963 O 2971.22 8.66104 -5.38572 0
M  V30 16964 O 2971.79 6.33544 -6.1349 0
M  V30 16965 O 2971.25 6.7751 -3.72168 0
M  V30 16966 C 2970.31 7.20825 -2.7076 0
M  V30 16967 C 2971.04 7.45864 -1.40599 0
M  V30 16968 O 2971.25 6.17651 -0.734225 0
M  V30 16969 C 2972.44 8.05808 -1.51899 0
M  V30 16970 O 2972.83 8.74358 -0.335205 0
M  V30 16971 C 2973.32 6.83093 -1.70294 0
M  V30 16972 C 2972.61 5.79992 -0.836974 0
M  V30 16973 N 2972.66 4.41864 -1.38293 0
M  V30 16974 H 2969.82 8.13644 -3.0377 0
M  V30 16975 H 2969.55 6.42788 -2.55485 0
M  V30 16976 H 2970.42 8.12039 -0.792769 0
M  V30 16977 P 2974.38 8.91 -9.38899e-11 0
M  V30 16978 O 2974.6 10.1726 0.733694 0
M  V30 16979 O 2975.17 8.73148 -1.23936 0
M  V30 16980 O 2974.63 7.66872 0.971405 0
M  V30 16981 C 2973.69 7.42309 2.04641 0
M  V30 16982 C 2974.42 6.86059 3.24661 0
M  V30 16983 O 2974.63 5.42847 3.03646 0
M  V30 16984 C 2975.82 7.41196 3.50753 0
M  V30 16985 O 2976.21 7.27073 4.86816 0
M  V30 16986 C 2976.7 6.5273 2.63741 0
M  V30 16987 C 2975.99 5.1842 2.73198 0
M  V30 16988 N 2976.04 4.38762 1.4784 0
M  V30 16989 H 2973.2 8.36803 2.32493 0
M  V30 16990 H 2972.93 6.70197 1.71129 0
M  V30 16991 H 2973.8 7.03551 4.13168 0
M  V30 16992 P 2977.76 7.20834 5.23717 0
M  V30 16993 O 2977.98 7.7993 6.57351 0
M  V30 16994 O 2978.55 7.79328 4.13004 0
M  V30 16995 O 2978.01 5.63315 5.29344 0
M  V30 16996 C 2977.07 4.80193 6.01798 0
M  V30 16997 C 2977.8 3.64202 6.65911 0
M  V30 16998 O 2978.01 2.60694 5.64732 0
M  V30 16999 C 2979.2 3.93473 7.1943 0
M  V30 17000 O 2979.59 3.02071 8.21205 0
M  V30 17001 C 2980.08 3.73047 5.97036 0
M  V30 17002 C 2979.37 2.58828 5.25741 0
M  V30 17003 N 2979.42 2.6801 3.77422 0
M  V30 17004 C 2979.57 1.50443 3.07133 0
M  V30 17005 O 2979.66 0.419406 3.61576 0
M  V30 17006 N 2979.61 1.6403 1.69677 0
M  V30 17007 C 2979.52 2.81206 0.986255 0
M  V30 17008 O 2979.57 2.80892 -0.249754 0
M  V30 17009 C 2979.37 3.99158 1.80325 0
M  V30 17010 C 2979.26 5.29309 1.06921 0
M  V30 17011 C 2979.32 3.89779 3.1476 0
M  V30 17012 H 2976.58 5.40332 6.79951 0
M  V30 17013 H 2976.31 4.41549 5.32301 0
M  V30 17014 H 2977.18 3.26331 7.47797 0
M  V30 17015 H 2979.84 1.6395 5.56554 0
M  V30 17016 H 2980.11 4.63439 5.3432 0
M  V30 17017 H 2981.11 3.44728 6.25838 0
M  V30 17018 H 2979.27 4.96652 7.57263 0
M  V30 17019 H 2979.2 4.80159 3.74441 0
M  V30 17020 H 2980.23 5.81459 1.09608 0
M  V30 17021 H 2978.49 5.9187 1.54487 0
M  V30 17022 H 2978.98 5.10095 0.0220288 0
M  V30 17023 H 2979.72 0.798962 1.16664 0
M  V30 17024 P 2981.14 2.75334 8.47391 0
M  V30 17025 O 2981.36 2.44571 9.90142 0
M  V30 17026 O 2981.93 3.87688 7.92115 0
M  V30 17027 O 2981.39 1.4459 7.59357 0
M  V30 17028 C 2980.45 0.347608 7.69215 0
M  V30 17029 C 2981.18 -0.96767 7.52806 0
M  V30 17030 O 2981.39 -1.21036 6.1011 0
M  V30 17031 C 2982.58 -1.04544 8.13308 0
M  V30 17032 O 2982.97 -2.38311 8.41922 0
M  V30 17033 C 2983.46 -0.491279 7.02284 0
M  V30 17034 C 2982.75 -0.996264 5.77469 0
M  V30 17035 N 2982.8 -0.0501916 4.62973 0
M  V30 17036 H 2979.96 0.374722 8.67691 0
M  V30 17037 H 2979.69 0.443485 6.90277 0
M  V30 17038 H 2980.56 -1.75537 7.96793 0
M  V30 17039 P 2984.52 -2.75334 8.47391 0
M  V30 17040 O 2984.74 -3.84128 9.44797 0
M  V30 17041 O 2985.31 -1.51947 8.68712 0
M  V30 17042 O 2984.77 -3.29363 6.99321 0
M  V30 17043 C 2983.83 -4.24011 6.4274 0
M  V30 17044 C 2984.56 -5.20775 5.52155 0
M  V30 17045 O 2984.77 -4.56534 4.22446 0
M  V30 17046 C 2985.96 -5.62629 5.96531 0
M  V30 17047 O 2986.35 -6.87667 5.41053 0
M  V30 17048 C 2986.84 -4.52537 5.39283 0
M  V30 17049 C 2986.13 -4.20027 4.08623 0
M  V30 17050 N 2986.18 -2.76189 3.71603 0
M  V30 17051 H 2983.34 -4.797 7.24003 0
M  V30 17052 H 2983.07 -3.69856 5.84513 0
M  V30 17053 H 2983.94 -6.10356 5.41441 0
M  V30 17054 P 2987.9 -7.20834 5.23717 0
M  V30 17055 O 2988.12 -8.66189 5.38625 0
M  V30 17056 O 2988.69 -6.33615 6.1356 0
M  V30 17057 O 2988.15 -6.7751 3.72168 0
M  V30 17058 C 2987.21 -7.20732 2.70725 0
M  V30 17059 C 2987.94 -7.45864 1.40599 0
M  V30 17060 O 2988.15 -6.17651 0.734225 0
M  V30 17061 C 2989.34 -8.05808 1.51899 0
M  V30 17062 O 2989.73 -8.74358 0.335205 0
M  V30 17063 C 2990.22 -6.83093 1.70294 0
M  V30 17064 C 2989.51 -5.79992 0.836974 0
M  V30 17065 N 2989.56 -4.41769 1.38263 0
M  V30 17066 C 2989.71 -3.38591 0.481702 0
M  V30 17067 O 2989.8 -3.56839 -0.718452 0
M  V30 17068 N 2989.75 -2.1206 1.03569 0
M  V30 17069 C 2989.66 -1.80696 2.36966 0
M  V30 17070 O 2989.71 -0.630473 2.74862 0
M  V30 17071 C 2989.51 -2.94845 3.23898 0
M  V30 17072 C 2989.4 -2.65253 4.70362 0
M  V30 17073 C 2989.46 -4.19803 2.73435 0
M  V30 17074 H 2986.72 -8.13644 3.0377 0
M  V30 17075 H 2986.45 -6.42695 2.55448 0
M  V30 17076 H 2987.32 -8.12039 0.792769 0
M  V30 17077 H 2989.98 -5.79978 -0.160587 0
M  V30 17078 H 2990.25 -6.51379 2.75643 0
M  V30 17079 H 2991.25 -7.01734 1.34462 0
M  V30 17080 H 2989.41 -8.73674 2.38337 0
M  V30 17081 H 2989.34 -5.04492 3.4095 0
M  V30 17082 H 2990.37 -2.83924 5.1913 0
M  V30 17083 H 2988.63 -3.29824 5.15163 0
M  V30 17084 H 2989.12 -1.59723 4.84449 0
M  V30 17085 H 2989.86 -1.35644 0.399345 0
M  V30 17086 P 2991.28 -8.91 9.49989e-11 0
M  V30 17087 O 2991.5 -10.1726 -0.733694 0
M  V30 17088 O 2992.07 -8.73148 1.23936 0
M  V30 17089 O 2991.53 -7.66872 -0.971405 0
M  V30 17090 C 2990.59 -7.42309 -2.04641 0
M  V30 17091 C 2991.32 -6.86059 -3.24661 0
M  V30 17092 O 2991.53 -5.42847 -3.03646 0
M  V30 17093 C 2992.72 -7.41196 -3.50753 0
M  V30 17094 O 2993.11 -7.27073 -4.86816 0
M  V30 17095 C 2993.6 -6.5273 -2.63741 0
M  V30 17096 C 2992.89 -5.1842 -2.73198 0
M  V30 17097 N 2992.94 -4.38762 -1.4784 0
M  V30 17098 H 2990.1 -8.36803 -2.32493 0
M  V30 17099 H 2989.83 -6.70197 -1.71129 0
M  V30 17100 H 2990.7 -7.03551 -4.13168 0
M  V30 17101 P 2994.66 -7.20834 -5.23717 0
M  V30 17102 O 2994.88 -7.79853 -6.57286 0
M  V30 17103 O 2995.45 -7.79239 -4.12957 0
M  V30 17104 O 2994.91 -5.63315 -5.29344 0
M  V30 17105 C 2993.97 -4.80255 -6.01876 0
M  V30 17106 C 2994.7 -3.64202 -6.65911 0
M  V30 17107 O 2994.91 -2.60694 -5.64732 0
M  V30 17108 C 2996.1 -3.93473 -7.1943 0
M  V30 17109 O 2996.49 -3.02071 -8.21205 0
M  V30 17110 C 2996.98 -3.73047 -5.97036 0
M  V30 17111 C 2996.27 -2.58828 -5.25741 0
M  V30 17112 N 2996.32 -2.68068 -3.77503 0
M  V30 17113 H 2993.48 -5.40332 -6.79951 0
M  V30 17114 H 2993.21 -4.41613 -5.32378 0
M  V30 17115 H 2994.08 -3.26331 -7.47797 0
M  V30 17116 P 2998.04 -2.75334 -8.47391 0
M  V30 17117 O 2998.26 -2.44571 -9.90142 0
M  V30 17118 O 2998.83 -3.87688 -7.92115 0
M  V30 17119 O 2998.29 -1.4459 -7.59357 0
M  V30 17120 C 2997.35 -0.347608 -7.69215 0
M  V30 17121 C 2998.08 0.96767 -7.52806 0
M  V30 17122 O 2998.29 1.21036 -6.1011 0
M  V30 17123 C 2999.48 1.04544 -8.13308 0
M  V30 17124 O 2999.87 2.38311 -8.41922 0
M  V30 17125 C 3000.36 0.491279 -7.02284 0
M  V30 17126 C 2999.65 0.996264 -5.77469 0
M  V30 17127 N 2999.7 0.0501916 -4.62973 0
M  V30 17128 H 2996.86 -0.374722 -8.67691 0
M  V30 17129 H 2996.59 -0.443485 -6.90277 0
M  V30 17130 H 2997.46 1.75537 -7.96793 0
M  V30 17131 P 3001.42 2.75334 -8.47391 0
M  V30 17132 O 3001.64 3.84128 -9.44797 0
M  V30 17133 O 3002.21 1.51947 -8.68712 0
M  V30 17134 O 3001.67 3.29363 -6.99321 0
M  V30 17135 C 3000.73 4.24011 -6.4274 0
M  V30 17136 C 3001.46 5.20775 -5.52155 0
M  V30 17137 O 3001.67 4.56534 -4.22446 0
M  V30 17138 C 3002.86 5.62629 -5.96531 0
M  V30 17139 O 3003.25 6.87667 -5.41053 0
M  V30 17140 C 3003.74 4.52537 -5.39283 0
M  V30 17141 C 3003.03 4.20027 -4.08623 0
M  V30 17142 N 3003.08 2.76189 -3.71603 0
M  V30 17143 H 3000.24 4.797 -7.24003 0
M  V30 17144 H 2999.97 3.69856 -5.84513 0
M  V30 17145 H 3000.84 6.10356 -5.41441 0
M  V30 17146 P 3004.8 7.20834 -5.23717 0
M  V30 17147 O 3005.02 8.66104 -5.38572 0
M  V30 17148 O 3005.59 6.33544 -6.1349 0
M  V30 17149 O 3005.05 6.7751 -3.72168 0
M  V30 17150 C 3004.11 7.20825 -2.7076 0
M  V30 17151 C 3004.84 7.45864 -1.40599 0
M  V30 17152 O 3005.05 6.17651 -0.734225 0
M  V30 17153 C 3006.24 8.05808 -1.51899 0
M  V30 17154 O 3006.63 8.74358 -0.335205 0
M  V30 17155 C 3007.12 6.83093 -1.70294 0
M  V30 17156 C 3006.41 5.79992 -0.836974 0
M  V30 17157 N 3006.46 4.41864 -1.38293 0
M  V30 17158 H 3003.62 8.13644 -3.0377 0
M  V30 17159 H 3003.35 6.42788 -2.55485 0
M  V30 17160 H 3004.22 8.12039 -0.792769 0
M  V30 17161 P 3008.18 8.91 -9.61079e-11 0
M  V30 17162 O 3008.4 10.1726 0.733694 0
M  V30 17163 O 3008.97 8.73148 -1.23936 0
M  V30 17164 O 3008.43 7.66872 0.971405 0
M  V30 17165 C 3007.49 7.42309 2.04641 0
M  V30 17166 C 3008.22 6.86059 3.24661 0
M  V30 17167 O 3008.43 5.42847 3.03646 0
M  V30 17168 C 3009.62 7.41196 3.50753 0
M  V30 17169 O 3010.01 7.27073 4.86816 0
M  V30 17170 C 3010.5 6.5273 2.63741 0
M  V30 17171 C 3009.79 5.1842 2.73198 0
M  V30 17172 N 3009.84 4.38762 1.4784 0
M  V30 17173 H 3007 8.36803 2.32493 0
M  V30 17174 H 3006.73 6.70197 1.71129 0
M  V30 17175 H 3007.6 7.03551 4.13168 0
M  V30 17176 P 3011.56 7.20834 5.23717 0
M  V30 17177 O 3011.78 7.79853 6.57286 0
M  V30 17178 O 3012.35 7.79239 4.12957 0
M  V30 17179 O 3011.81 5.63315 5.29344 0
M  V30 17180 C 3010.87 4.80255 6.01876 0
M  V30 17181 C 3011.6 3.64202 6.65911 0
M  V30 17182 O 3011.81 2.60694 5.64732 0
M  V30 17183 C 3013 3.93473 7.1943 0
M  V30 17184 O 3013.39 3.02071 8.21205 0
M  V30 17185 C 3013.88 3.73047 5.97036 0
M  V30 17186 C 3013.17 2.58828 5.25741 0
M  V30 17187 N 3013.22 2.68068 3.77503 0
M  V30 17188 H 3010.38 5.40332 6.79951 0
M  V30 17189 H 3010.11 4.41613 5.32378 0
M  V30 17190 H 3010.98 3.26331 7.47797 0
M  V30 17191 P 3014.94 2.75334 8.47391 0
M  V30 17192 O 3015.16 2.44595 9.90239 0
M  V30 17193 O 3015.73 3.87732 7.92204 0
M  V30 17194 O 3015.19 1.4459 7.59357 0
M  V30 17195 C 3014.25 0.347608 7.69215 0
M  V30 17196 C 3014.98 -0.96767 7.52806 0
M  V30 17197 O 3015.19 -1.21036 6.1011 0
M  V30 17198 C 3016.38 -1.04544 8.13308 0
M  V30 17199 O 3016.77 -2.38311 8.41922 0
M  V30 17200 C 3017.26 -0.491279 7.02284 0
M  V30 17201 C 3016.55 -0.996264 5.77469 0
M  V30 17202 N 3016.6 -0.0501808 4.62873 0
M  V30 17203 C 3016.75 -0.578037 3.3505 0
M  V30 17204 O 3016.84 -1.8073 3.21711 0
M  V30 17205 N 3016.8 0.468541 2.263 0
M  V30 17206 C 3016.7 1.59186 2.47176 0
M  V30 17207 N 3016.75 2.37626 1.40392 0
M  V30 17208 C 3016.55 2.16203 3.77467 0
M  V30 17209 C 3016.5 1.29324 4.8195 0
M  V30 17210 H 3013.76 0.374679 8.67591 0
M  V30 17211 H 3013.49 0.443421 6.90177 0
M  V30 17212 H 3014.36 -1.75559 7.96891 0
M  V30 17213 H 3017.02 -1.94529 5.46723 0
M  V30 17214 H 3017.29 0.608651 7.04676 0
M  V30 17215 H 3018.29 -0.889672 7.08939 0
M  V30 17216 H 3016.45 -0.43308 9.04564 0
M  V30 17217 H 3016.38 1.67758 5.83046 0
M  V30 17218 H 3016.48 3.23869 3.92281 0
M  V30 17219 H 3016.87 1.96317 0.467202 0
M  V30 17220 H 3016.67 3.39693 1.51142 0
M  V30 17221 P 3018.32 -2.75334 8.47391 0
M  V30 17222 O 3018.54 -3.84128 9.44797 0
M  V30 17223 O 3019.11 -1.51947 8.68712 0
M  V30 17224 O 3018.57 -3.29363 6.99321 0
M  V30 17225 C 3017.63 -4.24011 6.4274 0
M  V30 17226 C 3018.36 -5.20775 5.52155 0
M  V30 17227 O 3018.57 -4.56534 4.22446 0
M  V30 17228 C 3019.76 -5.62629 5.96531 0
M  V30 17229 O 3020.15 -6.87667 5.41053 0
M  V30 17230 C 3020.64 -4.52537 5.39283 0
M  V30 17231 C 3019.93 -4.20027 4.08623 0
M  V30 17232 N 3019.98 -2.76189 3.71603 0
M  V30 17233 H 3017.14 -4.797 7.24003 0
M  V30 17234 H 3016.87 -3.69856 5.84513 0
M  V30 17235 H 3017.74 -6.10356 5.41441 0
M  V30 17236 P 3021.7 -7.20834 5.23717 0
M  V30 17237 O 3021.92 -8.66104 5.38572 0
M  V30 17238 O 3022.49 -6.33544 6.1349 0
M  V30 17239 O 3021.95 -6.7751 3.72168 0
M  V30 17240 C 3021.01 -7.20825 2.7076 0
M  V30 17241 C 3021.74 -7.45864 1.40599 0
M  V30 17242 O 3021.95 -6.17651 0.734225 0
M  V30 17243 C 3023.14 -8.05808 1.51899 0
M  V30 17244 O 3023.53 -8.74358 0.335205 0
M  V30 17245 C 3024.02 -6.83093 1.70294 0
M  V30 17246 C 3023.31 -5.79992 0.836974 0
M  V30 17247 N 3023.36 -4.41864 1.38293 0
M  V30 17248 H 3020.52 -8.13644 3.0377 0
M  V30 17249 H 3020.25 -6.42788 2.55485 0
M  V30 17250 H 3021.12 -8.12039 0.792769 0
M  V30 17251 P 3025.08 -8.91 9.72169e-11 0
M  V30 17252 O 3025.3 -10.1736 -0.733766 0
M  V30 17253 O 3025.87 -8.73247 1.2395 0
M  V30 17254 O 3025.33 -7.66872 -0.971405 0
M  V30 17255 C 3024.39 -7.42309 -2.04641 0
M  V30 17256 C 3025.12 -6.86059 -3.24661 0
M  V30 17257 O 3025.33 -5.42847 -3.03646 0
M  V30 17258 C 3026.52 -7.41196 -3.50753 0
M  V30 17259 O 3026.91 -7.27073 -4.86816 0
M  V30 17260 C 3027.4 -6.5273 -2.63741 0
M  V30 17261 C 3026.69 -5.1842 -2.73198 0
M  V30 17262 N 3026.74 -4.38668 -1.47808 0
M  V30 17263 C 3026.89 -3.00789 -1.58511 0
M  V30 17264 O 3026.98 -2.50116 -2.71298 0
M  V30 17265 N 3026.94 -2.29703 -0.253698 0
M  V30 17266 C 3026.84 -2.84269 0.750133 0
M  V30 17267 N 3026.89 -2.06951 1.82612 0
M  V30 17268 C 3026.69 -4.25803 0.889776 0
M  V30 17269 C 3026.64 -4.98326 -0.259363 0
M  V30 17270 H 3023.9 -8.36707 -2.32466 0
M  V30 17271 H 3023.63 -6.701 -1.71105 0
M  V30 17272 H 3024.5 -7.03638 -4.13219 0
M  V30 17273 H 3027.16 -4.59852 -3.53955 0
M  V30 17274 H 3027.43 -6.88995 -1.59871 0
M  V30 17275 H 3028.43 -6.46749 -3.03687 0
M  V30 17276 H 3026.59 -8.46908 -3.20714 0
M  V30 17277 H 3026.52 -6.06349 -0.206238 0
M  V30 17278 H 3026.62 -4.73163 1.86796 0
M  V30 17279 H 3027.01 -1.05099 1.72271 0
M  V30 17280 H 3026.81 -2.48716 2.76361 0
M  V30 17281 P 3028.46 -7.20834 -5.23717 0
M  V30 17282 O 3028.68 -7.80006 -6.57415 0
M  V30 17283 O 3029.25 -7.79416 -4.13051 0
M  V30 17284 O 3028.71 -5.63315 -5.29344 0
M  V30 17285 C 3027.77 -4.80318 -6.01954 0
M  V30 17286 C 3028.5 -3.64202 -6.65911 0
M  V30 17287 O 3028.71 -2.60736 -5.64823 0
M  V30 17288 C 3029.9 -3.93521 -7.19518 0
M  V30 17289 O 3030.29 -3.02071 -8.21205 0
M  V30 17290 C 3030.78 -3.73047 -5.97036 0
M  V30 17291 C 3030.07 -2.58828 -5.25741 0
M  V30 17292 N 3030.12 -2.68068 -3.77503 0
M  V30 17293 C 3030.04 -3.80474 -2.99159 0
M  V30 17294 N 3030.11 -3.55622 -1.71925 0
M  V30 17295 C 3030.26 -2.1832 -1.65733 0
M  V30 17296 C 3030.39 -1.28842 -0.572777 0
M  V30 17297 N 3030.4 -1.66875 0.70098 0
M  V30 17298 N 3030.51 0.016788 -0.859836 0
M  V30 17299 C 3030.5 0.398145 -2.13316 0
M  V30 17300 N 3030.38 -0.328224 -3.22333 0
M  V30 17301 C 3030.26 -1.62992 -2.90383 0
M  V30 17302 H 3027.28 -5.40394 -6.8003 0
M  V30 17303 H 3027.01 -4.41741 -5.32532 0
M  V30 17304 H 3027.88 -3.26371 -7.47889 0
M  V30 17305 H 3030.54 -1.64007 -5.56746 0
M  V30 17306 H 3030.82 -4.63439 -5.3432 0
M  V30 17307 H 3031.81 -3.44776 -6.25925 0
M  V30 17308 H 3029.97 -4.96707 -7.57347 0
M  V30 17309 H 3029.93 -4.8089 -3.39924 0
M  V30 17310 H 3030.31 -2.66547 0.941919 0
M  V30 17311 H 3030.5 -0.965341 1.44766 0
M  V30 17312 H 3030.61 1.46427 -2.29697 0
M  V30 17313 P 3031.84 -2.75334 -8.47391 0
M  V30 17314 O 3032.06 -2.44571 -9.90142 0
M  V30 17315 O 3032.63 -3.87688 -7.92115 0
M  V30 17316 O 3032.09 -1.4459 -7.59357 0
M  V30 17317 C 3031.15 -0.347608 -7.69215 0
M  V30 17318 C 3031.88 0.96767 -7.52806 0
M  V30 17319 O 3032.09 1.21036 -6.1011 0
M  V30 17320 C 3033.28 1.04544 -8.13308 0
M  V30 17321 O 3033.67 2.38311 -8.41922 0
M  V30 17322 C 3034.16 0.491279 -7.02284 0
M  V30 17323 C 3033.45 0.996264 -5.77469 0
M  V30 17324 N 3033.5 0.0501916 -4.62973 0
M  V30 17325 C 3033.42 -1.32786 -4.63244 0
M  V30 17326 N 3033.5 -1.86957 -3.44545 0
M  V30 17327 C 3033.64 -0.780241 -2.58481 0
M  V30 17328 C 3033.77 -0.738536 -1.17757 0
M  V30 17329 N 3033.89 0.58337 -0.711393 0
M  V30 17330 C 3033.89 1.70816 -1.51017 0
M  V30 17331 N 3034.02 2.87826 -0.880757 0
M  V30 17332 N 3033.76 1.67126 -2.8339 0
M  V30 17333 C 3033.64 0.401421 -3.30572 0
M  V30 17334 H 3030.66 -0.374722 -8.67691 0
M  V30 17335 H 3030.39 -0.443485 -6.90277 0
M  V30 17336 H 3031.26 1.75537 -7.96793 0
M  V30 17337 P 3035.22 2.75334 -8.47391 0
M  V30 17338 O 3035.44 3.84128 -9.44797 0
M  V30 17339 O 3036.01 1.51947 -8.68712 0
M  V30 17340 O 3035.47 3.29363 -6.99321 0
M  V30 17341 C 3034.53 4.24011 -6.4274 0
M  V30 17342 C 3035.26 5.20775 -5.52155 0
M  V30 17343 O 3035.47 4.56534 -4.22446 0
M  V30 17344 C 3036.66 5.62629 -5.96531 0
M  V30 17345 O 3037.05 6.87667 -5.41053 0
M  V30 17346 C 3037.54 4.52537 -5.39283 0
M  V30 17347 C 3036.83 4.20027 -4.08623 0
M  V30 17348 N 3036.88 2.76189 -3.71603 0
M  V30 17349 H 3034.04 4.797 -7.24003 0
M  V30 17350 H 3033.77 3.69856 -5.84513 0
M  V30 17351 H 3034.64 6.10356 -5.41441 0
M  V30 17352 P 3038.6 7.20834 -5.23717 0
M  V30 17353 O 3038.82 8.66274 -5.38678 0
M  V30 17354 O 3039.39 6.33687 -6.13629 0
M  V30 17355 O 3038.85 6.7751 -3.72168 0
M  V30 17356 C 3037.91 7.20919 -2.70795 0
M  V30 17357 C 3038.64 7.45864 -1.40599 0
M  V30 17358 O 3038.85 6.17751 -0.734343 0
M  V30 17359 C 3040.04 8.05906 -1.51917 0
M  V30 17360 O 3040.43 8.74358 -0.335205 0
M  V30 17361 C 3040.92 6.83093 -1.70294 0
M  V30 17362 C 3040.21 5.79992 -0.836974 0
M  V30 17363 N 3040.26 4.41864 -1.38293 0
M  V30 17364 C 3040.18 4.02089 -2.69407 0
M  V30 17365 N 3040.25 2.73403 -2.85089 0
M  V30 17366 C 3040.4 2.25086 -1.5642 0
M  V30 17367 C 3040.53 0.942887 -1.04836 0
M  V30 17368 N 3040.54 -0.150999 -1.80369 0
M  V30 17369 N 3040.65 0.812565 0.28167 0
M  V30 17370 C 3040.64 1.90572 1.03784 0
M  V30 17371 N 3040.52 3.167 0.683905 0
M  V30 17372 C 3040.4 3.26538 -0.652815 0
M  V30 17373 H 3037.42 8.13738 -3.03804 0
M  V30 17374 H 3037.15 6.42974 -2.55559 0
M  V30 17375 H 3038.02 8.12139 -0.792866 0
M  V30 17376 H 3040.68 5.80178 0.160643 0
M  V30 17377 H 3040.96 6.51379 -2.75643 0
M  V30 17378 H 3041.95 7.01832 -1.3448 0
M  V30 17379 H 3040.11 8.73771 -2.38364 0
M  V30 17380 H 3040.07 4.7189 -3.52311 0
M  V30 17381 H 3040.45 -0.0721434 -2.82608 0
M  V30 17382 H 3040.64 -1.0785 -1.36544 0
M  V30 17383 H 3040.75 1.73207 2.10241 0
M  V30 17384 P 3041.98 8.91 -9.83259e-11 0
M  V30 17385 O 3042.2 10.1726 0.733694 0
M  V30 17386 O 3042.77 8.73148 -1.23936 0
M  V30 17387 O 3042.23 7.66872 0.971405 0
M  V30 17388 C 3041.29 7.42309 2.04641 0
M  V30 17389 C 3042.02 6.86059 3.24661 0
M  V30 17390 O 3042.23 5.42847 3.03646 0
M  V30 17391 C 3043.42 7.41196 3.50753 0
M  V30 17392 O 3043.81 7.27073 4.86816 0
M  V30 17393 C 3044.3 6.5273 2.63741 0
M  V30 17394 C 3043.59 5.1842 2.73198 0
M  V30 17395 N 3043.64 4.38762 1.4784 0
M  V30 17396 H 3040.8 8.36803 2.32493 0
M  V30 17397 H 3040.53 6.70197 1.71129 0
M  V30 17398 H 3041.4 7.03551 4.13168 0
M  V30 17399 P 3045.36 7.20834 5.23717 0
M  V30 17400 O 3045.58 7.80006 6.57415 0
M  V30 17401 O 3046.15 7.79416 4.13051 0
M  V30 17402 O 3045.61 5.63315 5.29344 0
M  V30 17403 C 3044.67 4.80318 6.01954 0
M  V30 17404 C 3045.4 3.64202 6.65911 0
M  V30 17405 O 3045.61 2.60736 5.64823 0
M  V30 17406 C 3046.8 3.93521 7.19518 0
M  V30 17407 O 3047.19 3.02071 8.21205 0
M  V30 17408 C 3047.68 3.73047 5.97036 0
M  V30 17409 C 3046.97 2.58828 5.25741 0
M  V30 17410 N 3047.02 2.68068 3.77503 0
M  V30 17411 H 3044.18 5.40394 6.8003 0
M  V30 17412 H 3043.91 4.41741 5.32532 0
M  V30 17413 H 3044.78 3.26371 7.47889 0
M  V30 17414 H 3047.43 1.64007 5.56746 0
M  V30 17415 H 3047.71 4.63439 5.3432 0
M  V30 17416 H 3048.71 3.44776 6.25925 0
M  V30 17417 H 3046.87 4.96707 7.57347 0
M  V30 17418 P 3048.74 2.75334 8.47391 0
M  V30 17419 O 3048.96 2.44571 9.90142 0
M  V30 17420 O 3049.53 3.87688 7.92115 0
M  V30 17421 O 3048.99 1.4459 7.59357 0
M  V30 17422 C 3048.05 0.347608 7.69215 0
M  V30 17423 C 3048.78 -0.96767 7.52806 0
M  V30 17424 O 3048.99 -1.21036 6.1011 0
M  V30 17425 C 3050.18 -1.04544 8.13308 0
M  V30 17426 O 3050.57 -2.38311 8.41922 0
M  V30 17427 C 3051.06 -0.491279 7.02284 0
M  V30 17428 C 3050.35 -0.996264 5.77469 0
M  V30 17429 N 3050.4 -0.0501916 4.62973 0
M  V30 17430 C 3050.32 1.32786 4.63244 0
M  V30 17431 N 3050.4 1.86957 3.44545 0
M  V30 17432 C 3050.54 0.780241 2.58481 0
M  V30 17433 C 3050.67 0.738536 1.17757 0
M  V30 17434 N 3050.79 -0.58337 0.711393 0
M  V30 17435 C 3050.79 -1.70816 1.51017 0
M  V30 17436 N 3050.92 -2.87826 0.880757 0
M  V30 17437 N 3050.66 -1.67126 2.8339 0
M  V30 17438 C 3050.54 -0.401421 3.30572 0
M  V30 17439 H 3047.56 0.374722 8.67691 0
M  V30 17440 H 3047.29 0.443485 6.90277 0
M  V30 17441 H 3048.16 -1.75537 7.96793 0
M  V30 17442 P 3052.12 -2.75334 8.47391 0
M  V30 17443 O 3052.34 -3.84128 9.44797 0
M  V30 17444 O 3052.91 -1.51947 8.68712 0
M  V30 17445 O 3052.37 -3.29363 6.99321 0
M  V30 17446 C 3051.43 -4.24011 6.4274 0
M  V30 17447 C 3052.16 -5.20775 5.52155 0
M  V30 17448 O 3052.37 -4.56534 4.22446 0
M  V30 17449 C 3053.56 -5.62629 5.96531 0
M  V30 17450 O 3053.95 -6.87667 5.41053 0
M  V30 17451 C 3054.44 -4.52537 5.39283 0
M  V30 17452 C 3053.73 -4.20027 4.08623 0
M  V30 17453 N 3053.78 -2.76189 3.71603 0
M  V30 17454 H 3050.94 -4.797 7.24003 0
M  V30 17455 H 3050.67 -3.69856 5.84513 0
M  V30 17456 H 3051.54 -6.10356 5.41441 0
M  V30 17457 P 3055.5 -7.20834 5.23717 0
M  V30 17458 O 3055.72 -8.66104 5.38572 0
M  V30 17459 O 3056.29 -6.33544 6.1349 0
M  V30 17460 O 3055.75 -6.7751 3.72168 0
M  V30 17461 C 3054.81 -7.20825 2.7076 0
M  V30 17462 C 3055.54 -7.45864 1.40599 0
M  V30 17463 O 3055.75 -6.17651 0.734225 0
M  V30 17464 C 3056.94 -8.05808 1.51899 0
M  V30 17465 O 3057.33 -8.74358 0.335205 0
M  V30 17466 C 3057.82 -6.83093 1.70294 0
M  V30 17467 C 3057.11 -5.79992 0.836974 0
M  V30 17468 N 3057.16 -4.41864 1.38293 0
M  V30 17469 H 3054.32 -8.13644 3.0377 0
M  V30 17470 H 3054.05 -6.42788 2.55485 0
M  V30 17471 H 3054.92 -8.12039 0.792769 0
M  V30 17472 P 3058.88 -8.91 9.94349e-11 0
M  V30 17473 O 3059.1 -10.1726 -0.733694 0
M  V30 17474 O 3059.67 -8.73148 1.23936 0
M  V30 17475 O 3059.13 -7.66872 -0.971405 0
M  V30 17476 C 3058.19 -7.42309 -2.04641 0
M  V30 17477 C 3058.92 -6.86059 -3.24661 0
M  V30 17478 O 3059.13 -5.42847 -3.03646 0
M  V30 17479 C 3060.32 -7.41196 -3.50753 0
M  V30 17480 O 3060.71 -7.27073 -4.86816 0
M  V30 17481 C 3061.2 -6.5273 -2.63741 0
M  V30 17482 C 3060.49 -5.1842 -2.73198 0
M  V30 17483 N 3060.54 -4.38762 -1.4784 0
M  V30 17484 H 3057.7 -8.36803 -2.32493 0
M  V30 17485 H 3057.43 -6.70197 -1.71129 0
M  V30 17486 H 3058.3 -7.03551 -4.13168 0
M  V30 17487 P 3062.26 -7.20834 -5.23717 0
M  V30 17488 O 3062.48 -7.79853 -6.57286 0
M  V30 17489 O 3063.05 -7.79239 -4.12957 0
M  V30 17490 O 3062.51 -5.63315 -5.29344 0
M  V30 17491 C 3061.57 -4.80255 -6.01876 0
M  V30 17492 C 3062.3 -3.64202 -6.65911 0
M  V30 17493 O 3062.51 -2.60694 -5.64732 0
M  V30 17494 C 3063.7 -3.93473 -7.1943 0
M  V30 17495 O 3064.09 -3.02071 -8.21205 0
M  V30 17496 C 3064.58 -3.73047 -5.97036 0
M  V30 17497 C 3063.87 -2.58828 -5.25741 0
M  V30 17498 N 3063.92 -2.68068 -3.77503 0
M  V30 17499 H 3061.08 -5.40332 -6.79951 0
M  V30 17500 H 3060.81 -4.41613 -5.32378 0
M  V30 17501 H 3061.68 -3.26331 -7.47797 0
M  V30 17502 P 3065.64 -2.75334 -8.47391 0
M  V30 17503 O 3065.86 -2.44571 -9.90142 0
M  V30 17504 O 3066.43 -3.87688 -7.92115 0
M  V30 17505 O 3065.89 -1.4459 -7.59357 0
M  V30 17506 C 3064.95 -0.347608 -7.69215 0
M  V30 17507 C 3065.68 0.96767 -7.52806 0
M  V30 17508 O 3065.89 1.21036 -6.1011 0
M  V30 17509 C 3067.08 1.04544 -8.13308 0
M  V30 17510 O 3067.47 2.38311 -8.41922 0
M  V30 17511 C 3067.96 0.491279 -7.02284 0
M  V30 17512 C 3067.25 0.996264 -5.77469 0
M  V30 17513 N 3067.3 0.0501916 -4.62973 0
M  V30 17514 H 3064.46 -0.374722 -8.67691 0
M  V30 17515 H 3064.19 -0.443485 -6.90277 0
M  V30 17516 H 3065.06 1.75537 -7.96793 0
M  V30 17517 P 3069.02 2.75334 -8.47391 0
M  V30 17518 O 3069.24 3.84128 -9.44797 0
M  V30 17519 O 3069.81 1.51947 -8.68712 0
M  V30 17520 O 3069.27 3.29363 -6.99321 0
M  V30 17521 C 3068.33 4.24011 -6.4274 0
M  V30 17522 C 3069.06 5.20775 -5.52155 0
M  V30 17523 O 3069.27 4.56534 -4.22446 0
M  V30 17524 C 3070.46 5.62629 -5.96531 0
M  V30 17525 O 3070.85 6.87667 -5.41053 0
M  V30 17526 C 3071.34 4.52537 -5.39283 0
M  V30 17527 C 3070.63 4.20027 -4.08623 0
M  V30 17528 N 3070.68 2.76189 -3.71603 0
M  V30 17529 C 3070.6 1.64862 -4.52822 0
M  V30 17530 N 3070.68 0.512671 -3.88633 0
M  V30 17531 C 3070.82 0.888083 -2.54977 0
M  V30 17532 C 3070.95 0.094668 -1.38677 0
M  V30 17533 N 3071.07 0.890102 -0.232633 0
M  V30 17534 C 3071.07 2.26958 -0.21772 0
M  V30 17535 N 3071.2 2.84626 0.97925 0
M  V30 17536 N 3070.94 3.0178 -1.31033 0
M  V30 17537 C 3070.82 2.26781 -2.43843 0
M  V30 17538 H 3067.84 4.797 -7.24003 0
M  V30 17539 H 3067.57 3.69856 -5.84513 0
M  V30 17540 H 3068.44 6.10356 -5.41441 0
M  V30 17541 P 3072.4 7.20834 -5.23717 0
M  V30 17542 O 3072.62 8.66104 -5.38572 0
M  V30 17543 O 3073.19 6.33544 -6.1349 0
M  V30 17544 O 3072.65 6.7751 -3.72168 0
M  V30 17545 C 3071.71 7.20825 -2.7076 0
M  V30 17546 C 3072.44 7.45864 -1.40599 0
M  V30 17547 O 3072.65 6.17651 -0.734225 0
M  V30 17548 C 3073.84 8.05808 -1.51899 0
M  V30 17549 O 3074.23 8.74358 -0.335205 0
M  V30 17550 C 3074.72 6.83093 -1.70294 0
M  V30 17551 C 3074.01 5.79992 -0.836974 0
M  V30 17552 N 3074.06 4.41864 -1.38293 0
M  V30 17553 H 3071.22 8.13644 -3.0377 0
M  V30 17554 H 3070.95 6.42788 -2.55485 0
M  V30 17555 H 3071.82 8.12039 -0.792769 0
M  V30 17556 P 3075.78 8.91 -1.00544e-10 0
M  V30 17557 O 3076 10.1726 0.733694 0
M  V30 17558 O 3076.57 8.73148 -1.23936 0
M  V30 17559 O 3076.03 7.66872 0.971405 0
M  V30 17560 C 3075.09 7.42309 2.04641 0
M  V30 17561 C 3075.82 6.86059 3.24661 0
M  V30 17562 O 3076.03 5.42847 3.03646 0
M  V30 17563 C 3077.22 7.41196 3.50753 0
M  V30 17564 O 3077.61 7.27073 4.86816 0
M  V30 17565 C 3078.1 6.5273 2.63741 0
M  V30 17566 C 3077.39 5.1842 2.73198 0
M  V30 17567 N 3077.44 4.38762 1.4784 0
M  V30 17568 H 3074.6 8.36803 2.32493 0
M  V30 17569 H 3074.33 6.70197 1.71129 0
M  V30 17570 H 3075.2 7.03551 4.13168 0
M  V30 17571 P 3079.16 7.20834 5.23717 0
M  V30 17572 O 3079.38 7.79853 6.57286 0
M  V30 17573 O 3079.95 7.79239 4.12957 0
M  V30 17574 O 3079.41 5.63315 5.29344 0
M  V30 17575 C 3078.47 4.80255 6.01876 0
M  V30 17576 C 3079.2 3.64202 6.65911 0
M  V30 17577 O 3079.41 2.60694 5.64732 0
M  V30 17578 C 3080.6 3.93473 7.1943 0
M  V30 17579 O 3080.99 3.02071 8.21205 0
M  V30 17580 C 3081.48 3.73047 5.97036 0
M  V30 17581 C 3080.77 2.58828 5.25741 0
M  V30 17582 N 3080.82 2.68068 3.77503 0
M  V30 17583 H 3077.98 5.40332 6.79951 0
M  V30 17584 H 3077.71 4.41613 5.32378 0
M  V30 17585 H 3078.58 3.26331 7.47797 0
M  V30 17586 P 3082.54 2.75334 8.47391 0
M  V30 17587 O 3082.76 2.44571 9.90142 0
M  V30 17588 O 3083.33 3.87688 7.92115 0
M  V30 17589 O 3082.79 1.4459 7.59357 0
M  V30 17590 C 3081.85 0.347608 7.69215 0
M  V30 17591 C 3082.58 -0.96767 7.52806 0
M  V30 17592 O 3082.79 -1.21036 6.1011 0
M  V30 17593 C 3083.98 -1.04544 8.13308 0
M  V30 17594 O 3084.37 -2.38311 8.41922 0
M  V30 17595 C 3084.86 -0.491279 7.02284 0
M  V30 17596 C 3084.15 -0.996264 5.77469 0
M  V30 17597 N 3084.2 -0.0501916 4.62973 0
M  V30 17598 H 3081.36 0.374722 8.67691 0
M  V30 17599 H 3081.09 0.443485 6.90277 0
M  V30 17600 H 3081.96 -1.75537 7.96793 0
M  V30 17601 P 3085.92 -2.75334 8.47391 0
M  V30 17602 O 3086.14 -3.84128 9.44797 0
M  V30 17603 O 3086.71 -1.51947 8.68712 0
M  V30 17604 O 3086.17 -3.29363 6.99321 0
M  V30 17605 C 3085.23 -4.24011 6.4274 0
M  V30 17606 C 3085.96 -5.20775 5.52155 0
M  V30 17607 O 3086.17 -4.56534 4.22446 0
M  V30 17608 C 3087.36 -5.62629 5.96531 0
M  V30 17609 O 3087.75 -6.87667 5.41053 0
M  V30 17610 C 3088.24 -4.52537 5.39283 0
M  V30 17611 C 3087.53 -4.20027 4.08623 0
M  V30 17612 N 3087.58 -2.76189 3.71603 0
M  V30 17613 H 3084.74 -4.797 7.24003 0
M  V30 17614 H 3084.47 -3.69856 5.84513 0
M  V30 17615 H 3085.34 -6.10356 5.41441 0
M  V30 17616 P 3089.3 -7.20834 5.23717 0
M  V30 17617 O 3089.52 -8.66104 5.38572 0
M  V30 17618 O 3090.09 -6.33544 6.1349 0
M  V30 17619 O 3089.55 -6.7751 3.72168 0
M  V30 17620 C 3088.61 -7.20825 2.7076 0
M  V30 17621 C 3089.34 -7.45864 1.40599 0
M  V30 17622 O 3089.55 -6.17651 0.734225 0
M  V30 17623 C 3090.74 -8.05808 1.51899 0
M  V30 17624 O 3091.13 -8.74358 0.335205 0
M  V30 17625 C 3091.62 -6.83093 1.70294 0
M  V30 17626 C 3090.91 -5.79992 0.836974 0
M  V30 17627 N 3090.96 -4.41864 1.38293 0
M  V30 17628 H 3088.12 -8.13644 3.0377 0
M  V30 17629 H 3087.85 -6.42788 2.55485 0
M  V30 17630 H 3088.72 -8.12039 0.792769 0
M  V30 17631 P 3092.68 -8.91 1.01653e-10 0
M  V30 17632 O 3092.9 -10.1726 -0.733694 0
M  V30 17633 O 3093.47 -8.73148 1.23936 0
M  V30 17634 O 3092.93 -7.66872 -0.971405 0
M  V30 17635 C 3091.99 -7.42309 -2.04641 0
M  V30 17636 C 3092.72 -6.86059 -3.24661 0
M  V30 17637 O 3092.93 -5.42847 -3.03646 0
M  V30 17638 C 3094.12 -7.41196 -3.50753 0
M  V30 17639 O 3094.51 -7.27073 -4.86816 0
M  V30 17640 C 3095 -6.5273 -2.63741 0
M  V30 17641 C 3094.29 -5.1842 -2.73198 0
M  V30 17642 N 3094.34 -4.38762 -1.4784 0
M  V30 17643 H 3091.5 -8.36803 -2.32493 0
M  V30 17644 H 3091.23 -6.70197 -1.71129 0
M  V30 17645 H 3092.1 -7.03551 -4.13168 0
M  V30 17646 P 3096.06 -7.20834 -5.23717 0
M  V30 17647 O 3096.28 -7.79853 -6.57286 0
M  V30 17648 O 3096.85 -7.79239 -4.12957 0
M  V30 17649 O 3096.31 -5.63315 -5.29344 0
M  V30 17650 C 3095.37 -4.80255 -6.01876 0
M  V30 17651 C 3096.1 -3.64202 -6.65911 0
M  V30 17652 O 3096.31 -2.60694 -5.64732 0
M  V30 17653 C 3097.5 -3.93473 -7.1943 0
M  V30 17654 O 3097.89 -3.02071 -8.21205 0
M  V30 17655 C 3098.38 -3.73047 -5.97036 0
M  V30 17656 C 3097.67 -2.58828 -5.25741 0
M  V30 17657 N 3097.72 -2.68068 -3.77503 0
M  V30 17658 H 3094.88 -5.40332 -6.79951 0
M  V30 17659 H 3094.61 -4.41613 -5.32378 0
M  V30 17660 H 3095.48 -3.26331 -7.47797 0
M  V30 17661 P 3099.44 -2.75334 -8.47391 0
M  V30 17662 O 3099.66 -2.44571 -9.90142 0
M  V30 17663 O 3100.23 -3.87688 -7.92115 0
M  V30 17664 O 3099.69 -1.4459 -7.59357 0
M  V30 17665 C 3098.75 -0.347608 -7.69215 0
M  V30 17666 C 3099.48 0.96767 -7.52806 0
M  V30 17667 O 3099.69 1.21036 -6.1011 0
M  V30 17668 C 3100.88 1.04544 -8.13308 0
M  V30 17669 O 3101.27 2.38311 -8.41922 0
M  V30 17670 C 3101.76 0.491279 -7.02284 0
M  V30 17671 C 3101.05 0.996264 -5.77469 0
M  V30 17672 N 3101.1 0.0501916 -4.62973 0
M  V30 17673 H 3098.26 -0.374722 -8.67691 0
M  V30 17674 H 3097.99 -0.443485 -6.90277 0
M  V30 17675 H 3098.86 1.75537 -7.96793 0
M  V30 17676 P 3102.82 2.75334 -8.47391 0
M  V30 17677 O 3103.04 3.84128 -9.44797 0
M  V30 17678 O 3103.61 1.51947 -8.68712 0
M  V30 17679 O 3103.07 3.29363 -6.99321 0
M  V30 17680 C 3102.13 4.24011 -6.4274 0
M  V30 17681 C 3102.86 5.20775 -5.52155 0
M  V30 17682 O 3103.07 4.56534 -4.22446 0
M  V30 17683 C 3104.26 5.62629 -5.96531 0
M  V30 17684 O 3104.65 6.87667 -5.41053 0
M  V30 17685 C 3105.14 4.52537 -5.39283 0
M  V30 17686 C 3104.43 4.20027 -4.08623 0
M  V30 17687 N 3104.48 2.76189 -3.71603 0
M  V30 17688 H 3101.64 4.797 -7.24003 0
M  V30 17689 H 3101.37 3.69856 -5.84513 0
M  V30 17690 H 3102.24 6.10356 -5.41441 0
M  V30 17691 P 3106.2 7.20834 -5.23717 0
M  V30 17692 O 3106.42 8.66104 -5.38572 0
M  V30 17693 O 3106.99 6.33544 -6.1349 0
M  V30 17694 O 3106.45 6.7751 -3.72168 0
M  V30 17695 C 3105.51 7.20825 -2.7076 0
M  V30 17696 C 3106.24 7.45864 -1.40599 0
M  V30 17697 O 3106.45 6.17651 -0.734225 0
M  V30 17698 C 3107.64 8.05808 -1.51899 0
M  V30 17699 O 3108.03 8.74358 -0.335205 0
M  V30 17700 C 3108.52 6.83093 -1.70294 0
M  V30 17701 C 3107.81 5.79992 -0.836974 0
M  V30 17702 N 3107.86 4.41864 -1.38293 0
M  V30 17703 C 3107.78 3.99538 -2.69438 0
M  V30 17704 N 3107.86 2.69909 -2.84277 0
M  V30 17705 C 3108 2.21719 -1.5408 0
M  V30 17706 C 3108.13 0.891712 -1.06628 0
M  V30 17707 N 3108.25 0.856846 0.334985 0
M  V30 17708 C 3108.25 1.9641 1.15789 0
M  V30 17709 N 3108.38 1.72708 2.46522 0
M  V30 17710 N 3108.12 3.21165 0.713741 0
M  V30 17711 C 3108 3.26797 -0.639748 0
M  V30 17712 H 3105.02 8.13644 -3.0377 0
M  V30 17713 H 3104.75 6.42788 -2.55485 0
M  V30 17714 H 3105.62 8.12039 -0.792769 0
M  V30 17715 P 3109.58 8.91 -1.02762e-10 0
M  V30 17716 O 3109.8 10.1726 0.733694 0
M  V30 17717 O 3110.37 8.73148 -1.23936 0
M  V30 17718 O 3109.83 7.66872 0.971405 0
M  V30 17719 C 3108.89 7.42309 2.04641 0
M  V30 17720 C 3109.62 6.86059 3.24661 0
M  V30 17721 O 3109.83 5.42847 3.03646 0
M  V30 17722 C 3111.02 7.41196 3.50753 0
M  V30 17723 O 3111.41 7.27073 4.86816 0
M  V30 17724 C 3111.9 6.5273 2.63741 0
M  V30 17725 C 3111.19 5.1842 2.73198 0
M  V30 17726 N 3111.24 4.38762 1.4784 0
M  V30 17727 H 3108.4 8.36803 2.32493 0
M  V30 17728 H 3108.13 6.70197 1.71129 0
M  V30 17729 H 3109 7.03551 4.13168 0
M  V30 17730 P 3112.96 7.20834 5.23717 0
M  V30 17731 O 3113.18 7.79853 6.57286 0
M  V30 17732 O 3113.75 7.79239 4.12957 0
M  V30 17733 O 3113.21 5.63315 5.29344 0
M  V30 17734 C 3112.27 4.80255 6.01876 0
M  V30 17735 C 3113 3.64202 6.65911 0
M  V30 17736 O 3113.21 2.60694 5.64732 0
M  V30 17737 C 3114.4 3.93473 7.1943 0
M  V30 17738 O 3114.79 3.02071 8.21205 0
M  V30 17739 C 3115.28 3.73047 5.97036 0
M  V30 17740 C 3114.57 2.58828 5.25741 0
M  V30 17741 N 3114.62 2.68068 3.77503 0
M  V30 17742 H 3111.78 5.40332 6.79951 0
M  V30 17743 H 3111.51 4.41613 5.32378 0
M  V30 17744 H 3112.38 3.26331 7.47797 0
M  V30 17745 P 3116.34 2.75334 8.47391 0
M  V30 17746 O 3116.56 2.44595 9.90239 0
M  V30 17747 O 3117.13 3.87732 7.92204 0
M  V30 17748 O 3116.59 1.4459 7.59357 0
M  V30 17749 C 3115.65 0.347563 7.69115 0
M  V30 17750 C 3116.38 -0.96767 7.52806 0
M  V30 17751 O 3116.59 -1.21036 6.1011 0
M  V30 17752 C 3117.78 -1.04544 8.13308 0
M  V30 17753 O 3118.17 -2.38311 8.41922 0
M  V30 17754 C 3118.66 -0.491279 7.02284 0
M  V30 17755 C 3117.95 -0.996264 5.77469 0
M  V30 17756 N 3118 -0.0501808 4.62873 0
M  V30 17757 C 3118.15 -0.588177 3.36904 0
M  V30 17758 O 3118.24 -1.78598 3.17173 0
M  V30 17759 N 3118.19 0.329694 2.33686 0
M  V30 17760 C 3118.1 1.6953 2.45079 0
M  V30 17761 C 3117.95 2.16933 3.80505 0
M  V30 17762 C 3117.9 1.30326 4.83752 0
M  V30 17763 H 3115.16 0.374722 8.67691 0
M  V30 17764 H 3114.89 0.443421 6.90177 0
M  V30 17765 H 3115.76 -1.75537 7.96793 0
M  V30 17766 H 3118.41 -1.94496 5.46629 0
M  V30 17767 H 3118.69 0.608651 7.04676 0
M  V30 17768 H 3119.69 -0.889672 7.08939 0
M  V30 17769 H 3117.85 -0.43308 9.04564 0
M  V30 17770 H 3117.78 1.68366 5.8516 0
M  V30 17771 P 3119.72 -2.75334 8.47391 0
M  V30 17772 O 3119.94 -3.84166 9.4489 0
M  V30 17773 O 3120.51 -1.51964 8.6881 0
M  V30 17774 O 3119.97 -3.29363 6.99321 0
M  V30 17775 C 3119.03 -4.23956 6.42656 0
M  V30 17776 C 3119.76 -5.20775 5.52155 0
M  V30 17777 O 3119.97 -4.56534 4.22446 0
M  V30 17778 C 3121.16 -5.62629 5.96531 0
M  V30 17779 O 3121.55 -6.87667 5.41053 0
M  V30 17780 C 3122.04 -4.52537 5.39283 0
M  V30 17781 C 3121.33 -4.20027 4.08623 0
M  V30 17782 N 3121.38 -2.7613 3.71522 0
M  V30 17783 C 3121.53 -2.45612 2.37989 0
M  V30 17784 O 3121.62 -3.30919 1.51621 0
M  V30 17785 N 3121.57 -1.10684 2.08435 0
M  V30 17786 C 3121.48 -0.0690084 2.9792 0
M  V30 17787 C 3121.33 -0.481522 4.35345 0
M  V30 17788 C 3121.28 -1.78906 4.67968 0
M  V30 17789 H 3118.54 -4.797 7.24003 0
M  V30 17790 H 3118.27 -3.69802 5.84429 0
M  V30 17791 H 3119.14 -6.10356 5.41441 0
M  V30 17792 H 3121.79 -4.78651 3.27911 0
M  V30 17793 H 3122.07 -3.64957 6.05871 0
M  V30 17794 H 3123.07 -4.8868 5.2125 0
M  V30 17795 H 3121.23 -5.66726 7.06352 0
M  V30 17796 H 3121.16 -2.07737 5.72367 0
M  V30 17797 P 3123.1 -7.20834 5.23717 0
M  V30 17798 O 3123.32 -8.66104 5.38572 0
M  V30 17799 O 3123.89 -6.33544 6.1349 0
M  V30 17800 O 3123.35 -6.7751 3.72168 0
M  V30 17801 C 3122.41 -7.20825 2.7076 0
M  V30 17802 C 3123.14 -7.45864 1.40599 0
M  V30 17803 O 3123.35 -6.17651 0.734225 0
M  V30 17804 C 3124.54 -8.05808 1.51899 0
M  V30 17805 O 3124.93 -8.74358 0.335205 0
M  V30 17806 C 3125.42 -6.83093 1.70294 0
M  V30 17807 C 3124.71 -5.79992 0.836974 0
M  V30 17808 N 3124.76 -4.41864 1.38293 0
M  V30 17809 H 3121.92 -8.13644 3.0377 0
M  V30 17810 H 3121.65 -6.42788 2.55485 0
M  V30 17811 H 3122.52 -8.12039 0.792769 0
M  V30 17812 P 3126.48 -8.91 1.03871e-10 0
M  V30 17813 O 3126.7 -10.1746 -0.733838 0
M  V30 17814 O 3127.27 -8.73346 1.23964 0
M  V30 17815 O 3126.73 -7.66872 -0.971405 0
M  V30 17816 C 3125.79 -7.42405 -2.04668 0
M  V30 17817 C 3126.52 -6.86059 -3.24661 0
M  V30 17818 O 3126.73 -5.42934 -3.03695 0
M  V30 17819 C 3127.92 -7.41287 -3.50796 0
M  V30 17820 O 3128.31 -7.27073 -4.86816 0
M  V30 17821 C 3128.8 -6.5273 -2.63741 0
M  V30 17822 C 3128.09 -5.1842 -2.73198 0
M  V30 17823 N 3128.14 -4.38762 -1.4784 0
M  V30 17824 C 3128.06 -4.83651 -0.183876 0
M  V30 17825 N 3128.13 -3.88759 0.699393 0
M  V30 17826 C 3128.28 -2.7404 -0.0575568 0
M  V30 17827 C 3128.41 -1.37902 0.293928 0
M  V30 17828 N 3128.42 -0.938021 1.54797 0
M  V30 17829 N 3128.53 -0.491817 -0.70549 0
M  V30 17830 C 3128.52 -0.931735 -1.95979 0
M  V30 17831 N 3128.4 -2.16017 -2.41481 0
M  V30 17832 C 3128.28 -3.02547 -1.39121 0
M  V30 17833 H 3125.3 -8.36899 -2.3252 0
M  V30 17834 H 3125.03 -6.70391 -1.71179 0
M  V30 17835 H 3125.9 -7.03638 -4.13219 0
M  V30 17836 H 3128.55 -4.59931 -3.54016 0
M  V30 17837 H 3128.83 -6.88995 -1.59871 0
M  V30 17838 H 3129.83 -6.4684 -3.0373 0
M  V30 17839 H 3127.99 -8.47002 -3.20749 0
M  V30 17840 H 3127.95 -5.8885 0.0765548 0
M  V30 17841 H 3128.33 -1.60276 2.32875 0
M  V30 17842 H 3128.52 0.0699355 1.73859 0
M  V30 17843 H 3128.63 -0.165507 -2.71897 0
M  V30 17844 P 3129.86 -7.20834 -5.23717 0
M  V30 17845 O 3130.08 -7.7993 -6.57351 0
M  V30 17846 O 3130.65 -7.79328 -4.13004 0
M  V30 17847 O 3130.11 -5.63315 -5.29344 0
M  V30 17848 C 3129.17 -4.80193 -6.01798 0
M  V30 17849 C 3129.9 -3.64202 -6.65911 0
M  V30 17850 O 3130.11 -2.60694 -5.64732 0
M  V30 17851 C 3131.3 -3.93473 -7.1943 0
M  V30 17852 O 3131.69 -3.02071 -8.21205 0
M  V30 17853 C 3132.18 -3.73047 -5.97036 0
M  V30 17854 C 3131.47 -2.58828 -5.25741 0
M  V30 17855 N 3131.52 -2.6801 -3.77422 0
M  V30 17856 C 3131.67 -1.50443 -3.07133 0
M  V30 17857 O 3131.76 -0.419406 -3.61576 0
M  V30 17858 N 3131.71 -1.6403 -1.69677 0
M  V30 17859 C 3131.62 -2.81206 -0.986255 0
M  V30 17860 O 3131.67 -2.80892 0.249754 0
M  V30 17861 C 3131.47 -3.99158 -1.80325 0
M  V30 17862 C 3131.36 -5.29309 -1.06921 0
M  V30 17863 C 3131.42 -3.89779 -3.1476 0
M  V30 17864 H 3128.68 -5.40332 -6.79951 0
M  V30 17865 H 3128.41 -4.41549 -5.32301 0
M  V30 17866 H 3129.28 -3.26331 -7.47797 0
M  V30 17867 H 3131.93 -1.6395 -5.56554 0
M  V30 17868 H 3132.21 -4.63439 -5.3432 0
M  V30 17869 H 3133.21 -3.44728 -6.25838 0
M  V30 17870 H 3131.37 -4.96652 -7.57263 0
M  V30 17871 H 3131.3 -4.80159 -3.74441 0
M  V30 17872 H 3132.33 -5.81459 -1.09608 0
M  V30 17873 H 3130.59 -5.9187 -1.54487 0
M  V30 17874 H 3131.08 -5.10095 -0.0220288 0
M  V30 17875 H 3131.82 -0.798962 -1.16664 0
M  V30 17876 P 3133.24 -2.75334 -8.47391 0
M  V30 17877 O 3133.46 -2.44571 -9.90142 0
M  V30 17878 O 3134.03 -3.87688 -7.92115 0
M  V30 17879 O 3133.49 -1.4459 -7.59357 0
M  V30 17880 C 3132.55 -0.347608 -7.69215 0
M  V30 17881 C 3133.28 0.96767 -7.52806 0
M  V30 17882 O 3133.49 1.21036 -6.1011 0
M  V30 17883 C 3134.68 1.04544 -8.13308 0
M  V30 17884 O 3135.07 2.38311 -8.41922 0
M  V30 17885 C 3135.56 0.491279 -7.02284 0
M  V30 17886 C 3134.85 0.996264 -5.77469 0
M  V30 17887 N 3134.9 0.0501916 -4.62973 0
M  V30 17888 H 3132.06 -0.374722 -8.67691 0
M  V30 17889 H 3131.79 -0.443485 -6.90277 0
M  V30 17890 H 3132.66 1.75537 -7.96793 0
M  V30 17891 P 3136.62 2.75334 -8.47391 0
M  V30 17892 O 3136.84 3.84128 -9.44797 0
M  V30 17893 O 3137.41 1.51947 -8.68712 0
M  V30 17894 O 3136.87 3.29363 -6.99321 0
M  V30 17895 C 3135.93 4.24011 -6.4274 0
M  V30 17896 C 3136.66 5.20775 -5.52155 0
M  V30 17897 O 3136.87 4.56534 -4.22446 0
M  V30 17898 C 3138.06 5.62629 -5.96531 0
M  V30 17899 O 3138.45 6.87667 -5.41053 0
M  V30 17900 C 3138.94 4.52537 -5.39283 0
M  V30 17901 C 3138.23 4.20027 -4.08623 0
M  V30 17902 N 3138.28 2.76189 -3.71603 0
M  V30 17903 H 3135.44 4.797 -7.24003 0
M  V30 17904 H 3135.17 3.69856 -5.84513 0
M  V30 17905 H 3136.04 6.10356 -5.41441 0
M  V30 17906 P 3140 7.20834 -5.23717 0
M  V30 17907 O 3140.22 8.66104 -5.38572 0
M  V30 17908 O 3140.79 6.33544 -6.1349 0
M  V30 17909 O 3140.25 6.7751 -3.72168 0
M  V30 17910 C 3139.31 7.20825 -2.7076 0
M  V30 17911 C 3140.04 7.45864 -1.40599 0
M  V30 17912 O 3140.25 6.17651 -0.734225 0
M  V30 17913 C 3141.44 8.05808 -1.51899 0
M  V30 17914 O 3141.83 8.74358 -0.335205 0
M  V30 17915 C 3142.32 6.83093 -1.70294 0
M  V30 17916 C 3141.61 5.79992 -0.836974 0
M  V30 17917 N 3141.66 4.41864 -1.38293 0
M  V30 17918 C 3141.58 3.99538 -2.69438 0
M  V30 17919 N 3141.66 2.69909 -2.84277 0
M  V30 17920 C 3141.8 2.21719 -1.5408 0
M  V30 17921 C 3141.93 0.891712 -1.06628 0
M  V30 17922 O 3141.95 -0.161298 -1.70137 0
M  V30 17923 N 3142.05 0.856846 0.334985 0
M  V30 17924 C 3142.05 1.9641 1.15789 0
M  V30 17925 N 3142.18 1.72708 2.46522 0
M  V30 17926 N 3141.92 3.21165 0.713741 0
M  V30 17927 C 3141.8 3.26797 -0.639748 0
M  V30 17928 H 3138.82 8.13644 -3.0377 0
M  V30 17929 H 3138.55 6.42788 -2.55485 0
M  V30 17930 H 3139.42 8.12039 -0.792769 0
M  V30 17931 H 3142.07 5.80061 0.166416 0
M  V30 17932 H 3142.35 6.51287 -2.75604 0
M  V30 17933 H 3143.35 7.01734 -1.34462 0
M  V30 17934 H 3141.51 8.73674 -2.38337 0
M  V30 17935 H 3141.46 4.68207 -3.53221 0
M  V30 17936 H 3142.14 -0.0398818 0.767965 0
M  V30 17937 H 3142.18 2.50995 3.13503 0
M  V30 17938 H 3142.28 0.759148 2.80716 0
M  V30 17939 P 3143.38 8.91 -1.0498e-10 0
M  V30 17940 O 3143.6 10.1726 0.733694 0
M  V30 17941 O 3144.17 8.73148 -1.23936 0
M  V30 17942 O 3143.63 7.66872 0.971405 0
M  V30 17943 C 3142.69 7.42309 2.04641 0
M  V30 17944 C 3143.42 6.86059 3.24661 0
M  V30 17945 O 3143.63 5.42847 3.03646 0
M  V30 17946 C 3144.82 7.41196 3.50753 0
M  V30 17947 O 3145.21 7.27073 4.86816 0
M  V30 17948 C 3145.7 6.5273 2.63741 0
M  V30 17949 C 3144.99 5.1842 2.73198 0
M  V30 17950 N 3145.04 4.38762 1.4784 0
M  V30 17951 H 3142.2 8.36803 2.32493 0
M  V30 17952 H 3141.93 6.70197 1.71129 0
M  V30 17953 H 3142.8 7.03551 4.13168 0
M  V30 17954 P 3146.76 7.20834 5.23717 0
M  V30 17955 O 3146.98 7.79853 6.57286 0
M  V30 17956 O 3147.55 7.79239 4.12957 0
M  V30 17957 O 3147.01 5.63315 5.29344 0
M  V30 17958 C 3146.07 4.80255 6.01876 0
M  V30 17959 C 3146.8 3.64202 6.65911 0
M  V30 17960 O 3147.01 2.60694 5.64732 0
M  V30 17961 C 3148.2 3.93473 7.1943 0
M  V30 17962 O 3148.59 3.02071 8.21205 0
M  V30 17963 C 3149.08 3.73047 5.97036 0
M  V30 17964 C 3148.37 2.58828 5.25741 0
M  V30 17965 N 3148.42 2.68068 3.77503 0
M  V30 17966 H 3145.58 5.40332 6.79951 0
M  V30 17967 H 3145.31 4.41613 5.32378 0
M  V30 17968 H 3146.18 3.26331 7.47797 0
M  V30 17969 P 3150.14 2.75334 8.47391 0
M  V30 17970 O 3150.36 2.44595 9.90239 0
M  V30 17971 O 3150.93 3.87732 7.92204 0
M  V30 17972 O 3150.39 1.4459 7.59357 0
M  V30 17973 C 3149.45 0.347563 7.69115 0
M  V30 17974 C 3150.18 -0.96767 7.52806 0
M  V30 17975 O 3150.39 -1.21036 6.1011 0
M  V30 17976 C 3151.58 -1.04544 8.13308 0
M  V30 17977 O 3151.97 -2.38311 8.41922 0
M  V30 17978 C 3152.46 -0.491279 7.02284 0
M  V30 17979 C 3151.75 -0.996264 5.77469 0
M  V30 17980 N 3151.8 -0.0501808 4.62873 0
M  V30 17981 C 3151.95 -0.588177 3.36904 0
M  V30 17982 O 3152.04 -1.78598 3.17173 0
M  V30 17983 N 3151.99 0.329694 2.33686 0
M  V30 17984 C 3151.9 1.6953 2.45079 0
M  V30 17985 C 3151.75 2.16933 3.80505 0
M  V30 17986 C 3151.7 1.30326 4.83752 0
M  V30 17987 H 3148.96 0.374722 8.67691 0
M  V30 17988 H 3148.69 0.443421 6.90177 0
M  V30 17989 H 3149.56 -1.75537 7.96793 0
M  V30 17990 H 3152.21 -1.94496 5.46629 0
M  V30 17991 H 3152.49 0.608651 7.04676 0
M  V30 17992 H 3153.49 -0.889672 7.08939 0
M  V30 17993 H 3151.65 -0.43308 9.04564 0
M  V30 17994 H 3151.58 1.68366 5.8516 0
M  V30 17995 P 3153.52 -2.75334 8.47391 0
M  V30 17996 O 3153.74 -3.84128 9.44797 0
M  V30 17997 O 3154.31 -1.51947 8.68712 0
M  V30 17998 O 3153.77 -3.29363 6.99321 0
M  V30 17999 C 3152.83 -4.24011 6.4274 0
M  V30 18000 C 3153.56 -5.20775 5.52155 0
M  V30 18001 O 3153.77 -4.56534 4.22446 0
M  V30 18002 C 3154.96 -5.62629 5.96531 0
M  V30 18003 O 3155.35 -6.87667 5.41053 0
M  V30 18004 C 3155.84 -4.52537 5.39283 0
M  V30 18005 C 3155.13 -4.20027 4.08623 0
M  V30 18006 N 3155.18 -2.76189 3.71603 0
M  V30 18007 C 3155.1 -1.64862 4.52822 0
M  V30 18008 N 3155.18 -0.512671 3.88633 0
M  V30 18009 C 3155.32 -0.888083 2.54977 0
M  V30 18010 C 3155.45 -0.094668 1.38677 0
M  V30 18011 N 3155.57 -0.890102 0.232633 0
M  V30 18012 C 3155.57 -2.26958 0.21772 0
M  V30 18013 N 3155.7 -2.84626 -0.97925 0
M  V30 18014 N 3155.44 -3.0178 1.31033 0
M  V30 18015 C 3155.32 -2.26781 2.43843 0
M  V30 18016 H 3152.34 -4.797 7.24003 0
M  V30 18017 H 3152.07 -3.69856 5.84513 0
M  V30 18018 H 3152.94 -6.10356 5.41441 0
M  V30 18019 P 3156.9 -7.20834 5.23717 0
M  V30 18020 O 3157.12 -8.66104 5.38572 0
M  V30 18021 O 3157.69 -6.33544 6.1349 0
M  V30 18022 O 3157.15 -6.7751 3.72168 0
M  V30 18023 C 3156.21 -7.20825 2.7076 0
M  V30 18024 C 3156.94 -7.45864 1.40599 0
M  V30 18025 O 3157.15 -6.17651 0.734225 0
M  V30 18026 C 3158.34 -8.05808 1.51899 0
M  V30 18027 O 3158.73 -8.74358 0.335205 0
M  V30 18028 C 3159.22 -6.83093 1.70294 0
M  V30 18029 C 3158.51 -5.79992 0.836974 0
M  V30 18030 N 3158.56 -4.41864 1.38293 0
M  V30 18031 H 3155.72 -8.13644 3.0377 0
M  V30 18032 H 3155.45 -6.42788 2.55485 0
M  V30 18033 H 3156.32 -8.12039 0.792769 0
M  V30 18034 P 3160.28 -8.91 1.06089e-10 0
M  V30 18035 O 3160.5 -10.1726 -0.733694 0
M  V30 18036 O 3161.07 -8.73148 1.23936 0
M  V30 18037 O 3160.53 -7.66872 -0.971405 0
M  V30 18038 C 3159.59 -7.42309 -2.04641 0
M  V30 18039 C 3160.32 -6.86059 -3.24661 0
M  V30 18040 O 3160.53 -5.42847 -3.03646 0
M  V30 18041 C 3161.72 -7.41196 -3.50753 0
M  V30 18042 O 3162.11 -7.27073 -4.86816 0
M  V30 18043 C 3162.6 -6.5273 -2.63741 0
M  V30 18044 C 3161.89 -5.1842 -2.73198 0
M  V30 18045 N 3161.94 -4.38762 -1.4784 0
M  V30 18046 C 3161.86 -4.81605 -0.168631 0
M  V30 18047 N 3161.94 -3.85454 0.713363 0
M  V30 18048 C 3162.08 -2.6994 -0.0566958 0
M  V30 18049 C 3162.21 -1.34815 0.338502 0
M  V30 18050 O 3162.23 -0.869548 1.47125 0
M  V30 18051 N 3162.33 -0.496304 -0.77465 0
M  V30 18052 C 3162.33 -0.908403 -2.09122 0
M  V30 18053 N 3162.46 0.0517805 -3.00955 0
M  V30 18054 N 3162.2 -2.17875 -2.46519 0
M  V30 18055 C 3162.08 -3.01988 -1.4033 0
M  V30 18056 H 3159.1 -8.36803 -2.32493 0
M  V30 18057 H 3158.83 -6.70197 -1.71129 0
M  V30 18058 H 3159.7 -7.03551 -4.13168 0
M  V30 18059 H 3162.35 -4.59498 -3.54415 0
M  V30 18060 H 3162.63 -6.88898 -1.59848 0
M  V30 18061 H 3163.63 -6.46749 -3.03687 0
M  V30 18062 H 3161.79 -8.46908 -3.20714 0
M  V30 18063 H 3161.74 -5.86405 0.105564 0
M  V30 18064 H 3162.42 0.483664 -0.597855 0
M  V30 18065 H 3162.46 -0.187865 -4.0116 0
M  V30 18066 H 3162.56 1.03585 -2.71726 0
M  V30 18067 P 3163.66 -7.20834 -5.23717 0
M  V30 18068 O 3163.88 -7.79853 -6.57286 0
M  V30 18069 O 3164.45 -7.79239 -4.12957 0
M  V30 18070 O 3163.91 -5.63315 -5.29344 0
M  V30 18071 C 3162.97 -4.80255 -6.01876 0
M  V30 18072 C 3163.7 -3.64202 -6.65911 0
M  V30 18073 O 3163.91 -2.60694 -5.64732 0
M  V30 18074 C 3165.1 -3.93473 -7.1943 0
M  V30 18075 O 3165.49 -3.02071 -8.21205 0
M  V30 18076 C 3165.98 -3.73047 -5.97036 0
M  V30 18077 C 3165.27 -2.58828 -5.25741 0
M  V30 18078 N 3165.32 -2.68068 -3.77503 0
M  V30 18079 H 3162.48 -5.40332 -6.79951 0
M  V30 18080 H 3162.21 -4.41613 -5.32378 0
M  V30 18081 H 3163.08 -3.26331 -7.47797 0
M  V30 18082 P 3167.04 -2.75334 -8.47391 0
M  V30 18083 O 3167.26 -2.44571 -9.90142 0
M  V30 18084 O 3167.83 -3.87688 -7.92115 0
M  V30 18085 O 3167.29 -1.4459 -7.59357 0
M  V30 18086 C 3166.35 -0.347608 -7.69215 0
M  V30 18087 C 3167.08 0.96767 -7.52806 0
M  V30 18088 O 3167.29 1.21036 -6.1011 0
M  V30 18089 C 3168.48 1.04544 -8.13308 0
M  V30 18090 O 3168.87 2.38311 -8.41922 0
M  V30 18091 C 3169.36 0.491279 -7.02284 0
M  V30 18092 C 3168.65 0.996264 -5.77469 0
M  V30 18093 N 3168.7 0.0501916 -4.62973 0
M  V30 18094 C 3168.62 -1.32786 -4.63244 0
M  V30 18095 N 3168.7 -1.86957 -3.44545 0
M  V30 18096 C 3168.84 -0.780241 -2.58481 0
M  V30 18097 C 3168.97 -0.738536 -1.17757 0
M  V30 18098 O 3168.99 -1.66794 -0.372349 0
M  V30 18099 N 3169.09 0.58337 -0.711393 0
M  V30 18100 C 3169.09 1.70816 -1.51017 0
M  V30 18101 N 3169.22 2.87826 -0.880757 0
M  V30 18102 N 3168.96 1.67126 -2.8339 0
M  V30 18103 C 3168.84 0.401421 -3.30572 0
M  V30 18104 H 3165.86 -0.374722 -8.67691 0
M  V30 18105 H 3165.59 -0.443485 -6.90277 0
M  V30 18106 H 3166.46 1.75537 -7.96793 0
M  V30 18107 H 3169.11 1.95076 -5.46529 0
M  V30 18108 H 3169.39 -0.608565 -7.04577 0
M  V30 18109 H 3170.39 0.889672 -7.08939 0
M  V30 18110 H 3168.55 0.43308 -9.04564 0
M  V30 18111 H 3168.5 -1.91249 -5.54442 0
M  V30 18112 H 3169.18 0.718054 0.275244 0
M  V30 18113 H 3169.22 3.75721 -1.41832 0
M  V30 18114 H 3169.32 2.90436 0.145468 0
M  V30 18115 P 3170.42 2.75334 -8.47391 0
M  V30 18116 O 3170.64 3.84128 -9.44797 0
M  V30 18117 O 3171.21 1.51947 -8.68712 0
M  V30 18118 O 3170.67 3.29363 -6.99321 0
M  V30 18119 C 3169.73 4.24011 -6.4274 0
M  V30 18120 C 3170.46 5.20775 -5.52155 0
M  V30 18121 O 3170.67 4.56534 -4.22446 0
M  V30 18122 C 3171.86 5.62629 -5.96531 0
M  V30 18123 O 3172.25 6.87667 -5.41053 0
M  V30 18124 C 3172.74 4.52537 -5.39283 0
M  V30 18125 C 3172.03 4.20027 -4.08623 0
M  V30 18126 N 3172.08 2.76189 -3.71603 0
M  V30 18127 H 3169.24 4.797 -7.24003 0
M  V30 18128 H 3168.97 3.69856 -5.84513 0
M  V30 18129 H 3169.84 6.10356 -5.41441 0
M  V30 18130 P 3173.8 7.20834 -5.23717 0
M  V30 18131 O 3174.02 8.66189 -5.38625 0
M  V30 18132 O 3174.59 6.33615 -6.1356 0
M  V30 18133 O 3174.05 6.7751 -3.72168 0
M  V30 18134 C 3173.11 7.20732 -2.70725 0
M  V30 18135 C 3173.84 7.45864 -1.40599 0
M  V30 18136 O 3174.05 6.17651 -0.734225 0
M  V30 18137 C 3175.24 8.05808 -1.51899 0
M  V30 18138 O 3175.63 8.74358 -0.335205 0
M  V30 18139 C 3176.12 6.83093 -1.70294 0
M  V30 18140 C 3175.41 5.79992 -0.836974 0
M  V30 18141 N 3175.46 4.41769 -1.38263 0
M  V30 18142 C 3175.61 3.38591 -0.481702 0
M  V30 18143 O 3175.7 3.56839 0.718452 0
M  V30 18144 N 3175.65 2.1206 -1.03569 0
M  V30 18145 C 3175.56 1.80696 -2.36966 0
M  V30 18146 C 3175.41 2.94845 -3.23898 0
M  V30 18147 C 3175.36 4.19803 -2.73435 0
M  V30 18148 H 3172.62 8.13644 -3.0377 0
M  V30 18149 H 3172.35 6.42695 -2.55448 0
M  V30 18150 H 3173.22 8.12039 -0.792769 0
M  V30 18151 H 3175.87 5.79978 0.160587 0
M  V30 18152 H 3176.15 6.51379 -2.75643 0
M  V30 18153 H 3177.15 7.01734 -1.34462 0
M  V30 18154 H 3175.31 8.73674 -2.38337 0
M  V30 18155 H 3175.24 5.04492 -3.4095 0
M  V30 18156 P 3177.18 8.91 -1.07198e-10 0
M  V30 18157 O 3177.4 10.1726 0.733694 0
M  V30 18158 O 3177.97 8.73148 -1.23936 0
M  V30 18159 O 3177.43 7.66872 0.971405 0
M  V30 18160 C 3176.49 7.42309 2.04641 0
M  V30 18161 C 3177.22 6.86059 3.24661 0
M  V30 18162 O 3177.43 5.42847 3.03646 0
M  V30 18163 C 3178.62 7.41196 3.50753 0
M  V30 18164 O 3179.01 7.27073 4.86816 0
M  V30 18165 C 3179.5 6.5273 2.63741 0
M  V30 18166 C 3178.79 5.1842 2.73198 0
M  V30 18167 N 3178.84 4.38762 1.4784 0
M  V30 18168 H 3176 8.36803 2.32493 0
M  V30 18169 H 3175.73 6.70197 1.71129 0
M  V30 18170 H 3176.6 7.03551 4.13168 0
M  V30 18171 P 3180.56 7.20834 5.23717 0
M  V30 18172 O 3180.78 7.79853 6.57286 0
M  V30 18173 O 3181.35 7.79239 4.12957 0
M  V30 18174 O 3180.81 5.63315 5.29344 0
M  V30 18175 C 3179.87 4.80255 6.01876 0
M  V30 18176 C 3180.6 3.64202 6.65911 0
M  V30 18177 O 3180.81 2.60694 5.64732 0
M  V30 18178 C 3182 3.93473 7.1943 0
M  V30 18179 O 3182.39 3.02071 8.21205 0
M  V30 18180 C 3182.88 3.73047 5.97036 0
M  V30 18181 C 3182.17 2.58828 5.25741 0
M  V30 18182 N 3182.22 2.68068 3.77503 0
M  V30 18183 H 3179.38 5.40332 6.79951 0
M  V30 18184 H 3179.11 4.41613 5.32378 0
M  V30 18185 H 3179.98 3.26331 7.47797 0
M  V30 18186 P 3183.94 2.75334 8.47391 0
M  V30 18187 O 3184.16 2.44571 9.90142 0
M  V30 18188 O 3184.73 3.87688 7.92115 0
M  V30 18189 O 3184.19 1.4459 7.59357 0
M  V30 18190 C 3183.25 0.347608 7.69215 0
M  V30 18191 C 3183.98 -0.96767 7.52806 0
M  V30 18192 O 3184.19 -1.21036 6.1011 0
M  V30 18193 C 3185.38 -1.04544 8.13308 0
M  V30 18194 O 3185.77 -2.38311 8.41922 0
M  V30 18195 C 3186.26 -0.491279 7.02284 0
M  V30 18196 C 3185.55 -0.996264 5.77469 0
M  V30 18197 N 3185.6 -0.0501916 4.62973 0
M  V30 18198 H 3182.76 0.374722 8.67691 0
M  V30 18199 H 3182.49 0.443485 6.90277 0
M  V30 18200 H 3183.36 -1.75537 7.96793 0
M  V30 18201 P 3187.32 -2.75334 8.47391 0
M  V30 18202 O 3187.54 -3.84128 9.44797 0
M  V30 18203 O 3188.11 -1.51947 8.68712 0
M  V30 18204 O 3187.57 -3.29363 6.99321 0
M  V30 18205 C 3186.63 -4.24011 6.4274 0
M  V30 18206 C 3187.36 -5.20775 5.52155 0
M  V30 18207 O 3187.57 -4.56534 4.22446 0
M  V30 18208 C 3188.76 -5.62629 5.96531 0
M  V30 18209 O 3189.15 -6.87667 5.41053 0
M  V30 18210 C 3189.64 -4.52537 5.39283 0
M  V30 18211 C 3188.93 -4.20027 4.08623 0
M  V30 18212 N 3188.98 -2.76189 3.71603 0
M  V30 18213 H 3186.14 -4.797 7.24003 0
M  V30 18214 H 3185.87 -3.69856 5.84513 0
M  V30 18215 H 3186.74 -6.10356 5.41441 0
M  V30 18216 P 3190.7 -7.20834 5.23717 0
M  V30 18217 O 3190.92 -8.66274 5.38678 0
M  V30 18218 O 3191.49 -6.33687 6.13629 0
M  V30 18219 O 3190.95 -6.7751 3.72168 0
M  V30 18220 C 3190.01 -7.20919 2.70795 0
M  V30 18221 C 3190.74 -7.45864 1.40599 0
M  V30 18222 O 3190.95 -6.17751 0.734343 0
M  V30 18223 C 3192.14 -8.05906 1.51917 0
M  V30 18224 O 3192.53 -8.74358 0.335205 0
M  V30 18225 C 3193.02 -6.83093 1.70294 0
M  V30 18226 C 3192.31 -5.79992 0.836974 0
M  V30 18227 N 3192.36 -4.41864 1.38293 0
M  V30 18228 C 3192.28 -4.02089 2.69407 0
M  V30 18229 N 3192.35 -2.73403 2.85089 0
M  V30 18230 C 3192.5 -2.25086 1.5642 0
M  V30 18231 C 3192.63 -0.942887 1.04836 0
M  V30 18232 N 3192.64 0.150999 1.80369 0
M  V30 18233 N 3192.75 -0.812565 -0.28167 0
M  V30 18234 C 3192.74 -1.90572 -1.03784 0
M  V30 18235 N 3192.62 -3.167 -0.683905 0
M  V30 18236 C 3192.5 -3.26538 0.652815 0
M  V30 18237 H 3189.52 -8.13738 3.03804 0
M  V30 18238 H 3189.25 -6.42974 2.55559 0
M  V30 18239 H 3190.12 -8.12139 0.792866 0
M  V30 18240 H 3192.77 -5.80178 -0.160643 0
M  V30 18241 H 3193.05 -6.51379 2.75643 0
M  V30 18242 H 3194.05 -7.01832 1.3448 0
M  V30 18243 H 3192.21 -8.73771 2.38364 0
M  V30 18244 H 3192.17 -4.7189 3.52311 0
M  V30 18245 H 3192.55 0.0721434 2.82608 0
M  V30 18246 H 3192.74 1.0785 1.36544 0
M  V30 18247 H 3192.85 -1.73207 -2.10241 0
M  V30 18248 P 3194.08 -8.91 1.08307e-10 0
M  V30 18249 O 3194.3 -10.1726 -0.733694 0
M  V30 18250 O 3194.87 -8.73148 1.23936 0
M  V30 18251 O 3194.33 -7.66872 -0.971405 0
M  V30 18252 C 3193.39 -7.42309 -2.04641 0
M  V30 18253 C 3194.12 -6.86059 -3.24661 0
M  V30 18254 O 3194.33 -5.42847 -3.03646 0
M  V30 18255 C 3195.52 -7.41196 -3.50753 0
M  V30 18256 O 3195.91 -7.27073 -4.86816 0
M  V30 18257 C 3196.4 -6.5273 -2.63741 0
M  V30 18258 C 3195.69 -5.1842 -2.73198 0
M  V30 18259 N 3195.74 -4.38762 -1.4784 0
M  V30 18260 H 3192.9 -8.36803 -2.32493 0
M  V30 18261 H 3192.63 -6.70197 -1.71129 0
M  V30 18262 H 3193.5 -7.03551 -4.13168 0
M  V30 18263 P 3197.46 -7.20834 -5.23717 0
M  V30 18264 O 3197.68 -7.7993 -6.57351 0
M  V30 18265 O 3198.25 -7.79328 -4.13004 0
M  V30 18266 O 3197.71 -5.63315 -5.29344 0
M  V30 18267 C 3196.77 -4.80193 -6.01798 0
M  V30 18268 C 3197.5 -3.64202 -6.65911 0
M  V30 18269 O 3197.71 -2.60694 -5.64732 0
M  V30 18270 C 3198.9 -3.93473 -7.1943 0
M  V30 18271 O 3199.29 -3.02071 -8.21205 0
M  V30 18272 C 3199.78 -3.73047 -5.97036 0
M  V30 18273 C 3199.07 -2.58828 -5.25741 0
M  V30 18274 N 3199.12 -2.6801 -3.77422 0
M  V30 18275 C 3199.27 -1.50443 -3.07133 0
M  V30 18276 O 3199.36 -0.419406 -3.61576 0
M  V30 18277 N 3199.31 -1.6403 -1.69677 0
M  V30 18278 C 3199.22 -2.81206 -0.986255 0
M  V30 18279 O 3199.27 -2.80892 0.249754 0
M  V30 18280 C 3199.07 -3.99158 -1.80325 0
M  V30 18281 C 3198.96 -5.29309 -1.06921 0
M  V30 18282 C 3199.02 -3.89779 -3.1476 0
M  V30 18283 H 3196.28 -5.40332 -6.79951 0
M  V30 18284 H 3196.01 -4.41549 -5.32301 0
M  V30 18285 H 3196.88 -3.26331 -7.47797 0
M  V30 18286 H 3199.53 -1.6395 -5.56554 0
M  V30 18287 H 3199.81 -4.63439 -5.3432 0
M  V30 18288 H 3200.81 -3.44728 -6.25838 0
M  V30 18289 H 3198.97 -4.96652 -7.57263 0
M  V30 18290 H 3198.9 -4.80159 -3.74441 0
M  V30 18291 H 3199.93 -5.81459 -1.09608 0
M  V30 18292 H 3198.19 -5.9187 -1.54487 0
M  V30 18293 H 3198.68 -5.10095 -0.0220288 0
M  V30 18294 H 3199.42 -0.798962 -1.16664 0
M  V30 18295 P 3200.84 -2.75334 -8.47391 0
M  V30 18296 O 3201.06 -2.44571 -9.90142 0
M  V30 18297 O 3201.63 -3.87688 -7.92115 0
M  V30 18298 O 3201.09 -1.4459 -7.59357 0
M  V30 18299 C 3200.15 -0.347608 -7.69215 0
M  V30 18300 C 3200.88 0.96767 -7.52806 0
M  V30 18301 O 3201.09 1.21036 -6.1011 0
M  V30 18302 C 3202.28 1.04544 -8.13308 0
M  V30 18303 O 3202.67 2.38311 -8.41922 0
M  V30 18304 C 3203.16 0.491279 -7.02284 0
M  V30 18305 C 3202.45 0.996264 -5.77469 0
M  V30 18306 N 3202.5 0.0501916 -4.62973 0
M  V30 18307 H 3199.66 -0.374722 -8.67691 0
M  V30 18308 H 3199.39 -0.443485 -6.90277 0
M  V30 18309 H 3200.26 1.75537 -7.96793 0
M  V30 18310 P 3204.22 2.75334 -8.47391 0
M  V30 18311 O 3204.44 3.84128 -9.44797 0
M  V30 18312 O 3205.01 1.51947 -8.68712 0
M  V30 18313 O 3204.47 3.29363 -6.99321 0
M  V30 18314 C 3203.53 4.24011 -6.4274 0
M  V30 18315 C 3204.26 5.20775 -5.52155 0
M  V30 18316 O 3204.47 4.56534 -4.22446 0
M  V30 18317 C 3205.66 5.62629 -5.96531 0
M  V30 18318 O 3206.05 6.87667 -5.41053 0
M  V30 18319 C 3206.54 4.52537 -5.39283 0
M  V30 18320 C 3205.83 4.20027 -4.08623 0
M  V30 18321 N 3205.88 2.76189 -3.71603 0
M  V30 18322 H 3203.04 4.797 -7.24003 0
M  V30 18323 H 3202.77 3.69856 -5.84513 0
M  V30 18324 H 3203.64 6.10356 -5.41441 0
M  V30 18325 P 3207.6 7.20834 -5.23717 0
M  V30 18326 O 3207.82 8.66104 -5.38572 0
M  V30 18327 O 3208.39 6.33544 -6.1349 0
M  V30 18328 O 3207.85 6.7751 -3.72168 0
M  V30 18329 C 3206.91 7.20825 -2.7076 0
M  V30 18330 C 3207.64 7.45864 -1.40599 0
M  V30 18331 O 3207.85 6.17651 -0.734225 0
M  V30 18332 C 3209.04 8.05808 -1.51899 0
M  V30 18333 O 3209.43 8.74358 -0.335205 0
M  V30 18334 C 3209.92 6.83093 -1.70294 0
M  V30 18335 C 3209.21 5.79992 -0.836974 0
M  V30 18336 N 3209.26 4.41864 -1.38293 0
M  V30 18337 H 3206.42 8.13644 -3.0377 0
M  V30 18338 H 3206.15 6.42788 -2.55485 0
M  V30 18339 H 3207.02 8.12039 -0.792769 0
M  V30 18340 P 3210.98 8.91 -1.09416e-10 0
M  V30 18341 O 3211.2 10.1726 0.733694 0
M  V30 18342 O 3211.77 8.73148 -1.23936 0
M  V30 18343 O 3211.23 7.66872 0.971405 0
M  V30 18344 C 3210.29 7.42309 2.04641 0
M  V30 18345 C 3211.02 6.86059 3.24661 0
M  V30 18346 O 3211.23 5.42847 3.03646 0
M  V30 18347 C 3212.42 7.41196 3.50753 0
M  V30 18348 O 3212.81 7.27073 4.86816 0
M  V30 18349 C 3213.3 6.5273 2.63741 0
M  V30 18350 C 3212.59 5.1842 2.73198 0
M  V30 18351 N 3212.64 4.38762 1.4784 0
M  V30 18352 H 3209.8 8.36803 2.32493 0
M  V30 18353 H 3209.53 6.70197 1.71129 0
M  V30 18354 H 3210.4 7.03551 4.13168 0
M  V30 18355 P 3214.36 7.20834 5.23717 0
M  V30 18356 O 3214.58 7.79853 6.57286 0
M  V30 18357 O 3215.15 7.79239 4.12957 0
M  V30 18358 O 3214.61 5.63315 5.29344 0
M  V30 18359 C 3213.67 4.80255 6.01876 0
M  V30 18360 C 3214.4 3.64202 6.65911 0
M  V30 18361 O 3214.61 2.60694 5.64732 0
M  V30 18362 C 3215.8 3.93473 7.1943 0
M  V30 18363 O 3216.19 3.02071 8.21205 0
M  V30 18364 C 3216.68 3.73047 5.97036 0
M  V30 18365 C 3215.97 2.58828 5.25741 0
M  V30 18366 N 3216.02 2.68068 3.77503 0
M  V30 18367 H 3213.18 5.40332 6.79951 0
M  V30 18368 H 3212.91 4.41613 5.32378 0
M  V30 18369 H 3213.78 3.26331 7.47797 0
M  V30 18370 P 3217.74 2.75334 8.47391 0
M  V30 18371 O 3217.96 2.44571 9.90142 0
M  V30 18372 O 3218.53 3.87688 7.92115 0
M  V30 18373 O 3217.99 1.4459 7.59357 0
M  V30 18374 C 3217.05 0.347608 7.69215 0
M  V30 18375 C 3217.78 -0.96767 7.52806 0
M  V30 18376 O 3217.99 -1.21036 6.1011 0
M  V30 18377 C 3219.18 -1.04544 8.13308 0
M  V30 18378 O 3219.57 -2.38311 8.41922 0
M  V30 18379 C 3220.06 -0.491279 7.02284 0
M  V30 18380 C 3219.35 -0.996264 5.77469 0
M  V30 18381 N 3219.4 -0.0501916 4.62973 0
M  V30 18382 H 3216.56 0.374722 8.67691 0
M  V30 18383 H 3216.29 0.443485 6.90277 0
M  V30 18384 H 3217.16 -1.75537 7.96793 0
M  V30 18385 P 3221.12 -2.75334 8.47391 0
M  V30 18386 O 3221.34 -3.84128 9.44797 0
M  V30 18387 O 3221.91 -1.51947 8.68712 0
M  V30 18388 O 3221.37 -3.29363 6.99321 0
M  V30 18389 C 3220.43 -4.24011 6.4274 0
M  V30 18390 C 3221.16 -5.20775 5.52155 0
M  V30 18391 O 3221.37 -4.56534 4.22446 0
M  V30 18392 C 3222.56 -5.62629 5.96531 0
M  V30 18393 O 3222.95 -6.87667 5.41053 0
M  V30 18394 C 3223.44 -4.52537 5.39283 0
M  V30 18395 C 3222.73 -4.20027 4.08623 0
M  V30 18396 N 3222.78 -2.76189 3.71603 0
M  V30 18397 H 3219.94 -4.797 7.24003 0
M  V30 18398 H 3219.67 -3.69856 5.84513 0
M  V30 18399 H 3220.54 -6.10356 5.41441 0
M  V30 18400 P 3224.5 -7.20834 5.23717 0
M  V30 18401 O 3224.72 -8.66104 5.38572 0
M  V30 18402 O 3225.29 -6.33544 6.1349 0
M  V30 18403 O 3224.75 -6.7751 3.72168 0
M  V30 18404 C 3223.81 -7.20825 2.7076 0
M  V30 18405 C 3224.54 -7.45864 1.40599 0
M  V30 18406 O 3224.75 -6.17651 0.734225 0
M  V30 18407 C 3225.94 -8.05808 1.51899 0
M  V30 18408 O 3226.33 -8.74358 0.335205 0
M  V30 18409 C 3226.82 -6.83093 1.70294 0
M  V30 18410 C 3226.11 -5.79992 0.836974 0
M  V30 18411 N 3226.16 -4.41864 1.38293 0
M  V30 18412 H 3223.32 -8.13644 3.0377 0
M  V30 18413 H 3223.05 -6.42788 2.55485 0
M  V30 18414 H 3223.92 -8.12039 0.792769 0
M  V30 18415 P 3227.88 -8.91 1.10525e-10 0
M  V30 18416 O 3228.1 -10.1726 -0.733694 0
M  V30 18417 O 3228.67 -8.73148 1.23936 0
M  V30 18418 O 3228.13 -7.66872 -0.971405 0
M  V30 18419 C 3227.19 -7.42309 -2.04641 0
M  V30 18420 C 3227.92 -6.86059 -3.24661 0
M  V30 18421 O 3228.13 -5.42847 -3.03646 0
M  V30 18422 C 3229.32 -7.41196 -3.50753 0
M  V30 18423 O 3229.71 -7.27073 -4.86816 0
M  V30 18424 C 3230.2 -6.5273 -2.63741 0
M  V30 18425 C 3229.49 -5.1842 -2.73198 0
M  V30 18426 N 3229.54 -4.38762 -1.4784 0
M  V30 18427 H 3226.7 -8.36803 -2.32493 0
M  V30 18428 H 3226.43 -6.70197 -1.71129 0
M  V30 18429 H 3227.3 -7.03551 -4.13168 0
M  V30 18430 P 3231.26 -7.20834 -5.23717 0
M  V30 18431 O 3231.48 -7.79853 -6.57286 0
M  V30 18432 O 3232.05 -7.79239 -4.12957 0
M  V30 18433 O 3231.51 -5.63315 -5.29344 0
M  V30 18434 C 3230.57 -4.80255 -6.01876 0
M  V30 18435 C 3231.3 -3.64202 -6.65911 0
M  V30 18436 O 3231.51 -2.60694 -5.64732 0
M  V30 18437 C 3232.7 -3.93473 -7.1943 0
M  V30 18438 O 3233.09 -3.02071 -8.21205 0
M  V30 18439 C 3233.58 -3.73047 -5.97036 0
M  V30 18440 C 3232.87 -2.58828 -5.25741 0
M  V30 18441 N 3232.92 -2.68068 -3.77503 0
M  V30 18442 H 3230.08 -5.40332 -6.79951 0
M  V30 18443 H 3229.81 -4.41613 -5.32378 0
M  V30 18444 H 3230.68 -3.26331 -7.47797 0
M  V30 18445 P 3234.64 -2.75334 -8.47391 0
M  V30 18446 O 3234.86 -2.44571 -9.90142 0
M  V30 18447 O 3235.43 -3.87688 -7.92115 0
M  V30 18448 O 3234.89 -1.4459 -7.59357 0
M  V30 18449 C 3233.95 -0.347608 -7.69215 0
M  V30 18450 C 3234.68 0.96767 -7.52806 0
M  V30 18451 O 3234.89 1.21036 -6.1011 0
M  V30 18452 C 3236.08 1.04544 -8.13308 0
M  V30 18453 O 3236.47 2.38311 -8.41922 0
M  V30 18454 C 3236.96 0.491279 -7.02284 0
M  V30 18455 C 3236.25 0.996264 -5.77469 0
M  V30 18456 N 3236.3 0.0501916 -4.62973 0
M  V30 18457 C 3236.22 -1.32786 -4.63244 0
M  V30 18458 N 3236.3 -1.86957 -3.44545 0
M  V30 18459 C 3236.44 -0.780241 -2.58481 0
M  V30 18460 C 3236.57 -0.738536 -1.17757 0
M  V30 18461 N 3236.69 0.58337 -0.711393 0
M  V30 18462 C 3236.69 1.70816 -1.51017 0
M  V30 18463 N 3236.82 2.87826 -0.880757 0
M  V30 18464 N 3236.56 1.67126 -2.8339 0
M  V30 18465 C 3236.44 0.401421 -3.30572 0
M  V30 18466 H 3233.46 -0.374722 -8.67691 0
M  V30 18467 H 3233.19 -0.443485 -6.90277 0
M  V30 18468 H 3234.06 1.75537 -7.96793 0
M  V30 18469 P 3238.02 2.75334 -8.47391 0
M  V30 18470 O 3238.24 3.84128 -9.44797 0
M  V30 18471 O 3238.81 1.51947 -8.68712 0
M  V30 18472 O 3238.27 3.29363 -6.99321 0
M  V30 18473 C 3237.33 4.24011 -6.4274 0
M  V30 18474 C 3238.06 5.20775 -5.52155 0
M  V30 18475 O 3238.27 4.56534 -4.22446 0
M  V30 18476 C 3239.46 5.62629 -5.96531 0
M  V30 18477 O 3239.85 6.87667 -5.41053 0
M  V30 18478 C 3240.34 4.52537 -5.39283 0
M  V30 18479 C 3239.63 4.20027 -4.08623 0
M  V30 18480 N 3239.68 2.76189 -3.71603 0
M  V30 18481 H 3236.84 4.797 -7.24003 0
M  V30 18482 H 3236.57 3.69856 -5.84513 0
M  V30 18483 H 3237.44 6.10356 -5.41441 0
M  V30 18484 P 3241.4 7.20834 -5.23717 0
M  V30 18485 O 3241.62 8.66104 -5.38572 0
M  V30 18486 O 3242.19 6.33544 -6.1349 0
M  V30 18487 O 3241.65 6.7751 -3.72168 0
M  V30 18488 C 3240.71 7.20825 -2.7076 0
M  V30 18489 C 3241.44 7.45864 -1.40599 0
M  V30 18490 O 3241.65 6.17651 -0.734225 0
M  V30 18491 C 3242.84 8.05808 -1.51899 0
M  V30 18492 O 3243.23 8.74358 -0.335205 0
M  V30 18493 C 3243.72 6.83093 -1.70294 0
M  V30 18494 C 3243.01 5.79992 -0.836974 0
M  V30 18495 N 3243.06 4.41864 -1.38293 0
M  V30 18496 C 3242.98 3.99538 -2.69438 0
M  V30 18497 N 3243.06 2.69909 -2.84277 0
M  V30 18498 C 3243.2 2.21719 -1.5408 0
M  V30 18499 C 3243.33 0.891712 -1.06628 0
M  V30 18500 N 3243.45 0.856846 0.334985 0
M  V30 18501 C 3243.45 1.9641 1.15789 0
M  V30 18502 N 3243.58 1.72708 2.46522 0
M  V30 18503 N 3243.32 3.21165 0.713741 0
M  V30 18504 C 3243.2 3.26797 -0.639748 0
M  V30 18505 H 3240.22 8.13644 -3.0377 0
M  V30 18506 H 3239.95 6.42788 -2.55485 0
M  V30 18507 H 3240.82 8.12039 -0.792769 0
M  V30 18508 P 3244.78 8.91 -1.11634e-10 0
M  V30 18509 O 3245 10.1726 0.733694 0
M  V30 18510 O 3245.57 8.73148 -1.23936 0
M  V30 18511 O 3245.03 7.66872 0.971405 0
M  V30 18512 C 3244.09 7.42309 2.04641 0
M  V30 18513 C 3244.82 6.86059 3.24661 0
M  V30 18514 O 3245.03 5.42847 3.03646 0
M  V30 18515 C 3246.22 7.41196 3.50753 0
M  V30 18516 O 3246.61 7.27073 4.86816 0
M  V30 18517 C 3247.1 6.5273 2.63741 0
M  V30 18518 C 3246.39 5.1842 2.73198 0
M  V30 18519 N 3246.44 4.38762 1.4784 0
M  V30 18520 H 3243.6 8.36803 2.32493 0
M  V30 18521 H 3243.33 6.70197 1.71129 0
M  V30 18522 H 3244.2 7.03551 4.13168 0
M  V30 18523 P 3248.16 7.20834 5.23717 0
M  V30 18524 O 3248.38 7.79853 6.57286 0
M  V30 18525 O 3248.95 7.79239 4.12957 0
M  V30 18526 O 3248.41 5.63315 5.29344 0
M  V30 18527 C 3247.47 4.80255 6.01876 0
M  V30 18528 C 3248.2 3.64202 6.65911 0
M  V30 18529 O 3248.41 2.60694 5.64732 0
M  V30 18530 C 3249.6 3.93473 7.1943 0
M  V30 18531 O 3249.99 3.02071 8.21205 0
M  V30 18532 C 3250.48 3.73047 5.97036 0
M  V30 18533 C 3249.77 2.58828 5.25741 0
M  V30 18534 N 3249.82 2.68068 3.77503 0
M  V30 18535 H 3246.98 5.40332 6.79951 0
M  V30 18536 H 3246.71 4.41613 5.32378 0
M  V30 18537 H 3247.58 3.26331 7.47797 0
M  V30 18538 P 3251.54 2.75334 8.47391 0
M  V30 18539 O 3251.76 2.44571 9.90142 0
M  V30 18540 O 3252.33 3.87688 7.92115 0
M  V30 18541 O 3251.79 1.4459 7.59357 0
M  V30 18542 C 3250.85 0.347608 7.69215 0
M  V30 18543 C 3251.58 -0.96767 7.52806 0
M  V30 18544 O 3251.79 -1.21036 6.1011 0
M  V30 18545 C 3252.98 -1.04544 8.13308 0
M  V30 18546 O 3253.37 -2.38311 8.41922 0
M  V30 18547 C 3253.86 -0.491279 7.02284 0
M  V30 18548 C 3253.15 -0.996264 5.77469 0
M  V30 18549 N 3253.2 -0.0501916 4.62973 0
M  V30 18550 H 3250.36 0.374722 8.67691 0
M  V30 18551 H 3250.09 0.443485 6.90277 0
M  V30 18552 H 3250.96 -1.75537 7.96793 0
M  V30 18553 P 3254.92 -2.75334 8.47391 0
M  V30 18554 O 3255.14 -3.84128 9.44797 0
M  V30 18555 O 3255.71 -1.51947 8.68712 0
M  V30 18556 O 3255.17 -3.29363 6.99321 0
M  V30 18557 C 3254.23 -4.24011 6.4274 0
M  V30 18558 C 3254.96 -5.20775 5.52155 0
M  V30 18559 O 3255.17 -4.56534 4.22446 0
M  V30 18560 C 3256.36 -5.62629 5.96531 0
M  V30 18561 O 3256.75 -6.87667 5.41053 0
M  V30 18562 C 3257.24 -4.52537 5.39283 0
M  V30 18563 C 3256.53 -4.20027 4.08623 0
M  V30 18564 N 3256.58 -2.76189 3.71603 0
M  V30 18565 H 3253.74 -4.797 7.24003 0
M  V30 18566 H 3253.47 -3.69856 5.84513 0
M  V30 18567 H 3254.34 -6.10356 5.41441 0
M  V30 18568 P 3258.3 -7.20834 5.23717 0
M  V30 18569 O 3258.52 -8.66104 5.38572 0
M  V30 18570 O 3259.09 -6.33544 6.1349 0
M  V30 18571 O 3258.55 -6.7751 3.72168 0
M  V30 18572 C 3257.61 -7.20825 2.7076 0
M  V30 18573 C 3258.34 -7.45864 1.40599 0
M  V30 18574 O 3258.55 -6.17651 0.734225 0
M  V30 18575 C 3259.74 -8.05808 1.51899 0
M  V30 18576 O 3260.13 -8.74358 0.335205 0
M  V30 18577 C 3260.62 -6.83093 1.70294 0
M  V30 18578 C 3259.91 -5.79992 0.836974 0
M  V30 18579 N 3259.96 -4.41864 1.38293 0
M  V30 18580 H 3257.12 -8.13644 3.0377 0
M  V30 18581 H 3256.85 -6.42788 2.55485 0
M  V30 18582 H 3257.72 -8.12039 0.792769 0
M  V30 18583 P 3261.68 -8.91 1.12743e-10 0
M  V30 18584 O 3261.9 -10.1726 -0.733694 0
M  V30 18585 O 3262.47 -8.73148 1.23936 0
M  V30 18586 O 3261.93 -7.66872 -0.971405 0
M  V30 18587 C 3260.99 -7.42309 -2.04641 0
M  V30 18588 C 3261.72 -6.86059 -3.24661 0
M  V30 18589 O 3261.93 -5.42847 -3.03646 0
M  V30 18590 C 3263.12 -7.41196 -3.50753 0
M  V30 18591 O 3263.51 -7.27073 -4.86816 0
M  V30 18592 C 3264 -6.5273 -2.63741 0
M  V30 18593 C 3263.29 -5.1842 -2.73198 0
M  V30 18594 N 3263.34 -4.38762 -1.4784 0
M  V30 18595 H 3260.5 -8.36803 -2.32493 0
M  V30 18596 H 3260.23 -6.70197 -1.71129 0
M  V30 18597 H 3261.1 -7.03551 -4.13168 0
M  V30 18598 P 3265.06 -7.20834 -5.23717 0
M  V30 18599 O 3265.28 -7.79853 -6.57286 0
M  V30 18600 O 3265.85 -7.79239 -4.12957 0
M  V30 18601 O 3265.31 -5.63315 -5.29344 0
M  V30 18602 C 3264.37 -4.80255 -6.01876 0
M  V30 18603 C 3265.1 -3.64202 -6.65911 0
M  V30 18604 O 3265.31 -2.60694 -5.64732 0
M  V30 18605 C 3266.5 -3.93473 -7.1943 0
M  V30 18606 O 3266.89 -3.02071 -8.21205 0
M  V30 18607 C 3267.38 -3.73047 -5.97036 0
M  V30 18608 C 3266.67 -2.58828 -5.25741 0
M  V30 18609 N 3266.72 -2.68068 -3.77503 0
M  V30 18610 H 3263.88 -5.40332 -6.79951 0
M  V30 18611 H 3263.61 -4.41613 -5.32378 0
M  V30 18612 H 3264.48 -3.26331 -7.47797 0
M  V30 18613 P 3268.44 -2.75334 -8.47391 0
M  V30 18614 O 3268.66 -2.44571 -9.90142 0
M  V30 18615 O 3269.23 -3.87688 -7.92115 0
M  V30 18616 O 3268.69 -1.4459 -7.59357 0
M  V30 18617 C 3267.75 -0.347608 -7.69215 0
M  V30 18618 C 3268.48 0.96767 -7.52806 0
M  V30 18619 O 3268.69 1.21036 -6.1011 0
M  V30 18620 C 3269.88 1.04544 -8.13308 0
M  V30 18621 O 3270.27 2.38311 -8.41922 0
M  V30 18622 C 3270.76 0.491279 -7.02284 0
M  V30 18623 C 3270.05 0.996264 -5.77469 0
M  V30 18624 N 3270.1 0.0501916 -4.62973 0
M  V30 18625 H 3267.26 -0.374722 -8.67691 0
M  V30 18626 H 3266.99 -0.443485 -6.90277 0
M  V30 18627 H 3267.86 1.75537 -7.96793 0
M  V30 18628 P 3271.82 2.75334 -8.47391 0
M  V30 18629 O 3272.04 3.84166 -9.4489 0
M  V30 18630 O 3272.61 1.51964 -8.6881 0
M  V30 18631 O 3272.07 3.29363 -6.99321 0
M  V30 18632 C 3271.13 4.23956 -6.42656 0
M  V30 18633 C 3271.86 5.20775 -5.52155 0
M  V30 18634 O 3272.07 4.56534 -4.22446 0
M  V30 18635 C 3273.26 5.62629 -5.96531 0
M  V30 18636 O 3273.65 6.87667 -5.41053 0
M  V30 18637 C 3274.14 4.52537 -5.39283 0
M  V30 18638 C 3273.43 4.20027 -4.08623 0
M  V30 18639 N 3273.48 2.7613 -3.71522 0
M  V30 18640 C 3273.63 2.45612 -2.37989 0
M  V30 18641 O 3273.72 3.30919 -1.51621 0
M  V30 18642 N 3273.67 1.10684 -2.08435 0
M  V30 18643 C 3273.58 0.0690084 -2.9792 0
M  V30 18644 C 3273.43 0.481522 -4.35345 0
M  V30 18645 C 3273.38 1.78906 -4.67968 0
M  V30 18646 H 3270.64 4.797 -7.24003 0
M  V30 18647 H 3270.37 3.69802 -5.84429 0
M  V30 18648 H 3271.24 6.10356 -5.41441 0
M  V30 18649 H 3273.89 4.78651 -3.27911 0
M  V30 18650 H 3274.17 3.64957 -6.05871 0
M  V30 18651 H 3275.16 4.8868 -5.2125 0
M  V30 18652 H 3273.33 5.66726 -7.06352 0
M  V30 18653 H 3273.26 2.07737 -5.72367 0
M  V30 18654 P 3275.2 7.20834 -5.23717 0
M  V30 18655 O 3275.42 8.66104 -5.38572 0
M  V30 18656 O 3275.99 6.33544 -6.1349 0
M  V30 18657 O 3275.45 6.7751 -3.72168 0
M  V30 18658 C 3274.51 7.20825 -2.7076 0
M  V30 18659 C 3275.24 7.45864 -1.40599 0
M  V30 18660 O 3275.45 6.17651 -0.734225 0
M  V30 18661 C 3276.64 8.05808 -1.51899 0
M  V30 18662 O 3277.03 8.74358 -0.335205 0
M  V30 18663 C 3277.52 6.83093 -1.70294 0
M  V30 18664 C 3276.81 5.79992 -0.836974 0
M  V30 18665 N 3276.86 4.41864 -1.38293 0
M  V30 18666 H 3274.02 8.13644 -3.0377 0
M  V30 18667 H 3273.75 6.42788 -2.55485 0
M  V30 18668 H 3274.62 8.12039 -0.792769 0
M  V30 18669 P 3278.58 8.91 -1.13852e-10 0
M  V30 18670 O 3278.8 10.1726 0.733694 0
M  V30 18671 O 3279.37 8.73148 -1.23936 0
M  V30 18672 O 3278.83 7.66872 0.971405 0
M  V30 18673 C 3277.89 7.42309 2.04641 0
M  V30 18674 C 3278.62 6.86059 3.24661 0
M  V30 18675 O 3278.83 5.42847 3.03646 0
M  V30 18676 C 3280.02 7.41196 3.50753 0
M  V30 18677 O 3280.41 7.27073 4.86816 0
M  V30 18678 C 3280.9 6.5273 2.63741 0
M  V30 18679 C 3280.19 5.1842 2.73198 0
M  V30 18680 N 3280.24 4.38762 1.4784 0
M  V30 18681 H 3277.4 8.36803 2.32493 0
M  V30 18682 H 3277.13 6.70197 1.71129 0
M  V30 18683 H 3278 7.03551 4.13168 0
M  V30 18684 P 3281.96 7.20834 5.23717 0
M  V30 18685 O 3282.18 7.80006 6.57415 0
M  V30 18686 O 3282.75 7.79416 4.13051 0
M  V30 18687 O 3282.21 5.63315 5.29344 0
M  V30 18688 C 3281.27 4.80318 6.01954 0
M  V30 18689 C 3282 3.64202 6.65911 0
M  V30 18690 O 3282.21 2.60736 5.64823 0
M  V30 18691 C 3283.4 3.93521 7.19518 0
M  V30 18692 O 3283.79 3.02071 8.21205 0
M  V30 18693 C 3284.28 3.73047 5.97036 0
M  V30 18694 C 3283.57 2.58828 5.25741 0
M  V30 18695 N 3283.62 2.68068 3.77503 0
M  V30 18696 H 3280.78 5.40394 6.8003 0
M  V30 18697 H 3280.51 4.41741 5.32532 0
M  V30 18698 H 3281.38 3.26371 7.47889 0
M  V30 18699 H 3284.03 1.64007 5.56746 0
M  V30 18700 H 3284.31 4.63439 5.3432 0
M  V30 18701 H 3285.3 3.44776 6.25925 0
M  V30 18702 H 3283.47 4.96707 7.57347 0
M  V30 18703 P 3285.34 2.75334 8.47391 0
M  V30 18704 O 3285.56 2.44595 9.90239 0
M  V30 18705 O 3286.13 3.87732 7.92204 0
M  V30 18706 O 3285.59 1.4459 7.59357 0
M  V30 18707 C 3284.65 0.347563 7.69115 0
M  V30 18708 C 3285.38 -0.96767 7.52806 0
M  V30 18709 O 3285.59 -1.21036 6.1011 0
M  V30 18710 C 3286.78 -1.04544 8.13308 0
M  V30 18711 O 3287.17 -2.38311 8.41922 0
M  V30 18712 C 3287.66 -0.491279 7.02284 0
M  V30 18713 C 3286.95 -0.996264 5.77469 0
M  V30 18714 N 3287 -0.0501808 4.62873 0
M  V30 18715 C 3287.15 -0.588177 3.36904 0
M  V30 18716 O 3287.24 -1.78598 3.17173 0
M  V30 18717 N 3287.19 0.329694 2.33686 0
M  V30 18718 C 3287.1 1.6953 2.45079 0
M  V30 18719 C 3286.95 2.16933 3.80505 0
M  V30 18720 C 3286.9 1.30326 4.83752 0
M  V30 18721 H 3284.16 0.374722 8.67691 0
M  V30 18722 H 3283.89 0.443421 6.90177 0
M  V30 18723 H 3284.76 -1.75537 7.96793 0
M  V30 18724 H 3287.41 -1.94496 5.46629 0
M  V30 18725 H 3287.69 0.608651 7.04676 0
M  V30 18726 H 3288.68 -0.889672 7.08939 0
M  V30 18727 H 3286.85 -0.43308 9.04564 0
M  V30 18728 H 3286.78 1.68366 5.8516 0
M  V30 18729 P 3288.72 -2.75334 8.47391 0
M  V30 18730 O 3288.94 -3.84128 9.44797 0
M  V30 18731 O 3289.51 -1.51947 8.68712 0
M  V30 18732 O 3288.97 -3.29363 6.99321 0
M  V30 18733 C 3288.03 -4.24011 6.4274 0
M  V30 18734 C 3288.76 -5.20775 5.52155 0
M  V30 18735 O 3288.97 -4.56534 4.22446 0
M  V30 18736 C 3290.16 -5.62629 5.96531 0
M  V30 18737 O 3290.55 -6.87667 5.41053 0
M  V30 18738 C 3291.04 -4.52537 5.39283 0
M  V30 18739 C 3290.33 -4.20027 4.08623 0
M  V30 18740 N 3290.38 -2.76189 3.71603 0
M  V30 18741 C 3290.3 -1.64862 4.52822 0
M  V30 18742 N 3290.38 -0.512671 3.88633 0
M  V30 18743 C 3290.52 -0.888083 2.54977 0
M  V30 18744 C 3290.65 -0.094668 1.38677 0
M  V30 18745 N 3290.77 -0.890102 0.232633 0
M  V30 18746 C 3290.77 -2.26958 0.21772 0
M  V30 18747 N 3290.9 -2.84626 -0.97925 0
M  V30 18748 N 3290.64 -3.0178 1.31033 0
M  V30 18749 C 3290.52 -2.26781 2.43843 0
M  V30 18750 H 3287.54 -4.797 7.24003 0
M  V30 18751 H 3287.27 -3.69856 5.84513 0
M  V30 18752 H 3288.14 -6.10356 5.41441 0
M  V30 18753 P 3292.1 -7.20834 5.23717 0
M  V30 18754 O 3292.32 -8.66104 5.38572 0
M  V30 18755 O 3292.89 -6.33544 6.1349 0
M  V30 18756 O 3292.35 -6.7751 3.72168 0
M  V30 18757 C 3291.41 -7.20825 2.7076 0
M  V30 18758 C 3292.14 -7.45864 1.40599 0
M  V30 18759 O 3292.35 -6.17651 0.734225 0
M  V30 18760 C 3293.54 -8.05808 1.51899 0
M  V30 18761 O 3293.93 -8.74358 0.335205 0
M  V30 18762 C 3294.42 -6.83093 1.70294 0
M  V30 18763 C 3293.71 -5.79992 0.836974 0
M  V30 18764 N 3293.76 -4.41864 1.38293 0
M  V30 18765 H 3290.92 -8.13644 3.0377 0
M  V30 18766 H 3290.65 -6.42788 2.55485 0
M  V30 18767 H 3291.52 -8.12039 0.792769 0
M  V30 18768 P 3295.48 -8.91 1.14961e-10 0
M  V30 18769 O 3295.7 -10.1736 -0.733766 0
M  V30 18770 O 3296.27 -8.73247 1.2395 0
M  V30 18771 O 3295.73 -7.66872 -0.971405 0
M  V30 18772 C 3294.79 -7.42212 -2.04614 0
M  V30 18773 C 3295.52 -6.86059 -3.24661 0
M  V30 18774 O 3295.73 -5.42847 -3.03646 0
M  V30 18775 C 3296.92 -7.41196 -3.50753 0
M  V30 18776 O 3297.31 -7.27073 -4.86816 0
M  V30 18777 C 3297.8 -6.5273 -2.63741 0
M  V30 18778 C 3297.09 -5.1842 -2.73198 0
M  V30 18779 N 3297.14 -4.38668 -1.47808 0
M  V30 18780 C 3297.29 -3.02239 -1.60048 0
M  V30 18781 O 3297.38 -2.46459 -2.67869 0
M  V30 18782 N 3297.33 -2.32436 -0.408571 0
M  V30 18783 C 3297.24 -2.85471 0.854993 0
M  V30 18784 C 3297.09 -4.28918 0.887335 0
M  V30 18785 C 3297.04 -5.00349 -0.255399 0
M  V30 18786 H 3294.3 -8.36803 -2.32493 0
M  V30 18787 H 3294.03 -6.701 -1.71105 0
M  V30 18788 H 3294.9 -7.03551 -4.13168 0
M  V30 18789 H 3297.55 -4.59773 -3.53894 0
M  V30 18790 H 3297.83 -6.88995 -1.59871 0
M  V30 18791 H 3298.82 -6.46749 -3.03687 0
M  V30 18792 H 3296.99 -8.46908 -3.20714 0
M  V30 18793 H 3296.92 -6.08548 -0.206986 0
M  V30 18794 P 3298.86 -7.20834 -5.23717 0
M  V30 18795 O 3299.08 -7.79853 -6.57286 0
M  V30 18796 O 3299.65 -7.79239 -4.12957 0
M  V30 18797 O 3299.11 -5.63315 -5.29344 0
M  V30 18798 C 3298.17 -4.80255 -6.01876 0
M  V30 18799 C 3298.9 -3.64202 -6.65911 0
M  V30 18800 O 3299.11 -2.60694 -5.64732 0
M  V30 18801 C 3300.3 -3.93473 -7.1943 0
M  V30 18802 O 3300.69 -3.02071 -8.21205 0
M  V30 18803 C 3301.18 -3.73047 -5.97036 0
M  V30 18804 C 3300.47 -2.58828 -5.25741 0
M  V30 18805 N 3300.52 -2.68068 -3.77503 0
M  V30 18806 H 3297.68 -5.40332 -6.79951 0
M  V30 18807 H 3297.41 -4.41613 -5.32378 0
M  V30 18808 H 3298.28 -3.26331 -7.47797 0
M  V30 18809 P 3302.24 -2.75334 -8.47391 0
M  V30 18810 O 3302.46 -2.44571 -9.90142 0
M  V30 18811 O 3303.03 -3.87688 -7.92115 0
M  V30 18812 O 3302.49 -1.4459 -7.59357 0
M  V30 18813 C 3301.55 -0.347608 -7.69215 0
M  V30 18814 C 3302.28 0.96767 -7.52806 0
M  V30 18815 O 3302.49 1.21036 -6.1011 0
M  V30 18816 C 3303.68 1.04544 -8.13308 0
M  V30 18817 O 3304.07 2.38311 -8.41922 0
M  V30 18818 C 3304.56 0.491279 -7.02284 0
M  V30 18819 C 3303.85 0.996264 -5.77469 0
M  V30 18820 N 3303.9 0.0501916 -4.62973 0
M  V30 18821 H 3301.06 -0.374722 -8.67691 0
M  V30 18822 H 3300.79 -0.443485 -6.90277 0
M  V30 18823 H 3301.66 1.75537 -7.96793 0
M  V30 18824 P 3305.62 2.75334 -8.47391 0
M  V30 18825 O 3305.84 3.84166 -9.4489 0
M  V30 18826 O 3306.41 1.51964 -8.6881 0
M  V30 18827 O 3305.87 3.29363 -6.99321 0
M  V30 18828 C 3304.93 4.23956 -6.42656 0
M  V30 18829 C 3305.66 5.20775 -5.52155 0
M  V30 18830 O 3305.87 4.56534 -4.22446 0
M  V30 18831 C 3307.06 5.62629 -5.96531 0
M  V30 18832 O 3307.45 6.87667 -5.41053 0
M  V30 18833 C 3307.94 4.52537 -5.39283 0
M  V30 18834 C 3307.23 4.20027 -4.08623 0
M  V30 18835 N 3307.28 2.7613 -3.71522 0
M  V30 18836 C 3307.43 2.45612 -2.37989 0
M  V30 18837 O 3307.52 3.30919 -1.51621 0
M  V30 18838 N 3307.47 1.10684 -2.08435 0
M  V30 18839 C 3307.38 0.0690084 -2.9792 0
M  V30 18840 C 3307.23 0.481522 -4.35345 0
M  V30 18841 C 3307.18 1.78906 -4.67968 0
M  V30 18842 H 3304.44 4.797 -7.24003 0
M  V30 18843 H 3304.17 3.69802 -5.84429 0
M  V30 18844 H 3305.04 6.10356 -5.41441 0
M  V30 18845 H 3307.69 4.78651 -3.27911 0
M  V30 18846 H 3307.97 3.64957 -6.05871 0
M  V30 18847 H 3308.96 4.8868 -5.2125 0
M  V30 18848 H 3307.13 5.66726 -7.06352 0
M  V30 18849 H 3307.06 2.07737 -5.72367 0
M  V30 18850 P 3309 7.20834 -5.23717 0
M  V30 18851 O 3309.22 8.66104 -5.38572 0
M  V30 18852 O 3309.79 6.33544 -6.1349 0
M  V30 18853 O 3309.25 6.7751 -3.72168 0
M  V30 18854 C 3308.31 7.20825 -2.7076 0
M  V30 18855 C 3309.04 7.45864 -1.40599 0
M  V30 18856 O 3309.25 6.17651 -0.734225 0
M  V30 18857 C 3310.44 8.05808 -1.51899 0
M  V30 18858 O 3310.83 8.74358 -0.335205 0
M  V30 18859 C 3311.32 6.83093 -1.70294 0
M  V30 18860 C 3310.61 5.79992 -0.836974 0
M  V30 18861 N 3310.66 4.41864 -1.38293 0
M  V30 18862 H 3307.82 8.13644 -3.0377 0
M  V30 18863 H 3307.55 6.42788 -2.55485 0
M  V30 18864 H 3308.42 8.12039 -0.792769 0
M  V30 18865 P 3312.38 8.91 -1.1607e-10 0
M  V30 18866 O 3312.6 10.1726 0.733694 0
M  V30 18867 O 3313.17 8.73148 -1.23936 0
M  V30 18868 O 3312.63 7.66872 0.971405 0
M  V30 18869 C 3311.69 7.42309 2.04641 0
M  V30 18870 C 3312.42 6.86059 3.24661 0
M  V30 18871 O 3312.63 5.42847 3.03646 0
M  V30 18872 C 3313.82 7.41196 3.50753 0
M  V30 18873 O 3314.21 7.27073 4.86816 0
M  V30 18874 C 3314.7 6.5273 2.63741 0
M  V30 18875 C 3313.99 5.1842 2.73198 0
M  V30 18876 N 3314.04 4.38762 1.4784 0
M  V30 18877 H 3311.2 8.36803 2.32493 0
M  V30 18878 H 3310.93 6.70197 1.71129 0
M  V30 18879 H 3311.8 7.03551 4.13168 0
M  V30 18880 P 3315.76 7.20834 5.23717 0
M  V30 18881 O 3315.98 7.79853 6.57286 0
M  V30 18882 O 3316.55 7.79239 4.12957 0
M  V30 18883 O 3316.01 5.63315 5.29344 0
M  V30 18884 C 3315.07 4.80255 6.01876 0
M  V30 18885 C 3315.8 3.64202 6.65911 0
M  V30 18886 O 3316.01 2.60694 5.64732 0
M  V30 18887 C 3317.2 3.93473 7.1943 0
M  V30 18888 O 3317.59 3.02071 8.21205 0
M  V30 18889 C 3318.08 3.73047 5.97036 0
M  V30 18890 C 3317.37 2.58828 5.25741 0
M  V30 18891 N 3317.42 2.68068 3.77503 0
M  V30 18892 C 3317.34 3.79715 2.96723 0
M  V30 18893 N 3317.42 3.5377 1.68852 0
M  V30 18894 C 3317.56 2.15054 1.63254 0
M  V30 18895 C 3317.69 1.28964 0.518571 0
M  V30 18896 O 3317.71 1.56826 -0.679156 0
M  V30 18897 N 3317.81 -0.0538097 0.918425 0
M  V30 18898 C 3317.81 -0.494275 2.22578 0
M  V30 18899 N 3317.94 -1.81086 2.40434 0
M  V30 18900 N 3317.68 0.313645 3.27502 0
M  V30 18901 C 3317.56 1.61829 2.91033 0
M  V30 18902 H 3314.58 5.40332 6.79951 0
M  V30 18903 H 3314.31 4.41613 5.32378 0
M  V30 18904 H 3315.18 3.26331 7.47797 0
M  V30 18905 H 3317.83 1.63422 5.56814 0
M  V30 18906 H 3318.11 4.63374 5.34244 0
M  V30 18907 H 3319.1 3.44728 6.25838 0
M  V30 18908 H 3317.27 4.96652 7.57263 0
M  V30 18909 H 3317.22 4.80617 3.3614 0
M  V30 18910 H 3317.9 -0.742702 0.199384 0
M  V30 18911 H 3317.94 -2.20598 3.35588 0
M  V30 18912 H 3318.04 -2.43518 1.58945 0
M  V30 18913 P 3319.14 2.75334 8.47391 0
M  V30 18914 O 3319.36 2.44571 9.90142 0
M  V30 18915 O 3319.93 3.87688 7.92115 0
M  V30 18916 O 3319.39 1.4459 7.59357 0
M  V30 18917 C 3318.45 0.347608 7.69215 0
M  V30 18918 C 3319.18 -0.96767 7.52806 0
M  V30 18919 O 3319.39 -1.21036 6.1011 0
M  V30 18920 C 3320.58 -1.04544 8.13308 0
M  V30 18921 O 3320.97 -2.38311 8.41922 0
M  V30 18922 C 3321.46 -0.491279 7.02284 0
M  V30 18923 C 3320.75 -0.996264 5.77469 0
M  V30 18924 N 3320.8 -0.0501916 4.62973 0
M  V30 18925 H 3317.96 0.374722 8.67691 0
M  V30 18926 H 3317.69 0.443485 6.90277 0
M  V30 18927 H 3318.56 -1.75537 7.96793 0
M  V30 18928 P 3322.52 -2.75334 8.47391 0
M  V30 18929 O 3322.74 -3.84128 9.44797 0
M  V30 18930 O 3323.31 -1.51947 8.68712 0
M  V30 18931 O 3322.77 -3.29363 6.99321 0
M  V30 18932 C 3321.83 -4.24011 6.4274 0
M  V30 18933 C 3322.56 -5.20775 5.52155 0
M  V30 18934 O 3322.77 -4.56534 4.22446 0
M  V30 18935 C 3323.96 -5.62629 5.96531 0
M  V30 18936 O 3324.35 -6.87667 5.41053 0
M  V30 18937 C 3324.84 -4.52537 5.39283 0
M  V30 18938 C 3324.13 -4.20027 4.08623 0
M  V30 18939 N 3324.18 -2.76189 3.71603 0
M  V30 18940 H 3321.34 -4.797 7.24003 0
M  V30 18941 H 3321.07 -3.69856 5.84513 0
M  V30 18942 H 3321.94 -6.10356 5.41441 0
M  V30 18943 P 3325.9 -7.20834 5.23717 0
M  V30 18944 O 3326.12 -8.66104 5.38572 0
M  V30 18945 O 3326.69 -6.33544 6.1349 0
M  V30 18946 O 3326.15 -6.7751 3.72168 0
M  V30 18947 C 3325.21 -7.20825 2.7076 0
M  V30 18948 C 3325.94 -7.45864 1.40599 0
M  V30 18949 O 3326.15 -6.17651 0.734225 0
M  V30 18950 C 3327.34 -8.05808 1.51899 0
M  V30 18951 O 3327.73 -8.74358 0.335205 0
M  V30 18952 C 3328.22 -6.83093 1.70294 0
M  V30 18953 C 3327.51 -5.79992 0.836974 0
M  V30 18954 N 3327.56 -4.41864 1.38293 0
M  V30 18955 H 3324.72 -8.13644 3.0377 0
M  V30 18956 H 3324.45 -6.42788 2.55485 0
M  V30 18957 H 3325.32 -8.12039 0.792769 0
M  V30 18958 P 3329.28 -8.91 1.17179e-10 0
M  V30 18959 O 3329.5 -10.1726 -0.733694 0
M  V30 18960 O 3330.07 -8.73148 1.23936 0
M  V30 18961 O 3329.53 -7.66872 -0.971405 0
M  V30 18962 C 3328.59 -7.42309 -2.04641 0
M  V30 18963 C 3329.32 -6.86059 -3.24661 0
M  V30 18964 O 3329.53 -5.42847 -3.03646 0
M  V30 18965 C 3330.72 -7.41196 -3.50753 0
M  V30 18966 O 3331.11 -7.27073 -4.86816 0
M  V30 18967 C 3331.6 -6.5273 -2.63741 0
M  V30 18968 C 3330.89 -5.1842 -2.73198 0
M  V30 18969 N 3330.94 -4.38762 -1.4784 0
M  V30 18970 H 3328.1 -8.36803 -2.32493 0
M  V30 18971 H 3327.83 -6.70197 -1.71129 0
M  V30 18972 H 3328.7 -7.03551 -4.13168 0
M  V30 18973 P 3332.66 -7.20834 -5.23717 0
M  V30 18974 O 3332.88 -7.80006 -6.57415 0
M  V30 18975 O 3333.45 -7.79416 -4.13051 0
M  V30 18976 O 3332.91 -5.63315 -5.29344 0
M  V30 18977 C 3331.97 -4.80318 -6.01954 0
M  V30 18978 C 3332.7 -3.64202 -6.65911 0
M  V30 18979 O 3332.91 -2.60736 -5.64823 0
M  V30 18980 C 3334.1 -3.93521 -7.19518 0
M  V30 18981 O 3334.49 -3.02071 -8.21205 0
M  V30 18982 C 3334.98 -3.73047 -5.97036 0
M  V30 18983 C 3334.27 -2.58828 -5.25741 0
M  V30 18984 N 3334.32 -2.68068 -3.77503 0
M  V30 18985 C 3334.24 -3.80474 -2.99159 0
M  V30 18986 N 3334.31 -3.55622 -1.71925 0
M  V30 18987 C 3334.46 -2.1832 -1.65733 0
M  V30 18988 C 3334.59 -1.28842 -0.572777 0
M  V30 18989 N 3334.6 -1.66875 0.70098 0
M  V30 18990 N 3334.71 0.016788 -0.859836 0
M  V30 18991 C 3334.7 0.398145 -2.13316 0
M  V30 18992 N 3334.58 -0.328224 -3.22333 0
M  V30 18993 C 3334.46 -1.62992 -2.90383 0
M  V30 18994 H 3331.48 -5.40394 -6.8003 0
M  V30 18995 H 3331.21 -4.41741 -5.32532 0
M  V30 18996 H 3332.08 -3.26371 -7.47889 0
M  V30 18997 H 3334.73 -1.64007 -5.56746 0
M  V30 18998 H 3335.01 -4.63439 -5.3432 0
M  V30 18999 H 3336 -3.44776 -6.25925 0
M  V30 19000 H 3334.17 -4.96707 -7.57347 0
M  V30 19001 H 3334.13 -4.8089 -3.39924 0
M  V30 19002 H 3334.51 -2.66547 0.941919 0
M  V30 19003 H 3334.7 -0.965341 1.44766 0
M  V30 19004 H 3334.81 1.46427 -2.29697 0
M  V30 19005 P 3336.04 -2.75334 -8.47391 0
M  V30 19006 O 3336.26 -2.44571 -9.90142 0
M  V30 19007 O 3336.83 -3.87688 -7.92115 0
M  V30 19008 O 3336.29 -1.4459 -7.59357 0
M  V30 19009 C 3335.35 -0.347608 -7.69215 0
M  V30 19010 C 3336.08 0.96767 -7.52806 0
M  V30 19011 O 3336.29 1.21036 -6.1011 0
M  V30 19012 C 3337.48 1.04544 -8.13308 0
M  V30 19013 O 3337.87 2.38311 -8.41922 0
M  V30 19014 C 3338.36 0.491279 -7.02284 0
M  V30 19015 C 3337.65 0.996264 -5.77469 0
M  V30 19016 N 3337.7 0.0501916 -4.62973 0
M  V30 19017 H 3334.86 -0.374722 -8.67691 0
M  V30 19018 H 3334.59 -0.443485 -6.90277 0
M  V30 19019 H 3335.46 1.75537 -7.96793 0
M  V30 19020 P 3339.42 2.75334 -8.47391 0
M  V30 19021 O 3339.64 3.84128 -9.44797 0
M  V30 19022 O 3340.21 1.51947 -8.68712 0
M  V30 19023 O 3339.67 3.29363 -6.99321 0
M  V30 19024 C 3338.73 4.24011 -6.4274 0
M  V30 19025 C 3339.46 5.20775 -5.52155 0
M  V30 19026 O 3339.67 4.56534 -4.22446 0
M  V30 19027 C 3340.86 5.62629 -5.96531 0
M  V30 19028 O 3341.25 6.87667 -5.41053 0
M  V30 19029 C 3341.74 4.52537 -5.39283 0
M  V30 19030 C 3341.03 4.20027 -4.08623 0
M  V30 19031 N 3341.08 2.76189 -3.71603 0
M  V30 19032 H 3338.24 4.797 -7.24003 0
M  V30 19033 H 3337.97 3.69856 -5.84513 0
M  V30 19034 H 3338.84 6.10356 -5.41441 0
M  V30 19035 P 3342.8 7.20834 -5.23717 0
M  V30 19036 O 3343.02 8.66104 -5.38572 0
M  V30 19037 O 3343.59 6.33544 -6.1349 0
M  V30 19038 O 3343.05 6.7751 -3.72168 0
M  V30 19039 C 3342.11 7.20825 -2.7076 0
M  V30 19040 C 3342.84 7.45864 -1.40599 0
M  V30 19041 O 3343.05 6.17651 -0.734225 0
M  V30 19042 C 3344.24 8.05808 -1.51899 0
M  V30 19043 O 3344.63 8.74358 -0.335205 0
M  V30 19044 C 3345.12 6.83093 -1.70294 0
M  V30 19045 C 3344.41 5.79992 -0.836974 0
M  V30 19046 N 3344.46 4.41864 -1.38293 0
M  V30 19047 H 3341.62 8.13644 -3.0377 0
M  V30 19048 H 3341.35 6.42788 -2.55485 0
M  V30 19049 H 3342.22 8.12039 -0.792769 0
M  V30 19050 P 3346.18 8.91 -1.18288e-10 0
M  V30 19051 O 3346.4 10.1736 0.733766 0
M  V30 19052 O 3346.97 8.73247 -1.2395 0
M  V30 19053 O 3346.43 7.66872 0.971405 0
M  V30 19054 C 3345.49 7.42212 2.04614 0
M  V30 19055 C 3346.22 6.86059 3.24661 0
M  V30 19056 O 3346.43 5.42847 3.03646 0
M  V30 19057 C 3347.62 7.41196 3.50753 0
M  V30 19058 O 3348.01 7.27073 4.86816 0
M  V30 19059 C 3348.5 6.5273 2.63741 0
M  V30 19060 C 3347.79 5.1842 2.73198 0
M  V30 19061 N 3347.84 4.38668 1.47808 0
M  V30 19062 C 3347.99 3.02239 1.60048 0
M  V30 19063 O 3348.08 2.46459 2.67869 0
M  V30 19064 N 3348.03 2.32436 0.408571 0
M  V30 19065 C 3347.94 2.85471 -0.854993 0
M  V30 19066 C 3347.79 4.28918 -0.887335 0
M  V30 19067 C 3347.74 5.00349 0.255399 0
M  V30 19068 H 3345 8.36803 2.32493 0
M  V30 19069 H 3344.73 6.701 1.71105 0
M  V30 19070 H 3345.6 7.03551 4.13168 0
M  V30 19071 H 3348.25 4.59773 3.53894 0
M  V30 19072 H 3348.53 6.88995 1.59871 0
M  V30 19073 H 3349.52 6.46749 3.03687 0
M  V30 19074 H 3347.69 8.46908 3.20714 0
M  V30 19075 H 3347.62 6.08548 0.206986 0
M  V30 19076 P 3349.56 7.20834 5.23717 0
M  V30 19077 O 3349.78 7.79853 6.57286 0
M  V30 19078 O 3350.35 7.79239 4.12957 0
M  V30 19079 O 3349.81 5.63315 5.29344 0
M  V30 19080 C 3348.87 4.80255 6.01876 0
M  V30 19081 C 3349.6 3.64202 6.65911 0
M  V30 19082 O 3349.81 2.60694 5.64732 0
M  V30 19083 C 3351 3.93473 7.1943 0
M  V30 19084 O 3351.39 3.02071 8.21205 0
M  V30 19085 C 3351.88 3.73047 5.97036 0
M  V30 19086 C 3351.17 2.58828 5.25741 0
M  V30 19087 N 3351.22 2.68068 3.77503 0
M  V30 19088 C 3351.14 3.79715 2.96723 0
M  V30 19089 N 3351.22 3.5377 1.68852 0
M  V30 19090 C 3351.36 2.15054 1.63254 0
M  V30 19091 C 3351.49 1.28964 0.518571 0
M  V30 19092 N 3351.61 -0.0538097 0.918425 0
M  V30 19093 C 3351.61 -0.494275 2.22578 0
M  V30 19094 N 3351.74 -1.81086 2.40434 0
M  V30 19095 N 3351.48 0.313645 3.27502 0
M  V30 19096 C 3351.36 1.61829 2.91033 0
M  V30 19097 H 3348.38 5.40332 6.79951 0
M  V30 19098 H 3348.11 4.41613 5.32378 0
M  V30 19099 H 3348.98 3.26331 7.47797 0
M  V30 19100 P 3352.94 2.75334 8.47391 0
M  V30 19101 O 3353.16 2.44571 9.90142 0
M  V30 19102 O 3353.73 3.87688 7.92115 0
M  V30 19103 O 3353.19 1.4459 7.59357 0
M  V30 19104 C 3352.25 0.347608 7.69215 0
M  V30 19105 C 3352.98 -0.96767 7.52806 0
M  V30 19106 O 3353.19 -1.21036 6.1011 0
M  V30 19107 C 3354.38 -1.04544 8.13308 0
M  V30 19108 O 3354.77 -2.38311 8.41922 0
M  V30 19109 C 3355.26 -0.491279 7.02284 0
M  V30 19110 C 3354.55 -0.996264 5.77469 0
M  V30 19111 N 3354.6 -0.0501916 4.62973 0
M  V30 19112 H 3351.76 0.374722 8.67691 0
M  V30 19113 H 3351.49 0.443485 6.90277 0
M  V30 19114 H 3352.36 -1.75537 7.96793 0
M  V30 19115 P 3356.32 -2.75334 8.47391 0
M  V30 19116 O 3356.54 -3.84128 9.44797 0
M  V30 19117 O 3357.11 -1.51947 8.68712 0
M  V30 19118 O 3356.57 -3.29363 6.99321 0
M  V30 19119 C 3355.63 -4.24011 6.4274 0
M  V30 19120 C 3356.36 -5.20775 5.52155 0
M  V30 19121 O 3356.57 -4.56534 4.22446 0
M  V30 19122 C 3357.76 -5.62629 5.96531 0
M  V30 19123 O 3358.15 -6.87667 5.41053 0
M  V30 19124 C 3358.64 -4.52537 5.39283 0
M  V30 19125 C 3357.93 -4.20027 4.08623 0
M  V30 19126 N 3357.98 -2.76189 3.71603 0
M  V30 19127 C 3357.9 -1.64862 4.52822 0
M  V30 19128 N 3357.98 -0.512671 3.88633 0
M  V30 19129 C 3358.12 -0.888083 2.54977 0
M  V30 19130 C 3358.25 -0.094668 1.38677 0
M  V30 19131 O 3358.27 1.13053 1.28163 0
M  V30 19132 N 3358.37 -0.890102 0.232633 0
M  V30 19133 C 3358.37 -2.26958 0.21772 0
M  V30 19134 N 3358.5 -2.84626 -0.97925 0
M  V30 19135 N 3358.24 -3.0178 1.31033 0
M  V30 19136 C 3358.12 -2.26781 2.43843 0
M  V30 19137 H 3355.14 -4.797 7.24003 0
M  V30 19138 H 3354.87 -3.69856 5.84513 0
M  V30 19139 H 3355.74 -6.10356 5.41441 0
M  V30 19140 H 3358.39 -4.79061 3.27488 0
M  V30 19141 H 3358.67 -3.64906 6.05785 0
M  V30 19142 H 3359.66 -4.8868 5.2125 0
M  V30 19143 H 3357.83 -5.66726 7.06352 0
M  V30 19144 H 3357.78 -1.71169 5.60966 0
M  V30 19145 H 3358.46 -0.419134 -0.644739 0
M  V30 19146 H 3358.5 -3.87332 -1.06098 0
M  V30 19147 H 3358.6 -2.26417 -1.82483 0
M  V30 19148 P 3359.7 -7.20834 5.23717 0
M  V30 19149 O 3359.92 -8.66104 5.38572 0
M  V30 19150 O 3360.49 -6.33544 6.1349 0
M  V30 19151 O 3359.95 -6.7751 3.72168 0
M  V30 19152 C 3359.01 -7.20825 2.7076 0
M  V30 19153 C 3359.74 -7.45864 1.40599 0
M  V30 19154 O 3359.95 -6.17651 0.734225 0
M  V30 19155 C 3361.14 -8.05808 1.51899 0
M  V30 19156 O 3361.53 -8.74358 0.335205 0
M  V30 19157 C 3362.02 -6.83093 1.70294 0
M  V30 19158 C 3361.31 -5.79992 0.836974 0
M  V30 19159 N 3361.36 -4.41864 1.38293 0
M  V30 19160 C 3361.28 -3.99538 2.69438 0
M  V30 19161 N 3361.36 -2.69909 2.84277 0
M  V30 19162 C 3361.5 -2.21719 1.5408 0
M  V30 19163 C 3361.63 -0.891712 1.06628 0
M  V30 19164 N 3361.75 -0.856846 -0.334985 0
M  V30 19165 C 3361.75 -1.9641 -1.15789 0
M  V30 19166 N 3361.88 -1.72708 -2.46522 0
M  V30 19167 N 3361.62 -3.21165 -0.713741 0
M  V30 19168 C 3361.5 -3.26797 0.639748 0
M  V30 19169 H 3358.52 -8.13644 3.0377 0
M  V30 19170 H 3358.25 -6.42788 2.55485 0
M  V30 19171 H 3359.12 -8.12039 0.792769 0
M  V30 19172 P 3363.08 -8.91 1.19397e-10 0
M  V30 19173 O 3363.3 -10.1726 -0.733694 0
M  V30 19174 O 3363.87 -8.73148 1.23936 0
M  V30 19175 O 3363.33 -7.66872 -0.971405 0
M  V30 19176 C 3362.39 -7.42309 -2.04641 0
M  V30 19177 C 3363.12 -6.86059 -3.24661 0
M  V30 19178 O 3363.33 -5.42847 -3.03646 0
M  V30 19179 C 3364.52 -7.41196 -3.50753 0
M  V30 19180 O 3364.91 -7.27073 -4.86816 0
M  V30 19181 C 3365.4 -6.5273 -2.63741 0
M  V30 19182 C 3364.69 -5.1842 -2.73198 0
M  V30 19183 N 3364.74 -4.38762 -1.4784 0
M  V30 19184 H 3361.9 -8.36803 -2.32493 0
M  V30 19185 H 3361.63 -6.70197 -1.71129 0
M  V30 19186 H 3362.5 -7.03551 -4.13168 0
M  V30 19187 P 3366.46 -7.20834 -5.23717 0
M  V30 19188 O 3366.68 -7.79853 -6.57286 0
M  V30 19189 O 3367.25 -7.79239 -4.12957 0
M  V30 19190 O 3366.71 -5.63315 -5.29344 0
M  V30 19191 C 3365.77 -4.80255 -6.01876 0
M  V30 19192 C 3366.5 -3.64202 -6.65911 0
M  V30 19193 O 3366.71 -2.60694 -5.64732 0
M  V30 19194 C 3367.9 -3.93473 -7.1943 0
M  V30 19195 O 3368.29 -3.02071 -8.21205 0
M  V30 19196 C 3368.78 -3.73047 -5.97036 0
M  V30 19197 C 3368.07 -2.58828 -5.25741 0
M  V30 19198 N 3368.12 -2.68068 -3.77503 0
M  V30 19199 H 3365.28 -5.40332 -6.79951 0
M  V30 19200 H 3365.01 -4.41613 -5.32378 0
M  V30 19201 H 3365.88 -3.26331 -7.47797 0
M  V30 19202 P 3369.84 -2.75334 -8.47391 0
M  V30 19203 O 3370.06 -2.44571 -9.90142 0
M  V30 19204 O 3370.63 -3.87688 -7.92115 0
M  V30 19205 O 3370.09 -1.4459 -7.59357 0
M  V30 19206 C 3369.15 -0.347608 -7.69215 0
M  V30 19207 C 3369.88 0.96767 -7.52806 0
M  V30 19208 O 3370.09 1.21036 -6.1011 0
M  V30 19209 C 3371.28 1.04544 -8.13308 0
M  V30 19210 O 3371.67 2.38311 -8.41922 0
M  V30 19211 C 3372.16 0.491279 -7.02284 0
M  V30 19212 C 3371.45 0.996264 -5.77469 0
M  V30 19213 N 3371.5 0.0501916 -4.62973 0
M  V30 19214 H 3368.66 -0.374722 -8.67691 0
M  V30 19215 H 3368.39 -0.443485 -6.90277 0
M  V30 19216 H 3369.26 1.75537 -7.96793 0
M  V30 19217 P 3373.22 2.75334 -8.47391 0
M  V30 19218 O 3373.44 3.84128 -9.44797 0
M  V30 19219 O 3374.01 1.51947 -8.68712 0
M  V30 19220 O 3373.47 3.29363 -6.99321 0
M  V30 19221 C 3372.53 4.24011 -6.4274 0
M  V30 19222 C 3373.26 5.20775 -5.52155 0
M  V30 19223 O 3373.47 4.56534 -4.22446 0
M  V30 19224 C 3374.66 5.62629 -5.96531 0
M  V30 19225 O 3375.05 6.87667 -5.41053 0
M  V30 19226 C 3375.54 4.52537 -5.39283 0
M  V30 19227 C 3374.83 4.20027 -4.08623 0
M  V30 19228 N 3374.88 2.76189 -3.71603 0
M  V30 19229 H 3372.04 4.797 -7.24003 0
M  V30 19230 H 3371.77 3.69856 -5.84513 0
M  V30 19231 H 3372.64 6.10356 -5.41441 0
M  V30 19232 P 3376.6 7.20834 -5.23717 0
M  V30 19233 O 3376.82 8.66104 -5.38572 0
M  V30 19234 O 3377.39 6.33544 -6.1349 0
M  V30 19235 O 3376.85 6.7751 -3.72168 0
M  V30 19236 C 3375.91 7.20825 -2.7076 0
M  V30 19237 C 3376.64 7.45864 -1.40599 0
M  V30 19238 O 3376.85 6.17651 -0.734225 0
M  V30 19239 C 3378.04 8.05808 -1.51899 0
M  V30 19240 O 3378.43 8.74358 -0.335205 0
M  V30 19241 C 3378.92 6.83093 -1.70294 0
M  V30 19242 C 3378.21 5.79992 -0.836974 0
M  V30 19243 N 3378.26 4.41864 -1.38293 0
M  V30 19244 H 3375.42 8.13644 -3.0377 0
M  V30 19245 H 3375.15 6.42788 -2.55485 0
M  V30 19246 H 3376.02 8.12039 -0.792769 0
M  V30 19247 P 3379.98 8.91 -1.20506e-10 0
M  V30 19248 O 3380.2 10.1736 0.733766 0
M  V30 19249 O 3380.77 8.73247 -1.2395 0
M  V30 19250 O 3380.23 7.66872 0.971405 0
M  V30 19251 C 3379.29 7.42309 2.04641 0
M  V30 19252 C 3380.02 6.86059 3.24661 0
M  V30 19253 O 3380.23 5.42847 3.03646 0
M  V30 19254 C 3381.42 7.41196 3.50753 0
M  V30 19255 O 3381.81 7.27073 4.86816 0
M  V30 19256 C 3382.3 6.5273 2.63741 0
M  V30 19257 C 3381.59 5.1842 2.73198 0
M  V30 19258 N 3381.64 4.38668 1.47808 0
M  V30 19259 C 3381.79 3.00789 1.58511 0
M  V30 19260 O 3381.88 2.50116 2.71298 0
M  V30 19261 N 3381.84 2.29703 0.253698 0
M  V30 19262 C 3381.74 2.84269 -0.750133 0
M  V30 19263 N 3381.79 2.06951 -1.82612 0
M  V30 19264 C 3381.59 4.25803 -0.889776 0
M  V30 19265 C 3381.54 4.98326 0.259363 0
M  V30 19266 H 3378.8 8.36707 2.32466 0
M  V30 19267 H 3378.53 6.701 1.71105 0
M  V30 19268 H 3379.4 7.03638 4.13219 0
M  V30 19269 H 3382.05 4.59852 3.53955 0
M  V30 19270 H 3382.33 6.88995 1.59871 0
M  V30 19271 H 3383.32 6.46749 3.03687 0
M  V30 19272 H 3381.49 8.46908 3.20714 0
M  V30 19273 H 3381.42 6.06349 0.206238 0
M  V30 19274 H 3381.52 4.73163 -1.86796 0
M  V30 19275 H 3381.91 1.05099 -1.72271 0
M  V30 19276 H 3381.71 2.48716 -2.76361 0
M  V30 19277 P 3383.36 7.20834 5.23717 0
M  V30 19278 O 3383.58 7.79853 6.57286 0
M  V30 19279 O 3384.15 7.79239 4.12957 0
M  V30 19280 O 3383.61 5.63315 5.29344 0
M  V30 19281 C 3382.67 4.80255 6.01876 0
M  V30 19282 C 3383.4 3.64202 6.65911 0
M  V30 19283 O 3383.61 2.60694 5.64732 0
M  V30 19284 C 3384.8 3.93473 7.1943 0
M  V30 19285 O 3385.19 3.02071 8.21205 0
M  V30 19286 C 3385.68 3.73047 5.97036 0
M  V30 19287 C 3384.97 2.58828 5.25741 0
M  V30 19288 N 3385.02 2.68068 3.77503 0
M  V30 19289 H 3382.18 5.40332 6.79951 0
M  V30 19290 H 3381.91 4.41613 5.32378 0
M  V30 19291 H 3382.78 3.26331 7.47797 0
M  V30 19292 P 3386.74 2.75334 8.47391 0
M  V30 19293 O 3386.96 2.44571 9.90142 0
M  V30 19294 O 3387.53 3.87688 7.92115 0
M  V30 19295 O 3386.99 1.4459 7.59357 0
M  V30 19296 C 3386.05 0.347608 7.69215 0
M  V30 19297 C 3386.78 -0.96767 7.52806 0
M  V30 19298 O 3386.99 -1.21036 6.1011 0
M  V30 19299 C 3388.18 -1.04544 8.13308 0
M  V30 19300 O 3388.57 -2.38311 8.41922 0
M  V30 19301 C 3389.06 -0.491279 7.02284 0
M  V30 19302 C 3388.35 -0.996264 5.77469 0
M  V30 19303 N 3388.4 -0.0501916 4.62973 0
M  V30 19304 H 3385.56 0.374722 8.67691 0
M  V30 19305 H 3385.29 0.443485 6.90277 0
M  V30 19306 H 3386.16 -1.75537 7.96793 0
M  V30 19307 P 3390.12 -2.75334 8.47391 0
M  V30 19308 O 3390.34 -3.84128 9.44797 0
M  V30 19309 O 3390.91 -1.51947 8.68712 0
M  V30 19310 O 3390.37 -3.29363 6.99321 0
M  V30 19311 C 3389.43 -4.24011 6.4274 0
M  V30 19312 C 3390.16 -5.20775 5.52155 0
M  V30 19313 O 3390.37 -4.56534 4.22446 0
M  V30 19314 C 3391.56 -5.62629 5.96531 0
M  V30 19315 O 3391.95 -6.87667 5.41053 0
M  V30 19316 C 3392.44 -4.52537 5.39283 0
M  V30 19317 C 3391.73 -4.20027 4.08623 0
M  V30 19318 N 3391.78 -2.76189 3.71603 0
M  V30 19319 H 3388.94 -4.797 7.24003 0
M  V30 19320 H 3388.67 -3.69856 5.84513 0
M  V30 19321 H 3389.54 -6.10356 5.41441 0
M  V30 19322 P 3393.5 -7.20834 5.23717 0
M  V30 19323 O 3393.72 -8.66104 5.38572 0
M  V30 19324 O 3394.29 -6.33544 6.1349 0
M  V30 19325 O 3393.75 -6.7751 3.72168 0
M  V30 19326 C 3392.81 -7.20825 2.7076 0
M  V30 19327 C 3393.54 -7.45864 1.40599 0
M  V30 19328 O 3393.75 -6.17651 0.734225 0
M  V30 19329 C 3394.94 -8.05808 1.51899 0
M  V30 19330 O 3395.33 -8.74358 0.335205 0
M  V30 19331 C 3395.82 -6.83093 1.70294 0
M  V30 19332 C 3395.11 -5.79992 0.836974 0
M  V30 19333 N 3395.16 -4.41864 1.38293 0
M  V30 19334 H 3392.32 -8.13644 3.0377 0
M  V30 19335 H 3392.05 -6.42788 2.55485 0
M  V30 19336 H 3392.92 -8.12039 0.792769 0
M  V30 19337 P 3396.88 -8.91 1.21615e-10 0
M  V30 19338 O 3397.1 -10.1726 -0.733694 0
M  V30 19339 O 3397.67 -8.73148 1.23936 0
M  V30 19340 O 3397.13 -7.66872 -0.971405 0
M  V30 19341 C 3396.19 -7.42309 -2.04641 0
M  V30 19342 C 3396.92 -6.86059 -3.24661 0
M  V30 19343 O 3397.13 -5.42847 -3.03646 0
M  V30 19344 C 3398.32 -7.41196 -3.50753 0
M  V30 19345 O 3398.71 -7.27073 -4.86816 0
M  V30 19346 C 3399.2 -6.5273 -2.63741 0
M  V30 19347 C 3398.49 -5.1842 -2.73198 0
M  V30 19348 N 3398.54 -4.38762 -1.4784 0
M  V30 19349 H 3395.7 -8.36803 -2.32493 0
M  V30 19350 H 3395.43 -6.70197 -1.71129 0
M  V30 19351 H 3396.3 -7.03551 -4.13168 0
M  V30 19352 P 3400.26 -7.20834 -5.23717 0
M  V30 19353 O 3400.48 -7.79853 -6.57286 0
M  V30 19354 O 3401.05 -7.79239 -4.12957 0
M  V30 19355 O 3400.51 -5.63315 -5.29344 0
M  V30 19356 C 3399.57 -4.80255 -6.01876 0
M  V30 19357 C 3400.3 -3.64202 -6.65911 0
M  V30 19358 O 3400.51 -2.60694 -5.64732 0
M  V30 19359 C 3401.7 -3.93473 -7.1943 0
M  V30 19360 O 3402.09 -3.02071 -8.21205 0
M  V30 19361 C 3402.58 -3.73047 -5.97036 0
M  V30 19362 C 3401.87 -2.58828 -5.25741 0
M  V30 19363 N 3401.92 -2.68068 -3.77503 0
M  V30 19364 C 3401.84 -3.79715 -2.96723 0
M  V30 19365 N 3401.92 -3.5377 -1.68852 0
M  V30 19366 C 3402.06 -2.15054 -1.63254 0
M  V30 19367 C 3402.19 -1.28964 -0.518571 0
M  V30 19368 O 3402.21 -1.56826 0.679156 0
M  V30 19369 N 3402.31 0.0538097 -0.918425 0
M  V30 19370 C 3402.31 0.494275 -2.22578 0
M  V30 19371 N 3402.44 1.81086 -2.40434 0
M  V30 19372 N 3402.18 -0.313645 -3.27502 0
M  V30 19373 C 3402.06 -1.61829 -2.91033 0
M  V30 19374 H 3399.08 -5.40332 -6.79951 0
M  V30 19375 H 3398.81 -4.41613 -5.32378 0
M  V30 19376 H 3399.68 -3.26331 -7.47797 0
M  V30 19377 H 3402.33 -1.63422 -5.56814 0
M  V30 19378 H 3402.61 -4.63374 -5.34244 0
M  V30 19379 H 3403.6 -3.44728 -6.25838 0
M  V30 19380 H 3401.77 -4.96652 -7.57263 0
M  V30 19381 H 3401.72 -4.80617 -3.3614 0
M  V30 19382 H 3402.4 0.742702 -0.199384 0
M  V30 19383 H 3402.44 2.20598 -3.35588 0
M  V30 19384 H 3402.54 2.43518 -1.58945 0
M  V30 19385 P 3403.64 -2.75334 -8.47391 0
M  V30 19386 O 3403.86 -2.44571 -9.90142 0
M  V30 19387 O 3404.43 -3.87688 -7.92115 0
M  V30 19388 O 3403.89 -1.4459 -7.59357 0
M  V30 19389 C 3402.95 -0.347608 -7.69215 0
M  V30 19390 C 3403.68 0.96767 -7.52806 0
M  V30 19391 O 3403.89 1.21036 -6.1011 0
M  V30 19392 C 3405.08 1.04544 -8.13308 0
M  V30 19393 O 3405.47 2.38311 -8.41922 0
M  V30 19394 C 3405.96 0.491279 -7.02284 0
M  V30 19395 C 3405.25 0.996264 -5.77469 0
M  V30 19396 N 3405.3 0.0501916 -4.62973 0
M  V30 19397 C 3405.22 -1.32786 -4.63244 0
M  V30 19398 N 3405.3 -1.86957 -3.44545 0
M  V30 19399 C 3405.44 -0.780241 -2.58481 0
M  V30 19400 C 3405.57 -0.738536 -1.17757 0
M  V30 19401 N 3405.69 0.58337 -0.711393 0
M  V30 19402 C 3405.69 1.70816 -1.51017 0
M  V30 19403 N 3405.82 2.87826 -0.880757 0
M  V30 19404 N 3405.56 1.67126 -2.8339 0
M  V30 19405 C 3405.44 0.401421 -3.30572 0
M  V30 19406 H 3402.46 -0.374722 -8.67691 0
M  V30 19407 H 3402.19 -0.443485 -6.90277 0
M  V30 19408 H 3403.06 1.75537 -7.96793 0
M  V30 19409 P 3407.02 2.75334 -8.47391 0
M  V30 19410 O 3407.24 3.84128 -9.44797 0
M  V30 19411 O 3407.81 1.51947 -8.68712 0
M  V30 19412 O 3407.27 3.29363 -6.99321 0
M  V30 19413 C 3406.33 4.24011 -6.4274 0
M  V30 19414 C 3407.06 5.20775 -5.52155 0
M  V30 19415 O 3407.27 4.56534 -4.22446 0
M  V30 19416 C 3408.46 5.62629 -5.96531 0
M  V30 19417 O 3408.85 6.87667 -5.41053 0
M  V30 19418 C 3409.34 4.52537 -5.39283 0
M  V30 19419 C 3408.63 4.20027 -4.08623 0
M  V30 19420 N 3408.68 2.76189 -3.71603 0
M  V30 19421 H 3405.84 4.797 -7.24003 0
M  V30 19422 H 3405.57 3.69856 -5.84513 0
M  V30 19423 H 3406.44 6.10356 -5.41441 0
M  V30 19424 P 3410.4 7.20834 -5.23717 0
M  V30 19425 O 3410.62 8.66104 -5.38572 0
M  V30 19426 O 3411.19 6.33544 -6.1349 0
M  V30 19427 O 3410.65 6.7751 -3.72168 0
M  V30 19428 C 3409.71 7.20825 -2.7076 0
M  V30 19429 C 3410.44 7.45864 -1.40599 0
M  V30 19430 O 3410.65 6.17651 -0.734225 0
M  V30 19431 C 3411.84 8.05808 -1.51899 0
M  V30 19432 O 3412.23 8.74358 -0.335205 0
M  V30 19433 C 3412.72 6.83093 -1.70294 0
M  V30 19434 C 3412.01 5.79992 -0.836974 0
M  V30 19435 N 3412.06 4.41864 -1.38293 0
M  V30 19436 H 3409.22 8.13644 -3.0377 0
M  V30 19437 H 3408.95 6.42788 -2.55485 0
M  V30 19438 H 3409.82 8.12039 -0.792769 0
M  V30 19439 P 3413.78 8.91 -1.22724e-10 0
M  V30 19440 O 3414 10.1726 0.733694 0
M  V30 19441 O 3414.57 8.73148 -1.23936 0
M  V30 19442 O 3414.03 7.66872 0.971405 0
M  V30 19443 C 3413.09 7.42309 2.04641 0
M  V30 19444 C 3413.82 6.86059 3.24661 0
M  V30 19445 O 3414.03 5.42847 3.03646 0
M  V30 19446 C 3415.22 7.41196 3.50753 0
M  V30 19447 O 3415.61 7.27073 4.86816 0
M  V30 19448 C 3416.1 6.5273 2.63741 0
M  V30 19449 C 3415.39 5.1842 2.73198 0
M  V30 19450 N 3415.44 4.38762 1.4784 0
M  V30 19451 H 3412.6 8.36803 2.32493 0
M  V30 19452 H 3412.33 6.70197 1.71129 0
M  V30 19453 H 3413.2 7.03551 4.13168 0
M  V30 19454 P 3417.16 7.20834 5.23717 0
M  V30 19455 O 3417.38 7.7993 6.57351 0
M  V30 19456 O 3417.95 7.79328 4.13004 0
M  V30 19457 O 3417.41 5.63315 5.29344 0
M  V30 19458 C 3416.47 4.80193 6.01798 0
M  V30 19459 C 3417.2 3.64202 6.65911 0
M  V30 19460 O 3417.41 2.60694 5.64732 0
M  V30 19461 C 3418.6 3.93473 7.1943 0
M  V30 19462 O 3418.99 3.02071 8.21205 0
M  V30 19463 C 3419.48 3.73047 5.97036 0
M  V30 19464 C 3418.77 2.58828 5.25741 0
M  V30 19465 N 3418.82 2.6801 3.77422 0
M  V30 19466 C 3418.97 1.50443 3.07133 0
M  V30 19467 O 3419.06 0.419406 3.61576 0
M  V30 19468 N 3419.01 1.6403 1.69677 0
M  V30 19469 C 3418.92 2.81206 0.986255 0
M  V30 19470 O 3418.97 2.80892 -0.249754 0
M  V30 19471 C 3418.77 3.99158 1.80325 0
M  V30 19472 C 3418.66 5.29309 1.06921 0
M  V30 19473 C 3418.72 3.89779 3.1476 0
M  V30 19474 H 3415.98 5.40332 6.79951 0
M  V30 19475 H 3415.71 4.41549 5.32301 0
M  V30 19476 H 3416.58 3.26331 7.47797 0
M  V30 19477 H 3419.23 1.6395 5.56554 0
M  V30 19478 H 3419.51 4.63439 5.3432 0
M  V30 19479 H 3420.5 3.44728 6.25838 0
M  V30 19480 H 3418.67 4.96652 7.57263 0
M  V30 19481 H 3418.6 4.80159 3.74441 0
M  V30 19482 H 3419.63 5.81459 1.09608 0
M  V30 19483 H 3417.89 5.9187 1.54487 0
M  V30 19484 H 3418.38 5.10095 0.0220288 0
M  V30 19485 H 3419.12 0.798962 1.16664 0
M  V30 19486 P 3420.54 2.75334 8.47391 0
M  V30 19487 O 3420.76 2.44571 9.90142 0
M  V30 19488 O 3421.33 3.87688 7.92115 0
M  V30 19489 O 3420.79 1.4459 7.59357 0
M  V30 19490 C 3419.85 0.347608 7.69215 0
M  V30 19491 C 3420.58 -0.96767 7.52806 0
M  V30 19492 O 3420.79 -1.21036 6.1011 0
M  V30 19493 C 3421.98 -1.04544 8.13308 0
M  V30 19494 O 3422.37 -2.38311 8.41922 0
M  V30 19495 C 3422.86 -0.491279 7.02284 0
M  V30 19496 C 3422.15 -0.996264 5.77469 0
M  V30 19497 N 3422.2 -0.0501916 4.62973 0
M  V30 19498 H 3419.36 0.374722 8.67691 0
M  V30 19499 H 3419.09 0.443485 6.90277 0
M  V30 19500 H 3419.96 -1.75537 7.96793 0
M  V30 19501 P 3423.92 -2.75334 8.47391 0
M  V30 19502 O 3424.14 -3.84128 9.44797 0
M  V30 19503 O 3424.71 -1.51947 8.68712 0
M  V30 19504 O 3424.17 -3.29363 6.99321 0
M  V30 19505 C 3423.23 -4.24011 6.4274 0
M  V30 19506 C 3423.96 -5.20775 5.52155 0
M  V30 19507 O 3424.17 -4.56534 4.22446 0
M  V30 19508 C 3425.36 -5.62629 5.96531 0
M  V30 19509 O 3425.75 -6.87667 5.41053 0
M  V30 19510 C 3426.24 -4.52537 5.39283 0
M  V30 19511 C 3425.53 -4.20027 4.08623 0
M  V30 19512 N 3425.58 -2.76189 3.71603 0
M  V30 19513 H 3422.74 -4.797 7.24003 0
M  V30 19514 H 3422.47 -3.69856 5.84513 0
M  V30 19515 H 3423.34 -6.10356 5.41441 0
M  V30 19516 P 3427.3 -7.20834 5.23717 0
M  V30 19517 O 3427.52 -8.66104 5.38572 0
M  V30 19518 O 3428.09 -6.33544 6.1349 0
M  V30 19519 O 3427.55 -6.7751 3.72168 0
M  V30 19520 C 3426.61 -7.20825 2.7076 0
M  V30 19521 C 3427.34 -7.45864 1.40599 0
M  V30 19522 O 3427.55 -6.17651 0.734225 0
M  V30 19523 C 3428.74 -8.05808 1.51899 0
M  V30 19524 O 3429.13 -8.74358 0.335205 0
M  V30 19525 C 3429.62 -6.83093 1.70294 0
M  V30 19526 C 3428.91 -5.79992 0.836974 0
M  V30 19527 N 3428.96 -4.41864 1.38293 0
M  V30 19528 H 3426.12 -8.13644 3.0377 0
M  V30 19529 H 3425.85 -6.42788 2.55485 0
M  V30 19530 H 3426.72 -8.12039 0.792769 0
M  V30 19531 P 3430.68 -8.91 1.23833e-10 0
M  V30 19532 O 3430.9 -10.1726 -0.733694 0
M  V30 19533 O 3431.47 -8.73148 1.23936 0
M  V30 19534 O 3430.93 -7.66872 -0.971405 0
M  V30 19535 C 3429.99 -7.42309 -2.04641 0
M  V30 19536 C 3430.72 -6.86059 -3.24661 0
M  V30 19537 O 3430.93 -5.42847 -3.03646 0
M  V30 19538 C 3432.12 -7.41196 -3.50753 0
M  V30 19539 O 3432.51 -7.27073 -4.86816 0
M  V30 19540 C 3433 -6.5273 -2.63741 0
M  V30 19541 C 3432.29 -5.1842 -2.73198 0
M  V30 19542 N 3432.34 -4.38762 -1.4784 0
M  V30 19543 H 3429.5 -8.36803 -2.32493 0
M  V30 19544 H 3429.23 -6.70197 -1.71129 0
M  V30 19545 H 3430.1 -7.03551 -4.13168 0
M  V30 19546 P 3434.06 -7.20834 -5.23717 0
M  V30 19547 O 3434.28 -7.79853 -6.57286 0
M  V30 19548 O 3434.85 -7.79239 -4.12957 0
M  V30 19549 O 3434.31 -5.63315 -5.29344 0
M  V30 19550 C 3433.37 -4.80255 -6.01876 0
M  V30 19551 C 3434.1 -3.64202 -6.65911 0
M  V30 19552 O 3434.31 -2.60694 -5.64732 0
M  V30 19553 C 3435.5 -3.93473 -7.1943 0
M  V30 19554 O 3435.89 -3.02071 -8.21205 0
M  V30 19555 C 3436.38 -3.73047 -5.97036 0
M  V30 19556 C 3435.67 -2.58828 -5.25741 0
M  V30 19557 N 3435.72 -2.68068 -3.77503 0
M  V30 19558 C 3435.64 -3.79715 -2.96723 0
M  V30 19559 N 3435.72 -3.5377 -1.68852 0
M  V30 19560 C 3435.86 -2.15054 -1.63254 0
M  V30 19561 C 3435.99 -1.28964 -0.518571 0
M  V30 19562 N 3436.11 0.0538097 -0.918425 0
M  V30 19563 C 3436.11 0.494275 -2.22578 0
M  V30 19564 N 3436.24 1.81086 -2.40434 0
M  V30 19565 N 3435.98 -0.313645 -3.27502 0
M  V30 19566 C 3435.86 -1.61829 -2.91033 0
M  V30 19567 H 3432.88 -5.40332 -6.79951 0
M  V30 19568 H 3432.61 -4.41613 -5.32378 0
M  V30 19569 H 3433.48 -3.26331 -7.47797 0
M  V30 19570 P 3437.44 -2.75334 -8.47391 0
M  V30 19571 O 3437.66 -2.44571 -9.90142 0
M  V30 19572 O 3438.23 -3.87688 -7.92115 0
M  V30 19573 O 3437.69 -1.4459 -7.59357 0
M  V30 19574 C 3436.75 -0.347608 -7.69215 0
M  V30 19575 C 3437.48 0.96767 -7.52806 0
M  V30 19576 O 3437.69 1.21036 -6.1011 0
M  V30 19577 C 3438.88 1.04544 -8.13308 0
M  V30 19578 O 3439.27 2.38311 -8.41922 0
M  V30 19579 C 3439.76 0.491279 -7.02284 0
M  V30 19580 C 3439.05 0.996264 -5.77469 0
M  V30 19581 N 3439.1 0.0501916 -4.62973 0
M  V30 19582 H 3436.26 -0.374722 -8.67691 0
M  V30 19583 H 3435.99 -0.443485 -6.90277 0
M  V30 19584 H 3436.86 1.75537 -7.96793 0
M  V30 19585 P 3440.82 2.75334 -8.47391 0
M  V30 19586 O 3441.04 3.84128 -9.44797 0
M  V30 19587 O 3441.61 1.51947 -8.68712 0
M  V30 19588 O 3441.07 3.29363 -6.99321 0
M  V30 19589 C 3440.13 4.24011 -6.4274 0
M  V30 19590 C 3440.86 5.20775 -5.52155 0
M  V30 19591 O 3441.07 4.56534 -4.22446 0
M  V30 19592 C 3442.26 5.62629 -5.96531 0
M  V30 19593 O 3442.65 6.87667 -5.41053 0
M  V30 19594 C 3443.14 4.52537 -5.39283 0
M  V30 19595 C 3442.43 4.20027 -4.08623 0
M  V30 19596 N 3442.48 2.76189 -3.71603 0
M  V30 19597 H 3439.64 4.797 -7.24003 0
M  V30 19598 H 3439.37 3.69856 -5.84513 0
M  V30 19599 H 3440.24 6.10356 -5.41441 0
M  V30 19600 P 3444.2 7.20834 -5.23717 0
M  V30 19601 O 3444.42 8.66104 -5.38572 0
M  V30 19602 O 3444.99 6.33544 -6.1349 0
M  V30 19603 O 3444.45 6.7751 -3.72168 0
M  V30 19604 C 3443.51 7.20825 -2.7076 0
M  V30 19605 C 3444.24 7.45864 -1.40599 0
M  V30 19606 O 3444.45 6.17651 -0.734225 0
M  V30 19607 C 3445.64 8.05808 -1.51899 0
M  V30 19608 O 3446.03 8.74358 -0.335205 0
M  V30 19609 C 3446.52 6.83093 -1.70294 0
M  V30 19610 C 3445.81 5.79992 -0.836974 0
M  V30 19611 N 3445.86 4.41864 -1.38293 0
M  V30 19612 H 3443.02 8.13644 -3.0377 0
M  V30 19613 H 3442.75 6.42788 -2.55485 0
M  V30 19614 H 3443.62 8.12039 -0.792769 0
M  V30 19615 P 3447.58 8.91 -1.24942e-10 0
M  V30 19616 O 3447.8 10.1726 0.733694 0
M  V30 19617 O 3448.37 8.73148 -1.23936 0
M  V30 19618 O 3447.83 7.66872 0.971405 0
M  V30 19619 C 3446.89 7.42309 2.04641 0
M  V30 19620 C 3447.62 6.86059 3.24661 0
M  V30 19621 O 3447.83 5.42847 3.03646 0
M  V30 19622 C 3449.02 7.41196 3.50753 0
M  V30 19623 O 3449.41 7.27073 4.86816 0
M  V30 19624 C 3449.9 6.5273 2.63741 0
M  V30 19625 C 3449.19 5.1842 2.73198 0
M  V30 19626 N 3449.24 4.38762 1.4784 0
M  V30 19627 H 3446.4 8.36803 2.32493 0
M  V30 19628 H 3446.13 6.70197 1.71129 0
M  V30 19629 H 3447 7.03551 4.13168 0
M  V30 19630 P 3450.96 7.20834 5.23717 0
M  V30 19631 O 3451.18 7.7993 6.57351 0
M  V30 19632 O 3451.75 7.79328 4.13004 0
M  V30 19633 O 3451.21 5.63315 5.29344 0
M  V30 19634 C 3450.27 4.80193 6.01798 0
M  V30 19635 C 3451 3.64202 6.65911 0
M  V30 19636 O 3451.21 2.60694 5.64732 0
M  V30 19637 C 3452.4 3.93473 7.1943 0
M  V30 19638 O 3452.79 3.02071 8.21205 0
M  V30 19639 C 3453.28 3.73047 5.97036 0
M  V30 19640 C 3452.57 2.58828 5.25741 0
M  V30 19641 N 3452.62 2.6801 3.77422 0
M  V30 19642 C 3452.77 1.50443 3.07133 0
M  V30 19643 O 3452.86 0.419406 3.61576 0
M  V30 19644 N 3452.81 1.6403 1.69677 0
M  V30 19645 C 3452.72 2.81206 0.986255 0
M  V30 19646 C 3452.57 3.99158 1.80325 0
M  V30 19647 C 3452.52 3.89779 3.1476 0
M  V30 19648 H 3449.78 5.40332 6.79951 0
M  V30 19649 H 3449.51 4.41549 5.32301 0
M  V30 19650 H 3450.38 3.26331 7.47797 0
M  V30 19651 H 3453.03 1.6395 5.56554 0
M  V30 19652 H 3453.31 4.63439 5.3432 0
M  V30 19653 H 3454.3 3.44728 6.25838 0
M  V30 19654 H 3452.47 4.96652 7.57263 0
M  V30 19655 H 3452.4 4.80159 3.74441 0
M  V30 19656 P 3454.34 2.75334 8.47391 0
M  V30 19657 O 3454.56 2.44571 9.90142 0
M  V30 19658 O 3455.13 3.87688 7.92115 0
M  V30 19659 O 3454.59 1.4459 7.59357 0
M  V30 19660 C 3453.65 0.347608 7.69215 0
M  V30 19661 C 3454.38 -0.96767 7.52806 0
M  V30 19662 O 3454.59 -1.21036 6.1011 0
M  V30 19663 C 3455.78 -1.04544 8.13308 0
M  V30 19664 O 3456.17 -2.38311 8.41922 0
M  V30 19665 C 3456.66 -0.491279 7.02284 0
M  V30 19666 C 3455.95 -0.996264 5.77469 0
M  V30 19667 N 3456 -0.0501916 4.62973 0
M  V30 19668 C 3455.92 1.32786 4.63244 0
M  V30 19669 N 3456 1.86957 3.44545 0
M  V30 19670 C 3456.14 0.780241 2.58481 0
M  V30 19671 C 3456.27 0.738536 1.17757 0
M  V30 19672 N 3456.39 -0.58337 0.711393 0
M  V30 19673 C 3456.39 -1.70816 1.51017 0
M  V30 19674 N 3456.52 -2.87826 0.880757 0
M  V30 19675 N 3456.26 -1.67126 2.8339 0
M  V30 19676 C 3456.14 -0.401421 3.30572 0
M  V30 19677 H 3453.16 0.374722 8.67691 0
M  V30 19678 H 3452.89 0.443485 6.90277 0
M  V30 19679 H 3453.76 -1.75537 7.96793 0
M  V30 19680 P 3457.72 -2.75334 8.47391 0
M  V30 19681 O 3457.94 -3.84128 9.44797 0
M  V30 19682 O 3458.51 -1.51947 8.68712 0
M  V30 19683 O 3457.97 -3.29363 6.99321 0
M  V30 19684 C 3457.03 -4.24011 6.4274 0
M  V30 19685 C 3457.76 -5.20775 5.52155 0
M  V30 19686 O 3457.97 -4.56534 4.22446 0
M  V30 19687 C 3459.16 -5.62629 5.96531 0
M  V30 19688 O 3459.55 -6.87667 5.41053 0
M  V30 19689 C 3460.04 -4.52537 5.39283 0
M  V30 19690 C 3459.33 -4.20027 4.08623 0
M  V30 19691 N 3459.38 -2.76189 3.71603 0
M  V30 19692 H 3456.54 -4.797 7.24003 0
M  V30 19693 H 3456.27 -3.69856 5.84513 0
M  V30 19694 H 3457.14 -6.10356 5.41441 0
M  V30 19695 P 3461.1 -7.20834 5.23717 0
M  V30 19696 O 3461.32 -8.66104 5.38572 0
M  V30 19697 O 3461.89 -6.33544 6.1349 0
M  V30 19698 O 3461.35 -6.7751 3.72168 0
M  V30 19699 C 3460.41 -7.20825 2.7076 0
M  V30 19700 C 3461.14 -7.45864 1.40599 0
M  V30 19701 O 3461.35 -6.17651 0.734225 0
M  V30 19702 C 3462.54 -8.05808 1.51899 0
M  V30 19703 O 3462.93 -8.74358 0.335205 0
M  V30 19704 C 3463.42 -6.83093 1.70294 0
M  V30 19705 C 3462.71 -5.79992 0.836974 0
M  V30 19706 N 3462.76 -4.41864 1.38293 0
M  V30 19707 H 3459.92 -8.13644 3.0377 0
M  V30 19708 H 3459.65 -6.42788 2.55485 0
M  V30 19709 H 3460.52 -8.12039 0.792769 0
M  V30 19710 P 3464.48 -8.91 1.26051e-10 0
M  V30 19711 O 3464.7 -10.1726 -0.733694 0
M  V30 19712 O 3465.27 -8.73148 1.23936 0
M  V30 19713 O 3464.73 -7.66872 -0.971405 0
M  V30 19714 C 3463.79 -7.42309 -2.04641 0
M  V30 19715 C 3464.52 -6.86059 -3.24661 0
M  V30 19716 O 3464.73 -5.42847 -3.03646 0
M  V30 19717 C 3465.92 -7.41196 -3.50753 0
M  V30 19718 O 3466.31 -7.27073 -4.86816 0
M  V30 19719 C 3466.8 -6.5273 -2.63741 0
M  V30 19720 C 3466.09 -5.1842 -2.73198 0
M  V30 19721 N 3466.14 -4.38762 -1.4784 0
M  V30 19722 H 3463.3 -8.36803 -2.32493 0
M  V30 19723 H 3463.03 -6.70197 -1.71129 0
M  V30 19724 H 3463.9 -7.03551 -4.13168 0
M  V30 19725 P 3467.86 -7.20834 -5.23717 0
M  V30 19726 O 3468.08 -7.7993 -6.57351 0
M  V30 19727 O 3468.65 -7.79328 -4.13004 0
M  V30 19728 O 3468.11 -5.63315 -5.29344 0
M  V30 19729 C 3467.17 -4.80193 -6.01798 0
M  V30 19730 C 3467.9 -3.64202 -6.65911 0
M  V30 19731 O 3468.11 -2.60694 -5.64732 0
M  V30 19732 C 3469.3 -3.93473 -7.1943 0
M  V30 19733 O 3469.69 -3.02071 -8.21205 0
M  V30 19734 C 3470.18 -3.73047 -5.97036 0
M  V30 19735 C 3469.47 -2.58828 -5.25741 0
M  V30 19736 N 3469.52 -2.6801 -3.77422 0
M  V30 19737 C 3469.67 -1.50443 -3.07133 0
M  V30 19738 O 3469.76 -0.419406 -3.61576 0
M  V30 19739 N 3469.71 -1.6403 -1.69677 0
M  V30 19740 C 3469.62 -2.81206 -0.986255 0
M  V30 19741 O 3469.67 -2.80892 0.249754 0
M  V30 19742 C 3469.47 -3.99158 -1.80325 0
M  V30 19743 C 3469.36 -5.29309 -1.06921 0
M  V30 19744 C 3469.42 -3.89779 -3.1476 0
M  V30 19745 H 3466.68 -5.40332 -6.79951 0
M  V30 19746 H 3466.41 -4.41549 -5.32301 0
M  V30 19747 H 3467.28 -3.26331 -7.47797 0
M  V30 19748 H 3469.93 -1.6395 -5.56554 0
M  V30 19749 H 3470.21 -4.63439 -5.3432 0
M  V30 19750 H 3471.2 -3.44728 -6.25838 0
M  V30 19751 H 3469.37 -4.96652 -7.57263 0
M  V30 19752 H 3469.3 -4.80159 -3.74441 0
M  V30 19753 H 3470.33 -5.81459 -1.09608 0
M  V30 19754 H 3468.59 -5.9187 -1.54487 0
M  V30 19755 H 3469.08 -5.10095 -0.0220288 0
M  V30 19756 H 3469.82 -0.798962 -1.16664 0
M  V30 19757 P 3471.24 -2.75334 -8.47391 0
M  V30 19758 O 3471.46 -2.44619 -9.90336 0
M  V30 19759 O 3472.03 -3.87776 -7.92294 0
M  V30 19760 O 3471.49 -1.4459 -7.59357 0
M  V30 19761 C 3470.55 -0.347653 -7.69315 0
M  V30 19762 C 3471.28 0.96767 -7.52806 0
M  V30 19763 O 3471.49 1.21055 -6.10208 0
M  V30 19764 C 3472.68 1.04557 -8.13408 0
M  V30 19765 O 3473.07 2.38311 -8.41922 0
M  V30 19766 C 3473.56 0.491279 -7.02284 0
M  V30 19767 C 3472.85 0.996264 -5.77469 0
M  V30 19768 N 3472.9 0.0501916 -4.62973 0
M  V30 19769 H 3470.06 -0.374765 -8.67791 0
M  V30 19770 H 3469.79 -0.443613 -6.90476 0
M  V30 19771 H 3470.66 1.75559 -7.96891 0
M  V30 19772 H 3473.31 1.94563 -5.46818 0
M  V30 19773 H 3473.59 -0.608651 -7.04676 0
M  V30 19774 H 3474.58 0.889796 -7.09039 0
M  V30 19775 H 3472.75 0.433128 -9.04664 0
M  V30 19776 P 3474.62 2.75334 -8.47391 0
M  V30 19777 O 3474.84 3.84128 -9.44797 0
M  V30 19778 O 3475.41 1.51947 -8.68712 0
M  V30 19779 O 3474.87 3.29363 -6.99321 0
M  V30 19780 C 3473.93 4.24011 -6.4274 0
M  V30 19781 C 3474.66 5.20775 -5.52155 0
M  V30 19782 O 3474.87 4.56534 -4.22446 0
M  V30 19783 C 3476.06 5.62629 -5.96531 0
M  V30 19784 O 3476.45 6.87667 -5.41053 0
M  V30 19785 C 3476.94 4.52537 -5.39283 0
M  V30 19786 C 3476.23 4.20027 -4.08623 0
M  V30 19787 N 3476.28 2.76189 -3.71603 0
M  V30 19788 H 3473.44 4.797 -7.24003 0
M  V30 19789 H 3473.17 3.69856 -5.84513 0
M  V30 19790 H 3474.04 6.10356 -5.41441 0
M  V30 19791 P 3478 7.20834 -5.23717 0
M  V30 19792 O 3478.22 8.66104 -5.38572 0
M  V30 19793 O 3478.79 6.33544 -6.1349 0
M  V30 19794 O 3478.25 6.7751 -3.72168 0
M  V30 19795 C 3477.31 7.20825 -2.7076 0
M  V30 19796 C 3478.04 7.45864 -1.40599 0
M  V30 19797 O 3478.25 6.17651 -0.734225 0
M  V30 19798 C 3479.44 8.05808 -1.51899 0
M  V30 19799 O 3479.83 8.74358 -0.335205 0
M  V30 19800 C 3480.32 6.83093 -1.70294 0
M  V30 19801 C 3479.61 5.79992 -0.836974 0
M  V30 19802 N 3479.66 4.41864 -1.38293 0
M  V30 19803 H 3476.82 8.13644 -3.0377 0
M  V30 19804 H 3476.55 6.42788 -2.55485 0
M  V30 19805 H 3477.42 8.12039 -0.792769 0
M  V30 19806 P 3481.38 8.91 -1.2716e-10 0
M  V30 19807 O 3481.6 10.1736 0.733766 0
M  V30 19808 O 3482.17 8.73247 -1.2395 0
M  V30 19809 O 3481.63 7.66872 0.971405 0
M  V30 19810 C 3480.69 7.42212 2.04614 0
M  V30 19811 C 3481.42 6.86059 3.24661 0
M  V30 19812 O 3481.63 5.42847 3.03646 0
M  V30 19813 C 3482.82 7.41196 3.50753 0
M  V30 19814 O 3483.21 7.27073 4.86816 0
M  V30 19815 C 3483.7 6.5273 2.63741 0
M  V30 19816 C 3482.99 5.1842 2.73198 0
M  V30 19817 N 3483.04 4.38668 1.47808 0
M  V30 19818 C 3483.19 3.02239 1.60048 0
M  V30 19819 O 3483.28 2.46459 2.67869 0
M  V30 19820 N 3483.23 2.32436 0.408571 0
M  V30 19821 C 3483.14 2.85471 -0.854993 0
M  V30 19822 O 3483.19 2.12566 -1.8531 0
M  V30 19823 C 3482.99 4.28918 -0.887335 0
M  V30 19824 C 3482.88 4.91066 -2.24619 0
M  V30 19825 C 3482.94 5.00349 0.255399 0
M  V30 19826 H 3480.2 8.36803 2.32493 0
M  V30 19827 H 3479.93 6.701 1.71105 0
M  V30 19828 H 3480.8 7.03551 4.13168 0
M  V30 19829 H 3483.45 4.59773 3.53894 0
M  V30 19830 H 3483.73 6.88995 1.59871 0
M  V30 19831 H 3484.72 6.46749 3.03687 0
M  V30 19832 H 3482.89 8.46908 3.20714 0
M  V30 19833 H 3482.82 6.08548 0.206986 0
M  V30 19834 H 3483.85 5.34836 -2.53099 0
M  V30 19835 H 3482.11 5.69638 -2.2291 0
M  V30 19836 H 3482.6 4.13971 -2.98044 0
M  V30 19837 H 3483.34 1.33211 0.474216 0
M  V30 19838 P 3484.76 7.20834 5.23717 0
M  V30 19839 O 3484.98 7.79853 6.57286 0
M  V30 19840 O 3485.55 7.79239 4.12957 0
M  V30 19841 O 3485.01 5.63315 5.29344 0
M  V30 19842 C 3484.07 4.80255 6.01876 0
M  V30 19843 C 3484.8 3.64202 6.65911 0
M  V30 19844 O 3485.01 2.60694 5.64732 0
M  V30 19845 C 3486.2 3.93473 7.1943 0
M  V30 19846 O 3486.59 3.02071 8.21205 0
M  V30 19847 C 3487.08 3.73047 5.97036 0
M  V30 19848 C 3486.37 2.58828 5.25741 0
M  V30 19849 N 3486.42 2.68068 3.77503 0
M  V30 19850 H 3483.58 5.40332 6.79951 0
M  V30 19851 H 3483.31 4.41613 5.32378 0
M  V30 19852 H 3484.18 3.26331 7.47797 0
M  V30 19853 P 3488.14 2.75334 8.47391 0
M  V30 19854 O 3488.36 2.44619 9.90336 0
M  V30 19855 O 3488.93 3.87776 7.92294 0
M  V30 19856 O 3488.39 1.4459 7.59357 0
M  V30 19857 C 3487.45 0.347653 7.69315 0
M  V30 19858 C 3488.18 -0.96767 7.52806 0
M  V30 19859 O 3488.39 -1.21055 6.10208 0
M  V30 19860 C 3489.58 -1.04557 8.13408 0
M  V30 19861 O 3489.97 -2.38311 8.41922 0
M  V30 19862 C 3490.46 -0.491279 7.02284 0
M  V30 19863 C 3489.75 -0.996264 5.77469 0
M  V30 19864 N 3489.8 -0.0501916 4.62973 0
M  V30 19865 C 3489.72 1.31969 4.65661 0
M  V30 19866 N 3489.79 1.86649 3.48119 0
M  V30 19867 C 3489.94 0.792089 2.62406 0
M  V30 19868 C 3490.07 0.705684 1.2207 0
M  V30 19869 N 3490.08 1.76207 0.413762 0
M  V30 19870 N 3490.19 -0.518981 0.685754 0
M  V30 19871 C 3490.18 -1.57595 1.49174 0
M  V30 19872 N 3490.06 -1.62909 2.80066 0
M  V30 19873 C 3489.94 -0.388195 3.3073 0
M  V30 19874 H 3486.96 0.374765 8.67791 0
M  V30 19875 H 3486.69 0.443613 6.90476 0
M  V30 19876 H 3487.56 -1.75559 7.96891 0
M  V30 19877 H 3490.21 -1.94563 5.46818 0
M  V30 19878 H 3490.49 0.608651 7.04676 0
M  V30 19879 H 3491.48 -0.889796 7.09039 0
M  V30 19880 H 3489.65 -0.433128 9.04664 0
M  V30 19881 H 3489.61 1.89246 5.57664 0
M  V30 19882 H 3489.99 2.71005 0.804694 0
M  V30 19883 H 3490.18 1.63189 -0.603768 0
M  V30 19884 H 3490.29 -2.53475 0.997614 0
M  V30 19885 P 3491.52 -2.75334 8.47391 0
M  V30 19886 O 3491.74 -3.84128 9.44797 0
M  V30 19887 O 3492.31 -1.51947 8.68712 0
M  V30 19888 O 3491.77 -3.29363 6.99321 0
M  V30 19889 C 3490.83 -4.24011 6.4274 0
M  V30 19890 C 3491.56 -5.20775 5.52155 0
M  V30 19891 O 3491.77 -4.56534 4.22446 0
M  V30 19892 C 3492.96 -5.62629 5.96531 0
M  V30 19893 O 3493.35 -6.87667 5.41053 0
M  V30 19894 C 3493.84 -4.52537 5.39283 0
M  V30 19895 C 3493.13 -4.20027 4.08623 0
M  V30 19896 N 3493.18 -2.76189 3.71603 0
M  V30 19897 H 3490.34 -4.797 7.24003 0
M  V30 19898 H 3490.07 -3.69856 5.84513 0
M  V30 19899 H 3490.94 -6.10356 5.41441 0
M  V30 19900 P 3494.9 -7.20834 5.23717 0
M  V30 19901 O 3495.12 -8.66189 5.38625 0
M  V30 19902 O 3495.69 -6.33615 6.1356 0
M  V30 19903 O 3495.15 -6.7751 3.72168 0
M  V30 19904 C 3494.21 -7.20732 2.70725 0
M  V30 19905 C 3494.94 -7.45864 1.40599 0
M  V30 19906 O 3495.15 -6.17651 0.734225 0
M  V30 19907 C 3496.34 -8.05808 1.51899 0
M  V30 19908 O 3496.73 -8.74358 0.335205 0
M  V30 19909 C 3497.22 -6.83093 1.70294 0
M  V30 19910 C 3496.51 -5.79992 0.836974 0
M  V30 19911 N 3496.56 -4.41769 1.38263 0
M  V30 19912 C 3496.71 -3.38591 0.481702 0
M  V30 19913 O 3496.8 -3.56839 -0.718452 0
M  V30 19914 N 3496.75 -2.1206 1.03569 0
M  V30 19915 C 3496.66 -1.80696 2.36966 0
M  V30 19916 C 3496.51 -2.94845 3.23898 0
M  V30 19917 C 3496.46 -4.19803 2.73435 0
M  V30 19918 H 3493.72 -8.13644 3.0377 0
M  V30 19919 H 3493.45 -6.42695 2.55448 0
M  V30 19920 H 3494.32 -8.12039 0.792769 0
M  V30 19921 H 3496.97 -5.79978 -0.160587 0
M  V30 19922 H 3497.25 -6.51379 2.75643 0
M  V30 19923 H 3498.24 -7.01734 1.34462 0
M  V30 19924 H 3496.41 -8.73674 2.38337 0
M  V30 19925 H 3496.34 -5.04492 3.4095 0
M  V30 19926 P 3498.28 -8.91 1.28269e-10 0
M  V30 19927 O 3498.5 -10.1746 -0.733838 0
M  V30 19928 O 3499.07 -8.73346 1.23964 0
M  V30 19929 O 3498.53 -7.66872 -0.971405 0
M  V30 19930 C 3497.59 -7.42405 -2.04668 0
M  V30 19931 C 3498.32 -6.86059 -3.24661 0
M  V30 19932 O 3498.53 -5.42934 -3.03695 0
M  V30 19933 C 3499.72 -7.41287 -3.50796 0
M  V30 19934 O 3500.11 -7.27073 -4.86816 0
M  V30 19935 C 3500.6 -6.5273 -2.63741 0
M  V30 19936 C 3499.89 -5.1842 -2.73198 0
M  V30 19937 N 3499.94 -4.38762 -1.4784 0
M  V30 19938 H 3497.1 -8.36899 -2.3252 0
M  V30 19939 H 3496.83 -6.70391 -1.71179 0
M  V30 19940 H 3497.7 -7.03638 -4.13219 0
M  V30 19941 H 3500.35 -4.59931 -3.54016 0
M  V30 19942 H 3500.63 -6.88995 -1.59871 0
M  V30 19943 H 3501.62 -6.4684 -3.0373 0
M  V30 19944 H 3499.79 -8.47002 -3.20749 0
M  V30 19945 P 3501.66 -7.20834 -5.23717 0
M  V30 19946 O 3501.88 -7.80006 -6.57415 0
M  V30 19947 O 3502.45 -7.79416 -4.13051 0
M  V30 19948 O 3501.91 -5.63315 -5.29344 0
M  V30 19949 C 3500.97 -4.80318 -6.01954 0
M  V30 19950 C 3501.7 -3.64202 -6.65911 0
M  V30 19951 O 3501.91 -2.60736 -5.64823 0
M  V30 19952 C 3503.1 -3.93521 -7.19518 0
M  V30 19953 O 3503.49 -3.02071 -8.21205 0
M  V30 19954 C 3503.98 -3.73047 -5.97036 0
M  V30 19955 C 3503.27 -2.58828 -5.25741 0
M  V30 19956 N 3503.32 -2.68068 -3.77503 0
M  V30 19957 C 3503.24 -3.80474 -2.99159 0
M  V30 19958 N 3503.31 -3.55622 -1.71925 0
M  V30 19959 C 3503.46 -2.1832 -1.65733 0
M  V30 19960 C 3503.59 -1.28842 -0.572777 0
M  V30 19961 N 3503.6 -1.66875 0.70098 0
M  V30 19962 N 3503.71 0.016788 -0.859836 0
M  V30 19963 C 3503.7 0.398145 -2.13316 0
M  V30 19964 N 3503.58 -0.328224 -3.22333 0
M  V30 19965 C 3503.46 -1.62992 -2.90383 0
M  V30 19966 H 3500.48 -5.40394 -6.8003 0
M  V30 19967 H 3500.21 -4.41741 -5.32532 0
M  V30 19968 H 3501.08 -3.26371 -7.47889 0
M  V30 19969 H 3503.73 -1.64007 -5.56746 0
M  V30 19970 H 3504.01 -4.63439 -5.3432 0
M  V30 19971 H 3505 -3.44776 -6.25925 0
M  V30 19972 H 3503.17 -4.96707 -7.57347 0
M  V30 19973 H 3503.13 -4.8089 -3.39924 0
M  V30 19974 H 3503.51 -2.66547 0.941919 0
M  V30 19975 H 3503.7 -0.965341 1.44766 0
M  V30 19976 H 3503.81 1.46427 -2.29697 0
M  V30 19977 P 3505.04 -2.75334 -8.47391 0
M  V30 19978 O 3505.26 -2.44571 -9.90142 0
M  V30 19979 O 3505.83 -3.87688 -7.92115 0
M  V30 19980 O 3505.29 -1.4459 -7.59357 0
M  V30 19981 C 3504.35 -0.347608 -7.69215 0
M  V30 19982 C 3505.08 0.96767 -7.52806 0
M  V30 19983 O 3505.29 1.21036 -6.1011 0
M  V30 19984 C 3506.48 1.04544 -8.13308 0
M  V30 19985 O 3506.87 2.38311 -8.41922 0
M  V30 19986 C 3507.36 0.491279 -7.02284 0
M  V30 19987 C 3506.65 0.996264 -5.77469 0
M  V30 19988 N 3506.7 0.0501916 -4.62973 0
M  V30 19989 H 3503.86 -0.374722 -8.67691 0
M  V30 19990 H 3503.59 -0.443485 -6.90277 0
M  V30 19991 H 3504.46 1.75537 -7.96793 0
M  V30 19992 P 3508.42 2.75334 -8.47391 0
M  V30 19993 O 3508.64 3.84128 -9.44797 0
M  V30 19994 O 3509.21 1.51947 -8.68712 0
M  V30 19995 O 3508.67 3.29363 -6.99321 0
M  V30 19996 C 3507.73 4.24011 -6.4274 0
M  V30 19997 C 3508.46 5.20775 -5.52155 0
M  V30 19998 O 3508.67 4.56534 -4.22446 0
M  V30 19999 C 3509.86 5.62629 -5.96531 0
M  V30 20000 O 3510.25 6.87667 -5.41053 0
M  V30 20001 C 3510.74 4.52537 -5.39283 0
M  V30 20002 C 3510.03 4.20027 -4.08623 0
M  V30 20003 N 3510.08 2.76189 -3.71603 0
M  V30 20004 H 3507.24 4.797 -7.24003 0
M  V30 20005 H 3506.97 3.69856 -5.84513 0
M  V30 20006 H 3507.84 6.10356 -5.41441 0
M  V30 20007 P 3511.8 7.20834 -5.23717 0
M  V30 20008 O 3512.02 8.66104 -5.38572 0
M  V30 20009 O 3512.59 6.33544 -6.1349 0
M  V30 20010 O 3512.05 6.7751 -3.72168 0
M  V30 20011 C 3511.11 7.20825 -2.7076 0
M  V30 20012 C 3511.84 7.45864 -1.40599 0
M  V30 20013 O 3512.05 6.17651 -0.734225 0
M  V30 20014 C 3513.24 8.05808 -1.51899 0
M  V30 20015 O 3513.63 8.74358 -0.335205 0
M  V30 20016 C 3514.12 6.83093 -1.70294 0
M  V30 20017 C 3513.41 5.79992 -0.836974 0
M  V30 20018 N 3513.46 4.41864 -1.38293 0
M  V30 20019 H 3510.62 8.13644 -3.0377 0
M  V30 20020 H 3510.35 6.42788 -2.55485 0
M  V30 20021 H 3511.22 8.12039 -0.792769 0
M  V30 20022 P 3515.18 8.91 -1.29378e-10 0
M  V30 20023 O 3515.4 10.1726 0.733694 0
M  V30 20024 O 3515.97 8.73148 -1.23936 0
M  V30 20025 O 3515.43 7.66872 0.971405 0
M  V30 20026 C 3514.49 7.42309 2.04641 0
M  V30 20027 C 3515.22 6.86059 3.24661 0
M  V30 20028 O 3515.43 5.42847 3.03646 0
M  V30 20029 C 3516.62 7.41196 3.50753 0
M  V30 20030 O 3517.01 7.27073 4.86816 0
M  V30 20031 C 3517.5 6.5273 2.63741 0
M  V30 20032 C 3516.79 5.1842 2.73198 0
M  V30 20033 N 3516.84 4.38762 1.4784 0
M  V30 20034 H 3514 8.36803 2.32493 0
M  V30 20035 H 3513.73 6.70197 1.71129 0
M  V30 20036 H 3514.6 7.03551 4.13168 0
M  V30 20037 P 3518.56 7.20834 5.23717 0
M  V30 20038 O 3518.78 7.79853 6.57286 0
M  V30 20039 O 3519.35 7.79239 4.12957 0
M  V30 20040 O 3518.81 5.63315 5.29344 0
M  V30 20041 C 3517.87 4.80255 6.01876 0
M  V30 20042 C 3518.6 3.64202 6.65911 0
M  V30 20043 O 3518.81 2.60694 5.64732 0
M  V30 20044 C 3520 3.93473 7.1943 0
M  V30 20045 O 3520.39 3.02071 8.21205 0
M  V30 20046 C 3520.88 3.73047 5.97036 0
M  V30 20047 C 3520.17 2.58828 5.25741 0
M  V30 20048 N 3520.22 2.68068 3.77503 0
M  V30 20049 H 3517.38 5.40332 6.79951 0
M  V30 20050 H 3517.11 4.41613 5.32378 0
M  V30 20051 H 3517.98 3.26331 7.47797 0
M  V30 20052 P 3521.94 2.75334 8.47391 0
M  V30 20053 O 3522.16 2.44595 9.90239 0
M  V30 20054 O 3522.73 3.87732 7.92204 0
M  V30 20055 O 3522.19 1.4459 7.59357 0
M  V30 20056 C 3521.25 0.347563 7.69115 0
M  V30 20057 C 3521.98 -0.96767 7.52806 0
M  V30 20058 O 3522.19 -1.21036 6.1011 0
M  V30 20059 C 3523.38 -1.04544 8.13308 0
M  V30 20060 O 3523.77 -2.38311 8.41922 0
M  V30 20061 C 3524.26 -0.491279 7.02284 0
M  V30 20062 C 3523.55 -0.996264 5.77469 0
M  V30 20063 N 3523.6 -0.0501808 4.62873 0
M  V30 20064 C 3523.75 -0.588177 3.36904 0
M  V30 20065 O 3523.84 -1.78598 3.17173 0
M  V30 20066 N 3523.79 0.329694 2.33686 0
M  V30 20067 C 3523.7 1.6953 2.45079 0
M  V30 20068 C 3523.55 2.16933 3.80505 0
M  V30 20069 C 3523.5 1.30326 4.83752 0
M  V30 20070 H 3520.76 0.374722 8.67691 0
M  V30 20071 H 3520.49 0.443421 6.90177 0
M  V30 20072 H 3521.36 -1.75537 7.96793 0
M  V30 20073 H 3524.01 -1.94496 5.46629 0
M  V30 20074 H 3524.29 0.608651 7.04676 0
M  V30 20075 H 3525.28 -0.889672 7.08939 0
M  V30 20076 H 3523.45 -0.43308 9.04564 0
M  V30 20077 H 3523.38 1.68366 5.8516 0
M  V30 20078 P 3525.32 -2.75334 8.47391 0
M  V30 20079 O 3525.54 -3.84204 9.44982 0
M  V30 20080 O 3526.11 -1.51982 8.68909 0
M  V30 20081 O 3525.57 -3.29363 6.99321 0
M  V30 20082 C 3524.63 -4.24066 6.42823 0
M  V30 20083 C 3525.36 -5.20775 5.52155 0
M  V30 20084 O 3525.57 -4.56607 4.22514 0
M  V30 20085 C 3526.76 -5.62697 5.96604 0
M  V30 20086 O 3527.15 -6.87667 5.41053 0
M  V30 20087 C 3527.64 -4.52537 5.39283 0
M  V30 20088 C 3526.93 -4.20027 4.08623 0
M  V30 20089 N 3526.98 -2.76189 3.71603 0
M  V30 20090 H 3524.14 -4.79756 7.24086 0
M  V30 20091 H 3523.87 -3.69963 5.84682 0
M  V30 20092 H 3524.74 -6.10431 5.41508 0
M  V30 20093 H 3527.39 -4.78816 3.28024 0
M  V30 20094 H 3527.67 -3.64957 6.05871 0
M  V30 20095 H 3528.66 -4.88748 5.21323 0
M  V30 20096 H 3526.83 -5.66789 7.0643 0
M  V30 20097 P 3528.7 -7.20834 5.23717 0
M  V30 20098 O 3528.92 -8.66104 5.38572 0
M  V30 20099 O 3529.49 -6.33544 6.1349 0
M  V30 20100 O 3528.95 -6.7751 3.72168 0
M  V30 20101 C 3528.01 -7.20825 2.7076 0
M  V30 20102 C 3528.74 -7.45864 1.40599 0
M  V30 20103 O 3528.95 -6.17651 0.734225 0
M  V30 20104 C 3530.14 -8.05808 1.51899 0
M  V30 20105 O 3530.53 -8.74358 0.335205 0
M  V30 20106 C 3531.02 -6.83093 1.70294 0
M  V30 20107 C 3530.31 -5.79992 0.836974 0
M  V30 20108 N 3530.36 -4.41864 1.38293 0
M  V30 20109 H 3527.52 -8.13644 3.0377 0
M  V30 20110 H 3527.25 -6.42788 2.55485 0
M  V30 20111 H 3528.12 -8.12039 0.792769 0
M  V30 20112 P 3532.08 -8.91 1.30487e-10 0
M  V30 20113 O 3532.3 -10.1726 -0.733694 0
M  V30 20114 O 3532.87 -8.73148 1.23936 0
M  V30 20115 O 3532.33 -7.66872 -0.971405 0
M  V30 20116 C 3531.39 -7.42309 -2.04641 0
M  V30 20117 C 3532.12 -6.86059 -3.24661 0
M  V30 20118 O 3532.33 -5.42847 -3.03646 0
M  V30 20119 C 3533.52 -7.41196 -3.50753 0
M  V30 20120 O 3533.91 -7.27073 -4.86816 0
M  V30 20121 C 3534.4 -6.5273 -2.63741 0
M  V30 20122 C 3533.69 -5.1842 -2.73198 0
M  V30 20123 N 3533.74 -4.38762 -1.4784 0
M  V30 20124 H 3530.9 -8.36803 -2.32493 0
M  V30 20125 H 3530.63 -6.70197 -1.71129 0
M  V30 20126 H 3531.5 -7.03551 -4.13168 0
M  V30 20127 P 3535.46 -7.20834 -5.23717 0
M  V30 20128 O 3535.68 -7.79853 -6.57286 0
M  V30 20129 O 3536.25 -7.79239 -4.12957 0
M  V30 20130 O 3535.71 -5.63315 -5.29344 0
M  V30 20131 C 3534.77 -4.80255 -6.01876 0
M  V30 20132 C 3535.5 -3.64202 -6.65911 0
M  V30 20133 O 3535.71 -2.60694 -5.64732 0
M  V30 20134 C 3536.9 -3.93473 -7.1943 0
M  V30 20135 O 3537.29 -3.02071 -8.21205 0
M  V30 20136 C 3537.78 -3.73047 -5.97036 0
M  V30 20137 C 3537.07 -2.58828 -5.25741 0
M  V30 20138 N 3537.12 -2.68068 -3.77503 0
M  V30 20139 H 3534.28 -5.40332 -6.79951 0
M  V30 20140 H 3534.01 -4.41613 -5.32378 0
M  V30 20141 H 3534.88 -3.26331 -7.47797 0
M  V30 20142 P 3538.84 -2.75334 -8.47391 0
M  V30 20143 O 3539.06 -2.44571 -9.90142 0
M  V30 20144 O 3539.63 -3.87688 -7.92115 0
M  V30 20145 O 3539.09 -1.4459 -7.59357 0
M  V30 20146 C 3538.15 -0.347608 -7.69215 0
M  V30 20147 C 3538.88 0.96767 -7.52806 0
M  V30 20148 O 3539.09 1.21036 -6.1011 0
M  V30 20149 C 3540.28 1.04544 -8.13308 0
M  V30 20150 O 3540.67 2.38311 -8.41922 0
M  V30 20151 C 3541.16 0.491279 -7.02284 0
M  V30 20152 C 3540.45 0.996264 -5.77469 0
M  V30 20153 N 3540.5 0.0501916 -4.62973 0
M  V30 20154 H 3537.66 -0.374722 -8.67691 0
M  V30 20155 H 3537.39 -0.443485 -6.90277 0
M  V30 20156 H 3538.26 1.75537 -7.96793 0
M  V30 20157 P 3542.22 2.75334 -8.47391 0
M  V30 20158 O 3542.44 3.84204 -9.44982 0
M  V30 20159 O 3543.01 1.51982 -8.68909 0
M  V30 20160 O 3542.47 3.29363 -6.99321 0
M  V30 20161 C 3541.53 4.24066 -6.42823 0
M  V30 20162 C 3542.26 5.20775 -5.52155 0
M  V30 20163 O 3542.47 4.56607 -4.22514 0
M  V30 20164 C 3543.66 5.62697 -5.96604 0
M  V30 20165 O 3544.05 6.87667 -5.41053 0
M  V30 20166 C 3544.54 4.52537 -5.39283 0
M  V30 20167 C 3543.83 4.20027 -4.08623 0
M  V30 20168 N 3543.88 2.76189 -3.71603 0
M  V30 20169 C 3543.8 1.66944 -4.54297 0
M  V30 20170 N 3543.87 0.536169 -3.91344 0
M  V30 20171 C 3544.02 0.901569 -2.58849 0
M  V30 20172 C 3544.15 0.146599 -1.40236 0
M  V30 20173 N 3544.16 -1.18234 -1.37046 0
M  V30 20174 N 3544.27 0.822941 -0.249738 0
M  V30 20175 C 3544.26 2.15179 -0.280525 0
M  V30 20176 N 3544.14 2.96414 -1.30822 0
M  V30 20177 C 3544.02 2.25804 -2.44748 0
M  V30 20178 H 3541.04 4.79756 -7.24086 0
M  V30 20179 H 3540.77 3.69963 -5.84682 0
M  V30 20180 H 3541.64 6.10431 -5.41508 0
M  V30 20181 H 3544.29 4.78816 -3.28024 0
M  V30 20182 H 3544.57 3.64957 -6.05871 0
M  V30 20183 H 3545.56 4.88748 -5.21323 0
M  V30 20184 H 3543.73 5.66789 -7.0643 0
M  V30 20185 H 3543.69 1.74684 -5.62396 0
M  V30 20186 H 3544.07 -1.71949 -2.24394 0
M  V30 20187 H 3544.26 -1.67511 -0.470742 0
M  V30 20188 H 3544.37 2.63704 0.6828 0
M  V30 20189 P 3545.6 7.20834 -5.23717 0
M  V30 20190 O 3545.82 8.66104 -5.38572 0
M  V30 20191 O 3546.39 6.33544 -6.1349 0
M  V30 20192 O 3545.85 6.7751 -3.72168 0
M  V30 20193 C 3544.91 7.20825 -2.7076 0
M  V30 20194 C 3545.64 7.45864 -1.40599 0
M  V30 20195 O 3545.85 6.17651 -0.734225 0
M  V30 20196 C 3547.04 8.05808 -1.51899 0
M  V30 20197 O 3547.43 8.74358 -0.335205 0
M  V30 20198 C 3547.92 6.83093 -1.70294 0
M  V30 20199 C 3547.21 5.79992 -0.836974 0
M  V30 20200 N 3547.26 4.41864 -1.38293 0
M  V30 20201 H 3544.42 8.13644 -3.0377 0
M  V30 20202 H 3544.15 6.42788 -2.55485 0
M  V30 20203 H 3545.02 8.12039 -0.792769 0
M  V30 20204 P 3548.98 8.91 -1.31596e-10 0
M  V30 20205 O 3549.2 10.1726 0.733694 0
M  V30 20206 O 3549.77 8.73148 -1.23936 0
M  V30 20207 O 3549.23 7.66872 0.971405 0
M  V30 20208 C 3548.29 7.42309 2.04641 0
M  V30 20209 C 3549.02 6.86059 3.24661 0
M  V30 20210 O 3549.23 5.42847 3.03646 0
M  V30 20211 C 3550.42 7.41196 3.50753 0
M  V30 20212 O 3550.81 7.27073 4.86816 0
M  V30 20213 C 3551.3 6.5273 2.63741 0
M  V30 20214 C 3550.59 5.1842 2.73198 0
M  V30 20215 N 3550.64 4.38762 1.4784 0
M  V30 20216 H 3547.8 8.36803 2.32493 0
M  V30 20217 H 3547.53 6.70197 1.71129 0
M  V30 20218 H 3548.4 7.03551 4.13168 0
M  V30 20219 P 3552.36 7.20834 5.23717 0
M  V30 20220 O 3552.58 7.79853 6.57286 0
M  V30 20221 O 3553.15 7.79239 4.12957 0
M  V30 20222 O 3552.61 5.63315 5.29344 0
M  V30 20223 C 3551.67 4.80255 6.01876 0
M  V30 20224 C 3552.4 3.64202 6.65911 0
M  V30 20225 O 3552.61 2.60694 5.64732 0
M  V30 20226 C 3553.8 3.93473 7.1943 0
M  V30 20227 O 3554.19 3.02071 8.21205 0
M  V30 20228 C 3554.68 3.73047 5.97036 0
M  V30 20229 C 3553.97 2.58828 5.25741 0
M  V30 20230 N 3554.02 2.68068 3.77503 0
M  V30 20231 H 3551.18 5.40332 6.79951 0
M  V30 20232 H 3550.91 4.41613 5.32378 0
M  V30 20233 H 3551.78 3.26331 7.47797 0
M  V30 20234 P 3555.74 2.75334 8.47391 0
M  V30 20235 O 3555.96 2.44571 9.90142 0
M  V30 20236 O 3556.53 3.87688 7.92115 0
M  V30 20237 O 3555.99 1.4459 7.59357 0
M  V30 20238 C 3555.05 0.347608 7.69215 0
M  V30 20239 C 3555.78 -0.96767 7.52806 0
M  V30 20240 O 3555.99 -1.21036 6.1011 0
M  V30 20241 C 3557.18 -1.04544 8.13308 0
M  V30 20242 O 3557.57 -2.38311 8.41922 0
M  V30 20243 C 3558.06 -0.491279 7.02284 0
M  V30 20244 C 3557.35 -0.996264 5.77469 0
M  V30 20245 N 3557.4 -0.0501916 4.62973 0
M  V30 20246 H 3554.56 0.374722 8.67691 0
M  V30 20247 H 3554.29 0.443485 6.90277 0
M  V30 20248 H 3555.16 -1.75537 7.96793 0
M  V30 20249 P 3559.12 -2.75334 8.47391 0
M  V30 20250 O 3559.34 -3.84128 9.44797 0
M  V30 20251 O 3559.91 -1.51947 8.68712 0
M  V30 20252 O 3559.37 -3.29363 6.99321 0
M  V30 20253 C 3558.43 -4.24011 6.4274 0
M  V30 20254 C 3559.16 -5.20775 5.52155 0
M  V30 20255 O 3559.37 -4.56534 4.22446 0
M  V30 20256 C 3560.56 -5.62629 5.96531 0
M  V30 20257 O 3560.95 -6.87667 5.41053 0
M  V30 20258 C 3561.44 -4.52537 5.39283 0
M  V30 20259 C 3560.73 -4.20027 4.08623 0
M  V30 20260 N 3560.78 -2.76189 3.71603 0
M  V30 20261 H 3557.94 -4.797 7.24003 0
M  V30 20262 H 3557.67 -3.69856 5.84513 0
M  V30 20263 H 3558.54 -6.10356 5.41441 0
M  V30 20264 P 3562.5 -7.20834 5.23717 0
M  V30 20265 O 3562.72 -8.66274 5.38678 0
M  V30 20266 O 3563.29 -6.33687 6.13629 0
M  V30 20267 O 3562.75 -6.7751 3.72168 0
M  V30 20268 C 3561.81 -7.20919 2.70795 0
M  V30 20269 C 3562.54 -7.45864 1.40599 0
M  V30 20270 O 3562.75 -6.17751 0.734343 0
M  V30 20271 C 3563.94 -8.05906 1.51917 0
M  V30 20272 O 3564.33 -8.74358 0.335205 0
M  V30 20273 C 3564.82 -6.83093 1.70294 0
M  V30 20274 C 3564.11 -5.79992 0.836974 0
M  V30 20275 N 3564.16 -4.41864 1.38293 0
M  V30 20276 C 3564.08 -4.02089 2.69407 0
M  V30 20277 N 3564.15 -2.73403 2.85089 0
M  V30 20278 C 3564.3 -2.25086 1.5642 0
M  V30 20279 C 3564.43 -0.942887 1.04836 0
M  V30 20280 N 3564.44 0.150999 1.80369 0
M  V30 20281 N 3564.55 -0.812565 -0.28167 0
M  V30 20282 C 3564.54 -1.90572 -1.03784 0
M  V30 20283 N 3564.42 -3.167 -0.683905 0
M  V30 20284 C 3564.3 -3.26538 0.652815 0
M  V30 20285 H 3561.32 -8.13738 3.03804 0
M  V30 20286 H 3561.05 -6.42974 2.55559 0
M  V30 20287 H 3561.92 -8.12139 0.792866 0
M  V30 20288 H 3564.57 -5.80178 -0.160643 0
M  V30 20289 H 3564.85 -6.51379 2.75643 0
M  V30 20290 H 3565.84 -7.01832 1.3448 0
M  V30 20291 H 3564.01 -8.73771 2.38364 0
M  V30 20292 H 3563.97 -4.7189 3.52311 0
M  V30 20293 H 3564.35 0.0721434 2.82608 0
M  V30 20294 H 3564.54 1.0785 1.36544 0
M  V30 20295 H 3564.65 -1.73207 -2.10241 0
M  V30 20296 P 3565.88 -8.91 1.32705e-10 0
M  V30 20297 O 3566.1 -10.1726 -0.733694 0
M  V30 20298 O 3566.67 -8.73148 1.23936 0
M  V30 20299 O 3566.13 -7.66872 -0.971405 0
M  V30 20300 C 3565.19 -7.42309 -2.04641 0
M  V30 20301 C 3565.92 -6.86059 -3.24661 0
M  V30 20302 O 3566.13 -5.42847 -3.03646 0
M  V30 20303 C 3567.32 -7.41196 -3.50753 0
M  V30 20304 O 3567.71 -7.27073 -4.86816 0
M  V30 20305 C 3568.2 -6.5273 -2.63741 0
M  V30 20306 C 3567.49 -5.1842 -2.73198 0
M  V30 20307 N 3567.54 -4.38762 -1.4784 0
M  V30 20308 H 3564.7 -8.36803 -2.32493 0
M  V30 20309 H 3564.43 -6.70197 -1.71129 0
M  V30 20310 H 3565.3 -7.03551 -4.13168 0
M  V30 20311 P 3569.26 -7.20834 -5.23717 0
M  V30 20312 O 3569.48 -7.79853 -6.57286 0
M  V30 20313 O 3570.05 -7.79239 -4.12957 0
M  V30 20314 O 3569.51 -5.63315 -5.29344 0
M  V30 20315 C 3568.57 -4.80255 -6.01876 0
M  V30 20316 C 3569.3 -3.64202 -6.65911 0
M  V30 20317 O 3569.51 -2.60694 -5.64732 0
M  V30 20318 C 3570.7 -3.93473 -7.1943 0
M  V30 20319 O 3571.09 -3.02071 -8.21205 0
M  V30 20320 C 3571.58 -3.73047 -5.97036 0
M  V30 20321 C 3570.87 -2.58828 -5.25741 0
M  V30 20322 N 3570.92 -2.68068 -3.77503 0
M  V30 20323 H 3568.08 -5.40332 -6.79951 0
M  V30 20324 H 3567.81 -4.41613 -5.32378 0
M  V30 20325 H 3568.68 -3.26331 -7.47797 0
M  V30 20326 P 3572.64 -2.75334 -8.47391 0
M  V30 20327 O 3572.86 -2.44571 -9.90142 0
M  V30 20328 O 3573.43 -3.87688 -7.92115 0
M  V30 20329 O 3572.89 -1.4459 -7.59357 0
M  V30 20330 C 3571.95 -0.347608 -7.69215 0
M  V30 20331 C 3572.68 0.96767 -7.52806 0
M  V30 20332 O 3572.89 1.21036 -6.1011 0
M  V30 20333 C 3574.08 1.04544 -8.13308 0
M  V30 20334 O 3574.47 2.38311 -8.41922 0
M  V30 20335 C 3574.96 0.491279 -7.02284 0
M  V30 20336 C 3574.25 0.996264 -5.77469 0
M  V30 20337 N 3574.3 0.0501916 -4.62973 0
M  V30 20338 C 3574.22 -1.32786 -4.63244 0
M  V30 20339 N 3574.3 -1.86957 -3.44545 0
M  V30 20340 C 3574.44 -0.780241 -2.58481 0
M  V30 20341 C 3574.57 -0.738536 -1.17757 0
M  V30 20342 O 3574.59 -1.66794 -0.372349 0
M  V30 20343 N 3574.69 0.58337 -0.711393 0
M  V30 20344 C 3574.69 1.70816 -1.51017 0
M  V30 20345 N 3574.82 2.87826 -0.880757 0
M  V30 20346 N 3574.56 1.67126 -2.8339 0
M  V30 20347 C 3574.44 0.401421 -3.30572 0
M  V30 20348 H 3571.46 -0.374722 -8.67691 0
M  V30 20349 H 3571.19 -0.443485 -6.90277 0
M  V30 20350 H 3572.06 1.75537 -7.96793 0
M  V30 20351 H 3574.71 1.95076 -5.46529 0
M  V30 20352 H 3574.99 -0.608565 -7.04577 0
M  V30 20353 H 3575.98 0.889672 -7.08939 0
M  V30 20354 H 3574.15 0.43308 -9.04564 0
M  V30 20355 H 3574.1 -1.91249 -5.54442 0
M  V30 20356 H 3574.78 0.718054 0.275244 0
M  V30 20357 H 3574.82 3.75721 -1.41832 0
M  V30 20358 H 3574.92 2.90436 0.145468 0
M  V30 20359 P 3576.02 2.75334 -8.47391 0
M  V30 20360 O 3576.24 3.84128 -9.44797 0
M  V30 20361 O 3576.81 1.51947 -8.68712 0
M  V30 20362 O 3576.27 3.29363 -6.99321 0
M  V30 20363 C 3575.33 4.24011 -6.4274 0
M  V30 20364 C 3576.06 5.20775 -5.52155 0
M  V30 20365 O 3576.27 4.56534 -4.22446 0
M  V30 20366 C 3577.46 5.62629 -5.96531 0
M  V30 20367 O 3577.85 6.87667 -5.41053 0
M  V30 20368 C 3578.34 4.52537 -5.39283 0
M  V30 20369 C 3577.63 4.20027 -4.08623 0
M  V30 20370 N 3577.68 2.76189 -3.71603 0
M  V30 20371 C 3577.6 1.64862 -4.52822 0
M  V30 20372 N 3577.68 0.512671 -3.88633 0
M  V30 20373 C 3577.82 0.888083 -2.54977 0
M  V30 20374 C 3577.95 0.094668 -1.38677 0
M  V30 20375 N 3578.07 0.890102 -0.232633 0
M  V30 20376 C 3578.07 2.26958 -0.21772 0
M  V30 20377 N 3578.2 2.84626 0.97925 0
M  V30 20378 N 3577.94 3.0178 -1.31033 0
M  V30 20379 C 3577.82 2.26781 -2.43843 0
M  V30 20380 H 3574.84 4.797 -7.24003 0
M  V30 20381 H 3574.57 3.69856 -5.84513 0
M  V30 20382 H 3575.44 6.10356 -5.41441 0
M  V30 20383 P 3579.4 7.20834 -5.23717 0
M  V30 20384 O 3579.62 8.66189 -5.38625 0
M  V30 20385 O 3580.19 6.33615 -6.1356 0
M  V30 20386 O 3579.65 6.7751 -3.72168 0
M  V30 20387 C 3578.71 7.20825 -2.7076 0
M  V30 20388 C 3579.44 7.45864 -1.40599 0
M  V30 20389 O 3579.65 6.17651 -0.734225 0
M  V30 20390 C 3580.84 8.05808 -1.51899 0
M  V30 20391 O 3581.23 8.74358 -0.335205 0
M  V30 20392 C 3581.72 6.83093 -1.70294 0
M  V30 20393 C 3581.01 5.79992 -0.836974 0
M  V30 20394 N 3581.06 4.41769 -1.38263 0
M  V30 20395 C 3581.21 3.36514 -0.485617 0
M  V30 20396 O 3581.3 3.61814 0.724703 0
M  V30 20397 N 3581.26 2.00746 -1.14492 0
M  V30 20398 C 3581.16 1.85887 -2.27776 0
M  V30 20399 N 3581.21 0.600907 -2.69379 0
M  V30 20400 C 3581.01 2.92182 -3.22265 0
M  V30 20401 C 3580.96 4.18399 -2.71925 0
M  V30 20402 H 3578.22 8.1355 -3.03735 0
M  V30 20403 H 3577.95 6.42695 -2.55448 0
M  V30 20404 H 3578.82 8.12139 -0.792866 0
M  V30 20405 H 3581.47 5.80078 0.160615 0
M  V30 20406 H 3581.75 6.51379 -2.75643 0
M  V30 20407 H 3582.74 7.01734 -1.34462 0
M  V30 20408 H 3580.91 8.73674 -2.38337 0
M  V30 20409 H 3580.84 5.02669 -3.39718 0
M  V30 20410 H 3580.94 2.73001 -4.29239 0
M  V30 20411 H 3581.33 -0.162318 -2.01146 0
M  V30 20412 H 3581.13 0.387742 -3.69773 0
M  V30 20413 P 3582.78 8.91 -1.33814e-10 0
M  V30 20414 O 3583 10.1736 0.733766 0
M  V30 20415 O 3583.57 8.73247 -1.2395 0
M  V30 20416 O 3583.03 7.66872 0.971405 0
M  V30 20417 C 3582.09 7.42212 2.04614 0
M  V30 20418 C 3582.82 6.86059 3.24661 0
M  V30 20419 O 3583.03 5.42847 3.03646 0
M  V30 20420 C 3584.22 7.41196 3.50753 0
M  V30 20421 O 3584.61 7.27073 4.86816 0
M  V30 20422 C 3585.1 6.5273 2.63741 0
M  V30 20423 C 3584.39 5.1842 2.73198 0
M  V30 20424 N 3584.44 4.38668 1.47808 0
M  V30 20425 C 3584.59 3.02239 1.60048 0
M  V30 20426 O 3584.68 2.46459 2.67869 0
M  V30 20427 N 3584.63 2.32436 0.408571 0
M  V30 20428 C 3584.54 2.85471 -0.854993 0
M  V30 20429 O 3584.59 2.12566 -1.8531 0
M  V30 20430 C 3584.39 4.28918 -0.887335 0
M  V30 20431 C 3584.28 4.91066 -2.24619 0
M  V30 20432 C 3584.34 5.00349 0.255399 0
M  V30 20433 H 3581.6 8.36803 2.32493 0
M  V30 20434 H 3581.33 6.701 1.71105 0
M  V30 20435 H 3582.2 7.03551 4.13168 0
M  V30 20436 H 3584.85 4.59773 3.53894 0
M  V30 20437 H 3585.13 6.88995 1.59871 0
M  V30 20438 H 3586.12 6.46749 3.03687 0
M  V30 20439 H 3584.29 8.46908 3.20714 0
M  V30 20440 H 3584.22 6.08548 0.206986 0
M  V30 20441 H 3585.25 5.34836 -2.53099 0
M  V30 20442 H 3583.51 5.69638 -2.2291 0
M  V30 20443 H 3584 4.13971 -2.98044 0
M  V30 20444 H 3584.73 1.33211 0.474216 0
M  V30 20445 P 3586.16 7.20834 5.23717 0
M  V30 20446 O 3586.38 7.79853 6.57286 0
M  V30 20447 O 3586.95 7.79239 4.12957 0
M  V30 20448 O 3586.41 5.63315 5.29344 0
M  V30 20449 C 3585.47 4.80255 6.01876 0
M  V30 20450 C 3586.2 3.64202 6.65911 0
M  V30 20451 O 3586.41 2.60694 5.64732 0
M  V30 20452 C 3587.6 3.93473 7.1943 0
M  V30 20453 O 3587.99 3.02071 8.21205 0
M  V30 20454 C 3588.48 3.73047 5.97036 0
M  V30 20455 C 3587.77 2.58828 5.25741 0
M  V30 20456 N 3587.82 2.68068 3.77503 0
M  V30 20457 H 3584.98 5.40332 6.79951 0
M  V30 20458 H 3584.71 4.41613 5.32378 0
M  V30 20459 H 3585.58 3.26331 7.47797 0
M  V30 20460 P 3589.54 2.75334 8.47391 0
M  V30 20461 O 3589.76 2.44571 9.90142 0
M  V30 20462 O 3590.33 3.87688 7.92115 0
M  V30 20463 O 3589.79 1.4459 7.59357 0
M  V30 20464 C 3588.85 0.347608 7.69215 0
M  V30 20465 C 3589.58 -0.96767 7.52806 0
M  V30 20466 O 3589.79 -1.21036 6.1011 0
M  V30 20467 C 3590.98 -1.04544 8.13308 0
M  V30 20468 O 3591.37 -2.38311 8.41922 0
M  V30 20469 C 3591.86 -0.491279 7.02284 0
M  V30 20470 C 3591.15 -0.996264 5.77469 0
M  V30 20471 N 3591.2 -0.0501916 4.62973 0
M  V30 20472 H 3588.36 0.374722 8.67691 0
M  V30 20473 H 3588.09 0.443485 6.90277 0
M  V30 20474 H 3588.96 -1.75537 7.96793 0
M  V30 20475 P 3592.92 -2.75334 8.47391 0
M  V30 20476 O 3593.14 -3.84166 9.4489 0
M  V30 20477 O 3593.71 -1.51964 8.6881 0
M  V30 20478 O 3593.17 -3.29363 6.99321 0
M  V30 20479 C 3592.23 -4.23956 6.42656 0
M  V30 20480 C 3592.96 -5.20775 5.52155 0
M  V30 20481 O 3593.17 -4.56534 4.22446 0
M  V30 20482 C 3594.36 -5.62629 5.96531 0
M  V30 20483 O 3594.75 -6.87667 5.41053 0
M  V30 20484 C 3595.24 -4.52537 5.39283 0
M  V30 20485 C 3594.53 -4.20027 4.08623 0
M  V30 20486 N 3594.58 -2.7613 3.71522 0
M  V30 20487 C 3594.73 -2.45612 2.37989 0
M  V30 20488 O 3594.82 -3.30919 1.51621 0
M  V30 20489 N 3594.77 -1.10684 2.08435 0
M  V30 20490 C 3594.68 -0.0690084 2.9792 0
M  V30 20491 C 3594.53 -0.481522 4.35345 0
M  V30 20492 C 3594.48 -1.78906 4.67968 0
M  V30 20493 H 3591.74 -4.797 7.24003 0
M  V30 20494 H 3591.47 -3.69802 5.84429 0
M  V30 20495 H 3592.34 -6.10356 5.41441 0
M  V30 20496 H 3594.99 -4.78651 3.27911 0
M  V30 20497 H 3595.27 -3.64957 6.05871 0
M  V30 20498 H 3596.26 -4.8868 5.2125 0
M  V30 20499 H 3594.43 -5.66726 7.06352 0
M  V30 20500 H 3594.36 -2.07737 5.72367 0
M  V30 20501 P 3596.3 -7.20834 5.23717 0
M  V30 20502 O 3596.52 -8.66104 5.38572 0
M  V30 20503 O 3597.09 -6.33544 6.1349 0
M  V30 20504 O 3596.55 -6.7751 3.72168 0
M  V30 20505 C 3595.61 -7.20825 2.7076 0
M  V30 20506 C 3596.34 -7.45864 1.40599 0
M  V30 20507 O 3596.55 -6.17651 0.734225 0
M  V30 20508 C 3597.74 -8.05808 1.51899 0
M  V30 20509 O 3598.13 -8.74358 0.335205 0
M  V30 20510 C 3598.62 -6.83093 1.70294 0
M  V30 20511 C 3597.91 -5.79992 0.836974 0
M  V30 20512 N 3597.96 -4.41864 1.38293 0
M  V30 20513 C 3597.88 -3.99538 2.69438 0
M  V30 20514 N 3597.96 -2.69909 2.84277 0
M  V30 20515 C 3598.1 -2.21719 1.5408 0
M  V30 20516 C 3598.23 -0.891712 1.06628 0
M  V30 20517 O 3598.25 0.161298 1.70137 0
M  V30 20518 N 3598.35 -0.856846 -0.334985 0
M  V30 20519 C 3598.35 -1.9641 -1.15789 0
M  V30 20520 N 3598.48 -1.72708 -2.46522 0
M  V30 20521 N 3598.22 -3.21165 -0.713741 0
M  V30 20522 C 3598.1 -3.26797 0.639748 0
M  V30 20523 H 3595.12 -8.13644 3.0377 0
M  V30 20524 H 3594.85 -6.42788 2.55485 0
M  V30 20525 H 3595.72 -8.12039 0.792769 0
M  V30 20526 H 3598.37 -5.80061 -0.166416 0
M  V30 20527 H 3598.65 -6.51287 2.75604 0
M  V30 20528 H 3599.64 -7.01734 1.34462 0
M  V30 20529 H 3597.81 -8.73674 2.38337 0
M  V30 20530 H 3597.76 -4.68207 3.53221 0
M  V30 20531 H 3598.44 0.0398818 -0.767965 0
M  V30 20532 H 3598.48 -2.50995 -3.13503 0
M  V30 20533 H 3598.58 -0.759148 -2.80716 0
M  V30 20534 P 3599.68 -8.91 1.34923e-10 0
M  V30 20535 O 3599.9 -10.1726 -0.733694 0
M  V30 20536 O 3600.47 -8.73148 1.23936 0
M  V30 20537 O 3599.93 -7.66872 -0.971405 0
M  V30 20538 C 3598.99 -7.42309 -2.04641 0
M  V30 20539 C 3599.72 -6.86059 -3.24661 0
M  V30 20540 O 3599.93 -5.42847 -3.03646 0
M  V30 20541 C 3601.12 -7.41196 -3.50753 0
M  V30 20542 O 3601.51 -7.27073 -4.86816 0
M  V30 20543 C 3602 -6.5273 -2.63741 0
M  V30 20544 C 3601.29 -5.1842 -2.73198 0
M  V30 20545 N 3601.34 -4.38762 -1.4784 0
M  V30 20546 H 3598.5 -8.36803 -2.32493 0
M  V30 20547 H 3598.23 -6.70197 -1.71129 0
M  V30 20548 H 3599.1 -7.03551 -4.13168 0
M  V30 20549 P 3603.06 -7.20834 -5.23717 0
M  V30 20550 O 3603.28 -7.79853 -6.57286 0
M  V30 20551 O 3603.85 -7.79239 -4.12957 0
M  V30 20552 O 3603.31 -5.63315 -5.29344 0
M  V30 20553 C 3602.37 -4.80255 -6.01876 0
M  V30 20554 C 3603.1 -3.64202 -6.65911 0
M  V30 20555 O 3603.31 -2.60694 -5.64732 0
M  V30 20556 C 3604.5 -3.93473 -7.1943 0
M  V30 20557 O 3604.89 -3.02071 -8.21205 0
M  V30 20558 C 3605.38 -3.73047 -5.97036 0
M  V30 20559 C 3604.67 -2.58828 -5.25741 0
M  V30 20560 N 3604.72 -2.68068 -3.77503 0
M  V30 20561 H 3601.88 -5.40332 -6.79951 0
M  V30 20562 H 3601.61 -4.41613 -5.32378 0
M  V30 20563 H 3602.48 -3.26331 -7.47797 0
M  V30 20564 P 3606.44 -2.75334 -8.47391 0
M  V30 20565 O 3606.66 -2.44571 -9.90142 0
M  V30 20566 O 3607.23 -3.87688 -7.92115 0
M  V30 20567 O 3606.69 -1.4459 -7.59357 0
M  V30 20568 C 3605.75 -0.347608 -7.69215 0
M  V30 20569 C 3606.48 0.96767 -7.52806 0
M  V30 20570 O 3606.69 1.21036 -6.1011 0
M  V30 20571 C 3607.88 1.04544 -8.13308 0
M  V30 20572 O 3608.27 2.38311 -8.41922 0
M  V30 20573 C 3608.76 0.491279 -7.02284 0
M  V30 20574 C 3608.05 0.996264 -5.77469 0
M  V30 20575 N 3608.1 0.0501916 -4.62973 0
M  V30 20576 H 3605.26 -0.374722 -8.67691 0
M  V30 20577 H 3604.99 -0.443485 -6.90277 0
M  V30 20578 H 3605.86 1.75537 -7.96793 0
M  V30 20579 P 3609.82 2.75334 -8.47391 0
M  V30 20580 O 3610.04 3.84128 -9.44797 0
M  V30 20581 O 3610.61 1.51947 -8.68712 0
M  V30 20582 O 3610.07 3.29363 -6.99321 0
M  V30 20583 C 3609.13 4.24011 -6.4274 0
M  V30 20584 C 3609.86 5.20775 -5.52155 0
M  V30 20585 O 3610.07 4.56534 -4.22446 0
M  V30 20586 C 3611.26 5.62629 -5.96531 0
M  V30 20587 O 3611.65 6.87667 -5.41053 0
M  V30 20588 C 3612.14 4.52537 -5.39283 0
M  V30 20589 C 3611.43 4.20027 -4.08623 0
M  V30 20590 N 3611.48 2.76189 -3.71603 0
M  V30 20591 H 3608.64 4.797 -7.24003 0
M  V30 20592 H 3608.37 3.69856 -5.84513 0
M  V30 20593 H 3609.24 6.10356 -5.41441 0
M  V30 20594 P 3613.2 7.20834 -5.23717 0
M  V30 20595 O 3613.42 8.66104 -5.38572 0
M  V30 20596 O 3613.99 6.33544 -6.1349 0
M  V30 20597 O 3613.45 6.7751 -3.72168 0
M  V30 20598 C 3612.51 7.20825 -2.7076 0
M  V30 20599 C 3613.24 7.45864 -1.40599 0
M  V30 20600 O 3613.45 6.17651 -0.734225 0
M  V30 20601 C 3614.64 8.05808 -1.51899 0
M  V30 20602 O 3615.03 8.74358 -0.335205 0
M  V30 20603 C 3615.52 6.83093 -1.70294 0
M  V30 20604 C 3614.81 5.79992 -0.836974 0
M  V30 20605 N 3614.86 4.41864 -1.38293 0
M  V30 20606 H 3612.02 8.13644 -3.0377 0
M  V30 20607 H 3611.75 6.42788 -2.55485 0
M  V30 20608 H 3612.62 8.12039 -0.792769 0
M  V30 20609 P 3616.58 8.91 -1.36032e-10 0
M  V30 20610 O 3616.8 10.1736 0.733766 0
M  V30 20611 O 3617.37 8.73247 -1.2395 0
M  V30 20612 O 3616.83 7.66872 0.971405 0
M  V30 20613 C 3615.89 7.42309 2.04641 0
M  V30 20614 C 3616.62 6.86059 3.24661 0
M  V30 20615 O 3616.83 5.42847 3.03646 0
M  V30 20616 C 3618.02 7.41196 3.50753 0
M  V30 20617 O 3618.41 7.27073 4.86816 0
M  V30 20618 C 3618.9 6.5273 2.63741 0
M  V30 20619 C 3618.19 5.1842 2.73198 0
M  V30 20620 N 3618.24 4.38668 1.47808 0
M  V30 20621 C 3618.39 3.00789 1.58511 0
M  V30 20622 O 3618.48 2.50116 2.71298 0
M  V30 20623 N 3618.44 2.29703 0.253698 0
M  V30 20624 C 3618.34 2.84269 -0.750133 0
M  V30 20625 N 3618.39 2.06951 -1.82612 0
M  V30 20626 C 3618.19 4.25803 -0.889776 0
M  V30 20627 C 3618.14 4.98326 0.259363 0
M  V30 20628 H 3615.4 8.36707 2.32466 0
M  V30 20629 H 3615.13 6.701 1.71105 0
M  V30 20630 H 3616 7.03638 4.13219 0
M  V30 20631 H 3618.65 4.59852 3.53955 0
M  V30 20632 H 3618.93 6.88995 1.59871 0
M  V30 20633 H 3619.92 6.46749 3.03687 0
M  V30 20634 H 3618.09 8.46908 3.20714 0
M  V30 20635 H 3618.02 6.06349 0.206238 0
M  V30 20636 H 3618.12 4.73163 -1.86796 0
M  V30 20637 H 3618.51 1.05099 -1.72271 0
M  V30 20638 H 3618.31 2.48716 -2.76361 0
M  V30 20639 P 3619.96 7.20834 5.23717 0
M  V30 20640 O 3620.18 7.79853 6.57286 0
M  V30 20641 O 3620.75 7.79239 4.12957 0
M  V30 20642 O 3620.21 5.63315 5.29344 0
M  V30 20643 C 3619.27 4.80255 6.01876 0
M  V30 20644 C 3620 3.64202 6.65911 0
M  V30 20645 O 3620.21 2.60694 5.64732 0
M  V30 20646 C 3621.4 3.93473 7.1943 0
M  V30 20647 O 3621.79 3.02071 8.21205 0
M  V30 20648 C 3622.28 3.73047 5.97036 0
M  V30 20649 C 3621.57 2.58828 5.25741 0
M  V30 20650 N 3621.62 2.68068 3.77503 0
M  V30 20651 H 3618.78 5.40332 6.79951 0
M  V30 20652 H 3618.51 4.41613 5.32378 0
M  V30 20653 H 3619.38 3.26331 7.47797 0
M  V30 20654 P 3623.34 2.75334 8.47391 0
M  V30 20655 O 3623.56 2.44571 9.90142 0
M  V30 20656 O 3624.13 3.87688 7.92115 0
M  V30 20657 O 3623.59 1.4459 7.59357 0
M  V30 20658 C 3622.65 0.347608 7.69215 0
M  V30 20659 C 3623.38 -0.96767 7.52806 0
M  V30 20660 O 3623.59 -1.21036 6.1011 0
M  V30 20661 C 3624.78 -1.04544 8.13308 0
M  V30 20662 O 3625.17 -2.38311 8.41922 0
M  V30 20663 C 3625.66 -0.491279 7.02284 0
M  V30 20664 C 3624.95 -0.996264 5.77469 0
M  V30 20665 N 3625 -0.0501916 4.62973 0
M  V30 20666 H 3622.16 0.374722 8.67691 0
M  V30 20667 H 3621.89 0.443485 6.90277 0
M  V30 20668 H 3622.76 -1.75537 7.96793 0
M  V30 20669 P 3626.72 -2.75334 8.47391 0
M  V30 20670 O 3626.94 -3.84128 9.44797 0
M  V30 20671 O 3627.51 -1.51947 8.68712 0
M  V30 20672 O 3626.97 -3.29363 6.99321 0
M  V30 20673 C 3626.03 -4.24011 6.4274 0
M  V30 20674 C 3626.76 -5.20775 5.52155 0
M  V30 20675 O 3626.97 -4.56534 4.22446 0
M  V30 20676 C 3628.16 -5.62629 5.96531 0
M  V30 20677 O 3628.55 -6.87667 5.41053 0
M  V30 20678 C 3629.04 -4.52537 5.39283 0
M  V30 20679 C 3628.33 -4.20027 4.08623 0
M  V30 20680 N 3628.38 -2.76189 3.71603 0
M  V30 20681 H 3625.54 -4.797 7.24003 0
M  V30 20682 H 3625.27 -3.69856 5.84513 0
M  V30 20683 H 3626.14 -6.10356 5.41441 0
M  V30 20684 P 3630.1 -7.20834 5.23717 0
M  V30 20685 O 3630.32 -8.66189 5.38625 0
M  V30 20686 O 3630.89 -6.33615 6.1356 0
M  V30 20687 O 3630.35 -6.7751 3.72168 0
M  V30 20688 C 3629.41 -7.20732 2.70725 0
M  V30 20689 C 3630.14 -7.45864 1.40599 0
M  V30 20690 O 3630.35 -6.17651 0.734225 0
M  V30 20691 C 3631.54 -8.05808 1.51899 0
M  V30 20692 O 3631.93 -8.74358 0.335205 0
M  V30 20693 C 3632.42 -6.83093 1.70294 0
M  V30 20694 C 3631.71 -5.79992 0.836974 0
M  V30 20695 N 3631.76 -4.41769 1.38263 0
M  V30 20696 C 3631.91 -3.38591 0.481702 0
M  V30 20697 O 3632 -3.56839 -0.718452 0
M  V30 20698 N 3631.95 -2.1206 1.03569 0
M  V30 20699 C 3631.86 -1.80696 2.36966 0
M  V30 20700 C 3631.71 -2.94845 3.23898 0
M  V30 20701 C 3631.66 -4.19803 2.73435 0
M  V30 20702 H 3628.92 -8.13644 3.0377 0
M  V30 20703 H 3628.65 -6.42695 2.55448 0
M  V30 20704 H 3629.52 -8.12039 0.792769 0
M  V30 20705 H 3632.17 -5.79978 -0.160587 0
M  V30 20706 H 3632.45 -6.51379 2.75643 0
M  V30 20707 H 3633.44 -7.01734 1.34462 0
M  V30 20708 H 3631.61 -8.73674 2.38337 0
M  V30 20709 H 3631.54 -5.04492 3.4095 0
M  V30 20710 P 3633.48 -8.91 1.37141e-10 0
M  V30 20711 O 3633.7 -10.1726 -0.733694 0
M  V30 20712 O 3634.27 -8.73148 1.23936 0
M  V30 20713 O 3633.73 -7.66872 -0.971405 0
M  V30 20714 C 3632.79 -7.42309 -2.04641 0
M  V30 20715 C 3633.52 -6.86059 -3.24661 0
M  V30 20716 O 3633.73 -5.42847 -3.03646 0
M  V30 20717 C 3634.92 -7.41196 -3.50753 0
M  V30 20718 O 3635.31 -7.27073 -4.86816 0
M  V30 20719 C 3635.8 -6.5273 -2.63741 0
M  V30 20720 C 3635.09 -5.1842 -2.73198 0
M  V30 20721 N 3635.14 -4.38762 -1.4784 0
M  V30 20722 H 3632.3 -8.36803 -2.32493 0
M  V30 20723 H 3632.03 -6.70197 -1.71129 0
M  V30 20724 H 3632.9 -7.03551 -4.13168 0
M  V30 20725 P 3636.86 -7.20834 -5.23717 0
M  V30 20726 O 3637.08 -7.80006 -6.57415 0
M  V30 20727 O 3637.65 -7.79416 -4.13051 0
M  V30 20728 O 3637.11 -5.63315 -5.29344 0
M  V30 20729 C 3636.17 -4.80318 -6.01954 0
M  V30 20730 C 3636.9 -3.64202 -6.65911 0
M  V30 20731 O 3637.11 -2.60736 -5.64823 0
M  V30 20732 C 3638.3 -3.93521 -7.19518 0
M  V30 20733 O 3638.69 -3.02071 -8.21205 0
M  V30 20734 C 3639.18 -3.73047 -5.97036 0
M  V30 20735 C 3638.47 -2.58828 -5.25741 0
M  V30 20736 N 3638.52 -2.68068 -3.77503 0
M  V30 20737 H 3635.68 -5.40394 -6.8003 0
M  V30 20738 H 3635.41 -4.41741 -5.32532 0
M  V30 20739 H 3636.28 -3.26371 -7.47889 0
M  V30 20740 H 3638.93 -1.64007 -5.56746 0
M  V30 20741 H 3639.21 -4.63439 -5.3432 0
M  V30 20742 H 3640.2 -3.44776 -6.25925 0
M  V30 20743 H 3638.37 -4.96707 -7.57347 0
M  V30 20744 P 3640.24 -2.75334 -8.47391 0
M  V30 20745 O 3640.46 -2.44571 -9.90142 0
M  V30 20746 O 3641.03 -3.87688 -7.92115 0
M  V30 20747 O 3640.49 -1.4459 -7.59357 0
M  V30 20748 C 3639.55 -0.347608 -7.69215 0
M  V30 20749 C 3640.28 0.96767 -7.52806 0
M  V30 20750 O 3640.49 1.21036 -6.1011 0
M  V30 20751 C 3641.68 1.04544 -8.13308 0
M  V30 20752 O 3642.07 2.38311 -8.41922 0
M  V30 20753 C 3642.56 0.491279 -7.02284 0
M  V30 20754 C 3641.85 0.996264 -5.77469 0
M  V30 20755 N 3641.9 0.0501916 -4.62973 0
M  V30 20756 C 3641.82 -1.32786 -4.63244 0
M  V30 20757 N 3641.9 -1.86957 -3.44545 0
M  V30 20758 C 3642.04 -0.780241 -2.58481 0
M  V30 20759 C 3642.17 -0.738536 -1.17757 0
M  V30 20760 O 3642.19 -1.66794 -0.372349 0
M  V30 20761 N 3642.29 0.58337 -0.711393 0
M  V30 20762 C 3642.29 1.70816 -1.51017 0
M  V30 20763 N 3642.42 2.87826 -0.880757 0
M  V30 20764 N 3642.16 1.67126 -2.8339 0
M  V30 20765 C 3642.04 0.401421 -3.30572 0
M  V30 20766 H 3639.06 -0.374722 -8.67691 0
M  V30 20767 H 3638.79 -0.443485 -6.90277 0
M  V30 20768 H 3639.66 1.75537 -7.96793 0
M  V30 20769 H 3642.31 1.95076 -5.46529 0
M  V30 20770 H 3642.59 -0.608565 -7.04577 0
M  V30 20771 H 3643.58 0.889672 -7.08939 0
M  V30 20772 H 3641.75 0.43308 -9.04564 0
M  V30 20773 H 3641.7 -1.91249 -5.54442 0
M  V30 20774 H 3642.38 0.718054 0.275244 0
M  V30 20775 H 3642.42 3.75721 -1.41832 0
M  V30 20776 H 3642.52 2.90436 0.145468 0
M  V30 20777 P 3643.62 2.75334 -8.47391 0
M  V30 20778 O 3643.84 3.84128 -9.44797 0
M  V30 20779 O 3644.41 1.51947 -8.68712 0
M  V30 20780 O 3643.87 3.29363 -6.99321 0
M  V30 20781 C 3642.93 4.24011 -6.4274 0
M  V30 20782 C 3643.66 5.20775 -5.52155 0
M  V30 20783 O 3643.87 4.56534 -4.22446 0
M  V30 20784 C 3645.06 5.62629 -5.96531 0
M  V30 20785 O 3645.45 6.87667 -5.41053 0
M  V30 20786 C 3645.94 4.52537 -5.39283 0
M  V30 20787 C 3645.23 4.20027 -4.08623 0
M  V30 20788 N 3645.28 2.76189 -3.71603 0
M  V30 20789 C 3645.2 1.64862 -4.52822 0
M  V30 20790 N 3645.28 0.512671 -3.88633 0
M  V30 20791 C 3645.42 0.888083 -2.54977 0
M  V30 20792 C 3645.55 0.094668 -1.38677 0
M  V30 20793 O 3645.57 -1.13053 -1.28163 0
M  V30 20794 N 3645.67 0.890102 -0.232633 0
M  V30 20795 C 3645.67 2.26958 -0.21772 0
M  V30 20796 N 3645.8 2.84626 0.97925 0
M  V30 20797 N 3645.54 3.0178 -1.31033 0
M  V30 20798 C 3645.42 2.26781 -2.43843 0
M  V30 20799 H 3642.44 4.797 -7.24003 0
M  V30 20800 H 3642.17 3.69856 -5.84513 0
M  V30 20801 H 3643.04 6.10356 -5.41441 0
M  V30 20802 H 3645.69 4.79061 -3.27488 0
M  V30 20803 H 3645.97 3.64906 -6.05785 0
M  V30 20804 H 3646.96 4.8868 -5.2125 0
M  V30 20805 H 3645.13 5.66726 -7.06352 0
M  V30 20806 H 3645.08 1.71169 -5.60966 0
M  V30 20807 H 3645.76 0.419134 0.644739 0
M  V30 20808 H 3645.8 3.87332 1.06098 0
M  V30 20809 H 3645.9 2.26417 1.82483 0
M  V30 20810 P 3647 7.20834 -5.23717 0
M  V30 20811 O 3647.22 8.66104 -5.38572 0
M  V30 20812 O 3647.79 6.33544 -6.1349 0
M  V30 20813 O 3647.25 6.7751 -3.72168 0
M  V30 20814 C 3646.31 7.20825 -2.7076 0
M  V30 20815 C 3647.04 7.45864 -1.40599 0
M  V30 20816 O 3647.25 6.17651 -0.734225 0
M  V30 20817 C 3648.44 8.05808 -1.51899 0
M  V30 20818 O 3648.83 8.74358 -0.335205 0
M  V30 20819 C 3649.32 6.83093 -1.70294 0
M  V30 20820 C 3648.61 5.79992 -0.836974 0
M  V30 20821 N 3648.66 4.41864 -1.38293 0
M  V30 20822 H 3645.82 8.13644 -3.0377 0
M  V30 20823 H 3645.55 6.42788 -2.55485 0
M  V30 20824 H 3646.42 8.12039 -0.792769 0
M  V30 20825 P 3650.38 8.91 -1.3825e-10 0
M  V30 20826 O 3650.6 10.1726 0.733694 0
M  V30 20827 O 3651.17 8.73148 -1.23936 0
M  V30 20828 O 3650.63 7.66872 0.971405 0
M  V30 20829 C 3649.69 7.42309 2.04641 0
M  V30 20830 C 3650.42 6.86059 3.24661 0
M  V30 20831 O 3650.63 5.42847 3.03646 0
M  V30 20832 C 3651.82 7.41196 3.50753 0
M  V30 20833 O 3652.21 7.27073 4.86816 0
M  V30 20834 C 3652.7 6.5273 2.63741 0
M  V30 20835 C 3651.99 5.1842 2.73198 0
M  V30 20836 N 3652.04 4.38762 1.4784 0
M  V30 20837 H 3649.2 8.36803 2.32493 0
M  V30 20838 H 3648.93 6.70197 1.71129 0
M  V30 20839 H 3649.8 7.03551 4.13168 0
M  V30 20840 P 3653.76 7.20834 5.23717 0
M  V30 20841 O 3653.98 7.79853 6.57286 0
M  V30 20842 O 3654.55 7.79239 4.12957 0
M  V30 20843 O 3654.01 5.63315 5.29344 0
M  V30 20844 C 3653.07 4.80255 6.01876 0
M  V30 20845 C 3653.8 3.64202 6.65911 0
M  V30 20846 O 3654.01 2.60694 5.64732 0
M  V30 20847 C 3655.2 3.93473 7.1943 0
M  V30 20848 O 3655.59 3.02071 8.21205 0
M  V30 20849 C 3656.08 3.73047 5.97036 0
M  V30 20850 C 3655.37 2.58828 5.25741 0
M  V30 20851 N 3655.42 2.68068 3.77503 0
M  V30 20852 C 3655.34 3.79715 2.96723 0
M  V30 20853 N 3655.42 3.5377 1.68852 0
M  V30 20854 C 3655.56 2.15054 1.63254 0
M  V30 20855 C 3655.69 1.28964 0.518571 0
M  V30 20856 N 3655.81 -0.0538097 0.918425 0
M  V30 20857 C 3655.81 -0.494275 2.22578 0
M  V30 20858 N 3655.94 -1.81086 2.40434 0
M  V30 20859 N 3655.68 0.313645 3.27502 0
M  V30 20860 C 3655.56 1.61829 2.91033 0
M  V30 20861 H 3652.58 5.40332 6.79951 0
M  V30 20862 H 3652.31 4.41613 5.32378 0
M  V30 20863 H 3653.18 3.26331 7.47797 0
M  V30 20864 P 3657.14 2.75334 8.47391 0
M  V30 20865 O 3657.36 2.44571 9.90142 0
M  V30 20866 O 3657.93 3.87688 7.92115 0
M  V30 20867 O 3657.39 1.4459 7.59357 0
M  V30 20868 C 3656.45 0.347608 7.69215 0
M  V30 20869 C 3657.18 -0.96767 7.52806 0
M  V30 20870 O 3657.39 -1.21036 6.1011 0
M  V30 20871 C 3658.58 -1.04544 8.13308 0
M  V30 20872 O 3658.97 -2.38311 8.41922 0
M  V30 20873 C 3659.46 -0.491279 7.02284 0
M  V30 20874 C 3658.75 -0.996264 5.77469 0
M  V30 20875 N 3658.8 -0.0501916 4.62973 0
M  V30 20876 H 3655.96 0.374722 8.67691 0
M  V30 20877 H 3655.69 0.443485 6.90277 0
M  V30 20878 H 3656.56 -1.75537 7.96793 0
M  V30 20879 P 3660.52 -2.75334 8.47391 0
M  V30 20880 O 3660.74 -3.84166 9.4489 0
M  V30 20881 O 3661.31 -1.51964 8.6881 0
M  V30 20882 O 3660.77 -3.29363 6.99321 0
M  V30 20883 C 3659.83 -4.23956 6.42656 0
M  V30 20884 C 3660.56 -5.20775 5.52155 0
M  V30 20885 O 3660.77 -4.56534 4.22446 0
M  V30 20886 C 3661.96 -5.62629 5.96531 0
M  V30 20887 O 3662.35 -6.87667 5.41053 0
M  V30 20888 C 3662.84 -4.52537 5.39283 0
M  V30 20889 C 3662.13 -4.20027 4.08623 0
M  V30 20890 N 3662.18 -2.7613 3.71522 0
M  V30 20891 C 3662.33 -2.45612 2.37989 0
M  V30 20892 O 3662.42 -3.30919 1.51621 0
M  V30 20893 N 3662.37 -1.10684 2.08435 0
M  V30 20894 C 3662.28 -0.0690084 2.9792 0
M  V30 20895 C 3662.13 -0.481522 4.35345 0
M  V30 20896 C 3662.08 -1.78906 4.67968 0
M  V30 20897 H 3659.34 -4.797 7.24003 0
M  V30 20898 H 3659.07 -3.69802 5.84429 0
M  V30 20899 H 3659.94 -6.10356 5.41441 0
M  V30 20900 H 3662.59 -4.78651 3.27911 0
M  V30 20901 H 3662.87 -3.64957 6.05871 0
M  V30 20902 H 3663.86 -4.8868 5.2125 0
M  V30 20903 H 3662.03 -5.66726 7.06352 0
M  V30 20904 H 3661.96 -2.07737 5.72367 0
M  V30 20905 P 3663.9 -7.20834 5.23717 0
M  V30 20906 O 3664.12 -8.66104 5.38572 0
M  V30 20907 O 3664.69 -6.33544 6.1349 0
M  V30 20908 O 3664.15 -6.7751 3.72168 0
M  V30 20909 C 3663.21 -7.20825 2.7076 0
M  V30 20910 C 3663.94 -7.45864 1.40599 0
M  V30 20911 O 3664.15 -6.17651 0.734225 0
M  V30 20912 C 3665.34 -8.05808 1.51899 0
M  V30 20913 O 3665.73 -8.74358 0.335205 0
M  V30 20914 C 3666.22 -6.83093 1.70294 0
M  V30 20915 C 3665.51 -5.79992 0.836974 0
M  V30 20916 N 3665.56 -4.41864 1.38293 0
M  V30 20917 H 3662.72 -8.13644 3.0377 0
M  V30 20918 H 3662.45 -6.42788 2.55485 0
M  V30 20919 H 3663.32 -8.12039 0.792769 0
M  V30 20920 P 3667.28 -8.91 1.39359e-10 0
M  V30 20921 O 3667.5 -10.1726 -0.733694 0
M  V30 20922 O 3668.07 -8.73148 1.23936 0
M  V30 20923 O 3667.53 -7.66872 -0.971405 0
M  V30 20924 C 3666.59 -7.42309 -2.04641 0
M  V30 20925 C 3667.32 -6.86059 -3.24661 0
M  V30 20926 O 3667.53 -5.42847 -3.03646 0
M  V30 20927 C 3668.72 -7.41196 -3.50753 0
M  V30 20928 O 3669.11 -7.27073 -4.86816 0
M  V30 20929 C 3669.6 -6.5273 -2.63741 0
M  V30 20930 C 3668.89 -5.1842 -2.73198 0
M  V30 20931 N 3668.94 -4.38762 -1.4784 0
M  V30 20932 H 3666.1 -8.36803 -2.32493 0
M  V30 20933 H 3665.83 -6.70197 -1.71129 0
M  V30 20934 H 3666.7 -7.03551 -4.13168 0
M  V30 20935 P 3670.66 -7.20834 -5.23717 0
M  V30 20936 O 3670.88 -7.79853 -6.57286 0
M  V30 20937 O 3671.45 -7.79239 -4.12957 0
M  V30 20938 O 3670.91 -5.63315 -5.29344 0
M  V30 20939 C 3669.97 -4.80255 -6.01876 0
M  V30 20940 C 3670.7 -3.64202 -6.65911 0
M  V30 20941 O 3670.91 -2.60694 -5.64732 0
M  V30 20942 C 3672.1 -3.93473 -7.1943 0
M  V30 20943 O 3672.49 -3.02071 -8.21205 0
M  V30 20944 C 3672.98 -3.73047 -5.97036 0
M  V30 20945 C 3672.27 -2.58828 -5.25741 0
M  V30 20946 N 3672.32 -2.68068 -3.77503 0
M  V30 20947 H 3669.48 -5.40332 -6.79951 0
M  V30 20948 H 3669.21 -4.41613 -5.32378 0
M  V30 20949 H 3670.08 -3.26331 -7.47797 0
M  V30 20950 P 3674.04 -2.75334 -8.47391 0
M  V30 20951 O 3674.26 -2.44619 -9.90336 0
M  V30 20952 O 3674.83 -3.87776 -7.92294 0
M  V30 20953 O 3674.29 -1.4459 -7.59357 0
M  V30 20954 C 3673.35 -0.347653 -7.69315 0
M  V30 20955 C 3674.08 0.96767 -7.52806 0
M  V30 20956 O 3674.29 1.21055 -6.10208 0
M  V30 20957 C 3675.48 1.04557 -8.13408 0
M  V30 20958 O 3675.87 2.38311 -8.41922 0
M  V30 20959 C 3676.36 0.491279 -7.02284 0
M  V30 20960 C 3675.65 0.996264 -5.77469 0
M  V30 20961 N 3675.7 0.0501916 -4.62973 0
M  V30 20962 C 3675.62 -1.31969 -4.65661 0
M  V30 20963 N 3675.69 -1.86649 -3.48119 0
M  V30 20964 C 3675.84 -0.792089 -2.62406 0
M  V30 20965 C 3675.97 -0.705684 -1.2207 0
M  V30 20966 N 3675.98 -1.76207 -0.413762 0
M  V30 20967 N 3676.09 0.518981 -0.685754 0
M  V30 20968 C 3676.08 1.57595 -1.49174 0
M  V30 20969 N 3675.96 1.62909 -2.80066 0
M  V30 20970 C 3675.84 0.388195 -3.3073 0
M  V30 20971 H 3672.86 -0.374765 -8.67791 0
M  V30 20972 H 3672.59 -0.443613 -6.90476 0
M  V30 20973 H 3673.46 1.75559 -7.96891 0
M  V30 20974 H 3676.11 1.94563 -5.46818 0
M  V30 20975 H 3676.39 -0.608651 -7.04676 0
M  V30 20976 H 3677.38 0.889796 -7.09039 0
M  V30 20977 H 3675.55 0.433128 -9.04664 0
M  V30 20978 H 3675.51 -1.89246 -5.57664 0
M  V30 20979 H 3675.89 -2.71005 -0.804694 0
M  V30 20980 H 3676.08 -1.63189 0.603768 0
M  V30 20981 H 3676.19 2.53475 -0.997614 0
M  V30 20982 P 3677.42 2.75334 -8.47391 0
M  V30 20983 O 3677.64 3.84166 -9.4489 0
M  V30 20984 O 3678.21 1.51964 -8.6881 0
M  V30 20985 O 3677.67 3.29363 -6.99321 0
M  V30 20986 C 3676.73 4.23956 -6.42656 0
M  V30 20987 C 3677.46 5.20775 -5.52155 0
M  V30 20988 O 3677.67 4.56534 -4.22446 0
M  V30 20989 C 3678.86 5.62629 -5.96531 0
M  V30 20990 O 3679.25 6.87667 -5.41053 0
M  V30 20991 C 3679.74 4.52537 -5.39283 0
M  V30 20992 C 3679.03 4.20027 -4.08623 0
M  V30 20993 N 3679.08 2.7613 -3.71522 0
M  V30 20994 C 3679.23 2.45612 -2.37989 0
M  V30 20995 O 3679.32 3.30919 -1.51621 0
M  V30 20996 N 3679.27 1.10684 -2.08435 0
M  V30 20997 C 3679.18 0.0690084 -2.9792 0
M  V30 20998 C 3679.03 0.481522 -4.35345 0
M  V30 20999 C 3678.98 1.78906 -4.67968 0
M  V30 21000 H 3676.24 4.797 -7.24003 0
M  V30 21001 H 3675.97 3.69802 -5.84429 0
M  V30 21002 H 3676.84 6.10356 -5.41441 0
M  V30 21003 H 3679.49 4.78651 -3.27911 0
M  V30 21004 H 3679.77 3.64957 -6.05871 0
M  V30 21005 H 3680.76 4.8868 -5.2125 0
M  V30 21006 H 3678.93 5.66726 -7.06352 0
M  V30 21007 H 3678.86 2.07737 -5.72367 0
M  V30 21008 P 3680.8 7.20834 -5.23717 0
M  V30 21009 O 3681.02 8.66104 -5.38572 0
M  V30 21010 O 3681.59 6.33544 -6.1349 0
M  V30 21011 O 3681.05 6.7751 -3.72168 0
M  V30 21012 C 3680.11 7.20825 -2.7076 0
M  V30 21013 C 3680.84 7.45864 -1.40599 0
M  V30 21014 O 3681.05 6.17651 -0.734225 0
M  V30 21015 C 3682.24 8.05808 -1.51899 0
M  V30 21016 O 3682.63 8.74358 -0.335205 0
M  V30 21017 C 3683.12 6.83093 -1.70294 0
M  V30 21018 C 3682.41 5.79992 -0.836974 0
M  V30 21019 N 3682.46 4.41864 -1.38293 0
M  V30 21020 H 3679.62 8.13644 -3.0377 0
M  V30 21021 H 3679.35 6.42788 -2.55485 0
M  V30 21022 H 3680.22 8.12039 -0.792769 0
M  V30 21023 P 3684.18 8.91 -1.40468e-10 0
M  V30 21024 O 3684.4 10.1746 0.733838 0
M  V30 21025 O 3684.97 8.73346 -1.23964 0
M  V30 21026 O 3684.43 7.66872 0.971405 0
M  V30 21027 C 3683.49 7.42405 2.04668 0
M  V30 21028 C 3684.22 6.86059 3.24661 0
M  V30 21029 O 3684.43 5.42934 3.03695 0
M  V30 21030 C 3685.62 7.41287 3.50796 0
M  V30 21031 O 3686.01 7.27073 4.86816 0
M  V30 21032 C 3686.5 6.5273 2.63741 0
M  V30 21033 C 3685.79 5.1842 2.73198 0
M  V30 21034 N 3685.84 4.38762 1.4784 0
M  V30 21035 C 3685.76 4.83651 0.183876 0
M  V30 21036 N 3685.83 3.88759 -0.699393 0
M  V30 21037 C 3685.98 2.7404 0.0575568 0
M  V30 21038 C 3686.11 1.37902 -0.293928 0
M  V30 21039 N 3686.12 0.938021 -1.54797 0
M  V30 21040 N 3686.23 0.491817 0.70549 0
M  V30 21041 C 3686.22 0.931735 1.95979 0
M  V30 21042 N 3686.1 2.16017 2.41481 0
M  V30 21043 C 3685.98 3.02547 1.39121 0
M  V30 21044 H 3683 8.36899 2.3252 0
M  V30 21045 H 3682.73 6.70391 1.71179 0
M  V30 21046 H 3683.6 7.03638 4.13219 0
M  V30 21047 H 3686.25 4.59931 3.54016 0
M  V30 21048 H 3686.53 6.88995 1.59871 0
M  V30 21049 H 3687.52 6.4684 3.0373 0
M  V30 21050 H 3685.69 8.47002 3.20749 0
M  V30 21051 H 3685.65 5.8885 -0.0765548 0
M  V30 21052 H 3686.03 1.60276 -2.32875 0
M  V30 21053 H 3686.22 -0.0699355 -1.73859 0
M  V30 21054 H 3686.33 0.165507 2.71897 0
M  V30 21055 P 3687.56 7.20834 5.23717 0
M  V30 21056 O 3687.78 7.79853 6.57286 0
M  V30 21057 O 3688.35 7.79239 4.12957 0
M  V30 21058 O 3687.81 5.63315 5.29344 0
M  V30 21059 C 3686.87 4.80255 6.01876 0
M  V30 21060 C 3687.6 3.64202 6.65911 0
M  V30 21061 O 3687.81 2.60694 5.64732 0
M  V30 21062 C 3689 3.93473 7.1943 0
M  V30 21063 O 3689.39 3.02071 8.21205 0
M  V30 21064 C 3689.88 3.73047 5.97036 0
M  V30 21065 C 3689.17 2.58828 5.25741 0
M  V30 21066 N 3689.22 2.68068 3.77503 0
M  V30 21067 H 3686.38 5.40332 6.79951 0
M  V30 21068 H 3686.11 4.41613 5.32378 0
M  V30 21069 H 3686.98 3.26331 7.47797 0
M  V30 21070 P 3690.94 2.75334 8.47391 0
M  V30 21071 O 3691.16 2.44571 9.90142 0
M  V30 21072 O 3691.73 3.87688 7.92115 0
M  V30 21073 O 3691.19 1.4459 7.59357 0
M  V30 21074 C 3690.25 0.347608 7.69215 0
M  V30 21075 C 3690.98 -0.96767 7.52806 0
M  V30 21076 O 3691.19 -1.21036 6.1011 0
M  V30 21077 C 3692.38 -1.04544 8.13308 0
M  V30 21078 O 3692.77 -2.38311 8.41922 0
M  V30 21079 C 3693.26 -0.491279 7.02284 0
M  V30 21080 C 3692.55 -0.996264 5.77469 0
M  V30 21081 N 3692.6 -0.0501916 4.62973 0
M  V30 21082 H 3689.76 0.374722 8.67691 0
M  V30 21083 H 3689.49 0.443485 6.90277 0
M  V30 21084 H 3690.36 -1.75537 7.96793 0
M  V30 21085 P 3694.32 -2.75334 8.47391 0
M  V30 21086 O 3694.54 -3.84128 9.44797 0
M  V30 21087 O 3695.11 -1.51947 8.68712 0
M  V30 21088 O 3694.57 -3.29363 6.99321 0
M  V30 21089 C 3693.63 -4.24011 6.4274 0
M  V30 21090 C 3694.36 -5.20775 5.52155 0
M  V30 21091 O 3694.57 -4.56534 4.22446 0
M  V30 21092 C 3695.76 -5.62629 5.96531 0
M  V30 21093 O 3696.15 -6.87667 5.41053 0
M  V30 21094 C 3696.64 -4.52537 5.39283 0
M  V30 21095 C 3695.93 -4.20027 4.08623 0
M  V30 21096 N 3695.98 -2.76189 3.71603 0
M  V30 21097 H 3693.14 -4.797 7.24003 0
M  V30 21098 H 3692.87 -3.69856 5.84513 0
M  V30 21099 H 3693.74 -6.10356 5.41441 0
M  V30 21100 P 3697.7 -7.20834 5.23717 0
M  V30 21101 O 3697.92 -8.66104 5.38572 0
M  V30 21102 O 3698.49 -6.33544 6.1349 0
M  V30 21103 O 3697.95 -6.7751 3.72168 0
M  V30 21104 C 3697.01 -7.20825 2.7076 0
M  V30 21105 C 3697.74 -7.45864 1.40599 0
M  V30 21106 O 3697.95 -6.17651 0.734225 0
M  V30 21107 C 3699.14 -8.05808 1.51899 0
M  V30 21108 O 3699.53 -8.74358 0.335205 0
M  V30 21109 C 3700.02 -6.83093 1.70294 0
M  V30 21110 C 3699.31 -5.79992 0.836974 0
M  V30 21111 N 3699.36 -4.41864 1.38293 0
M  V30 21112 H 3696.52 -8.13644 3.0377 0
M  V30 21113 H 3696.25 -6.42788 2.55485 0
M  V30 21114 H 3697.12 -8.12039 0.792769 0
M  V30 21115 P 3701.08 -8.91 1.41577e-10 0
M  V30 21116 O 3701.3 -10.1726 -0.733694 0
M  V30 21117 O 3701.87 -8.73148 1.23936 0
M  V30 21118 O 3701.33 -7.66872 -0.971405 0
M  V30 21119 C 3700.39 -7.42309 -2.04641 0
M  V30 21120 C 3701.12 -6.86059 -3.24661 0
M  V30 21121 O 3701.33 -5.42847 -3.03646 0
M  V30 21122 C 3702.52 -7.41196 -3.50753 0
M  V30 21123 O 3702.91 -7.27073 -4.86816 0
M  V30 21124 C 3703.4 -6.5273 -2.63741 0
M  V30 21125 C 3702.69 -5.1842 -2.73198 0
M  V30 21126 N 3702.74 -4.38762 -1.4784 0
M  V30 21127 H 3699.9 -8.36803 -2.32493 0
M  V30 21128 H 3699.63 -6.70197 -1.71129 0
M  V30 21129 H 3700.5 -7.03551 -4.13168 0
M  V30 21130 P 3704.46 -7.20834 -5.23717 0
M  V30 21131 O 3704.68 -7.79853 -6.57286 0
M  V30 21132 O 3705.25 -7.79239 -4.12957 0
M  V30 21133 O 3704.71 -5.63315 -5.29344 0
M  V30 21134 C 3703.77 -4.80255 -6.01876 0
M  V30 21135 C 3704.5 -3.64202 -6.65911 0
M  V30 21136 O 3704.71 -2.60694 -5.64732 0
M  V30 21137 C 3705.9 -3.93473 -7.1943 0
M  V30 21138 O 3706.29 -3.02071 -8.21205 0
M  V30 21139 C 3706.78 -3.73047 -5.97036 0
M  V30 21140 C 3706.07 -2.58828 -5.25741 0
M  V30 21141 N 3706.12 -2.68068 -3.77503 0
M  V30 21142 H 3703.28 -5.40332 -6.79951 0
M  V30 21143 H 3703.01 -4.41613 -5.32378 0
M  V30 21144 H 3703.88 -3.26331 -7.47797 0
M  V30 21145 P 3707.84 -2.75334 -8.47391 0
M  V30 21146 O 3708.06 -2.44571 -9.90142 0
M  V30 21147 O 3708.63 -3.87688 -7.92115 0
M  V30 21148 O 3708.09 -1.4459 -7.59357 0
M  V30 21149 C 3707.15 -0.347608 -7.69215 0
M  V30 21150 C 3707.88 0.96767 -7.52806 0
M  V30 21151 O 3708.09 1.21036 -6.1011 0
M  V30 21152 C 3709.28 1.04544 -8.13308 0
M  V30 21153 O 3709.67 2.38311 -8.41922 0
M  V30 21154 C 3710.16 0.491279 -7.02284 0
M  V30 21155 C 3709.45 0.996264 -5.77469 0
M  V30 21156 N 3709.5 0.0501916 -4.62973 0
M  V30 21157 H 3706.66 -0.374722 -8.67691 0
M  V30 21158 H 3706.39 -0.443485 -6.90277 0
M  V30 21159 H 3707.26 1.75537 -7.96793 0
M  V30 21160 P 3711.22 2.75334 -8.47391 0
M  V30 21161 O 3711.44 3.84128 -9.44797 0
M  V30 21162 O 3712.01 1.51947 -8.68712 0
M  V30 21163 O 3711.47 3.29363 -6.99321 0
M  V30 21164 C 3710.53 4.24011 -6.4274 0
M  V30 21165 C 3711.26 5.20775 -5.52155 0
M  V30 21166 O 3711.47 4.56534 -4.22446 0
M  V30 21167 C 3712.66 5.62629 -5.96531 0
M  V30 21168 O 3713.05 6.87667 -5.41053 0
M  V30 21169 C 3713.54 4.52537 -5.39283 0
M  V30 21170 C 3712.83 4.20027 -4.08623 0
M  V30 21171 N 3712.88 2.76189 -3.71603 0
M  V30 21172 H 3710.04 4.797 -7.24003 0
M  V30 21173 H 3709.77 3.69856 -5.84513 0
M  V30 21174 H 3710.64 6.10356 -5.41441 0
M  V30 21175 P 3714.6 7.20834 -5.23717 0
M  V30 21176 O 3714.82 8.66104 -5.38572 0
M  V30 21177 O 3715.39 6.33544 -6.1349 0
M  V30 21178 O 3714.85 6.7751 -3.72168 0
M  V30 21179 C 3713.91 7.20825 -2.7076 0
M  V30 21180 C 3714.64 7.45864 -1.40599 0
M  V30 21181 O 3714.85 6.17651 -0.734225 0
M  V30 21182 C 3716.04 8.05808 -1.51899 0
M  V30 21183 O 3716.43 8.74358 -0.335205 0
M  V30 21184 C 3716.92 6.83093 -1.70294 0
M  V30 21185 C 3716.21 5.79992 -0.836974 0
M  V30 21186 N 3716.26 4.41864 -1.38293 0
M  V30 21187 H 3713.42 8.13644 -3.0377 0
M  V30 21188 H 3713.15 6.42788 -2.55485 0
M  V30 21189 H 3714.02 8.12039 -0.792769 0
M  V30 21190 P 3717.98 8.91 -1.42686e-10 0
M  V30 21191 O 3718.2 10.1726 0.733694 0
M  V30 21192 O 3718.77 8.73148 -1.23936 0
M  V30 21193 O 3718.23 7.66872 0.971405 0
M  V30 21194 C 3717.29 7.42309 2.04641 0
M  V30 21195 C 3718.02 6.86059 3.24661 0
M  V30 21196 O 3718.23 5.42847 3.03646 0
M  V30 21197 C 3719.42 7.41196 3.50753 0
M  V30 21198 O 3719.81 7.27073 4.86816 0
M  V30 21199 C 3720.3 6.5273 2.63741 0
M  V30 21200 C 3719.59 5.1842 2.73198 0
M  V30 21201 N 3719.64 4.38762 1.4784 0
M  V30 21202 H 3716.8 8.36803 2.32493 0
M  V30 21203 H 3716.53 6.70197 1.71129 0
M  V30 21204 H 3717.4 7.03551 4.13168 0
M  V30 21205 P 3721.36 7.20834 5.23717 0
M  V30 21206 O 3721.58 7.80006 6.57415 0
M  V30 21207 O 3722.15 7.79416 4.13051 0
M  V30 21208 O 3721.61 5.63315 5.29344 0
M  V30 21209 C 3720.67 4.80318 6.01954 0
M  V30 21210 C 3721.4 3.64202 6.65911 0
M  V30 21211 O 3721.61 2.60736 5.64823 0
M  V30 21212 C 3722.8 3.93521 7.19518 0
M  V30 21213 O 3723.19 3.02071 8.21205 0
M  V30 21214 C 3723.68 3.73047 5.97036 0
M  V30 21215 C 3722.97 2.58828 5.25741 0
M  V30 21216 N 3723.02 2.68068 3.77503 0
M  V30 21217 H 3720.18 5.40394 6.8003 0
M  V30 21218 H 3719.91 4.41741 5.32532 0
M  V30 21219 H 3720.78 3.26371 7.47889 0
M  V30 21220 H 3723.43 1.64007 5.56746 0
M  V30 21221 H 3723.71 4.63439 5.3432 0
M  V30 21222 H 3724.7 3.44776 6.25925 0
M  V30 21223 H 3722.87 4.96707 7.57347 0
M  V30 21224 P 3724.74 2.75334 8.47391 0
M  V30 21225 O 3724.96 2.44619 9.90336 0
M  V30 21226 O 3725.53 3.87776 7.92294 0
M  V30 21227 O 3724.99 1.4459 7.59357 0
M  V30 21228 C 3724.05 0.347653 7.69315 0
M  V30 21229 C 3724.78 -0.96767 7.52806 0
M  V30 21230 O 3724.99 -1.21055 6.10208 0
M  V30 21231 C 3726.18 -1.04557 8.13408 0
M  V30 21232 O 3726.57 -2.38311 8.41922 0
M  V30 21233 C 3727.06 -0.491279 7.02284 0
M  V30 21234 C 3726.35 -0.996264 5.77469 0
M  V30 21235 N 3726.4 -0.0501916 4.62973 0
M  V30 21236 C 3726.32 1.31969 4.65661 0
M  V30 21237 N 3726.39 1.86649 3.48119 0
M  V30 21238 C 3726.54 0.792089 2.62406 0
M  V30 21239 C 3726.67 0.705684 1.2207 0
M  V30 21240 N 3726.68 1.76207 0.413762 0
M  V30 21241 N 3726.79 -0.518981 0.685754 0
M  V30 21242 C 3726.78 -1.57595 1.49174 0
M  V30 21243 N 3726.66 -1.62909 2.80066 0
M  V30 21244 C 3726.54 -0.388195 3.3073 0
M  V30 21245 H 3723.56 0.374765 8.67791 0
M  V30 21246 H 3723.29 0.443613 6.90476 0
M  V30 21247 H 3724.16 -1.75559 7.96891 0
M  V30 21248 H 3726.81 -1.94563 5.46818 0
M  V30 21249 H 3727.09 0.608651 7.04676 0
M  V30 21250 H 3728.08 -0.889796 7.09039 0
M  V30 21251 H 3726.25 -0.433128 9.04664 0
M  V30 21252 H 3726.21 1.89246 5.57664 0
M  V30 21253 H 3726.59 2.71005 0.804694 0
M  V30 21254 H 3726.78 1.63189 -0.603768 0
M  V30 21255 H 3726.88 -2.53475 0.997614 0
M  V30 21256 P 3728.12 -2.75334 8.47391 0
M  V30 21257 O 3728.34 -3.84128 9.44797 0
M  V30 21258 O 3728.91 -1.51947 8.68712 0
M  V30 21259 O 3728.37 -3.29363 6.99321 0
M  V30 21260 C 3727.43 -4.24011 6.4274 0
M  V30 21261 C 3728.16 -5.20775 5.52155 0
M  V30 21262 O 3728.37 -4.56534 4.22446 0
M  V30 21263 C 3729.56 -5.62629 5.96531 0
M  V30 21264 O 3729.95 -6.87667 5.41053 0
M  V30 21265 C 3730.44 -4.52537 5.39283 0
M  V30 21266 C 3729.73 -4.20027 4.08623 0
M  V30 21267 N 3729.78 -2.76189 3.71603 0
M  V30 21268 C 3729.7 -1.64862 4.52822 0
M  V30 21269 N 3729.78 -0.512671 3.88633 0
M  V30 21270 C 3729.92 -0.888083 2.54977 0
M  V30 21271 C 3730.05 -0.094668 1.38677 0
M  V30 21272 N 3730.17 -0.890102 0.232633 0
M  V30 21273 C 3730.17 -2.26958 0.21772 0
M  V30 21274 N 3730.3 -2.84626 -0.97925 0
M  V30 21275 N 3730.04 -3.0178 1.31033 0
M  V30 21276 C 3729.92 -2.26781 2.43843 0
M  V30 21277 H 3726.94 -4.797 7.24003 0
M  V30 21278 H 3726.67 -3.69856 5.84513 0
M  V30 21279 H 3727.54 -6.10356 5.41441 0
M  V30 21280 P 3731.5 -7.20834 5.23717 0
M  V30 21281 O 3731.72 -8.66104 5.38572 0
M  V30 21282 O 3732.29 -6.33544 6.1349 0
M  V30 21283 O 3731.75 -6.7751 3.72168 0
M  V30 21284 C 3730.81 -7.20825 2.7076 0
M  V30 21285 C 3731.54 -7.45864 1.40599 0
M  V30 21286 O 3731.75 -6.17651 0.734225 0
M  V30 21287 C 3732.94 -8.05808 1.51899 0
M  V30 21288 O 3733.33 -8.74358 0.335205 0
M  V30 21289 C 3733.82 -6.83093 1.70294 0
M  V30 21290 C 3733.11 -5.79992 0.836974 0
M  V30 21291 N 3733.16 -4.41864 1.38293 0
M  V30 21292 H 3730.32 -8.13644 3.0377 0
M  V30 21293 H 3730.05 -6.42788 2.55485 0
M  V30 21294 H 3730.92 -8.12039 0.792769 0
M  V30 21295 P 3734.88 -8.91 1.43795e-10 0
M  V30 21296 O 3735.1 -10.1726 -0.733694 0
M  V30 21297 O 3735.67 -8.73148 1.23936 0
M  V30 21298 O 3735.13 -7.66872 -0.971405 0
M  V30 21299 C 3734.19 -7.42309 -2.04641 0
M  V30 21300 C 3734.92 -6.86059 -3.24661 0
M  V30 21301 O 3735.13 -5.42847 -3.03646 0
M  V30 21302 C 3736.32 -7.41196 -3.50753 0
M  V30 21303 O 3736.71 -7.27073 -4.86816 0
M  V30 21304 C 3737.2 -6.5273 -2.63741 0
M  V30 21305 C 3736.49 -5.1842 -2.73198 0
M  V30 21306 N 3736.54 -4.38762 -1.4784 0
M  V30 21307 H 3733.7 -8.36803 -2.32493 0
M  V30 21308 H 3733.43 -6.70197 -1.71129 0
M  V30 21309 H 3734.3 -7.03551 -4.13168 0
M  V30 21310 P 3738.26 -7.20834 -5.23717 0
M  V30 21311 O 3738.48 -7.79853 -6.57286 0
M  V30 21312 O 3739.05 -7.79239 -4.12957 0
M  V30 21313 O 3738.51 -5.63315 -5.29344 0
M  V30 21314 C 3737.57 -4.80255 -6.01876 0
M  V30 21315 C 3738.3 -3.64202 -6.65911 0
M  V30 21316 O 3738.51 -2.60694 -5.64732 0
M  V30 21317 C 3739.7 -3.93473 -7.1943 0
M  V30 21318 O 3740.09 -3.02071 -8.21205 0
M  V30 21319 C 3740.58 -3.73047 -5.97036 0
M  V30 21320 C 3739.87 -2.58828 -5.25741 0
M  V30 21321 N 3739.92 -2.68068 -3.77503 0
M  V30 21322 C 3739.84 -3.79715 -2.96723 0
M  V30 21323 N 3739.92 -3.5377 -1.68852 0
M  V30 21324 C 3740.06 -2.15054 -1.63254 0
M  V30 21325 C 3740.19 -1.28964 -0.518571 0
M  V30 21326 O 3740.21 -1.56826 0.679156 0
M  V30 21327 N 3740.31 0.0538097 -0.918425 0
M  V30 21328 C 3740.31 0.494275 -2.22578 0
M  V30 21329 N 3740.44 1.81086 -2.40434 0
M  V30 21330 N 3740.18 -0.313645 -3.27502 0
M  V30 21331 C 3740.06 -1.61829 -2.91033 0
M  V30 21332 H 3737.08 -5.40332 -6.79951 0
M  V30 21333 H 3736.81 -4.41613 -5.32378 0
M  V30 21334 H 3737.68 -3.26331 -7.47797 0
M  V30 21335 H 3740.33 -1.63422 -5.56814 0
M  V30 21336 H 3740.61 -4.63374 -5.34244 0
M  V30 21337 H 3741.6 -3.44728 -6.25838 0
M  V30 21338 H 3739.77 -4.96652 -7.57263 0
M  V30 21339 H 3739.72 -4.80617 -3.3614 0
M  V30 21340 H 3740.4 0.742702 -0.199384 0
M  V30 21341 H 3740.44 2.20598 -3.35588 0
M  V30 21342 H 3740.54 2.43518 -1.58945 0
M  V30 21343 P 3741.64 -2.75334 -8.47391 0
M  V30 21344 O 3741.86 -2.44571 -9.90142 0
M  V30 21345 O 3742.43 -3.87688 -7.92115 0
M  V30 21346 O 3741.89 -1.4459 -7.59357 0
M  V30 21347 C 3740.95 -0.347608 -7.69215 0
M  V30 21348 C 3741.68 0.96767 -7.52806 0
M  V30 21349 O 3741.89 1.21036 -6.1011 0
M  V30 21350 C 3743.08 1.04544 -8.13308 0
M  V30 21351 O 3743.47 2.38311 -8.41922 0
M  V30 21352 C 3743.96 0.491279 -7.02284 0
M  V30 21353 C 3743.25 0.996264 -5.77469 0
M  V30 21354 N 3743.3 0.0501916 -4.62973 0
M  V30 21355 H 3740.46 -0.374722 -8.67691 0
M  V30 21356 H 3740.19 -0.443485 -6.90277 0
M  V30 21357 H 3741.06 1.75537 -7.96793 0
M  V30 21358 P 3745.02 2.75334 -8.47391 0
M  V30 21359 O 3745.24 3.84128 -9.44797 0
M  V30 21360 O 3745.81 1.51947 -8.68712 0
M  V30 21361 O 3745.27 3.29363 -6.99321 0
M  V30 21362 C 3744.33 4.24011 -6.4274 0
M  V30 21363 C 3745.06 5.20775 -5.52155 0
M  V30 21364 O 3745.27 4.56534 -4.22446 0
M  V30 21365 C 3746.46 5.62629 -5.96531 0
M  V30 21366 O 3746.85 6.87667 -5.41053 0
M  V30 21367 C 3747.34 4.52537 -5.39283 0
M  V30 21368 C 3746.63 4.20027 -4.08623 0
M  V30 21369 N 3746.68 2.76189 -3.71603 0
M  V30 21370 H 3743.84 4.797 -7.24003 0
M  V30 21371 H 3743.57 3.69856 -5.84513 0
M  V30 21372 H 3744.44 6.10356 -5.41441 0
M  V30 21373 P 3748.4 7.20834 -5.23717 0
M  V30 21374 O 3748.62 8.66104 -5.38572 0
M  V30 21375 O 3749.19 6.33544 -6.1349 0
M  V30 21376 O 3748.65 6.7751 -3.72168 0
M  V30 21377 C 3747.71 7.20825 -2.7076 0
M  V30 21378 C 3748.44 7.45864 -1.40599 0
M  V30 21379 O 3748.65 6.17651 -0.734225 0
M  V30 21380 C 3749.84 8.05808 -1.51899 0
M  V30 21381 O 3750.23 8.74358 -0.335205 0
M  V30 21382 C 3750.72 6.83093 -1.70294 0
M  V30 21383 C 3750.01 5.79992 -0.836974 0
M  V30 21384 N 3750.06 4.41864 -1.38293 0
M  V30 21385 C 3749.98 3.99538 -2.69438 0
M  V30 21386 N 3750.06 2.69909 -2.84277 0
M  V30 21387 C 3750.2 2.21719 -1.5408 0
M  V30 21388 C 3750.33 0.891712 -1.06628 0
M  V30 21389 O 3750.35 -0.161298 -1.70137 0
M  V30 21390 N 3750.45 0.856846 0.334985 0
M  V30 21391 C 3750.45 1.9641 1.15789 0
M  V30 21392 N 3750.58 1.72708 2.46522 0
M  V30 21393 N 3750.32 3.21165 0.713741 0
M  V30 21394 C 3750.2 3.26797 -0.639748 0
M  V30 21395 H 3747.22 8.13644 -3.0377 0
M  V30 21396 H 3746.95 6.42788 -2.55485 0
M  V30 21397 H 3747.82 8.12039 -0.792769 0
M  V30 21398 H 3750.47 5.80061 0.166416 0
M  V30 21399 H 3750.75 6.51287 -2.75604 0
M  V30 21400 H 3751.74 7.01734 -1.34462 0
M  V30 21401 H 3749.91 8.73674 -2.38337 0
M  V30 21402 H 3749.86 4.68207 -3.53221 0
M  V30 21403 H 3750.54 -0.0398818 0.767965 0
M  V30 21404 H 3750.58 2.50995 3.13503 0
M  V30 21405 H 3750.68 0.759148 2.80716 0
M  V30 21406 P 3751.78 8.91 -1.44904e-10 0
M  V30 21407 O 3752 10.1726 0.733694 0
M  V30 21408 O 3752.57 8.73148 -1.23936 0
M  V30 21409 O 3752.03 7.66872 0.971405 0
M  V30 21410 C 3751.09 7.42309 2.04641 0
M  V30 21411 C 3751.82 6.86059 3.24661 0
M  V30 21412 O 3752.03 5.42847 3.03646 0
M  V30 21413 C 3753.22 7.41196 3.50753 0
M  V30 21414 O 3753.61 7.27073 4.86816 0
M  V30 21415 C 3754.1 6.5273 2.63741 0
M  V30 21416 C 3753.39 5.1842 2.73198 0
M  V30 21417 N 3753.44 4.38762 1.4784 0
M  V30 21418 H 3750.6 8.36803 2.32493 0
M  V30 21419 H 3750.33 6.70197 1.71129 0
M  V30 21420 H 3751.2 7.03551 4.13168 0
M  V30 21421 P 3755.16 7.20834 5.23717 0
M  V30 21422 O 3755.38 7.79853 6.57286 0
M  V30 21423 O 3755.95 7.79239 4.12957 0
M  V30 21424 O 3755.41 5.63315 5.29344 0
M  V30 21425 C 3754.47 4.80255 6.01876 0
M  V30 21426 C 3755.2 3.64202 6.65911 0
M  V30 21427 O 3755.41 2.60694 5.64732 0
M  V30 21428 C 3756.6 3.93473 7.1943 0
M  V30 21429 O 3756.99 3.02071 8.21205 0
M  V30 21430 C 3757.48 3.73047 5.97036 0
M  V30 21431 C 3756.77 2.58828 5.25741 0
M  V30 21432 N 3756.82 2.68068 3.77503 0
M  V30 21433 C 3756.74 3.79715 2.96723 0
M  V30 21434 N 3756.82 3.5377 1.68852 0
M  V30 21435 C 3756.96 2.15054 1.63254 0
M  V30 21436 C 3757.09 1.28964 0.518571 0
M  V30 21437 O 3757.11 1.56826 -0.679156 0
M  V30 21438 N 3757.21 -0.0538097 0.918425 0
M  V30 21439 C 3757.21 -0.494275 2.22578 0
M  V30 21440 N 3757.34 -1.81086 2.40434 0
M  V30 21441 N 3757.08 0.313645 3.27502 0
M  V30 21442 C 3756.96 1.61829 2.91033 0
M  V30 21443 H 3753.98 5.40332 6.79951 0
M  V30 21444 H 3753.71 4.41613 5.32378 0
M  V30 21445 H 3754.58 3.26331 7.47797 0
M  V30 21446 H 3757.23 1.63422 5.56814 0
M  V30 21447 H 3757.51 4.63374 5.34244 0
M  V30 21448 H 3758.5 3.44728 6.25838 0
M  V30 21449 H 3756.67 4.96652 7.57263 0
M  V30 21450 H 3756.62 4.80617 3.3614 0
M  V30 21451 H 3757.3 -0.742702 0.199384 0
M  V30 21452 H 3757.34 -2.20598 3.35588 0
M  V30 21453 H 3757.44 -2.43518 1.58945 0
M  V30 21454 P 3758.54 2.75334 8.47391 0
M  V30 21455 O 3758.76 2.44571 9.90142 0
M  V30 21456 O 3759.33 3.87688 7.92115 0
M  V30 21457 O 3758.79 1.4459 7.59357 0
M  V30 21458 C 3757.85 0.347608 7.69215 0
M  V30 21459 C 3758.58 -0.96767 7.52806 0
M  V30 21460 O 3758.79 -1.21036 6.1011 0
M  V30 21461 C 3759.98 -1.04544 8.13308 0
M  V30 21462 O 3760.37 -2.38311 8.41922 0
M  V30 21463 C 3760.86 -0.491279 7.02284 0
M  V30 21464 C 3760.15 -0.996264 5.77469 0
M  V30 21465 N 3760.2 -0.0501916 4.62973 0
M  V30 21466 H 3757.36 0.374722 8.67691 0
M  V30 21467 H 3757.09 0.443485 6.90277 0
M  V30 21468 H 3757.96 -1.75537 7.96793 0
M  V30 21469 P 3761.92 -2.75334 8.47391 0
M  V30 21470 O 3762.14 -3.84128 9.44797 0
M  V30 21471 O 3762.71 -1.51947 8.68712 0
M  V30 21472 O 3762.17 -3.29363 6.99321 0
M  V30 21473 C 3761.23 -4.24011 6.4274 0
M  V30 21474 C 3761.96 -5.20775 5.52155 0
M  V30 21475 O 3762.17 -4.56534 4.22446 0
M  V30 21476 C 3763.36 -5.62629 5.96531 0
M  V30 21477 O 3763.75 -6.87667 5.41053 0
M  V30 21478 C 3764.24 -4.52537 5.39283 0
M  V30 21479 C 3763.53 -4.20027 4.08623 0
M  V30 21480 N 3763.58 -2.76189 3.71603 0
M  V30 21481 C 3763.5 -1.64862 4.52822 0
M  V30 21482 N 3763.58 -0.512671 3.88633 0
M  V30 21483 C 3763.72 -0.888083 2.54977 0
M  V30 21484 C 3763.85 -0.094668 1.38677 0
M  V30 21485 O 3763.87 1.13053 1.28163 0
M  V30 21486 N 3763.97 -0.890102 0.232633 0
M  V30 21487 C 3763.97 -2.26958 0.21772 0
M  V30 21488 N 3764.1 -2.84626 -0.97925 0
M  V30 21489 N 3763.84 -3.0178 1.31033 0
M  V30 21490 C 3763.72 -2.26781 2.43843 0
M  V30 21491 H 3760.74 -4.797 7.24003 0
M  V30 21492 H 3760.47 -3.69856 5.84513 0
M  V30 21493 H 3761.34 -6.10356 5.41441 0
M  V30 21494 H 3763.99 -4.79061 3.27488 0
M  V30 21495 H 3764.27 -3.64906 6.05785 0
M  V30 21496 H 3765.26 -4.8868 5.2125 0
M  V30 21497 H 3763.43 -5.66726 7.06352 0
M  V30 21498 H 3763.38 -1.71169 5.60966 0
M  V30 21499 H 3764.06 -0.419134 -0.644739 0
M  V30 21500 H 3764.1 -3.87332 -1.06098 0
M  V30 21501 H 3764.2 -2.26417 -1.82483 0
M  V30 21502 P 3765.3 -7.20834 5.23717 0
M  V30 21503 O 3765.52 -8.66104 5.38572 0
M  V30 21504 O 3766.09 -6.33544 6.1349 0
M  V30 21505 O 3765.55 -6.7751 3.72168 0
M  V30 21506 C 3764.61 -7.20825 2.7076 0
M  V30 21507 C 3765.34 -7.45864 1.40599 0
M  V30 21508 O 3765.55 -6.17651 0.734225 0
M  V30 21509 C 3766.74 -8.05808 1.51899 0
M  V30 21510 O 3767.13 -8.74358 0.335205 0
M  V30 21511 C 3767.62 -6.83093 1.70294 0
M  V30 21512 C 3766.91 -5.79992 0.836974 0
M  V30 21513 N 3766.96 -4.41864 1.38293 0
M  V30 21514 H 3764.12 -8.13644 3.0377 0
M  V30 21515 H 3763.85 -6.42788 2.55485 0
M  V30 21516 H 3764.72 -8.12039 0.792769 0
M  V30 21517 P 3768.68 -8.91 1.46013e-10 0
M  V30 21518 O 3768.9 -10.1726 -0.733694 0
M  V30 21519 O 3769.47 -8.73148 1.23936 0
M  V30 21520 O 3768.93 -7.66872 -0.971405 0
M  V30 21521 C 3767.99 -7.42309 -2.04641 0
M  V30 21522 C 3768.72 -6.86059 -3.24661 0
M  V30 21523 O 3768.93 -5.42847 -3.03646 0
M  V30 21524 C 3770.12 -7.41196 -3.50753 0
M  V30 21525 O 3770.51 -7.27073 -4.86816 0
M  V30 21526 C 3771 -6.5273 -2.63741 0
M  V30 21527 C 3770.29 -5.1842 -2.73198 0
M  V30 21528 N 3770.34 -4.38762 -1.4784 0
M  V30 21529 C 3770.26 -4.81605 -0.168631 0
M  V30 21530 N 3770.34 -3.85454 0.713363 0
M  V30 21531 C 3770.48 -2.6994 -0.0566958 0
M  V30 21532 C 3770.61 -1.34815 0.338502 0
M  V30 21533 O 3770.63 -0.869548 1.47125 0
M  V30 21534 N 3770.73 -0.496304 -0.77465 0
M  V30 21535 C 3770.73 -0.908403 -2.09122 0
M  V30 21536 N 3770.86 0.0517805 -3.00955 0
M  V30 21537 N 3770.6 -2.17875 -2.46519 0
M  V30 21538 C 3770.48 -3.01988 -1.4033 0
M  V30 21539 H 3767.5 -8.36803 -2.32493 0
M  V30 21540 H 3767.23 -6.70197 -1.71129 0
M  V30 21541 H 3768.1 -7.03551 -4.13168 0
M  V30 21542 H 3770.75 -4.59498 -3.54415 0
M  V30 21543 H 3771.03 -6.88898 -1.59848 0
M  V30 21544 H 3772.02 -6.46749 -3.03687 0
M  V30 21545 H 3770.19 -8.46908 -3.20714 0
M  V30 21546 H 3770.14 -5.86405 0.105564 0
M  V30 21547 H 3770.82 0.483664 -0.597855 0
M  V30 21548 H 3770.86 -0.187865 -4.0116 0
M  V30 21549 H 3770.96 1.03585 -2.71726 0
M  V30 21550 P 3772.06 -7.20834 -5.23717 0
M  V30 21551 O 3772.28 -7.79853 -6.57286 0
M  V30 21552 O 3772.85 -7.79239 -4.12957 0
M  V30 21553 O 3772.31 -5.63315 -5.29344 0
M  V30 21554 C 3771.37 -4.80255 -6.01876 0
M  V30 21555 C 3772.1 -3.64202 -6.65911 0
M  V30 21556 O 3772.31 -2.60694 -5.64732 0
M  V30 21557 C 3773.5 -3.93473 -7.1943 0
M  V30 21558 O 3773.89 -3.02071 -8.21205 0
M  V30 21559 C 3774.38 -3.73047 -5.97036 0
M  V30 21560 C 3773.67 -2.58828 -5.25741 0
M  V30 21561 N 3773.72 -2.68068 -3.77503 0
M  V30 21562 H 3770.88 -5.40332 -6.79951 0
M  V30 21563 H 3770.61 -4.41613 -5.32378 0
M  V30 21564 H 3771.48 -3.26331 -7.47797 0
M  V30 21565 P 3775.44 -2.75334 -8.47391 0
M  V30 21566 O 3775.66 -2.44571 -9.90142 0
M  V30 21567 O 3776.23 -3.87688 -7.92115 0
M  V30 21568 O 3775.69 -1.4459 -7.59357 0
M  V30 21569 C 3774.75 -0.347608 -7.69215 0
M  V30 21570 C 3775.48 0.96767 -7.52806 0
M  V30 21571 O 3775.69 1.21036 -6.1011 0
M  V30 21572 C 3776.88 1.04544 -8.13308 0
M  V30 21573 O 3777.27 2.38311 -8.41922 0
M  V30 21574 C 3777.76 0.491279 -7.02284 0
M  V30 21575 C 3777.05 0.996264 -5.77469 0
M  V30 21576 N 3777.1 0.0501916 -4.62973 0
M  V30 21577 C 3777.02 -1.32786 -4.63244 0
M  V30 21578 N 3777.1 -1.86957 -3.44545 0
M  V30 21579 C 3777.24 -0.780241 -2.58481 0
M  V30 21580 C 3777.37 -0.738536 -1.17757 0
M  V30 21581 O 3777.39 -1.66794 -0.372349 0
M  V30 21582 N 3777.49 0.58337 -0.711393 0
M  V30 21583 C 3777.49 1.70816 -1.51017 0
M  V30 21584 N 3777.62 2.87826 -0.880757 0
M  V30 21585 N 3777.36 1.67126 -2.8339 0
M  V30 21586 C 3777.24 0.401421 -3.30572 0
M  V30 21587 H 3774.26 -0.374722 -8.67691 0
M  V30 21588 H 3773.99 -0.443485 -6.90277 0
M  V30 21589 H 3774.86 1.75537 -7.96793 0
M  V30 21590 H 3777.51 1.95076 -5.46529 0
M  V30 21591 H 3777.79 -0.608565 -7.04577 0
M  V30 21592 H 3778.78 0.889672 -7.08939 0
M  V30 21593 H 3776.95 0.43308 -9.04564 0
M  V30 21594 H 3776.9 -1.91249 -5.54442 0
M  V30 21595 H 3777.58 0.718054 0.275244 0
M  V30 21596 H 3777.62 3.75721 -1.41832 0
M  V30 21597 H 3777.72 2.90436 0.145468 0
M  V30 21598 P 3778.82 2.75334 -8.47391 0
M  V30 21599 O 3779.04 3.84128 -9.44797 0
M  V30 21600 O 3779.61 1.51947 -8.68712 0
M  V30 21601 O 3779.07 3.29363 -6.99321 0
M  V30 21602 C 3778.13 4.24011 -6.4274 0
M  V30 21603 C 3778.86 5.20775 -5.52155 0
M  V30 21604 O 3779.07 4.56534 -4.22446 0
M  V30 21605 C 3780.26 5.62629 -5.96531 0
M  V30 21606 O 3780.65 6.87667 -5.41053 0
M  V30 21607 C 3781.14 4.52537 -5.39283 0
M  V30 21608 C 3780.43 4.20027 -4.08623 0
M  V30 21609 N 3780.48 2.76189 -3.71603 0
M  V30 21610 H 3777.64 4.797 -7.24003 0
M  V30 21611 H 3777.37 3.69856 -5.84513 0
M  V30 21612 H 3778.24 6.10356 -5.41441 0
M  V30 21613 P 3782.2 7.20834 -5.23717 0
M  V30 21614 O 3782.42 8.66104 -5.38572 0
M  V30 21615 O 3782.99 6.33544 -6.1349 0
M  V30 21616 O 3782.45 6.7751 -3.72168 0
M  V30 21617 C 3781.51 7.20825 -2.7076 0
M  V30 21618 C 3782.24 7.45864 -1.40599 0
M  V30 21619 O 3782.45 6.17651 -0.734225 0
M  V30 21620 C 3783.64 8.05808 -1.51899 0
M  V30 21621 O 3784.03 8.74358 -0.335205 0
M  V30 21622 C 3784.52 6.83093 -1.70294 0
M  V30 21623 C 3783.81 5.79992 -0.836974 0
M  V30 21624 N 3783.86 4.41864 -1.38293 0
M  V30 21625 H 3781.02 8.13644 -3.0377 0
M  V30 21626 H 3780.75 6.42788 -2.55485 0
M  V30 21627 H 3781.62 8.12039 -0.792769 0
M  V30 21628 P 3785.58 8.91 -1.47122e-10 0
M  V30 21629 O 3785.8 10.1726 0.733694 0
M  V30 21630 O 3786.37 8.73148 -1.23936 0
M  V30 21631 O 3785.83 7.66872 0.971405 0
M  V30 21632 C 3784.89 7.42309 2.04641 0
M  V30 21633 C 3785.62 6.86059 3.24661 0
M  V30 21634 O 3785.83 5.42847 3.03646 0
M  V30 21635 C 3787.02 7.41196 3.50753 0
M  V30 21636 O 3787.41 7.27073 4.86816 0
M  V30 21637 C 3787.9 6.5273 2.63741 0
M  V30 21638 C 3787.19 5.1842 2.73198 0
M  V30 21639 N 3787.24 4.38762 1.4784 0
M  V30 21640 H 3784.4 8.36803 2.32493 0
M  V30 21641 H 3784.13 6.70197 1.71129 0
M  V30 21642 H 3785 7.03551 4.13168 0
M  V30 21643 P 3788.96 7.20834 5.23717 0
M  V30 21644 O 3789.18 7.79853 6.57286 0
M  V30 21645 O 3789.75 7.79239 4.12957 0
M  V30 21646 O 3789.21 5.63315 5.29344 0
M  V30 21647 C 3788.27 4.80255 6.01876 0
M  V30 21648 C 3789 3.64202 6.65911 0
M  V30 21649 O 3789.21 2.60694 5.64732 0
M  V30 21650 C 3790.4 3.93473 7.1943 0
M  V30 21651 O 3790.79 3.02071 8.21205 0
M  V30 21652 C 3791.28 3.73047 5.97036 0
M  V30 21653 C 3790.57 2.58828 5.25741 0
M  V30 21654 N 3790.62 2.68068 3.77503 0
M  V30 21655 H 3787.78 5.40332 6.79951 0
M  V30 21656 H 3787.51 4.41613 5.32378 0
M  V30 21657 H 3788.38 3.26331 7.47797 0
M  V30 21658 P 3792.34 2.75334 8.47391 0
M  V30 21659 O 3792.56 2.44571 9.90142 0
M  V30 21660 O 3793.13 3.87688 7.92115 0
M  V30 21661 O 3792.59 1.4459 7.59357 0
M  V30 21662 C 3791.65 0.347608 7.69215 0
M  V30 21663 C 3792.38 -0.96767 7.52806 0
M  V30 21664 O 3792.59 -1.21036 6.1011 0
M  V30 21665 C 3793.78 -1.04544 8.13308 0
M  V30 21666 O 3794.17 -2.38311 8.41922 0
M  V30 21667 C 3794.66 -0.491279 7.02284 0
M  V30 21668 C 3793.95 -0.996264 5.77469 0
M  V30 21669 N 3794 -0.0501916 4.62973 0
M  V30 21670 H 3791.16 0.374722 8.67691 0
M  V30 21671 H 3790.89 0.443485 6.90277 0
M  V30 21672 H 3791.76 -1.75537 7.96793 0
M  V30 21673 P 3795.72 -2.75334 8.47391 0
M  V30 21674 O 3795.94 -3.84204 9.44982 0
M  V30 21675 O 3796.51 -1.51982 8.68909 0
M  V30 21676 O 3795.97 -3.29363 6.99321 0
M  V30 21677 C 3795.03 -4.24066 6.42823 0
M  V30 21678 C 3795.76 -5.20775 5.52155 0
M  V30 21679 O 3795.97 -4.56607 4.22514 0
M  V30 21680 C 3797.16 -5.62697 5.96604 0
M  V30 21681 O 3797.55 -6.87667 5.41053 0
M  V30 21682 C 3798.04 -4.52537 5.39283 0
M  V30 21683 C 3797.33 -4.20027 4.08623 0
M  V30 21684 N 3797.38 -2.76189 3.71603 0
M  V30 21685 C 3797.3 -1.66944 4.54297 0
M  V30 21686 N 3797.37 -0.536169 3.91344 0
M  V30 21687 C 3797.52 -0.901569 2.58849 0
M  V30 21688 C 3797.65 -0.146599 1.40236 0
M  V30 21689 N 3797.66 1.18234 1.37046 0
M  V30 21690 N 3797.77 -0.822941 0.249738 0
M  V30 21691 C 3797.76 -2.15179 0.280525 0
M  V30 21692 N 3797.64 -2.96414 1.30822 0
M  V30 21693 C 3797.52 -2.25804 2.44748 0
M  V30 21694 H 3794.54 -4.79756 7.24086 0
M  V30 21695 H 3794.27 -3.69963 5.84682 0
M  V30 21696 H 3795.14 -6.10431 5.41508 0
M  V30 21697 H 3797.79 -4.78816 3.28024 0
M  V30 21698 H 3798.07 -3.64957 6.05871 0
M  V30 21699 H 3799.06 -4.88748 5.21323 0
M  V30 21700 H 3797.23 -5.66789 7.0643 0
M  V30 21701 H 3797.19 -1.74684 5.62396 0
M  V30 21702 H 3797.57 1.71949 2.24394 0
M  V30 21703 H 3797.76 1.67511 0.470742 0
M  V30 21704 H 3797.86 -2.63704 -0.6828 0
M  V30 21705 P 3799.1 -7.20834 5.23717 0
M  V30 21706 O 3799.32 -8.66189 5.38625 0
M  V30 21707 O 3799.89 -6.33615 6.1356 0
M  V30 21708 O 3799.35 -6.7751 3.72168 0
M  V30 21709 C 3798.41 -7.20825 2.7076 0
M  V30 21710 C 3799.14 -7.45864 1.40599 0
M  V30 21711 O 3799.35 -6.17651 0.734225 0
M  V30 21712 C 3800.54 -8.05808 1.51899 0
M  V30 21713 O 3800.93 -8.74358 0.335205 0
M  V30 21714 C 3801.42 -6.83093 1.70294 0
M  V30 21715 C 3800.71 -5.79992 0.836974 0
M  V30 21716 N 3800.76 -4.41769 1.38263 0
M  V30 21717 C 3800.91 -3.36514 0.485617 0
M  V30 21718 O 3801 -3.61814 -0.724703 0
M  V30 21719 N 3800.96 -2.00746 1.14492 0
M  V30 21720 C 3800.86 -1.85887 2.27776 0
M  V30 21721 N 3800.91 -0.600907 2.69379 0
M  V30 21722 C 3800.71 -2.92182 3.22265 0
M  V30 21723 C 3800.66 -4.18399 2.71925 0
M  V30 21724 H 3797.92 -8.1355 3.03735 0
M  V30 21725 H 3797.65 -6.42695 2.55448 0
M  V30 21726 H 3798.52 -8.12139 0.792866 0
M  V30 21727 H 3801.17 -5.80078 -0.160615 0
M  V30 21728 H 3801.45 -6.51379 2.75643 0
M  V30 21729 H 3802.44 -7.01734 1.34462 0
M  V30 21730 H 3800.61 -8.73674 2.38337 0
M  V30 21731 H 3800.54 -5.02669 3.39718 0
M  V30 21732 H 3800.64 -2.73001 4.29239 0
M  V30 21733 H 3801.03 0.162318 2.01146 0
M  V30 21734 H 3800.83 -0.387742 3.69773 0
M  V30 21735 P 3802.48 -8.91 1.48231e-10 0
M  V30 21736 O 3802.7 -10.1726 -0.733694 0
M  V30 21737 O 3803.27 -8.73148 1.23936 0
M  V30 21738 O 3802.73 -7.66872 -0.971405 0
M  V30 21739 C 3801.79 -7.42309 -2.04641 0
M  V30 21740 C 3802.52 -6.86059 -3.24661 0
M  V30 21741 O 3802.73 -5.42847 -3.03646 0
M  V30 21742 C 3803.92 -7.41196 -3.50753 0
M  V30 21743 O 3804.31 -7.27073 -4.86816 0
M  V30 21744 C 3804.8 -6.5273 -2.63741 0
M  V30 21745 C 3804.09 -5.1842 -2.73198 0
M  V30 21746 N 3804.14 -4.38762 -1.4784 0
M  V30 21747 H 3801.3 -8.36803 -2.32493 0
M  V30 21748 H 3801.03 -6.70197 -1.71129 0
M  V30 21749 H 3801.9 -7.03551 -4.13168 0
M  V30 21750 P 3805.86 -7.20834 -5.23717 0
M  V30 21751 O 3806.08 -7.79853 -6.57286 0
M  V30 21752 O 3806.65 -7.79239 -4.12957 0
M  V30 21753 O 3806.11 -5.63315 -5.29344 0
M  V30 21754 C 3805.17 -4.80255 -6.01876 0
M  V30 21755 C 3805.9 -3.64202 -6.65911 0
M  V30 21756 O 3806.11 -2.60694 -5.64732 0
M  V30 21757 C 3807.3 -3.93473 -7.1943 0
M  V30 21758 O 3807.69 -3.02071 -8.21205 0
M  V30 21759 C 3808.18 -3.73047 -5.97036 0
M  V30 21760 C 3807.47 -2.58828 -5.25741 0
M  V30 21761 N 3807.52 -2.68068 -3.77503 0
M  V30 21762 H 3804.68 -5.40332 -6.79951 0
M  V30 21763 H 3804.41 -4.41613 -5.32378 0
M  V30 21764 H 3805.28 -3.26331 -7.47797 0
M  V30 21765 P 3809.24 -2.75334 -8.47391 0
M  V30 21766 O 3809.46 -2.44571 -9.90142 0
M  V30 21767 O 3810.03 -3.87688 -7.92115 0
M  V30 21768 O 3809.49 -1.4459 -7.59357 0
M  V30 21769 C 3808.55 -0.347608 -7.69215 0
M  V30 21770 C 3809.28 0.96767 -7.52806 0
M  V30 21771 O 3809.49 1.21036 -6.1011 0
M  V30 21772 C 3810.68 1.04544 -8.13308 0
M  V30 21773 O 3811.07 2.38311 -8.41922 0
M  V30 21774 C 3811.56 0.491279 -7.02284 0
M  V30 21775 C 3810.85 0.996264 -5.77469 0
M  V30 21776 N 3810.9 0.0501916 -4.62973 0
M  V30 21777 H 3808.06 -0.374722 -8.67691 0
M  V30 21778 H 3807.79 -0.443485 -6.90277 0
M  V30 21779 H 3808.66 1.75537 -7.96793 0
M  V30 21780 P 3812.62 2.75334 -8.47391 0
M  V30 21781 O 3812.84 3.84128 -9.44797 0
M  V30 21782 O 3813.41 1.51947 -8.68712 0
M  V30 21783 O 3812.87 3.29363 -6.99321 0
M  V30 21784 C 3811.93 4.24011 -6.4274 0
M  V30 21785 C 3812.66 5.20775 -5.52155 0
M  V30 21786 O 3812.87 4.56534 -4.22446 0
M  V30 21787 C 3814.06 5.62629 -5.96531 0
M  V30 21788 O 3814.45 6.87667 -5.41053 0
M  V30 21789 C 3814.94 4.52537 -5.39283 0
M  V30 21790 C 3814.23 4.20027 -4.08623 0
M  V30 21791 N 3814.28 2.76189 -3.71603 0
M  V30 21792 H 3811.44 4.797 -7.24003 0
M  V30 21793 H 3811.17 3.69856 -5.84513 0
M  V30 21794 H 3812.04 6.10356 -5.41441 0
M  V30 21795 P 3816 7.20834 -5.23717 0
M  V30 21796 O 3816.22 8.66104 -5.38572 0
M  V30 21797 O 3816.79 6.33544 -6.1349 0
M  V30 21798 O 3816.25 6.7751 -3.72168 0
M  V30 21799 C 3815.31 7.20825 -2.7076 0
M  V30 21800 C 3816.04 7.45864 -1.40599 0
M  V30 21801 O 3816.25 6.17651 -0.734225 0
M  V30 21802 C 3817.44 8.05808 -1.51899 0
M  V30 21803 O 3817.83 8.74358 -0.335205 0
M  V30 21804 C 3818.32 6.83093 -1.70294 0
M  V30 21805 C 3817.61 5.79992 -0.836974 0
M  V30 21806 N 3817.66 4.41864 -1.38293 0
M  V30 21807 H 3814.82 8.13644 -3.0377 0
M  V30 21808 H 3814.55 6.42788 -2.55485 0
M  V30 21809 H 3815.42 8.12039 -0.792769 0
M  V30 21810 P 3819.38 8.91 -1.4934e-10 0
M  V30 21811 O 3819.6 10.1726 0.733694 0
M  V30 21812 O 3820.17 8.73148 -1.23936 0
M  V30 21813 O 3819.63 7.66872 0.971405 0
M  V30 21814 C 3818.69 7.42309 2.04641 0
M  V30 21815 C 3819.42 6.86059 3.24661 0
M  V30 21816 O 3819.63 5.42847 3.03646 0
M  V30 21817 C 3820.82 7.41196 3.50753 0
M  V30 21818 O 3821.21 7.27073 4.86816 0
M  V30 21819 C 3821.7 6.5273 2.63741 0
M  V30 21820 C 3820.99 5.1842 2.73198 0
M  V30 21821 N 3821.04 4.38762 1.4784 0
M  V30 21822 H 3818.2 8.36803 2.32493 0
M  V30 21823 H 3817.93 6.70197 1.71129 0
M  V30 21824 H 3818.8 7.03551 4.13168 0
M  V30 21825 P 3822.76 7.20834 5.23717 0
M  V30 21826 O 3822.98 7.79853 6.57286 0
M  V30 21827 O 3823.55 7.79239 4.12957 0
M  V30 21828 O 3823.01 5.63315 5.29344 0
M  V30 21829 C 3822.07 4.80255 6.01876 0
M  V30 21830 C 3822.8 3.64202 6.65911 0
M  V30 21831 O 3823.01 2.60694 5.64732 0
M  V30 21832 C 3824.2 3.93473 7.1943 0
M  V30 21833 O 3824.59 3.02071 8.21205 0
M  V30 21834 C 3825.08 3.73047 5.97036 0
M  V30 21835 C 3824.37 2.58828 5.25741 0
M  V30 21836 N 3824.42 2.68068 3.77503 0
M  V30 21837 H 3821.58 5.40332 6.79951 0
M  V30 21838 H 3821.31 4.41613 5.32378 0
M  V30 21839 H 3822.18 3.26331 7.47797 0
M  V30 21840 P 3826.14 2.75334 8.47391 0
M  V30 21841 O 3826.36 2.44571 9.90142 0
M  V30 21842 O 3826.93 3.87688 7.92115 0
M  V30 21843 O 3826.39 1.4459 7.59357 0
M  V30 21844 C 3825.45 0.347608 7.69215 0
M  V30 21845 C 3826.18 -0.96767 7.52806 0
M  V30 21846 O 3826.39 -1.21036 6.1011 0
M  V30 21847 C 3827.58 -1.04544 8.13308 0
M  V30 21848 O 3827.97 -2.38311 8.41922 0
M  V30 21849 C 3828.46 -0.491279 7.02284 0
M  V30 21850 C 3827.75 -0.996264 5.77469 0
M  V30 21851 N 3827.8 -0.0501916 4.62973 0
M  V30 21852 H 3824.96 0.374722 8.67691 0
M  V30 21853 H 3824.69 0.443485 6.90277 0
M  V30 21854 H 3825.56 -1.75537 7.96793 0
M  V30 21855 P 3829.52 -2.75334 8.47391 0
M  V30 21856 O 3829.74 -3.84128 9.44797 0
M  V30 21857 O 3830.31 -1.51947 8.68712 0
M  V30 21858 O 3829.77 -3.29363 6.99321 0
M  V30 21859 C 3828.83 -4.24011 6.4274 0
M  V30 21860 C 3829.56 -5.20775 5.52155 0
M  V30 21861 O 3829.77 -4.56534 4.22446 0
M  V30 21862 C 3830.96 -5.62629 5.96531 0
M  V30 21863 O 3831.35 -6.87667 5.41053 0
M  V30 21864 C 3831.84 -4.52537 5.39283 0
M  V30 21865 C 3831.13 -4.20027 4.08623 0
M  V30 21866 N 3831.18 -2.76189 3.71603 0
M  V30 21867 H 3828.34 -4.797 7.24003 0
M  V30 21868 H 3828.07 -3.69856 5.84513 0
M  V30 21869 H 3828.94 -6.10356 5.41441 0
M  V30 21870 P 3832.9 -7.20834 5.23717 0
M  V30 21871 O 3833.12 -8.66104 5.38572 0
M  V30 21872 O 3833.69 -6.33544 6.1349 0
M  V30 21873 O 3833.15 -6.7751 3.72168 0
M  V30 21874 C 3832.21 -7.20825 2.7076 0
M  V30 21875 C 3832.94 -7.45864 1.40599 0
M  V30 21876 O 3833.15 -6.17651 0.734225 0
M  V30 21877 C 3834.34 -8.05808 1.51899 0
M  V30 21878 O 3834.73 -8.74358 0.335205 0
M  V30 21879 C 3835.22 -6.83093 1.70294 0
M  V30 21880 C 3834.51 -5.79992 0.836974 0
M  V30 21881 N 3834.56 -4.41864 1.38293 0
M  V30 21882 H 3831.72 -8.13644 3.0377 0
M  V30 21883 H 3831.45 -6.42788 2.55485 0
M  V30 21884 H 3832.32 -8.12039 0.792769 0
M  V30 21885 P 3836.28 -8.91 1.50449e-10 0
M  V30 21886 O 3836.5 -10.1726 -0.733694 0
M  V30 21887 O 3837.07 -8.73148 1.23936 0
M  V30 21888 O 3836.53 -7.66872 -0.971405 0
M  V30 21889 C 3835.59 -7.42309 -2.04641 0
M  V30 21890 C 3836.32 -6.86059 -3.24661 0
M  V30 21891 O 3836.53 -5.42847 -3.03646 0
M  V30 21892 C 3837.72 -7.41196 -3.50753 0
M  V30 21893 O 3838.11 -7.27073 -4.86816 0
M  V30 21894 C 3838.6 -6.5273 -2.63741 0
M  V30 21895 C 3837.89 -5.1842 -2.73198 0
M  V30 21896 N 3837.94 -4.38762 -1.4784 0
M  V30 21897 H 3835.1 -8.36803 -2.32493 0
M  V30 21898 H 3834.83 -6.70197 -1.71129 0
M  V30 21899 H 3835.7 -7.03551 -4.13168 0
M  V30 21900 P 3839.66 -7.20834 -5.23717 0
M  V30 21901 O 3839.88 -7.79853 -6.57286 0
M  V30 21902 O 3840.45 -7.79239 -4.12957 0
M  V30 21903 O 3839.91 -5.63315 -5.29344 0
M  V30 21904 C 3838.97 -4.80255 -6.01876 0
M  V30 21905 C 3839.7 -3.64202 -6.65911 0
M  V30 21906 O 3839.91 -2.60694 -5.64732 0
M  V30 21907 C 3841.1 -3.93473 -7.1943 0
M  V30 21908 O 3841.49 -3.02071 -8.21205 0
M  V30 21909 C 3841.98 -3.73047 -5.97036 0
M  V30 21910 C 3841.27 -2.58828 -5.25741 0
M  V30 21911 N 3841.32 -2.68068 -3.77503 0
M  V30 21912 H 3838.48 -5.40332 -6.79951 0
M  V30 21913 H 3838.21 -4.41613 -5.32378 0
M  V30 21914 H 3839.08 -3.26331 -7.47797 0
M  V30 21915 P 3843.04 -2.75334 -8.47391 0
M  V30 21916 O 3843.26 -2.44571 -9.90142 0
M  V30 21917 O 3843.83 -3.87688 -7.92115 0
M  V30 21918 O 3843.29 -1.4459 -7.59357 0
M  V30 21919 C 3842.35 -0.347608 -7.69215 0
M  V30 21920 C 3843.08 0.96767 -7.52806 0
M  V30 21921 O 3843.29 1.21036 -6.1011 0
M  V30 21922 C 3844.48 1.04544 -8.13308 0
M  V30 21923 O 3844.87 2.38311 -8.41922 0
M  V30 21924 C 3845.36 0.491279 -7.02284 0
M  V30 21925 C 3844.65 0.996264 -5.77469 0
M  V30 21926 N 3844.7 0.0501916 -4.62973 0
M  V30 21927 H 3841.86 -0.374722 -8.67691 0
M  V30 21928 H 3841.59 -0.443485 -6.90277 0
M  V30 21929 H 3842.46 1.75537 -7.96793 0
M  V30 21930 P 3846.42 2.75334 -8.47391 0
M  V30 21931 O 3846.64 3.84128 -9.44797 0
M  V30 21932 O 3847.21 1.51947 -8.68712 0
M  V30 21933 O 3846.67 3.29363 -6.99321 0
M  V30 21934 C 3845.73 4.24011 -6.4274 0
M  V30 21935 C 3846.46 5.20775 -5.52155 0
M  V30 21936 O 3846.67 4.56534 -4.22446 0
M  V30 21937 C 3847.86 5.62629 -5.96531 0
M  V30 21938 O 3848.25 6.87667 -5.41053 0
M  V30 21939 C 3848.74 4.52537 -5.39283 0
M  V30 21940 C 3848.03 4.20027 -4.08623 0
M  V30 21941 N 3848.08 2.76189 -3.71603 0
M  V30 21942 H 3845.24 4.797 -7.24003 0
M  V30 21943 H 3844.97 3.69856 -5.84513 0
M  V30 21944 H 3845.84 6.10356 -5.41441 0
M  V30 21945 P 3849.8 7.20834 -5.23717 0
M  V30 21946 O 3850.02 8.66104 -5.38572 0
M  V30 21947 O 3850.59 6.33544 -6.1349 0
M  V30 21948 O 3850.05 6.7751 -3.72168 0
M  V30 21949 C 3849.11 7.20825 -2.7076 0
M  V30 21950 C 3849.84 7.45864 -1.40599 0
M  V30 21951 O 3850.05 6.17651 -0.734225 0
M  V30 21952 C 3851.24 8.05808 -1.51899 0
M  V30 21953 O 3851.63 8.74358 -0.335205 0
M  V30 21954 C 3852.12 6.83093 -1.70294 0
M  V30 21955 C 3851.41 5.79992 -0.836974 0
M  V30 21956 N 3851.46 4.41864 -1.38293 0
M  V30 21957 C 3851.38 3.99538 -2.69438 0
M  V30 21958 N 3851.46 2.69909 -2.84277 0
M  V30 21959 C 3851.6 2.21719 -1.5408 0
M  V30 21960 C 3851.73 0.891712 -1.06628 0
M  V30 21961 N 3851.85 0.856846 0.334985 0
M  V30 21962 C 3851.85 1.9641 1.15789 0
M  V30 21963 N 3851.98 1.72708 2.46522 0
M  V30 21964 N 3851.72 3.21165 0.713741 0
M  V30 21965 C 3851.6 3.26797 -0.639748 0
M  V30 21966 H 3848.62 8.13644 -3.0377 0
M  V30 21967 H 3848.35 6.42788 -2.55485 0
M  V30 21968 H 3849.22 8.12039 -0.792769 0
M  V30 21969 P 3853.18 8.91 -1.51558e-10 0
M  V30 21970 O 3853.4 10.1736 0.733766 0
M  V30 21971 O 3853.97 8.73247 -1.2395 0
M  V30 21972 O 3853.43 7.66872 0.971405 0
M  V30 21973 C 3852.49 7.42212 2.04614 0
M  V30 21974 C 3853.22 6.86059 3.24661 0
M  V30 21975 O 3853.43 5.42847 3.03646 0
M  V30 21976 C 3854.62 7.41196 3.50753 0
M  V30 21977 O 3855.01 7.27073 4.86816 0
M  V30 21978 C 3855.5 6.5273 2.63741 0
M  V30 21979 C 3854.79 5.1842 2.73198 0
M  V30 21980 N 3854.84 4.38668 1.47808 0
M  V30 21981 C 3854.99 3.02239 1.60048 0
M  V30 21982 O 3855.08 2.46459 2.67869 0
M  V30 21983 N 3855.03 2.32436 0.408571 0
M  V30 21984 C 3854.94 2.85471 -0.854993 0
M  V30 21985 O 3854.99 2.12566 -1.8531 0
M  V30 21986 C 3854.79 4.28918 -0.887335 0
M  V30 21987 C 3854.68 4.91066 -2.24619 0
M  V30 21988 C 3854.74 5.00349 0.255399 0
M  V30 21989 H 3852 8.36803 2.32493 0
M  V30 21990 H 3851.73 6.701 1.71105 0
M  V30 21991 H 3852.6 7.03551 4.13168 0
M  V30 21992 H 3855.25 4.59773 3.53894 0
M  V30 21993 H 3855.53 6.88995 1.59871 0
M  V30 21994 H 3856.52 6.46749 3.03687 0
M  V30 21995 H 3854.69 8.46908 3.20714 0
M  V30 21996 H 3854.62 6.08548 0.206986 0
M  V30 21997 H 3855.65 5.34836 -2.53099 0
M  V30 21998 H 3853.91 5.69638 -2.2291 0
M  V30 21999 H 3854.4 4.13971 -2.98044 0
M  V30 22000 H 3855.13 1.33211 0.474216 0
M  V30 22001 P 3856.56 7.20834 5.23717 0
M  V30 22002 O 3856.78 7.79853 6.57286 0
M  V30 22003 O 3857.35 7.79239 4.12957 0
M  V30 22004 O 3856.81 5.63315 5.29344 0
M  V30 22005 C 3855.87 4.80255 6.01876 0
M  V30 22006 C 3856.6 3.64202 6.65911 0
M  V30 22007 O 3856.81 2.60694 5.64732 0
M  V30 22008 C 3858 3.93473 7.1943 0
M  V30 22009 O 3858.39 3.02071 8.21205 0
M  V30 22010 C 3858.88 3.73047 5.97036 0
M  V30 22011 C 3858.17 2.58828 5.25741 0
M  V30 22012 N 3858.22 2.68068 3.77503 0
M  V30 22013 H 3855.38 5.40332 6.79951 0
M  V30 22014 H 3855.11 4.41613 5.32378 0
M  V30 22015 H 3855.98 3.26331 7.47797 0
M  V30 22016 P 3859.94 2.75334 8.47391 0
M  V30 22017 O 3860.16 2.44571 9.90142 0
M  V30 22018 O 3860.73 3.87688 7.92115 0
M  V30 22019 O 3860.19 1.4459 7.59357 0
M  V30 22020 C 3859.25 0.347608 7.69215 0
M  V30 22021 C 3859.98 -0.96767 7.52806 0
M  V30 22022 O 3860.19 -1.21036 6.1011 0
M  V30 22023 C 3861.38 -1.04544 8.13308 0
M  V30 22024 O 3861.77 -2.38311 8.41922 0
M  V30 22025 C 3862.26 -0.491279 7.02284 0
M  V30 22026 C 3861.55 -0.996264 5.77469 0
M  V30 22027 N 3861.6 -0.0501916 4.62973 0
M  V30 22028 H 3858.76 0.374722 8.67691 0
M  V30 22029 H 3858.49 0.443485 6.90277 0
M  V30 22030 H 3859.36 -1.75537 7.96793 0
M  V30 22031 P 3863.32 -2.75334 8.47391 0
M  V30 22032 O 3863.54 -3.84128 9.44797 0
M  V30 22033 O 3864.11 -1.51947 8.68712 0
M  V30 22034 O 3863.57 -3.29363 6.99321 0
M  V30 22035 C 3862.63 -4.24011 6.4274 0
M  V30 22036 C 3863.36 -5.20775 5.52155 0
M  V30 22037 O 3863.57 -4.56534 4.22446 0
M  V30 22038 C 3864.76 -5.62629 5.96531 0
M  V30 22039 O 3865.15 -6.87667 5.41053 0
M  V30 22040 C 3865.64 -4.52537 5.39283 0
M  V30 22041 C 3864.93 -4.20027 4.08623 0
M  V30 22042 N 3864.98 -2.76189 3.71603 0
M  V30 22043 H 3862.14 -4.797 7.24003 0
M  V30 22044 H 3861.87 -3.69856 5.84513 0
M  V30 22045 H 3862.74 -6.10356 5.41441 0
M  V30 22046 P 3866.7 -7.20834 5.23717 0
M  V30 22047 O 3866.92 -8.66104 5.38572 0
M  V30 22048 O 3867.49 -6.33544 6.1349 0
M  V30 22049 O 3866.95 -6.7751 3.72168 0
M  V30 22050 C 3866.01 -7.20825 2.7076 0
M  V30 22051 C 3866.74 -7.45864 1.40599 0
M  V30 22052 O 3866.95 -6.17651 0.734225 0
M  V30 22053 C 3868.14 -8.05808 1.51899 0
M  V30 22054 O 3868.53 -8.74358 0.335205 0
M  V30 22055 C 3869.02 -6.83093 1.70294 0
M  V30 22056 C 3868.31 -5.79992 0.836974 0
M  V30 22057 N 3868.36 -4.41864 1.38293 0
M  V30 22058 H 3865.52 -8.13644 3.0377 0
M  V30 22059 H 3865.25 -6.42788 2.55485 0
M  V30 22060 H 3866.12 -8.12039 0.792769 0
M  V30 22061 P 3870.08 -8.91 1.52667e-10 0
M  V30 22062 O 3870.3 -10.1726 -0.733694 0
M  V30 22063 O 3870.87 -8.73148 1.23936 0
M  V30 22064 O 3870.33 -7.66872 -0.971405 0
M  V30 22065 C 3869.39 -7.42309 -2.04641 0
M  V30 22066 C 3870.12 -6.86059 -3.24661 0
M  V30 22067 O 3870.33 -5.42847 -3.03646 0
M  V30 22068 C 3871.52 -7.41196 -3.50753 0
M  V30 22069 O 3871.91 -7.27073 -4.86816 0
M  V30 22070 C 3872.4 -6.5273 -2.63741 0
M  V30 22071 C 3871.69 -5.1842 -2.73198 0
M  V30 22072 N 3871.74 -4.38762 -1.4784 0
M  V30 22073 H 3868.9 -8.36803 -2.32493 0
M  V30 22074 H 3868.63 -6.70197 -1.71129 0
M  V30 22075 H 3869.5 -7.03551 -4.13168 0
M  V30 22076 P 3873.46 -7.20834 -5.23717 0
M  V30 22077 O 3873.68 -7.79853 -6.57286 0
M  V30 22078 O 3874.25 -7.79239 -4.12957 0
M  V30 22079 O 3873.71 -5.63315 -5.29344 0
M  V30 22080 C 3872.77 -4.80255 -6.01876 0
M  V30 22081 C 3873.5 -3.64202 -6.65911 0
M  V30 22082 O 3873.71 -2.60694 -5.64732 0
M  V30 22083 C 3874.9 -3.93473 -7.1943 0
M  V30 22084 O 3875.29 -3.02071 -8.21205 0
M  V30 22085 C 3875.78 -3.73047 -5.97036 0
M  V30 22086 C 3875.07 -2.58828 -5.25741 0
M  V30 22087 N 3875.12 -2.68068 -3.77503 0
M  V30 22088 C 3875.04 -3.79715 -2.96723 0
M  V30 22089 N 3875.12 -3.5377 -1.68852 0
M  V30 22090 C 3875.26 -2.15054 -1.63254 0
M  V30 22091 C 3875.39 -1.28964 -0.518571 0
M  V30 22092 O 3875.41 -1.56826 0.679156 0
M  V30 22093 N 3875.51 0.0538097 -0.918425 0
M  V30 22094 C 3875.51 0.494275 -2.22578 0
M  V30 22095 N 3875.64 1.81086 -2.40434 0
M  V30 22096 N 3875.38 -0.313645 -3.27502 0
M  V30 22097 C 3875.26 -1.61829 -2.91033 0
M  V30 22098 H 3872.28 -5.40332 -6.79951 0
M  V30 22099 H 3872.01 -4.41613 -5.32378 0
M  V30 22100 H 3872.88 -3.26331 -7.47797 0
M  V30 22101 H 3875.53 -1.63422 -5.56814 0
M  V30 22102 H 3875.81 -4.63374 -5.34244 0
M  V30 22103 H 3876.8 -3.44728 -6.25838 0
M  V30 22104 H 3874.97 -4.96652 -7.57263 0
M  V30 22105 H 3874.92 -4.80617 -3.3614 0
M  V30 22106 H 3875.6 0.742702 -0.199384 0
M  V30 22107 H 3875.64 2.20598 -3.35588 0
M  V30 22108 H 3875.74 2.43518 -1.58945 0
M  V30 22109 P 3876.84 -2.75334 -8.47391 0
M  V30 22110 O 3877.06 -2.44595 -9.90239 0
M  V30 22111 O 3877.63 -3.87732 -7.92204 0
M  V30 22112 O 3877.09 -1.4459 -7.59357 0
M  V30 22113 C 3876.15 -0.347608 -7.69215 0
M  V30 22114 C 3876.88 0.96767 -7.52806 0
M  V30 22115 O 3877.09 1.21036 -6.1011 0
M  V30 22116 C 3878.28 1.04544 -8.13308 0
M  V30 22117 O 3878.67 2.38311 -8.41922 0
M  V30 22118 C 3879.16 0.491279 -7.02284 0
M  V30 22119 C 3878.45 0.996264 -5.77469 0
M  V30 22120 N 3878.5 0.0501808 -4.62873 0
M  V30 22121 C 3878.65 0.578037 -3.3505 0
M  V30 22122 O 3878.74 1.8073 -3.21711 0
M  V30 22123 N 3878.7 -0.468541 -2.263 0
M  V30 22124 C 3878.6 -1.59186 -2.47176 0
M  V30 22125 N 3878.65 -2.37626 -1.40392 0
M  V30 22126 C 3878.45 -2.16203 -3.77467 0
M  V30 22127 C 3878.4 -1.29324 -4.8195 0
M  V30 22128 H 3875.66 -0.374679 -8.67591 0
M  V30 22129 H 3875.39 -0.443421 -6.90177 0
M  V30 22130 H 3876.26 1.75559 -7.96891 0
M  V30 22131 H 3878.91 1.94529 -5.46723 0
M  V30 22132 H 3879.19 -0.608651 -7.04676 0
M  V30 22133 H 3880.18 0.889672 -7.08939 0
M  V30 22134 H 3878.35 0.43308 -9.04564 0
M  V30 22135 H 3878.28 -1.67758 -5.83046 0
M  V30 22136 H 3878.38 -3.23869 -3.92281 0
M  V30 22137 H 3878.77 -1.96317 -0.467202 0
M  V30 22138 H 3878.57 -3.39693 -1.51142 0
M  V30 22139 P 3880.22 2.75334 -8.47391 0
M  V30 22140 O 3880.44 3.84128 -9.44797 0
M  V30 22141 O 3881.01 1.51947 -8.68712 0
M  V30 22142 O 3880.47 3.29363 -6.99321 0
M  V30 22143 C 3879.53 4.24011 -6.4274 0
M  V30 22144 C 3880.26 5.20775 -5.52155 0
M  V30 22145 O 3880.47 4.56534 -4.22446 0
M  V30 22146 C 3881.66 5.62629 -5.96531 0
M  V30 22147 O 3882.05 6.87667 -5.41053 0
M  V30 22148 C 3882.54 4.52537 -5.39283 0
M  V30 22149 C 3881.83 4.20027 -4.08623 0
M  V30 22150 N 3881.88 2.76189 -3.71603 0
M  V30 22151 C 3881.8 1.64862 -4.52822 0
M  V30 22152 N 3881.88 0.512671 -3.88633 0
M  V30 22153 C 3882.02 0.888083 -2.54977 0
M  V30 22154 C 3882.15 0.094668 -1.38677 0
M  V30 22155 O 3882.17 -1.13053 -1.28163 0
M  V30 22156 N 3882.27 0.890102 -0.232633 0
M  V30 22157 C 3882.27 2.26958 -0.21772 0
M  V30 22158 N 3882.4 2.84626 0.97925 0
M  V30 22159 N 3882.14 3.0178 -1.31033 0
M  V30 22160 C 3882.02 2.26781 -2.43843 0
M  V30 22161 H 3879.04 4.797 -7.24003 0
M  V30 22162 H 3878.77 3.69856 -5.84513 0
M  V30 22163 H 3879.64 6.10356 -5.41441 0
M  V30 22164 H 3882.29 4.79061 -3.27488 0
M  V30 22165 H 3882.57 3.64906 -6.05785 0
M  V30 22166 H 3883.56 4.8868 -5.2125 0
M  V30 22167 H 3881.73 5.66726 -7.06352 0
M  V30 22168 H 3881.68 1.71169 -5.60966 0
M  V30 22169 H 3882.36 0.419134 0.644739 0
M  V30 22170 H 3882.4 3.87332 1.06098 0
M  V30 22171 H 3882.5 2.26417 1.82483 0
M  V30 22172 P 3883.6 7.20834 -5.23717 0
M  V30 22173 O 3883.82 8.66104 -5.38572 0
M  V30 22174 O 3884.39 6.33544 -6.1349 0
M  V30 22175 O 3883.85 6.7751 -3.72168 0
M  V30 22176 C 3882.91 7.20825 -2.7076 0
M  V30 22177 C 3883.64 7.45864 -1.40599 0
M  V30 22178 O 3883.85 6.17651 -0.734225 0
M  V30 22179 C 3885.04 8.05808 -1.51899 0
M  V30 22180 O 3885.43 8.74358 -0.335205 0
M  V30 22181 C 3885.92 6.83093 -1.70294 0
M  V30 22182 C 3885.21 5.79992 -0.836974 0
M  V30 22183 N 3885.26 4.41864 -1.38293 0
M  V30 22184 C 3885.18 3.99538 -2.69438 0
M  V30 22185 N 3885.26 2.69909 -2.84277 0
M  V30 22186 C 3885.4 2.21719 -1.5408 0
M  V30 22187 C 3885.53 0.891712 -1.06628 0
M  V30 22188 O 3885.55 -0.161298 -1.70137 0
M  V30 22189 N 3885.65 0.856846 0.334985 0
M  V30 22190 C 3885.65 1.9641 1.15789 0
M  V30 22191 N 3885.78 1.72708 2.46522 0
M  V30 22192 N 3885.52 3.21165 0.713741 0
M  V30 22193 C 3885.4 3.26797 -0.639748 0
M  V30 22194 H 3882.42 8.13644 -3.0377 0
M  V30 22195 H 3882.15 6.42788 -2.55485 0
M  V30 22196 H 3883.02 8.12039 -0.792769 0
M  V30 22197 H 3885.67 5.80061 0.166416 0
M  V30 22198 H 3885.95 6.51287 -2.75604 0
M  V30 22199 H 3886.94 7.01734 -1.34462 0
M  V30 22200 H 3885.11 8.73674 -2.38337 0
M  V30 22201 H 3885.06 4.68207 -3.53221 0
M  V30 22202 H 3885.74 -0.0398818 0.767965 0
M  V30 22203 H 3885.78 2.50995 3.13503 0
M  V30 22204 H 3885.88 0.759148 2.80716 0
M  V30 22205 P 3886.98 8.91 -1.53776e-10 0
M  V30 22206 O 3887.2 10.1726 0.733694 0
M  V30 22207 O 3887.77 8.73148 -1.23936 0
M  V30 22208 O 3887.23 7.66872 0.971405 0
M  V30 22209 C 3886.29 7.42309 2.04641 0
M  V30 22210 C 3887.02 6.86059 3.24661 0
M  V30 22211 O 3887.23 5.42847 3.03646 0
M  V30 22212 C 3888.42 7.41196 3.50753 0
M  V30 22213 O 3888.81 7.27073 4.86816 0
M  V30 22214 C 3889.3 6.5273 2.63741 0
M  V30 22215 C 3888.59 5.1842 2.73198 0
M  V30 22216 N 3888.64 4.38762 1.4784 0
M  V30 22217 H 3885.8 8.36803 2.32493 0
M  V30 22218 H 3885.53 6.70197 1.71129 0
M  V30 22219 H 3886.4 7.03551 4.13168 0
M  V30 22220 P 3890.36 7.20834 5.23717 0
M  V30 22221 O 3890.58 7.79853 6.57286 0
M  V30 22222 O 3891.15 7.79239 4.12957 0
M  V30 22223 O 3890.61 5.63315 5.29344 0
M  V30 22224 C 3889.67 4.80255 6.01876 0
M  V30 22225 C 3890.4 3.64202 6.65911 0
M  V30 22226 O 3890.61 2.60694 5.64732 0
M  V30 22227 C 3891.8 3.93473 7.1943 0
M  V30 22228 O 3892.19 3.02071 8.21205 0
M  V30 22229 C 3892.68 3.73047 5.97036 0
M  V30 22230 C 3891.97 2.58828 5.25741 0
M  V30 22231 N 3892.02 2.68068 3.77503 0
M  V30 22232 H 3889.18 5.40332 6.79951 0
M  V30 22233 H 3888.91 4.41613 5.32378 0
M  V30 22234 H 3889.77 3.26331 7.47797 0
M  V30 22235 P 3893.74 2.75334 8.47391 0
M  V30 22236 O 3893.96 2.44571 9.90142 0
M  V30 22237 O 3894.53 3.87688 7.92115 0
M  V30 22238 O 3893.99 1.4459 7.59357 0
M  V30 22239 C 3893.05 0.347608 7.69215 0
M  V30 22240 C 3893.78 -0.96767 7.52806 0
M  V30 22241 O 3893.99 -1.21036 6.1011 0
M  V30 22242 C 3895.18 -1.04544 8.13308 0
M  V30 22243 O 3895.57 -2.38311 8.41922 0
M  V30 22244 C 3896.06 -0.491279 7.02284 0
M  V30 22245 C 3895.35 -0.996264 5.77469 0
M  V30 22246 N 3895.4 -0.0501916 4.62973 0
M  V30 22247 H 3892.56 0.374722 8.67691 0
M  V30 22248 H 3892.29 0.443485 6.90277 0
M  V30 22249 H 3893.15 -1.75537 7.96793 0
M  V30 22250 P 3897.12 -2.75334 8.47391 0
M  V30 22251 O 3897.34 -3.84128 9.44797 0
M  V30 22252 O 3897.91 -1.51947 8.68712 0
M  V30 22253 O 3897.37 -3.29363 6.99321 0
M  V30 22254 C 3896.43 -4.24011 6.4274 0
M  V30 22255 C 3897.16 -5.20775 5.52155 0
M  V30 22256 O 3897.37 -4.56534 4.22446 0
M  V30 22257 C 3898.56 -5.62629 5.96531 0
M  V30 22258 O 3898.95 -6.87667 5.41053 0
M  V30 22259 C 3899.44 -4.52537 5.39283 0
M  V30 22260 C 3898.73 -4.20027 4.08623 0
M  V30 22261 N 3898.78 -2.76189 3.71603 0
M  V30 22262 C 3898.7 -1.64862 4.52822 0
M  V30 22263 N 3898.78 -0.512671 3.88633 0
M  V30 22264 C 3898.92 -0.888083 2.54977 0
M  V30 22265 C 3899.05 -0.094668 1.38677 0
M  V30 22266 O 3899.07 1.13053 1.28163 0
M  V30 22267 N 3899.17 -0.890102 0.232633 0
M  V30 22268 C 3899.17 -2.26958 0.21772 0
M  V30 22269 N 3899.3 -2.84626 -0.97925 0
M  V30 22270 N 3899.04 -3.0178 1.31033 0
M  V30 22271 C 3898.92 -2.26781 2.43843 0
M  V30 22272 H 3895.94 -4.797 7.24003 0
M  V30 22273 H 3895.67 -3.69856 5.84513 0
M  V30 22274 H 3896.53 -6.10356 5.41441 0
M  V30 22275 H 3899.19 -4.79061 3.27488 0
M  V30 22276 H 3899.47 -3.64906 6.05785 0
M  V30 22277 H 3900.46 -4.8868 5.2125 0
M  V30 22278 H 3898.63 -5.66726 7.06352 0
M  V30 22279 H 3898.58 -1.71169 5.60966 0
M  V30 22280 H 3899.26 -0.419134 -0.644739 0
M  V30 22281 H 3899.3 -3.87332 -1.06098 0
M  V30 22282 H 3899.4 -2.26417 -1.82483 0
M  V30 22283 P 3900.5 -7.20834 5.23717 0
M  V30 22284 O 3900.72 -8.66104 5.38572 0
M  V30 22285 O 3901.29 -6.33544 6.1349 0
M  V30 22286 O 3900.75 -6.7751 3.72168 0
M  V30 22287 C 3899.81 -7.20825 2.7076 0
M  V30 22288 C 3900.54 -7.45864 1.40599 0
M  V30 22289 O 3900.75 -6.17651 0.734225 0
M  V30 22290 C 3901.94 -8.05808 1.51899 0
M  V30 22291 O 3902.33 -8.74358 0.335205 0
M  V30 22292 C 3902.82 -6.83093 1.70294 0
M  V30 22293 C 3902.11 -5.79992 0.836974 0
M  V30 22294 N 3902.16 -4.41864 1.38293 0
M  V30 22295 H 3899.32 -8.13644 3.0377 0
M  V30 22296 H 3899.05 -6.42788 2.55485 0
M  V30 22297 H 3899.91 -8.12039 0.792769 0
M  V30 22298 P 3903.88 -8.91 1.54885e-10 0
M  V30 22299 O 3904.1 -10.1746 -0.733838 0
M  V30 22300 O 3904.67 -8.73346 1.23964 0
M  V30 22301 O 3904.13 -7.66872 -0.971405 0
M  V30 22302 C 3903.19 -7.42405 -2.04668 0
M  V30 22303 C 3903.92 -6.86059 -3.24661 0
M  V30 22304 O 3904.13 -5.42934 -3.03695 0
M  V30 22305 C 3905.32 -7.41287 -3.50796 0
M  V30 22306 O 3905.71 -7.27073 -4.86816 0
M  V30 22307 C 3906.2 -6.5273 -2.63741 0
M  V30 22308 C 3905.49 -5.1842 -2.73198 0
M  V30 22309 N 3905.54 -4.38762 -1.4784 0
M  V30 22310 H 3902.7 -8.36899 -2.3252 0
M  V30 22311 H 3902.43 -6.70391 -1.71179 0
M  V30 22312 H 3903.29 -7.03638 -4.13219 0
M  V30 22313 H 3905.95 -4.59931 -3.54016 0
M  V30 22314 H 3906.23 -6.88995 -1.59871 0
M  V30 22315 H 3907.22 -6.4684 -3.0373 0
M  V30 22316 H 3905.39 -8.47002 -3.20749 0
M  V30 22317 P 3907.26 -7.20834 -5.23717 0
M  V30 22318 O 3907.48 -7.79853 -6.57286 0
M  V30 22319 O 3908.05 -7.79239 -4.12957 0
M  V30 22320 O 3907.51 -5.63315 -5.29344 0
M  V30 22321 C 3906.57 -4.80255 -6.01876 0
M  V30 22322 C 3907.3 -3.64202 -6.65911 0
M  V30 22323 O 3907.51 -2.60694 -5.64732 0
M  V30 22324 C 3908.7 -3.93473 -7.1943 0
M  V30 22325 O 3909.09 -3.02071 -8.21205 0
M  V30 22326 C 3909.58 -3.73047 -5.97036 0
M  V30 22327 C 3908.87 -2.58828 -5.25741 0
M  V30 22328 N 3908.92 -2.68068 -3.77503 0
M  V30 22329 H 3906.08 -5.40332 -6.79951 0
M  V30 22330 H 3905.81 -4.41613 -5.32378 0
M  V30 22331 H 3906.67 -3.26331 -7.47797 0
M  V30 22332 P 3910.64 -2.75334 -8.47391 0
M  V30 22333 O 3910.86 -2.44619 -9.90336 0
M  V30 22334 O 3911.43 -3.87776 -7.92294 0
M  V30 22335 O 3910.89 -1.4459 -7.59357 0
M  V30 22336 C 3909.95 -0.347653 -7.69315 0
M  V30 22337 C 3910.68 0.96767 -7.52806 0
M  V30 22338 O 3910.89 1.21055 -6.10208 0
M  V30 22339 C 3912.08 1.04557 -8.13408 0
M  V30 22340 O 3912.47 2.38311 -8.41922 0
M  V30 22341 C 3912.96 0.491279 -7.02284 0
M  V30 22342 C 3912.25 0.996264 -5.77469 0
M  V30 22343 N 3912.3 0.0501916 -4.62973 0
M  V30 22344 C 3912.22 -1.31969 -4.65661 0
M  V30 22345 N 3912.29 -1.86649 -3.48119 0
M  V30 22346 C 3912.44 -0.792089 -2.62406 0
M  V30 22347 C 3912.57 -0.705684 -1.2207 0
M  V30 22348 N 3912.58 -1.76207 -0.413762 0
M  V30 22349 N 3912.69 0.518981 -0.685754 0
M  V30 22350 C 3912.68 1.57595 -1.49174 0
M  V30 22351 N 3912.56 1.62909 -2.80066 0
M  V30 22352 C 3912.44 0.388195 -3.3073 0
M  V30 22353 H 3909.46 -0.374765 -8.67791 0
M  V30 22354 H 3909.19 -0.443613 -6.90476 0
M  V30 22355 H 3910.05 1.75559 -7.96891 0
M  V30 22356 H 3912.71 1.94563 -5.46818 0
M  V30 22357 H 3912.99 -0.608651 -7.04676 0
M  V30 22358 H 3913.98 0.889796 -7.09039 0
M  V30 22359 H 3912.15 0.433128 -9.04664 0
M  V30 22360 H 3912.11 -1.89246 -5.57664 0
M  V30 22361 H 3912.49 -2.71005 -0.804694 0
M  V30 22362 H 3912.68 -1.63189 0.603768 0
M  V30 22363 H 3912.78 2.53475 -0.997614 0
M  V30 22364 P 3914.02 2.75334 -8.47391 0
M  V30 22365 O 3914.24 3.84128 -9.44797 0
M  V30 22366 O 3914.81 1.51947 -8.68712 0
M  V30 22367 O 3914.27 3.29363 -6.99321 0
M  V30 22368 C 3913.33 4.24011 -6.4274 0
M  V30 22369 C 3914.06 5.20775 -5.52155 0
M  V30 22370 O 3914.27 4.56534 -4.22446 0
M  V30 22371 C 3915.46 5.62629 -5.96531 0
M  V30 22372 O 3915.85 6.87667 -5.41053 0
M  V30 22373 C 3916.34 4.52537 -5.39283 0
M  V30 22374 C 3915.63 4.20027 -4.08623 0
M  V30 22375 N 3915.68 2.76189 -3.71603 0
M  V30 22376 C 3915.6 1.64862 -4.52822 0
M  V30 22377 N 3915.68 0.512671 -3.88633 0
M  V30 22378 C 3915.82 0.888083 -2.54977 0
M  V30 22379 C 3915.95 0.094668 -1.38677 0
M  V30 22380 O 3915.97 -1.13053 -1.28163 0
M  V30 22381 N 3916.07 0.890102 -0.232633 0
M  V30 22382 C 3916.07 2.26958 -0.21772 0
M  V30 22383 N 3916.2 2.84626 0.97925 0
M  V30 22384 N 3915.94 3.0178 -1.31033 0
M  V30 22385 C 3915.82 2.26781 -2.43843 0
M  V30 22386 H 3912.84 4.797 -7.24003 0
M  V30 22387 H 3912.57 3.69856 -5.84513 0
M  V30 22388 H 3913.43 6.10356 -5.41441 0
M  V30 22389 H 3916.09 4.79061 -3.27488 0
M  V30 22390 H 3916.37 3.64906 -6.05785 0
M  V30 22391 H 3917.36 4.8868 -5.2125 0
M  V30 22392 H 3915.53 5.66726 -7.06352 0
M  V30 22393 H 3915.48 1.71169 -5.60966 0
M  V30 22394 H 3916.16 0.419134 0.644739 0
M  V30 22395 H 3916.2 3.87332 1.06098 0
M  V30 22396 H 3916.3 2.26417 1.82483 0
M  V30 22397 P 3917.4 7.20834 -5.23717 0
M  V30 22398 O 3917.62 8.66104 -5.38572 0
M  V30 22399 O 3918.19 6.33544 -6.1349 0
M  V30 22400 O 3917.65 6.7751 -3.72168 0
M  V30 22401 C 3916.71 7.20825 -2.7076 0
M  V30 22402 C 3917.44 7.45864 -1.40599 0
M  V30 22403 O 3917.65 6.17651 -0.734225 0
M  V30 22404 C 3918.84 8.05808 -1.51899 0
M  V30 22405 O 3919.23 8.74358 -0.335205 0
M  V30 22406 C 3919.72 6.83093 -1.70294 0
M  V30 22407 C 3919.01 5.79992 -0.836974 0
M  V30 22408 N 3919.06 4.41864 -1.38293 0
M  V30 22409 H 3916.22 8.13644 -3.0377 0
M  V30 22410 H 3915.95 6.42788 -2.55485 0
M  V30 22411 H 3916.81 8.12039 -0.792769 0
M  V30 22412 P 3920.78 8.91 -1.55994e-10 0
M  V30 22413 O 3921 10.1726 0.733694 0
M  V30 22414 O 3921.57 8.73148 -1.23936 0
M  V30 22415 O 3921.03 7.66872 0.971405 0
M  V30 22416 C 3920.09 7.42309 2.04641 0
M  V30 22417 C 3920.82 6.86059 3.24661 0
M  V30 22418 O 3921.03 5.42847 3.03646 0
M  V30 22419 C 3922.22 7.41196 3.50753 0
M  V30 22420 O 3922.61 7.27073 4.86816 0
M  V30 22421 C 3923.1 6.5273 2.63741 0
M  V30 22422 C 3922.39 5.1842 2.73198 0
M  V30 22423 N 3922.44 4.38762 1.4784 0
M  V30 22424 H 3919.6 8.36803 2.32493 0
M  V30 22425 H 3919.33 6.70197 1.71129 0
M  V30 22426 H 3920.19 7.03551 4.13168 0
M  V30 22427 P 3924.16 7.20834 5.23717 0
M  V30 22428 O 3924.38 7.79853 6.57286 0
M  V30 22429 O 3924.95 7.79239 4.12957 0
M  V30 22430 O 3924.41 5.63315 5.29344 0
M  V30 22431 C 3923.47 4.80255 6.01876 0
M  V30 22432 C 3924.2 3.64202 6.65911 0
M  V30 22433 O 3924.41 2.60694 5.64732 0
M  V30 22434 C 3925.6 3.93473 7.1943 0
M  V30 22435 O 3925.99 3.02071 8.21205 0
M  V30 22436 C 3926.48 3.73047 5.97036 0
M  V30 22437 C 3925.77 2.58828 5.25741 0
M  V30 22438 N 3925.82 2.68068 3.77503 0
M  V30 22439 H 3922.98 5.40332 6.79951 0
M  V30 22440 H 3922.71 4.41613 5.32378 0
M  V30 22441 H 3923.57 3.26331 7.47797 0
M  V30 22442 P 3927.54 2.75334 8.47391 0
M  V30 22443 O 3927.76 2.44595 9.90239 0
M  V30 22444 O 3928.33 3.87732 7.92204 0
M  V30 22445 O 3927.79 1.4459 7.59357 0
M  V30 22446 C 3926.85 0.347563 7.69115 0
M  V30 22447 C 3927.58 -0.96767 7.52806 0
M  V30 22448 O 3927.79 -1.21036 6.1011 0
M  V30 22449 C 3928.98 -1.04544 8.13308 0
M  V30 22450 O 3929.37 -2.38311 8.41922 0
M  V30 22451 C 3929.86 -0.491279 7.02284 0
M  V30 22452 C 3929.15 -0.996264 5.77469 0
M  V30 22453 N 3929.2 -0.0501808 4.62873 0
M  V30 22454 C 3929.35 -0.588177 3.36904 0
M  V30 22455 O 3929.44 -1.78598 3.17173 0
M  V30 22456 N 3929.39 0.329694 2.33686 0
M  V30 22457 C 3929.3 1.6953 2.45079 0
M  V30 22458 O 3929.35 2.41926 1.44899 0
M  V30 22459 C 3929.15 2.16933 3.80505 0
M  V30 22460 C 3929.04 3.65373 3.97621 0
M  V30 22461 C 3929.1 1.30326 4.83752 0
M  V30 22462 H 3926.36 0.374722 8.67691 0
M  V30 22463 H 3926.09 0.443421 6.90177 0
M  V30 22464 H 3926.95 -1.75537 7.96793 0
M  V30 22465 H 3929.61 -1.94496 5.46629 0
M  V30 22466 H 3929.89 0.608651 7.04676 0
M  V30 22467 H 3930.88 -0.889672 7.08939 0
M  V30 22468 H 3929.05 -0.43308 9.04564 0
M  V30 22469 H 3928.98 1.68366 5.8516 0
M  V30 22470 H 3930.01 4.05985 4.30448 0
M  V30 22471 H 3928.27 3.88028 4.72875 0
M  V30 22472 H 3928.76 4.11381 3.01609 0
M  V30 22473 H 3929.49 -0.0393617 1.41345 0
M  V30 22474 P 3930.92 -2.75334 8.47391 0
M  V30 22475 O 3931.14 -3.84128 9.44797 0
M  V30 22476 O 3931.71 -1.51947 8.68712 0
M  V30 22477 O 3931.17 -3.29363 6.99321 0
M  V30 22478 C 3930.23 -4.24011 6.4274 0
M  V30 22479 C 3930.96 -5.20775 5.52155 0
M  V30 22480 O 3931.17 -4.56534 4.22446 0
M  V30 22481 C 3932.36 -5.62629 5.96531 0
M  V30 22482 O 3932.75 -6.87667 5.41053 0
M  V30 22483 C 3933.24 -4.52537 5.39283 0
M  V30 22484 C 3932.53 -4.20027 4.08623 0
M  V30 22485 N 3932.58 -2.76189 3.71603 0
M  V30 22486 H 3929.74 -4.797 7.24003 0
M  V30 22487 H 3929.47 -3.69856 5.84513 0
M  V30 22488 H 3930.33 -6.10356 5.41441 0
M  V30 22489 P 3934.3 -7.20834 5.23717 0
M  V30 22490 O 3934.52 -8.66274 5.38678 0
M  V30 22491 O 3935.09 -6.33687 6.13629 0
M  V30 22492 O 3934.55 -6.7751 3.72168 0
M  V30 22493 C 3933.61 -7.20919 2.70795 0
M  V30 22494 C 3934.34 -7.45864 1.40599 0
M  V30 22495 O 3934.55 -6.17751 0.734343 0
M  V30 22496 C 3935.74 -8.05906 1.51917 0
M  V30 22497 O 3936.13 -8.74358 0.335205 0
M  V30 22498 C 3936.62 -6.83093 1.70294 0
M  V30 22499 C 3935.91 -5.79992 0.836974 0
M  V30 22500 N 3935.96 -4.41864 1.38293 0
M  V30 22501 H 3933.12 -8.13738 3.03804 0
M  V30 22502 H 3932.85 -6.42974 2.55559 0
M  V30 22503 H 3933.71 -8.12139 0.792866 0
M  V30 22504 H 3936.37 -5.80178 -0.160643 0
M  V30 22505 H 3936.65 -6.51379 2.75643 0
M  V30 22506 H 3937.64 -7.01832 1.3448 0
M  V30 22507 H 3935.81 -8.73771 2.38364 0
M  V30 22508 P 3937.68 -8.91 1.57103e-10 0
M  V30 22509 O 3937.9 -10.1746 -0.733838 0
M  V30 22510 O 3938.47 -8.73346 1.23964 0
M  V30 22511 O 3937.93 -7.66872 -0.971405 0
M  V30 22512 C 3936.99 -7.42405 -2.04668 0
M  V30 22513 C 3937.72 -6.86059 -3.24661 0
M  V30 22514 O 3937.93 -5.42934 -3.03695 0
M  V30 22515 C 3939.12 -7.41287 -3.50796 0
M  V30 22516 O 3939.51 -7.27073 -4.86816 0
M  V30 22517 C 3940 -6.5273 -2.63741 0
M  V30 22518 C 3939.29 -5.1842 -2.73198 0
M  V30 22519 N 3939.34 -4.38762 -1.4784 0
M  V30 22520 C 3939.26 -4.83651 -0.183876 0
M  V30 22521 N 3939.33 -3.88759 0.699393 0
M  V30 22522 C 3939.48 -2.7404 -0.0575568 0
M  V30 22523 C 3939.61 -1.37902 0.293928 0
M  V30 22524 N 3939.62 -0.938021 1.54797 0
M  V30 22525 N 3939.73 -0.491817 -0.70549 0
M  V30 22526 C 3939.72 -0.931735 -1.95979 0
M  V30 22527 N 3939.6 -2.16017 -2.41481 0
M  V30 22528 C 3939.48 -3.02547 -1.39121 0
M  V30 22529 H 3936.5 -8.36899 -2.3252 0
M  V30 22530 H 3936.23 -6.70391 -1.71179 0
M  V30 22531 H 3937.09 -7.03638 -4.13219 0
M  V30 22532 H 3939.75 -4.59931 -3.54016 0
M  V30 22533 H 3940.03 -6.88995 -1.59871 0
M  V30 22534 H 3941.02 -6.4684 -3.0373 0
M  V30 22535 H 3939.19 -8.47002 -3.20749 0
M  V30 22536 H 3939.15 -5.8885 0.0765548 0
M  V30 22537 H 3939.53 -1.60276 2.32875 0
M  V30 22538 H 3939.72 0.0699355 1.73859 0
M  V30 22539 H 3939.82 -0.165507 -2.71897 0
M  V30 22540 P 3941.06 -7.20834 -5.23717 0
M  V30 22541 O 3941.28 -7.79853 -6.57286 0
M  V30 22542 O 3941.85 -7.79239 -4.12957 0
M  V30 22543 O 3941.31 -5.63315 -5.29344 0
M  V30 22544 C 3940.37 -4.80255 -6.01876 0
M  V30 22545 C 3941.1 -3.64202 -6.65911 0
M  V30 22546 O 3941.31 -2.60694 -5.64732 0
M  V30 22547 C 3942.5 -3.93473 -7.1943 0
M  V30 22548 O 3942.89 -3.02071 -8.21205 0
M  V30 22549 C 3943.38 -3.73047 -5.97036 0
M  V30 22550 C 3942.67 -2.58828 -5.25741 0
M  V30 22551 N 3942.72 -2.68068 -3.77503 0
M  V30 22552 H 3939.88 -5.40332 -6.79951 0
M  V30 22553 H 3939.61 -4.41613 -5.32378 0
M  V30 22554 H 3940.47 -3.26331 -7.47797 0
M  V30 22555 P 3944.44 -2.75334 -8.47391 0
M  V30 22556 O 3944.66 -2.44571 -9.90142 0
M  V30 22557 O 3945.23 -3.87688 -7.92115 0
M  V30 22558 O 3944.69 -1.4459 -7.59357 0
M  V30 22559 C 3943.75 -0.347608 -7.69215 0
M  V30 22560 C 3944.48 0.96767 -7.52806 0
M  V30 22561 O 3944.69 1.21036 -6.1011 0
M  V30 22562 C 3945.88 1.04544 -8.13308 0
M  V30 22563 O 3946.27 2.38311 -8.41922 0
M  V30 22564 C 3946.76 0.491279 -7.02284 0
M  V30 22565 C 3946.05 0.996264 -5.77469 0
M  V30 22566 N 3946.1 0.0501916 -4.62973 0
M  V30 22567 H 3943.26 -0.374722 -8.67691 0
M  V30 22568 H 3942.99 -0.443485 -6.90277 0
M  V30 22569 H 3943.85 1.75537 -7.96793 0
M  V30 22570 P 3947.82 2.75334 -8.47391 0
M  V30 22571 O 3948.04 3.84204 -9.44982 0
M  V30 22572 O 3948.61 1.51982 -8.68909 0
M  V30 22573 O 3948.07 3.29363 -6.99321 0
M  V30 22574 C 3947.13 4.24066 -6.42823 0
M  V30 22575 C 3947.86 5.20775 -5.52155 0
M  V30 22576 O 3948.07 4.56607 -4.22514 0
M  V30 22577 C 3949.26 5.62697 -5.96604 0
M  V30 22578 O 3949.65 6.87667 -5.41053 0
M  V30 22579 C 3950.14 4.52537 -5.39283 0
M  V30 22580 C 3949.43 4.20027 -4.08623 0
M  V30 22581 N 3949.48 2.76189 -3.71603 0
M  V30 22582 H 3946.64 4.79756 -7.24086 0
M  V30 22583 H 3946.37 3.69963 -5.84682 0
M  V30 22584 H 3947.23 6.10431 -5.41508 0
M  V30 22585 H 3949.89 4.78816 -3.28024 0
M  V30 22586 H 3950.17 3.64957 -6.05871 0
M  V30 22587 H 3951.16 4.88748 -5.21323 0
M  V30 22588 H 3949.33 5.66789 -7.0643 0
M  V30 22589 P 3951.2 7.20834 -5.23717 0
M  V30 22590 O 3951.42 8.66274 -5.38678 0
M  V30 22591 O 3951.99 6.33687 -6.13629 0
M  V30 22592 O 3951.45 6.7751 -3.72168 0
M  V30 22593 C 3950.51 7.20919 -2.70795 0
M  V30 22594 C 3951.24 7.45864 -1.40599 0
M  V30 22595 O 3951.45 6.17751 -0.734343 0
M  V30 22596 C 3952.64 8.05906 -1.51917 0
M  V30 22597 O 3953.03 8.74358 -0.335205 0
M  V30 22598 C 3953.52 6.83093 -1.70294 0
M  V30 22599 C 3952.81 5.79992 -0.836974 0
M  V30 22600 N 3952.86 4.41864 -1.38293 0
M  V30 22601 H 3950.02 8.13738 -3.03804 0
M  V30 22602 H 3949.75 6.42974 -2.55559 0
M  V30 22603 H 3950.61 8.12139 -0.792866 0
M  V30 22604 H 3953.27 5.80178 0.160643 0
M  V30 22605 H 3953.55 6.51379 -2.75643 0
M  V30 22606 H 3954.54 7.01832 -1.3448 0
M  V30 22607 H 3952.71 8.73771 -2.38364 0
M  V30 22608 P 3954.58 8.91 -1.58212e-10 0
M  V30 22609 O 3954.8 10.1726 0.733694 0
M  V30 22610 O 3955.37 8.73148 -1.23936 0
M  V30 22611 O 3954.83 7.66872 0.971405 0
M  V30 22612 C 3953.89 7.42309 2.04641 0
M  V30 22613 C 3954.62 6.86059 3.24661 0
M  V30 22614 O 3954.83 5.42847 3.03646 0
M  V30 22615 C 3956.02 7.41196 3.50753 0
M  V30 22616 O 3956.41 7.27073 4.86816 0
M  V30 22617 C 3956.9 6.5273 2.63741 0
M  V30 22618 C 3956.19 5.1842 2.73198 0
M  V30 22619 N 3956.24 4.38762 1.4784 0
M  V30 22620 H 3953.4 8.36803 2.32493 0
M  V30 22621 H 3953.13 6.70197 1.71129 0
M  V30 22622 H 3953.99 7.03551 4.13168 0
M  V30 22623 P 3957.96 7.20834 5.23717 0
M  V30 22624 O 3958.18 7.79853 6.57286 0
M  V30 22625 O 3958.75 7.79239 4.12957 0
M  V30 22626 O 3958.21 5.63315 5.29344 0
M  V30 22627 C 3957.27 4.80255 6.01876 0
M  V30 22628 C 3958 3.64202 6.65911 0
M  V30 22629 O 3958.21 2.60694 5.64732 0
M  V30 22630 C 3959.4 3.93473 7.1943 0
M  V30 22631 O 3959.79 3.02071 8.21205 0
M  V30 22632 C 3960.28 3.73047 5.97036 0
M  V30 22633 C 3959.57 2.58828 5.25741 0
M  V30 22634 N 3959.62 2.68068 3.77503 0
M  V30 22635 H 3956.78 5.40332 6.79951 0
M  V30 22636 H 3956.51 4.41613 5.32378 0
M  V30 22637 H 3957.37 3.26331 7.47797 0
M  V30 22638 P 3961.34 2.75334 8.47391 0
M  V30 22639 O 3961.56 2.44619 9.90336 0
M  V30 22640 O 3962.13 3.87776 7.92294 0
M  V30 22641 O 3961.59 1.4459 7.59357 0
M  V30 22642 C 3960.65 0.347653 7.69315 0
M  V30 22643 C 3961.38 -0.96767 7.52806 0
M  V30 22644 O 3961.59 -1.21055 6.10208 0
M  V30 22645 C 3962.78 -1.04557 8.13408 0
M  V30 22646 O 3963.17 -2.38311 8.41922 0
M  V30 22647 C 3963.66 -0.491279 7.02284 0
M  V30 22648 C 3962.95 -0.996264 5.77469 0
M  V30 22649 N 3963 -0.0501916 4.62973 0
M  V30 22650 C 3962.92 1.31969 4.65661 0
M  V30 22651 N 3962.99 1.86649 3.48119 0
M  V30 22652 C 3963.14 0.792089 2.62406 0
M  V30 22653 C 3963.27 0.705684 1.2207 0
M  V30 22654 N 3963.28 1.76207 0.413762 0
M  V30 22655 N 3963.39 -0.518981 0.685754 0
M  V30 22656 C 3963.38 -1.57595 1.49174 0
M  V30 22657 N 3963.26 -1.62909 2.80066 0
M  V30 22658 C 3963.14 -0.388195 3.3073 0
M  V30 22659 H 3960.16 0.374765 8.67791 0
M  V30 22660 H 3959.89 0.443613 6.90476 0
M  V30 22661 H 3960.75 -1.75559 7.96891 0
M  V30 22662 H 3963.41 -1.94563 5.46818 0
M  V30 22663 H 3963.69 0.608651 7.04676 0
M  V30 22664 H 3964.68 -0.889796 7.09039 0
M  V30 22665 H 3962.85 -0.433128 9.04664 0
M  V30 22666 H 3962.81 1.89246 5.57664 0
M  V30 22667 H 3963.19 2.71005 0.804694 0
M  V30 22668 H 3963.38 1.63189 -0.603768 0
M  V30 22669 H 3963.48 -2.53475 0.997614 0
M  V30 22670 P 3964.72 -2.75334 8.47391 0
M  V30 22671 O 3964.94 -3.84204 9.44982 0
M  V30 22672 O 3965.51 -1.51982 8.68909 0
M  V30 22673 O 3964.97 -3.29363 6.99321 0
M  V30 22674 C 3964.03 -4.24066 6.42823 0
M  V30 22675 C 3964.76 -5.20775 5.52155 0
M  V30 22676 O 3964.97 -4.56607 4.22514 0
M  V30 22677 C 3966.16 -5.62697 5.96604 0
M  V30 22678 O 3966.55 -6.87667 5.41053 0
M  V30 22679 C 3967.04 -4.52537 5.39283 0
M  V30 22680 C 3966.33 -4.20027 4.08623 0
M  V30 22681 N 3966.38 -2.76189 3.71603 0
M  V30 22682 C 3966.3 -1.66944 4.54297 0
M  V30 22683 N 3966.37 -0.536169 3.91344 0
M  V30 22684 C 3966.52 -0.901569 2.58849 0
M  V30 22685 C 3966.65 -0.146599 1.40236 0
M  V30 22686 N 3966.66 1.18234 1.37046 0
M  V30 22687 N 3966.77 -0.822941 0.249738 0
M  V30 22688 C 3966.76 -2.15179 0.280525 0
M  V30 22689 N 3966.64 -2.96414 1.30822 0
M  V30 22690 C 3966.52 -2.25804 2.44748 0
M  V30 22691 H 3963.54 -4.79756 7.24086 0
M  V30 22692 H 3963.27 -3.69963 5.84682 0
M  V30 22693 H 3964.13 -6.10431 5.41508 0
M  V30 22694 H 3966.79 -4.78816 3.28024 0
M  V30 22695 H 3967.07 -3.64957 6.05871 0
M  V30 22696 H 3968.06 -4.88748 5.21323 0
M  V30 22697 H 3966.23 -5.66789 7.0643 0
M  V30 22698 H 3966.19 -1.74684 5.62396 0
M  V30 22699 H 3966.57 1.71949 2.24394 0
M  V30 22700 H 3966.76 1.67511 0.470742 0
M  V30 22701 H 3966.86 -2.63704 -0.6828 0
M  V30 22702 P 3968.1 -7.20834 5.23717 0
M  V30 22703 O 3968.32 -8.66104 5.38572 0
M  V30 22704 O 3968.89 -6.33544 6.1349 0
M  V30 22705 O 3968.35 -6.7751 3.72168 0
M  V30 22706 C 3967.41 -7.20825 2.7076 0
M  V30 22707 C 3968.14 -7.45864 1.40599 0
M  V30 22708 O 3968.35 -6.17651 0.734225 0
M  V30 22709 C 3969.54 -8.05808 1.51899 0
M  V30 22710 O 3969.93 -8.74358 0.335205 0
M  V30 22711 C 3970.42 -6.83093 1.70294 0
M  V30 22712 C 3969.71 -5.79992 0.836974 0
M  V30 22713 N 3969.76 -4.41864 1.38293 0
M  V30 22714 H 3966.92 -8.13644 3.0377 0
M  V30 22715 H 3966.65 -6.42788 2.55485 0
M  V30 22716 H 3967.51 -8.12039 0.792769 0
M  V30 22717 P 3971.48 -8.91 1.59321e-10 0
M  V30 22718 O 3971.7 -10.1746 -0.733838 0
M  V30 22719 O 3972.27 -8.73346 1.23964 0
M  V30 22720 O 3971.73 -7.66872 -0.971405 0
M  V30 22721 C 3970.79 -7.42405 -2.04668 0
M  V30 22722 C 3971.52 -6.86059 -3.24661 0
M  V30 22723 O 3971.73 -5.42934 -3.03695 0
M  V30 22724 C 3972.92 -7.41287 -3.50796 0
M  V30 22725 O 3973.31 -7.27073 -4.86816 0
M  V30 22726 C 3973.8 -6.5273 -2.63741 0
M  V30 22727 C 3973.09 -5.1842 -2.73198 0
M  V30 22728 N 3973.14 -4.38762 -1.4784 0
M  V30 22729 C 3973.06 -4.83651 -0.183876 0
M  V30 22730 N 3973.13 -3.88759 0.699393 0
M  V30 22731 C 3973.28 -2.7404 -0.0575568 0
M  V30 22732 C 3973.41 -1.37902 0.293928 0
M  V30 22733 N 3973.42 -0.938021 1.54797 0
M  V30 22734 N 3973.53 -0.491817 -0.70549 0
M  V30 22735 C 3973.52 -0.931735 -1.95979 0
M  V30 22736 N 3973.4 -2.16017 -2.41481 0
M  V30 22737 C 3973.28 -3.02547 -1.39121 0
M  V30 22738 H 3970.3 -8.36899 -2.3252 0
M  V30 22739 H 3970.03 -6.70391 -1.71179 0
M  V30 22740 H 3970.89 -7.03638 -4.13219 0
M  V30 22741 H 3973.55 -4.59931 -3.54016 0
M  V30 22742 H 3973.83 -6.88995 -1.59871 0
M  V30 22743 H 3974.82 -6.4684 -3.0373 0
M  V30 22744 H 3972.99 -8.47002 -3.20749 0
M  V30 22745 H 3972.95 -5.8885 0.0765548 0
M  V30 22746 H 3973.33 -1.60276 2.32875 0
M  V30 22747 H 3973.52 0.0699355 1.73859 0
M  V30 22748 H 3973.62 -0.165507 -2.71897 0
M  V30 22749 P 3974.86 -7.20834 -5.23717 0
M  V30 22750 O 3975.08 -7.79853 -6.57286 0
M  V30 22751 O 3975.65 -7.79239 -4.12957 0
M  V30 22752 O 3975.11 -5.63315 -5.29344 0
M  V30 22753 C 3974.17 -4.80255 -6.01876 0
M  V30 22754 C 3974.9 -3.64202 -6.65911 0
M  V30 22755 O 3975.11 -2.60694 -5.64732 0
M  V30 22756 C 3976.3 -3.93473 -7.1943 0
M  V30 22757 O 3976.69 -3.02071 -8.21205 0
M  V30 22758 C 3977.18 -3.73047 -5.97036 0
M  V30 22759 C 3976.47 -2.58828 -5.25741 0
M  V30 22760 N 3976.52 -2.68068 -3.77503 0
M  V30 22761 H 3973.68 -5.40332 -6.79951 0
M  V30 22762 H 3973.41 -4.41613 -5.32378 0
M  V30 22763 H 3974.27 -3.26331 -7.47797 0
M  V30 22764 P 3978.24 -2.75334 -8.47391 0
M  V30 22765 O 3978.46 -2.44571 -9.90142 0
M  V30 22766 O 3979.03 -3.87688 -7.92115 0
M  V30 22767 O 3978.49 -1.4459 -7.59357 0
M  V30 22768 C 3977.55 -0.347608 -7.69215 0
M  V30 22769 C 3978.28 0.96767 -7.52806 0
M  V30 22770 O 3978.49 1.21036 -6.1011 0
M  V30 22771 C 3979.68 1.04544 -8.13308 0
M  V30 22772 O 3980.07 2.38311 -8.41922 0
M  V30 22773 C 3980.56 0.491279 -7.02284 0
M  V30 22774 C 3979.85 0.996264 -5.77469 0
M  V30 22775 N 3979.9 0.0501916 -4.62973 0
M  V30 22776 C 3979.82 -1.32786 -4.63244 0
M  V30 22777 N 3979.9 -1.86957 -3.44545 0
M  V30 22778 C 3980.04 -0.780241 -2.58481 0
M  V30 22779 C 3980.17 -0.738536 -1.17757 0
M  V30 22780 N 3980.29 0.58337 -0.711393 0
M  V30 22781 C 3980.29 1.70816 -1.51017 0
M  V30 22782 N 3980.42 2.87826 -0.880757 0
M  V30 22783 N 3980.16 1.67126 -2.8339 0
M  V30 22784 C 3980.04 0.401421 -3.30572 0
M  V30 22785 H 3977.06 -0.374722 -8.67691 0
M  V30 22786 H 3976.79 -0.443485 -6.90277 0
M  V30 22787 H 3977.65 1.75537 -7.96793 0
M  V30 22788 P 3981.62 2.75334 -8.47391 0
M  V30 22789 O 3981.84 3.84128 -9.44797 0
M  V30 22790 O 3982.41 1.51947 -8.68712 0
M  V30 22791 O 3981.87 3.29363 -6.99321 0
M  V30 22792 C 3980.93 4.24011 -6.4274 0
M  V30 22793 C 3981.66 5.20775 -5.52155 0
M  V30 22794 O 3981.87 4.56534 -4.22446 0
M  V30 22795 C 3983.06 5.62629 -5.96531 0
M  V30 22796 O 3983.45 6.87667 -5.41053 0
M  V30 22797 C 3983.94 4.52537 -5.39283 0
M  V30 22798 C 3983.23 4.20027 -4.08623 0
M  V30 22799 N 3983.28 2.76189 -3.71603 0
M  V30 22800 H 3980.44 4.797 -7.24003 0
M  V30 22801 H 3980.17 3.69856 -5.84513 0
M  V30 22802 H 3981.03 6.10356 -5.41441 0
M  V30 22803 P 3985 7.20834 -5.23717 0
M  V30 22804 O 3985.22 8.66104 -5.38572 0
M  V30 22805 O 3985.79 6.33544 -6.1349 0
M  V30 22806 O 3985.25 6.7751 -3.72168 0
M  V30 22807 C 3984.31 7.20825 -2.7076 0
M  V30 22808 C 3985.04 7.45864 -1.40599 0
M  V30 22809 O 3985.25 6.17651 -0.734225 0
M  V30 22810 C 3986.44 8.05808 -1.51899 0
M  V30 22811 O 3986.83 8.74358 -0.335205 0
M  V30 22812 C 3987.32 6.83093 -1.70294 0
M  V30 22813 C 3986.61 5.79992 -0.836974 0
M  V30 22814 N 3986.66 4.41864 -1.38293 0
M  V30 22815 H 3983.82 8.13644 -3.0377 0
M  V30 22816 H 3983.55 6.42788 -2.55485 0
M  V30 22817 H 3984.41 8.12039 -0.792769 0
M  V30 22818 P 3988.38 8.91 -1.6043e-10 0
M  V30 22819 O 3988.6 10.1726 0.733694 0
M  V30 22820 O 3989.17 8.73148 -1.23936 0
M  V30 22821 O 3988.63 7.66872 0.971405 0
M  V30 22822 C 3987.69 7.42309 2.04641 0
M  V30 22823 C 3988.42 6.86059 3.24661 0
M  V30 22824 O 3988.63 5.42847 3.03646 0
M  V30 22825 C 3989.82 7.41196 3.50753 0
M  V30 22826 O 3990.21 7.27073 4.86816 0
M  V30 22827 C 3990.7 6.5273 2.63741 0
M  V30 22828 C 3989.99 5.1842 2.73198 0
M  V30 22829 N 3990.04 4.38762 1.4784 0
M  V30 22830 H 3987.2 8.36803 2.32493 0
M  V30 22831 H 3986.93 6.70197 1.71129 0
M  V30 22832 H 3987.79 7.03551 4.13168 0
M  V30 22833 P 3991.76 7.20834 5.23717 0
M  V30 22834 O 3991.98 7.79853 6.57286 0
M  V30 22835 O 3992.55 7.79239 4.12957 0
M  V30 22836 O 3992.01 5.63315 5.29344 0
M  V30 22837 C 3991.07 4.80255 6.01876 0
M  V30 22838 C 3991.8 3.64202 6.65911 0
M  V30 22839 O 3992.01 2.60694 5.64732 0
M  V30 22840 C 3993.2 3.93473 7.1943 0
M  V30 22841 O 3993.59 3.02071 8.21205 0
M  V30 22842 C 3994.08 3.73047 5.97036 0
M  V30 22843 C 3993.37 2.58828 5.25741 0
M  V30 22844 N 3993.42 2.68068 3.77503 0
M  V30 22845 H 3990.58 5.40332 6.79951 0
M  V30 22846 H 3990.31 4.41613 5.32378 0
M  V30 22847 H 3991.17 3.26331 7.47797 0
M  V30 22848 P 3995.14 2.75334 8.47391 0
M  V30 22849 O 3995.36 2.44571 9.90142 0
M  V30 22850 O 3995.93 3.87688 7.92115 0
M  V30 22851 O 3995.39 1.4459 7.59357 0
M  V30 22852 C 3994.45 0.347608 7.69215 0
M  V30 22853 C 3995.18 -0.96767 7.52806 0
M  V30 22854 O 3995.39 -1.21036 6.1011 0
M  V30 22855 C 3996.58 -1.04544 8.13308 0
M  V30 22856 O 3996.97 -2.38311 8.41922 0
M  V30 22857 C 3997.46 -0.491279 7.02284 0
M  V30 22858 C 3996.75 -0.996264 5.77469 0
M  V30 22859 N 3996.8 -0.0501916 4.62973 0
M  V30 22860 C 3996.72 1.32786 4.63244 0
M  V30 22861 N 3996.8 1.86957 3.44545 0
M  V30 22862 C 3996.94 0.780241 2.58481 0
M  V30 22863 C 3997.07 0.738536 1.17757 0
M  V30 22864 O 3997.09 1.66794 0.372349 0
M  V30 22865 N 3997.19 -0.58337 0.711393 0
M  V30 22866 C 3997.19 -1.70816 1.51017 0
M  V30 22867 N 3997.32 -2.87826 0.880757 0
M  V30 22868 N 3997.06 -1.67126 2.8339 0
M  V30 22869 C 3996.94 -0.401421 3.30572 0
M  V30 22870 H 3993.96 0.374722 8.67691 0
M  V30 22871 H 3993.69 0.443485 6.90277 0
M  V30 22872 H 3994.55 -1.75537 7.96793 0
M  V30 22873 H 3997.21 -1.95076 5.46529 0
M  V30 22874 H 3997.49 0.608565 7.04577 0
M  V30 22875 H 3998.48 -0.889672 7.08939 0
M  V30 22876 H 3996.65 -0.43308 9.04564 0
M  V30 22877 H 3996.6 1.91249 5.54442 0
M  V30 22878 H 3997.28 -0.718054 -0.275244 0
M  V30 22879 H 3997.32 -3.75721 1.41832 0
M  V30 22880 H 3997.42 -2.90436 -0.145468 0
M  V30 22881 P 3998.52 -2.75334 8.47391 0
M  V30 22882 O 3998.74 -3.84128 9.44797 0
M  V30 22883 O 3999.31 -1.51947 8.68712 0
M  V30 22884 O 3998.77 -3.29363 6.99321 0
M  V30 22885 C 3997.83 -4.24011 6.4274 0
M  V30 22886 C 3998.56 -5.20775 5.52155 0
M  V30 22887 O 3998.77 -4.56534 4.22446 0
M  V30 22888 C 3999.96 -5.62629 5.96531 0
M  V30 22889 O 4000.35 -6.87667 5.41053 0
M  V30 22890 C 4000.84 -4.52537 5.39283 0
M  V30 22891 C 4000.13 -4.20027 4.08623 0
M  V30 22892 N 4000.18 -2.76189 3.71603 0
M  V30 22893 H 3997.34 -4.797 7.24003 0
M  V30 22894 H 3997.07 -3.69856 5.84513 0
M  V30 22895 H 3997.93 -6.10356 5.41441 0
M  V30 22896 P 4001.9 -7.20834 5.23717 0
M  V30 22897 O 4002.12 -8.66189 5.38625 0
M  V30 22898 O 4002.69 -6.33615 6.1356 0
M  V30 22899 O 4002.15 -6.7751 3.72168 0
M  V30 22900 C 4001.21 -7.20732 2.70725 0
M  V30 22901 C 4001.94 -7.45864 1.40599 0
M  V30 22902 O 4002.15 -6.17651 0.734225 0
M  V30 22903 C 4003.34 -8.05808 1.51899 0
M  V30 22904 O 4003.73 -8.74358 0.335205 0
M  V30 22905 C 4004.22 -6.83093 1.70294 0
M  V30 22906 C 4003.51 -5.79992 0.836974 0
M  V30 22907 N 4003.56 -4.41769 1.38263 0
M  V30 22908 C 4003.71 -3.38591 0.481702 0
M  V30 22909 O 4003.8 -3.56839 -0.718452 0
M  V30 22910 N 4003.75 -2.1206 1.03569 0
M  V30 22911 C 4003.66 -1.80696 2.36966 0
M  V30 22912 O 4003.71 -0.630473 2.74862 0
M  V30 22913 C 4003.51 -2.94845 3.23898 0
M  V30 22914 C 4003.4 -2.65253 4.70362 0
M  V30 22915 C 4003.46 -4.19803 2.73435 0
M  V30 22916 H 4000.72 -8.13644 3.0377 0
M  V30 22917 H 4000.45 -6.42695 2.55448 0
M  V30 22918 H 4001.31 -8.12039 0.792769 0
M  V30 22919 H 4003.97 -5.79978 -0.160587 0
M  V30 22920 H 4004.25 -6.51379 2.75643 0
M  V30 22921 H 4005.24 -7.01734 1.34462 0
M  V30 22922 H 4003.41 -8.73674 2.38337 0
M  V30 22923 H 4003.34 -5.04492 3.4095 0
M  V30 22924 H 4004.37 -2.83924 5.1913 0
M  V30 22925 H 4002.63 -3.29824 5.15163 0
M  V30 22926 H 4003.12 -1.59723 4.84449 0
M  V30 22927 H 4003.85 -1.35644 0.399345 0
M  V30 22928 P 4005.28 -8.91 1.61539e-10 0
M  V30 22929 O 4005.5 -10.1726 -0.733694 0
M  V30 22930 O 4006.07 -8.73148 1.23936 0
M  V30 22931 O 4005.53 -7.66872 -0.971405 0
M  V30 22932 C 4004.59 -7.42309 -2.04641 0
M  V30 22933 C 4005.32 -6.86059 -3.24661 0
M  V30 22934 O 4005.53 -5.42847 -3.03646 0
M  V30 22935 C 4006.72 -7.41196 -3.50753 0
M  V30 22936 O 4007.11 -7.27073 -4.86816 0
M  V30 22937 C 4007.6 -6.5273 -2.63741 0
M  V30 22938 C 4006.89 -5.1842 -2.73198 0
M  V30 22939 N 4006.94 -4.38762 -1.4784 0
M  V30 22940 H 4004.1 -8.36803 -2.32493 0
M  V30 22941 H 4003.83 -6.70197 -1.71129 0
M  V30 22942 H 4004.69 -7.03551 -4.13168 0
M  V30 22943 P 4008.66 -7.20834 -5.23717 0
M  V30 22944 O 4008.88 -7.79853 -6.57286 0
M  V30 22945 O 4009.45 -7.79239 -4.12957 0
M  V30 22946 O 4008.91 -5.63315 -5.29344 0
M  V30 22947 C 4007.97 -4.80255 -6.01876 0
M  V30 22948 C 4008.7 -3.64202 -6.65911 0
M  V30 22949 O 4008.91 -2.60694 -5.64732 0
M  V30 22950 C 4010.1 -3.93473 -7.1943 0
M  V30 22951 O 4010.49 -3.02071 -8.21205 0
M  V30 22952 C 4010.98 -3.73047 -5.97036 0
M  V30 22953 C 4010.27 -2.58828 -5.25741 0
M  V30 22954 N 4010.32 -2.68068 -3.77503 0
M  V30 22955 H 4007.48 -5.40332 -6.79951 0
M  V30 22956 H 4007.21 -4.41613 -5.32378 0
M  V30 22957 H 4008.07 -3.26331 -7.47797 0
M  V30 22958 P 4012.04 -2.75334 -8.47391 0
M  V30 22959 O 4012.26 -2.44595 -9.90239 0
M  V30 22960 O 4012.83 -3.87732 -7.92204 0
M  V30 22961 O 4012.29 -1.4459 -7.59357 0
M  V30 22962 C 4011.35 -0.347563 -7.69115 0
M  V30 22963 C 4012.08 0.96767 -7.52806 0
M  V30 22964 O 4012.29 1.21036 -6.1011 0
M  V30 22965 C 4013.48 1.04544 -8.13308 0
M  V30 22966 O 4013.87 2.38311 -8.41922 0
M  V30 22967 C 4014.36 0.491279 -7.02284 0
M  V30 22968 C 4013.65 0.996264 -5.77469 0
M  V30 22969 N 4013.7 0.0501808 -4.62873 0
M  V30 22970 C 4013.85 0.588177 -3.36904 0
M  V30 22971 O 4013.94 1.78598 -3.17173 0
M  V30 22972 N 4013.89 -0.329694 -2.33686 0
M  V30 22973 C 4013.8 -1.6953 -2.45079 0
M  V30 22974 O 4013.85 -2.41926 -1.44899 0
M  V30 22975 C 4013.65 -2.16933 -3.80505 0
M  V30 22976 C 4013.54 -3.65373 -3.97621 0
M  V30 22977 C 4013.6 -1.30326 -4.83752 0
M  V30 22978 H 4010.86 -0.374722 -8.67691 0
M  V30 22979 H 4010.59 -0.443421 -6.90177 0
M  V30 22980 H 4011.45 1.75537 -7.96793 0
M  V30 22981 H 4014.11 1.94496 -5.46629 0
M  V30 22982 H 4014.39 -0.608651 -7.04676 0
M  V30 22983 H 4015.38 0.889672 -7.08939 0
M  V30 22984 H 4013.55 0.43308 -9.04564 0
M  V30 22985 H 4013.48 -1.68366 -5.8516 0
M  V30 22986 H 4014.51 -4.05985 -4.30448 0
M  V30 22987 H 4012.77 -3.88028 -4.72875 0
M  V30 22988 H 4013.26 -4.11381 -3.01609 0
M  V30 22989 H 4013.99 0.0393617 -1.41345 0
M  V30 22990 P 4015.42 2.75334 -8.47391 0
M  V30 22991 O 4015.64 3.84128 -9.44797 0
M  V30 22992 O 4016.21 1.51947 -8.68712 0
M  V30 22993 O 4015.67 3.29363 -6.99321 0
M  V30 22994 C 4014.73 4.24011 -6.4274 0
M  V30 22995 C 4015.46 5.20775 -5.52155 0
M  V30 22996 O 4015.67 4.56534 -4.22446 0
M  V30 22997 C 4016.86 5.62629 -5.96531 0
M  V30 22998 O 4017.25 6.87667 -5.41053 0
M  V30 22999 C 4017.74 4.52537 -5.39283 0
M  V30 23000 C 4017.03 4.20027 -4.08623 0
M  V30 23001 N 4017.08 2.76189 -3.71603 0
M  V30 23002 H 4014.24 4.797 -7.24003 0
M  V30 23003 H 4013.97 3.69856 -5.84513 0
M  V30 23004 H 4014.83 6.10356 -5.41441 0
M  V30 23005 P 4018.8 7.20834 -5.23717 0
M  V30 23006 O 4019.02 8.66104 -5.38572 0
M  V30 23007 O 4019.59 6.33544 -6.1349 0
M  V30 23008 O 4019.05 6.7751 -3.72168 0
M  V30 23009 C 4018.11 7.20825 -2.7076 0
M  V30 23010 C 4018.84 7.45864 -1.40599 0
M  V30 23011 O 4019.05 6.17651 -0.734225 0
M  V30 23012 C 4020.24 8.05808 -1.51899 0
M  V30 23013 O 4020.63 8.74358 -0.335205 0
M  V30 23014 C 4021.12 6.83093 -1.70294 0
M  V30 23015 C 4020.41 5.79992 -0.836974 0
M  V30 23016 N 4020.46 4.41864 -1.38293 0
M  V30 23017 H 4017.62 8.13644 -3.0377 0
M  V30 23018 H 4017.35 6.42788 -2.55485 0
M  V30 23019 H 4018.21 8.12039 -0.792769 0
M  V30 23020 P 4022.18 8.91 -1.62648e-10 0
M  V30 23021 O 4022.4 10.1736 0.733766 0
M  V30 23022 O 4022.97 8.73247 -1.2395 0
M  V30 23023 O 4022.43 7.66872 0.971405 0
M  V30 23024 C 4021.49 7.42309 2.04641 0
M  V30 23025 C 4022.22 6.86059 3.24661 0
M  V30 23026 O 4022.43 5.42847 3.03646 0
M  V30 23027 C 4023.62 7.41196 3.50753 0
M  V30 23028 O 4024.01 7.27073 4.86816 0
M  V30 23029 C 4024.5 6.5273 2.63741 0
M  V30 23030 C 4023.79 5.1842 2.73198 0
M  V30 23031 N 4023.84 4.38668 1.47808 0
M  V30 23032 C 4023.99 3.00789 1.58511 0
M  V30 23033 O 4024.08 2.50116 2.71298 0
M  V30 23034 N 4024.04 2.29703 0.253698 0
M  V30 23035 C 4023.94 2.84269 -0.750133 0
M  V30 23036 N 4023.99 2.06951 -1.82612 0
M  V30 23037 C 4023.79 4.25803 -0.889776 0
M  V30 23038 C 4023.74 4.98326 0.259363 0
M  V30 23039 H 4021 8.36707 2.32466 0
M  V30 23040 H 4020.73 6.701 1.71105 0
M  V30 23041 H 4021.59 7.03638 4.13219 0
M  V30 23042 H 4024.25 4.59852 3.53955 0
M  V30 23043 H 4024.53 6.88995 1.59871 0
M  V30 23044 H 4025.52 6.46749 3.03687 0
M  V30 23045 H 4023.69 8.46908 3.20714 0
M  V30 23046 H 4023.61 6.06349 0.206238 0
M  V30 23047 H 4023.72 4.73163 -1.86796 0
M  V30 23048 H 4024.1 1.05099 -1.72271 0
M  V30 23049 H 4023.91 2.48716 -2.76361 0
M  V30 23050 P 4025.56 7.20834 5.23717 0
M  V30 23051 O 4025.78 7.79853 6.57286 0
M  V30 23052 O 4026.35 7.79239 4.12957 0
M  V30 23053 O 4025.81 5.63315 5.29344 0
M  V30 23054 C 4024.87 4.80255 6.01876 0
M  V30 23055 C 4025.6 3.64202 6.65911 0
M  V30 23056 O 4025.81 2.60694 5.64732 0
M  V30 23057 C 4027 3.93473 7.1943 0
M  V30 23058 O 4027.39 3.02071 8.21205 0
M  V30 23059 C 4027.88 3.73047 5.97036 0
M  V30 23060 C 4027.17 2.58828 5.25741 0
M  V30 23061 N 4027.22 2.68068 3.77503 0
M  V30 23062 H 4024.38 5.40332 6.79951 0
M  V30 23063 H 4024.11 4.41613 5.32378 0
M  V30 23064 H 4024.97 3.26331 7.47797 0
M  V30 23065 P 4028.94 2.75334 8.47391 0
M  V30 23066 O 4029.16 2.44571 9.90142 0
M  V30 23067 O 4029.73 3.87688 7.92115 0
M  V30 23068 O 4029.19 1.4459 7.59357 0
M  V30 23069 C 4028.25 0.347608 7.69215 0
M  V30 23070 C 4028.98 -0.96767 7.52806 0
M  V30 23071 O 4029.19 -1.21036 6.1011 0
M  V30 23072 C 4030.38 -1.04544 8.13308 0
M  V30 23073 O 4030.77 -2.38311 8.41922 0
M  V30 23074 C 4031.26 -0.491279 7.02284 0
M  V30 23075 C 4030.55 -0.996264 5.77469 0
M  V30 23076 N 4030.6 -0.0501916 4.62973 0
M  V30 23077 H 4027.76 0.374722 8.67691 0
M  V30 23078 H 4027.49 0.443485 6.90277 0
M  V30 23079 H 4028.35 -1.75537 7.96793 0
M  V30 23080 P 4032.32 -2.75334 8.47391 0
M  V30 23081 O 4032.54 -3.84128 9.44797 0
M  V30 23082 O 4033.11 -1.51947 8.68712 0
M  V30 23083 O 4032.57 -3.29363 6.99321 0
M  V30 23084 C 4031.63 -4.24011 6.4274 0
M  V30 23085 C 4032.36 -5.20775 5.52155 0
M  V30 23086 O 4032.57 -4.56534 4.22446 0
M  V30 23087 C 4033.76 -5.62629 5.96531 0
M  V30 23088 O 4034.15 -6.87667 5.41053 0
M  V30 23089 C 4034.64 -4.52537 5.39283 0
M  V30 23090 C 4033.93 -4.20027 4.08623 0
M  V30 23091 N 4033.98 -2.76189 3.71603 0
M  V30 23092 H 4031.14 -4.797 7.24003 0
M  V30 23093 H 4030.87 -3.69856 5.84513 0
M  V30 23094 H 4031.73 -6.10356 5.41441 0
M  V30 23095 P 4035.7 -7.20834 5.23717 0
M  V30 23096 O 4035.92 -8.66104 5.38572 0
M  V30 23097 O 4036.49 -6.33544 6.1349 0
M  V30 23098 O 4035.95 -6.7751 3.72168 0
M  V30 23099 C 4035.01 -7.20825 2.7076 0
M  V30 23100 C 4035.74 -7.45864 1.40599 0
M  V30 23101 O 4035.95 -6.17651 0.734225 0
M  V30 23102 C 4037.14 -8.05808 1.51899 0
M  V30 23103 O 4037.53 -8.74358 0.335205 0
M  V30 23104 C 4038.02 -6.83093 1.70294 0
M  V30 23105 C 4037.31 -5.79992 0.836974 0
M  V30 23106 N 4037.36 -4.41864 1.38293 0
M  V30 23107 H 4034.52 -8.13644 3.0377 0
M  V30 23108 H 4034.25 -6.42788 2.55485 0
M  V30 23109 H 4035.11 -8.12039 0.792769 0
M  V30 23110 P 4039.08 -8.91 1.63757e-10 0
M  V30 23111 O 4039.3 -10.1726 -0.733694 0
M  V30 23112 O 4039.87 -8.73148 1.23936 0
M  V30 23113 O 4039.33 -7.66872 -0.971405 0
M  V30 23114 C 4038.39 -7.42309 -2.04641 0
M  V30 23115 C 4039.12 -6.86059 -3.24661 0
M  V30 23116 O 4039.33 -5.42847 -3.03646 0
M  V30 23117 C 4040.52 -7.41196 -3.50753 0
M  V30 23118 O 4040.91 -7.27073 -4.86816 0
M  V30 23119 C 4041.4 -6.5273 -2.63741 0
M  V30 23120 C 4040.69 -5.1842 -2.73198 0
M  V30 23121 N 4040.74 -4.38762 -1.4784 0
M  V30 23122 H 4037.9 -8.36803 -2.32493 0
M  V30 23123 H 4037.63 -6.70197 -1.71129 0
M  V30 23124 H 4038.49 -7.03551 -4.13168 0
M  V30 23125 P 4042.46 -7.20834 -5.23717 0
M  V30 23126 O 4042.68 -7.79853 -6.57286 0
M  V30 23127 O 4043.25 -7.79239 -4.12957 0
M  V30 23128 O 4042.71 -5.63315 -5.29344 0
M  V30 23129 C 4041.77 -4.80255 -6.01876 0
M  V30 23130 C 4042.5 -3.64202 -6.65911 0
M  V30 23131 O 4042.71 -2.60694 -5.64732 0
M  V30 23132 C 4043.9 -3.93473 -7.1943 0
M  V30 23133 O 4044.29 -3.02071 -8.21205 0
M  V30 23134 C 4044.78 -3.73047 -5.97036 0
M  V30 23135 C 4044.07 -2.58828 -5.25741 0
M  V30 23136 N 4044.12 -2.68068 -3.77503 0
M  V30 23137 H 4041.28 -5.40332 -6.79951 0
M  V30 23138 H 4041.01 -4.41613 -5.32378 0
M  V30 23139 H 4041.87 -3.26331 -7.47797 0
M  V30 23140 P 4045.84 -2.75334 -8.47391 0
M  V30 23141 O 4046.06 -2.44571 -9.90142 0
M  V30 23142 O 4046.63 -3.87688 -7.92115 0
M  V30 23143 O 4046.09 -1.4459 -7.59357 0
M  V30 23144 C 4045.15 -0.347608 -7.69215 0
M  V30 23145 C 4045.88 0.96767 -7.52806 0
M  V30 23146 O 4046.09 1.21036 -6.1011 0
M  V30 23147 C 4047.28 1.04544 -8.13308 0
M  V30 23148 O 4047.67 2.38311 -8.41922 0
M  V30 23149 C 4048.16 0.491279 -7.02284 0
M  V30 23150 C 4047.45 0.996264 -5.77469 0
M  V30 23151 N 4047.5 0.0501916 -4.62973 0
M  V30 23152 H 4044.66 -0.374722 -8.67691 0
M  V30 23153 H 4044.39 -0.443485 -6.90277 0
M  V30 23154 H 4045.25 1.75537 -7.96793 0
M  V30 23155 P 4049.22 2.75334 -8.47391 0
M  V30 23156 O 4049.44 3.84204 -9.44982 0
M  V30 23157 O 4050.01 1.51982 -8.68909 0
M  V30 23158 O 4049.47 3.29363 -6.99321 0
M  V30 23159 C 4048.53 4.24066 -6.42823 0
M  V30 23160 C 4049.26 5.20775 -5.52155 0
M  V30 23161 O 4049.47 4.56607 -4.22514 0
M  V30 23162 C 4050.66 5.62697 -5.96604 0
M  V30 23163 O 4051.05 6.87667 -5.41053 0
M  V30 23164 C 4051.54 4.52537 -5.39283 0
M  V30 23165 C 4050.83 4.20027 -4.08623 0
M  V30 23166 N 4050.88 2.76189 -3.71603 0
M  V30 23167 H 4048.04 4.79756 -7.24086 0
M  V30 23168 H 4047.77 3.69963 -5.84682 0
M  V30 23169 H 4048.63 6.10431 -5.41508 0
M  V30 23170 H 4051.29 4.78816 -3.28024 0
M  V30 23171 H 4051.57 3.64957 -6.05871 0
M  V30 23172 H 4052.56 4.88748 -5.21323 0
M  V30 23173 H 4050.73 5.66789 -7.0643 0
M  V30 23174 P 4052.6 7.20834 -5.23717 0
M  V30 23175 O 4052.82 8.66274 -5.38678 0
M  V30 23176 O 4053.39 6.33687 -6.13629 0
M  V30 23177 O 4052.85 6.7751 -3.72168 0
M  V30 23178 C 4051.91 7.20919 -2.70795 0
M  V30 23179 C 4052.64 7.45864 -1.40599 0
M  V30 23180 O 4052.85 6.17751 -0.734343 0
M  V30 23181 C 4054.04 8.05906 -1.51917 0
M  V30 23182 O 4054.43 8.74358 -0.335205 0
M  V30 23183 C 4054.92 6.83093 -1.70294 0
M  V30 23184 C 4054.21 5.79992 -0.836974 0
M  V30 23185 N 4054.26 4.41864 -1.38293 0
M  V30 23186 C 4054.18 4.02089 -2.69407 0
M  V30 23187 N 4054.25 2.73403 -2.85089 0
M  V30 23188 C 4054.4 2.25086 -1.5642 0
M  V30 23189 C 4054.53 0.942887 -1.04836 0
M  V30 23190 N 4054.54 -0.150999 -1.80369 0
M  V30 23191 N 4054.65 0.812565 0.28167 0
M  V30 23192 C 4054.64 1.90572 1.03784 0
M  V30 23193 N 4054.52 3.167 0.683905 0
M  V30 23194 C 4054.4 3.26538 -0.652815 0
M  V30 23195 H 4051.42 8.13738 -3.03804 0
M  V30 23196 H 4051.15 6.42974 -2.55559 0
M  V30 23197 H 4052.01 8.12139 -0.792866 0
M  V30 23198 H 4054.67 5.80178 0.160643 0
M  V30 23199 H 4054.95 6.51379 -2.75643 0
M  V30 23200 H 4055.94 7.01832 -1.3448 0
M  V30 23201 H 4054.11 8.73771 -2.38364 0
M  V30 23202 H 4054.07 4.7189 -3.52311 0
M  V30 23203 H 4054.45 -0.0721434 -2.82608 0
M  V30 23204 H 4054.64 -1.0785 -1.36544 0
M  V30 23205 H 4054.74 1.73207 2.10241 0
M  V30 23206 P 4055.98 8.91 -1.64866e-10 0
M  V30 23207 O 4056.2 10.1726 0.733694 0
M  V30 23208 O 4056.77 8.73148 -1.23936 0
M  V30 23209 O 4056.23 7.66872 0.971405 0
M  V30 23210 C 4055.29 7.42309 2.04641 0
M  V30 23211 C 4056.02 6.86059 3.24661 0
M  V30 23212 O 4056.23 5.42847 3.03646 0
M  V30 23213 C 4057.42 7.41196 3.50753 0
M  V30 23214 O 4057.81 7.27073 4.86816 0
M  V30 23215 C 4058.3 6.5273 2.63741 0
M  V30 23216 C 4057.59 5.1842 2.73198 0
M  V30 23217 N 4057.64 4.38762 1.4784 0
M  V30 23218 C 4057.56 4.81605 0.168631 0
M  V30 23219 N 4057.64 3.85454 -0.713363 0
M  V30 23220 C 4057.78 2.6994 0.0566958 0
M  V30 23221 C 4057.91 1.34815 -0.338502 0
M  V30 23222 O 4057.93 0.869548 -1.47125 0
M  V30 23223 N 4058.03 0.496304 0.77465 0
M  V30 23224 C 4058.03 0.908403 2.09122 0
M  V30 23225 N 4058.16 -0.0517805 3.00955 0
M  V30 23226 N 4057.9 2.17875 2.46519 0
M  V30 23227 C 4057.78 3.01988 1.4033 0
M  V30 23228 H 4054.8 8.36803 2.32493 0
M  V30 23229 H 4054.53 6.70197 1.71129 0
M  V30 23230 H 4055.39 7.03551 4.13168 0
M  V30 23231 H 4058.05 4.59498 3.54415 0
M  V30 23232 H 4058.33 6.88898 1.59848 0
M  V30 23233 H 4059.32 6.46749 3.03687 0
M  V30 23234 H 4057.49 8.46908 3.20714 0
M  V30 23235 H 4057.44 5.86405 -0.105564 0
M  V30 23236 H 4058.12 -0.483664 0.597855 0
M  V30 23237 H 4058.16 0.187865 4.0116 0
M  V30 23238 H 4058.26 -1.03585 2.71726 0
M  V30 23239 P 4059.36 7.20834 5.23717 0
M  V30 23240 O 4059.58 7.79853 6.57286 0
M  V30 23241 O 4060.15 7.79239 4.12957 0
M  V30 23242 O 4059.61 5.63315 5.29344 0
M  V30 23243 C 4058.67 4.80255 6.01876 0
M  V30 23244 C 4059.4 3.64202 6.65911 0
M  V30 23245 O 4059.61 2.60694 5.64732 0
M  V30 23246 C 4060.8 3.93473 7.1943 0
M  V30 23247 O 4061.19 3.02071 8.21205 0
M  V30 23248 C 4061.68 3.73047 5.97036 0
M  V30 23249 C 4060.97 2.58828 5.25741 0
M  V30 23250 N 4061.02 2.68068 3.77503 0
M  V30 23251 H 4058.18 5.40332 6.79951 0
M  V30 23252 H 4057.91 4.41613 5.32378 0
M  V30 23253 H 4058.77 3.26331 7.47797 0
M  V30 23254 P 4062.74 2.75334 8.47391 0
M  V30 23255 O 4062.96 2.44595 9.90239 0
M  V30 23256 O 4063.53 3.87732 7.92204 0
M  V30 23257 O 4062.99 1.4459 7.59357 0
M  V30 23258 C 4062.05 0.347563 7.69115 0
M  V30 23259 C 4062.78 -0.96767 7.52806 0
M  V30 23260 O 4062.99 -1.21036 6.1011 0
M  V30 23261 C 4064.18 -1.04544 8.13308 0
M  V30 23262 O 4064.57 -2.38311 8.41922 0
M  V30 23263 C 4065.06 -0.491279 7.02284 0
M  V30 23264 C 4064.35 -0.996264 5.77469 0
M  V30 23265 N 4064.4 -0.0501808 4.62873 0
M  V30 23266 C 4064.55 -0.588177 3.36904 0
M  V30 23267 O 4064.64 -1.78598 3.17173 0
M  V30 23268 N 4064.59 0.329694 2.33686 0
M  V30 23269 C 4064.5 1.6953 2.45079 0
M  V30 23270 O 4064.55 2.41926 1.44899 0
M  V30 23271 C 4064.35 2.16933 3.80505 0
M  V30 23272 C 4064.24 3.65373 3.97621 0
M  V30 23273 C 4064.3 1.30326 4.83752 0
M  V30 23274 H 4061.56 0.374722 8.67691 0
M  V30 23275 H 4061.29 0.443421 6.90177 0
M  V30 23276 H 4062.15 -1.75537 7.96793 0
M  V30 23277 H 4064.81 -1.94496 5.46629 0
M  V30 23278 H 4065.09 0.608651 7.04676 0
M  V30 23279 H 4066.08 -0.889672 7.08939 0
M  V30 23280 H 4064.25 -0.43308 9.04564 0
M  V30 23281 H 4064.17 1.68366 5.8516 0
M  V30 23282 H 4065.2 4.05985 4.30448 0
M  V30 23283 H 4063.47 3.88028 4.72875 0
M  V30 23284 H 4063.96 4.11381 3.01609 0
M  V30 23285 H 4064.69 -0.0393617 1.41345 0
M  V30 23286 P 4066.12 -2.75334 8.47391 0
M  V30 23287 O 4066.34 -3.84166 9.4489 0
M  V30 23288 O 4066.91 -1.51964 8.6881 0
M  V30 23289 O 4066.37 -3.29363 6.99321 0
M  V30 23290 C 4065.43 -4.23956 6.42656 0
M  V30 23291 C 4066.16 -5.20775 5.52155 0
M  V30 23292 O 4066.37 -4.56534 4.22446 0
M  V30 23293 C 4067.56 -5.62629 5.96531 0
M  V30 23294 O 4067.95 -6.87667 5.41053 0
M  V30 23295 C 4068.44 -4.52537 5.39283 0
M  V30 23296 C 4067.73 -4.20027 4.08623 0
M  V30 23297 N 4067.78 -2.7613 3.71522 0
M  V30 23298 C 4067.93 -2.45612 2.37989 0
M  V30 23299 O 4068.02 -3.30919 1.51621 0
M  V30 23300 N 4067.97 -1.10684 2.08435 0
M  V30 23301 C 4067.88 -0.0690084 2.9792 0
M  V30 23302 O 4067.93 1.10553 2.59426 0
M  V30 23303 C 4067.73 -0.481522 4.35345 0
M  V30 23304 C 4067.62 0.618778 5.36443 0
M  V30 23305 C 4067.68 -1.78906 4.67968 0
M  V30 23306 H 4064.94 -4.797 7.24003 0
M  V30 23307 H 4064.67 -3.69802 5.84429 0
M  V30 23308 H 4065.53 -6.10356 5.41441 0
M  V30 23309 H 4068.19 -4.78651 3.27911 0
M  V30 23310 H 4068.47 -3.64957 6.05871 0
M  V30 23311 H 4069.46 -4.8868 5.2125 0
M  V30 23312 H 4067.63 -5.66726 7.06352 0
M  V30 23313 H 4067.55 -2.07737 5.72367 0
M  V30 23314 H 4068.58 0.754375 5.86871 0
M  V30 23315 H 4066.85 0.359721 6.10641 0
M  V30 23316 H 4067.34 1.55533 4.8581 0
M  V30 23317 H 4068.07 -0.862651 1.12037 0
M  V30 23318 P 4069.5 -7.20834 5.23717 0
M  V30 23319 O 4069.72 -8.66104 5.38572 0
M  V30 23320 O 4070.29 -6.33544 6.1349 0
M  V30 23321 O 4069.75 -6.7751 3.72168 0
M  V30 23322 C 4068.81 -7.20825 2.7076 0
M  V30 23323 C 4069.54 -7.45864 1.40599 0
M  V30 23324 O 4069.75 -6.17651 0.734225 0
M  V30 23325 C 4070.94 -8.05808 1.51899 0
M  V30 23326 O 4071.33 -8.74358 0.335205 0
M  V30 23327 C 4071.82 -6.83093 1.70294 0
M  V30 23328 C 4071.11 -5.79992 0.836974 0
M  V30 23329 N 4071.16 -4.41864 1.38293 0
M  V30 23330 H 4068.32 -8.13644 3.0377 0
M  V30 23331 H 4068.05 -6.42788 2.55485 0
M  V30 23332 H 4068.91 -8.12039 0.792769 0
M  V30 23333 P 4072.88 -8.91 1.65975e-10 0
M  V30 23334 O 4073.1 -10.1726 -0.733694 0
M  V30 23335 O 4073.67 -8.73148 1.23936 0
M  V30 23336 O 4073.13 -7.66872 -0.971405 0
M  V30 23337 C 4072.19 -7.42309 -2.04641 0
M  V30 23338 C 4072.92 -6.86059 -3.24661 0
M  V30 23339 O 4073.13 -5.42847 -3.03646 0
M  V30 23340 C 4074.32 -7.41196 -3.50753 0
M  V30 23341 O 4074.71 -7.27073 -4.86816 0
M  V30 23342 C 4075.2 -6.5273 -2.63741 0
M  V30 23343 C 4074.49 -5.1842 -2.73198 0
M  V30 23344 N 4074.54 -4.38762 -1.4784 0
M  V30 23345 H 4071.7 -8.36803 -2.32493 0
M  V30 23346 H 4071.43 -6.70197 -1.71129 0
M  V30 23347 H 4072.29 -7.03551 -4.13168 0
M  V30 23348 P 4076.26 -7.20834 -5.23717 0
M  V30 23349 O 4076.48 -7.79853 -6.57286 0
M  V30 23350 O 4077.05 -7.79239 -4.12957 0
M  V30 23351 O 4076.51 -5.63315 -5.29344 0
M  V30 23352 C 4075.57 -4.80255 -6.01876 0
M  V30 23353 C 4076.3 -3.64202 -6.65911 0
M  V30 23354 O 4076.51 -2.60694 -5.64732 0
M  V30 23355 C 4077.7 -3.93473 -7.1943 0
M  V30 23356 O 4078.09 -3.02071 -8.21205 0
M  V30 23357 C 4078.58 -3.73047 -5.97036 0
M  V30 23358 C 4077.87 -2.58828 -5.25741 0
M  V30 23359 N 4077.92 -2.68068 -3.77503 0
M  V30 23360 C 4077.84 -3.79715 -2.96723 0
M  V30 23361 N 4077.92 -3.5377 -1.68852 0
M  V30 23362 C 4078.06 -2.15054 -1.63254 0
M  V30 23363 C 4078.19 -1.28964 -0.518571 0
M  V30 23364 N 4078.31 0.0538097 -0.918425 0
M  V30 23365 C 4078.31 0.494275 -2.22578 0
M  V30 23366 N 4078.44 1.81086 -2.40434 0
M  V30 23367 N 4078.18 -0.313645 -3.27502 0
M  V30 23368 C 4078.06 -1.61829 -2.91033 0
M  V30 23369 H 4075.08 -5.40332 -6.79951 0
M  V30 23370 H 4074.81 -4.41613 -5.32378 0
M  V30 23371 H 4075.67 -3.26331 -7.47797 0
M  V30 23372 P 4079.64 -2.75334 -8.47391 0
M  V30 23373 O 4079.86 -2.44571 -9.90142 0
M  V30 23374 O 4080.43 -3.87688 -7.92115 0
M  V30 23375 O 4079.89 -1.4459 -7.59357 0
M  V30 23376 C 4078.95 -0.347608 -7.69215 0
M  V30 23377 C 4079.68 0.96767 -7.52806 0
M  V30 23378 O 4079.89 1.21036 -6.1011 0
M  V30 23379 C 4081.08 1.04544 -8.13308 0
M  V30 23380 O 4081.47 2.38311 -8.41922 0
M  V30 23381 C 4081.96 0.491279 -7.02284 0
M  V30 23382 C 4081.25 0.996264 -5.77469 0
M  V30 23383 N 4081.3 0.0501916 -4.62973 0
M  V30 23384 C 4081.22 -1.32786 -4.63244 0
M  V30 23385 N 4081.3 -1.86957 -3.44545 0
M  V30 23386 C 4081.44 -0.780241 -2.58481 0
M  V30 23387 C 4081.57 -0.738536 -1.17757 0
M  V30 23388 O 4081.59 -1.66794 -0.372349 0
M  V30 23389 N 4081.69 0.58337 -0.711393 0
M  V30 23390 C 4081.69 1.70816 -1.51017 0
M  V30 23391 N 4081.82 2.87826 -0.880757 0
M  V30 23392 N 4081.56 1.67126 -2.8339 0
M  V30 23393 C 4081.44 0.401421 -3.30572 0
M  V30 23394 H 4078.46 -0.374722 -8.67691 0
M  V30 23395 H 4078.19 -0.443485 -6.90277 0
M  V30 23396 H 4079.05 1.75537 -7.96793 0
M  V30 23397 H 4081.71 1.95076 -5.46529 0
M  V30 23398 H 4081.99 -0.608565 -7.04577 0
M  V30 23399 H 4082.98 0.889672 -7.08939 0
M  V30 23400 H 4081.15 0.43308 -9.04564 0
M  V30 23401 H 4081.1 -1.91249 -5.54442 0
M  V30 23402 H 4081.78 0.718054 0.275244 0
M  V30 23403 H 4081.82 3.75721 -1.41832 0
M  V30 23404 H 4081.92 2.90436 0.145468 0
M  V30 23405 P 4083.02 2.75334 -8.47391 0
M  V30 23406 O 4083.24 3.84128 -9.44797 0
M  V30 23407 O 4083.81 1.51947 -8.68712 0
M  V30 23408 O 4083.27 3.29363 -6.99321 0
M  V30 23409 C 4082.33 4.24011 -6.4274 0
M  V30 23410 C 4083.06 5.20775 -5.52155 0
M  V30 23411 O 4083.27 4.56534 -4.22446 0
M  V30 23412 C 4084.46 5.62629 -5.96531 0
M  V30 23413 O 4084.85 6.87667 -5.41053 0
M  V30 23414 C 4085.34 4.52537 -5.39283 0
M  V30 23415 C 4084.63 4.20027 -4.08623 0
M  V30 23416 N 4084.68 2.76189 -3.71603 0
M  V30 23417 H 4081.84 4.797 -7.24003 0
M  V30 23418 H 4081.57 3.69856 -5.84513 0
M  V30 23419 H 4082.43 6.10356 -5.41441 0
M  V30 23420 P 4086.4 7.20834 -5.23717 0
M  V30 23421 O 4086.62 8.66104 -5.38572 0
M  V30 23422 O 4087.19 6.33544 -6.1349 0
M  V30 23423 O 4086.65 6.7751 -3.72168 0
M  V30 23424 C 4085.71 7.20825 -2.7076 0
M  V30 23425 C 4086.44 7.45864 -1.40599 0
M  V30 23426 O 4086.65 6.17651 -0.734225 0
M  V30 23427 C 4087.84 8.05808 -1.51899 0
M  V30 23428 O 4088.23 8.74358 -0.335205 0
M  V30 23429 C 4088.72 6.83093 -1.70294 0
M  V30 23430 C 4088.01 5.79992 -0.836974 0
M  V30 23431 N 4088.06 4.41864 -1.38293 0
M  V30 23432 C 4087.98 3.99538 -2.69438 0
M  V30 23433 N 4088.06 2.69909 -2.84277 0
M  V30 23434 C 4088.2 2.21719 -1.5408 0
M  V30 23435 C 4088.33 0.891712 -1.06628 0
M  V30 23436 N 4088.45 0.856846 0.334985 0
M  V30 23437 C 4088.45 1.9641 1.15789 0
M  V30 23438 N 4088.58 1.72708 2.46522 0
M  V30 23439 N 4088.32 3.21165 0.713741 0
M  V30 23440 C 4088.2 3.26797 -0.639748 0
M  V30 23441 H 4085.22 8.13644 -3.0377 0
M  V30 23442 H 4084.95 6.42788 -2.55485 0
M  V30 23443 H 4085.81 8.12039 -0.792769 0
M  V30 23444 P 4089.78 8.91 -1.67084e-10 0
M  V30 23445 O 4090 10.1726 0.733694 0
M  V30 23446 O 4090.57 8.73148 -1.23936 0
M  V30 23447 O 4090.03 7.66872 0.971405 0
M  V30 23448 C 4089.09 7.42309 2.04641 0
M  V30 23449 C 4089.82 6.86059 3.24661 0
M  V30 23450 O 4090.03 5.42847 3.03646 0
M  V30 23451 C 4091.22 7.41196 3.50753 0
M  V30 23452 O 4091.61 7.27073 4.86816 0
M  V30 23453 C 4092.1 6.5273 2.63741 0
M  V30 23454 C 4091.39 5.1842 2.73198 0
M  V30 23455 N 4091.44 4.38762 1.4784 0
M  V30 23456 H 4088.6 8.36803 2.32493 0
M  V30 23457 H 4088.33 6.70197 1.71129 0
M  V30 23458 H 4089.19 7.03551 4.13168 0
M  V30 23459 P 4093.16 7.20834 5.23717 0
M  V30 23460 O 4093.38 7.79853 6.57286 0
M  V30 23461 O 4093.95 7.79239 4.12957 0
M  V30 23462 O 4093.41 5.63315 5.29344 0
M  V30 23463 C 4092.47 4.80255 6.01876 0
M  V30 23464 C 4093.2 3.64202 6.65911 0
M  V30 23465 O 4093.41 2.60694 5.64732 0
M  V30 23466 C 4094.6 3.93473 7.1943 0
M  V30 23467 O 4094.99 3.02071 8.21205 0
M  V30 23468 C 4095.48 3.73047 5.97036 0
M  V30 23469 C 4094.77 2.58828 5.25741 0
M  V30 23470 N 4094.82 2.68068 3.77503 0
M  V30 23471 H 4091.98 5.40332 6.79951 0
M  V30 23472 H 4091.71 4.41613 5.32378 0
M  V30 23473 H 4092.57 3.26331 7.47797 0
M  V30 23474 P 4096.54 2.75334 8.47391 0
M  V30 23475 O 4096.76 2.44571 9.90142 0
M  V30 23476 O 4097.33 3.87688 7.92115 0
M  V30 23477 O 4096.79 1.4459 7.59357 0
M  V30 23478 C 4095.85 0.347608 7.69215 0
M  V30 23479 C 4096.58 -0.96767 7.52806 0
M  V30 23480 O 4096.79 -1.21036 6.1011 0
M  V30 23481 C 4097.98 -1.04544 8.13308 0
M  V30 23482 O 4098.37 -2.38311 8.41922 0
M  V30 23483 C 4098.86 -0.491279 7.02284 0
M  V30 23484 C 4098.15 -0.996264 5.77469 0
M  V30 23485 N 4098.2 -0.0501916 4.62973 0
M  V30 23486 H 4095.36 0.374722 8.67691 0
M  V30 23487 H 4095.09 0.443485 6.90277 0
M  V30 23488 H 4095.95 -1.75537 7.96793 0
M  V30 23489 P 4099.92 -2.75334 8.47391 0
M  V30 23490 O 4100.14 -3.84128 9.44797 0
M  V30 23491 O 4100.71 -1.51947 8.68712 0
M  V30 23492 O 4100.17 -3.29363 6.99321 0
M  V30 23493 C 4099.23 -4.24011 6.4274 0
M  V30 23494 C 4099.96 -5.20775 5.52155 0
M  V30 23495 O 4100.17 -4.56534 4.22446 0
M  V30 23496 C 4101.36 -5.62629 5.96531 0
M  V30 23497 O 4101.75 -6.87667 5.41053 0
M  V30 23498 C 4102.24 -4.52537 5.39283 0
M  V30 23499 C 4101.53 -4.20027 4.08623 0
M  V30 23500 N 4101.58 -2.76189 3.71603 0
M  V30 23501 H 4098.74 -4.797 7.24003 0
M  V30 23502 H 4098.47 -3.69856 5.84513 0
M  V30 23503 H 4099.33 -6.10356 5.41441 0
M  V30 23504 P 4103.3 -7.20834 5.23717 0
M  V30 23505 O 4103.52 -8.66104 5.38572 0
M  V30 23506 O 4104.09 -6.33544 6.1349 0
M  V30 23507 O 4103.55 -6.7751 3.72168 0
M  V30 23508 C 4102.61 -7.20825 2.7076 0
M  V30 23509 C 4103.34 -7.45864 1.40599 0
M  V30 23510 O 4103.55 -6.17651 0.734225 0
M  V30 23511 C 4104.74 -8.05808 1.51899 0
M  V30 23512 O 4105.13 -8.74358 0.335205 0
M  V30 23513 C 4105.62 -6.83093 1.70294 0
M  V30 23514 C 4104.91 -5.79992 0.836974 0
M  V30 23515 N 4104.96 -4.41864 1.38293 0
M  V30 23516 C 4104.88 -3.99538 2.69438 0
M  V30 23517 N 4104.96 -2.69909 2.84277 0
M  V30 23518 C 4105.1 -2.21719 1.5408 0
M  V30 23519 C 4105.23 -0.891712 1.06628 0
M  V30 23520 O 4105.25 0.161298 1.70137 0
M  V30 23521 N 4105.35 -0.856846 -0.334985 0
M  V30 23522 C 4105.35 -1.9641 -1.15789 0
M  V30 23523 N 4105.48 -1.72708 -2.46522 0
M  V30 23524 N 4105.22 -3.21165 -0.713741 0
M  V30 23525 C 4105.1 -3.26797 0.639748 0
M  V30 23526 H 4102.12 -8.13644 3.0377 0
M  V30 23527 H 4101.85 -6.42788 2.55485 0
M  V30 23528 H 4102.71 -8.12039 0.792769 0
M  V30 23529 H 4105.37 -5.80061 -0.166416 0
M  V30 23530 H 4105.65 -6.51287 2.75604 0
M  V30 23531 H 4106.64 -7.01734 1.34462 0
M  V30 23532 H 4104.81 -8.73674 2.38337 0
M  V30 23533 H 4104.76 -4.68207 3.53221 0
M  V30 23534 H 4105.44 0.0398818 -0.767965 0
M  V30 23535 H 4105.48 -2.50995 -3.13503 0
M  V30 23536 H 4105.58 -0.759148 -2.80716 0
M  V30 23537 P 4106.68 -8.91 1.68193e-10 0
M  V30 23538 O 4106.9 -10.1726 -0.733694 0
M  V30 23539 O 4107.47 -8.73148 1.23936 0
M  V30 23540 O 4106.93 -7.66872 -0.971405 0
M  V30 23541 C 4105.99 -7.42309 -2.04641 0
M  V30 23542 C 4106.72 -6.86059 -3.24661 0
M  V30 23543 O 4106.93 -5.42847 -3.03646 0
M  V30 23544 C 4108.12 -7.41196 -3.50753 0
M  V30 23545 O 4108.51 -7.27073 -4.86816 0
M  V30 23546 C 4109 -6.5273 -2.63741 0
M  V30 23547 C 4108.29 -5.1842 -2.73198 0
M  V30 23548 N 4108.34 -4.38762 -1.4784 0
M  V30 23549 H 4105.5 -8.36803 -2.32493 0
M  V30 23550 H 4105.23 -6.70197 -1.71129 0
M  V30 23551 H 4106.09 -7.03551 -4.13168 0
M  V30 23552 P 4110.06 -7.20834 -5.23717 0
M  V30 23553 O 4110.28 -7.79853 -6.57286 0
M  V30 23554 O 4110.85 -7.79239 -4.12957 0
M  V30 23555 O 4110.31 -5.63315 -5.29344 0
M  V30 23556 C 4109.37 -4.80255 -6.01876 0
M  V30 23557 C 4110.1 -3.64202 -6.65911 0
M  V30 23558 O 4110.31 -2.60694 -5.64732 0
M  V30 23559 C 4111.5 -3.93473 -7.1943 0
M  V30 23560 O 4111.89 -3.02071 -8.21205 0
M  V30 23561 C 4112.38 -3.73047 -5.97036 0
M  V30 23562 C 4111.67 -2.58828 -5.25741 0
M  V30 23563 N 4111.72 -2.68068 -3.77503 0
M  V30 23564 H 4108.88 -5.40332 -6.79951 0
M  V30 23565 H 4108.61 -4.41613 -5.32378 0
M  V30 23566 H 4109.47 -3.26331 -7.47797 0
M  V30 23567 P 4113.44 -2.75334 -8.47391 0
M  V30 23568 O 4113.66 -2.44571 -9.90142 0
M  V30 23569 O 4114.23 -3.87688 -7.92115 0
M  V30 23570 O 4113.69 -1.4459 -7.59357 0
M  V30 23571 C 4112.75 -0.347608 -7.69215 0
M  V30 23572 C 4113.48 0.96767 -7.52806 0
M  V30 23573 O 4113.69 1.21036 -6.1011 0
M  V30 23574 C 4114.88 1.04544 -8.13308 0
M  V30 23575 O 4115.27 2.38311 -8.41922 0
M  V30 23576 C 4115.76 0.491279 -7.02284 0
M  V30 23577 C 4115.05 0.996264 -5.77469 0
M  V30 23578 N 4115.1 0.0501916 -4.62973 0
M  V30 23579 H 4112.26 -0.374722 -8.67691 0
M  V30 23580 H 4111.99 -0.443485 -6.90277 0
M  V30 23581 H 4112.85 1.75537 -7.96793 0
M  V30 23582 P 4116.82 2.75334 -8.47391 0
M  V30 23583 O 4117.04 3.84204 -9.44982 0
M  V30 23584 O 4117.61 1.51982 -8.68909 0
M  V30 23585 O 4117.07 3.29363 -6.99321 0
M  V30 23586 C 4116.13 4.24066 -6.42823 0
M  V30 23587 C 4116.86 5.20775 -5.52155 0
M  V30 23588 O 4117.07 4.56607 -4.22514 0
M  V30 23589 C 4118.26 5.62697 -5.96604 0
M  V30 23590 O 4118.65 6.87667 -5.41053 0
M  V30 23591 C 4119.14 4.52537 -5.39283 0
M  V30 23592 C 4118.43 4.20027 -4.08623 0
M  V30 23593 N 4118.48 2.76189 -3.71603 0
M  V30 23594 H 4115.64 4.79756 -7.24086 0
M  V30 23595 H 4115.37 3.69963 -5.84682 0
M  V30 23596 H 4116.23 6.10431 -5.41508 0
M  V30 23597 H 4118.89 4.78816 -3.28024 0
M  V30 23598 H 4119.17 3.64957 -6.05871 0
M  V30 23599 H 4120.16 4.88748 -5.21323 0
M  V30 23600 H 4118.33 5.66789 -7.0643 0
M  V30 23601 P 4120.2 7.20834 -5.23717 0
M  V30 23602 O 4120.42 8.66104 -5.38572 0
M  V30 23603 O 4120.99 6.33544 -6.1349 0
M  V30 23604 O 4120.45 6.7751 -3.72168 0
M  V30 23605 C 4119.51 7.20825 -2.7076 0
M  V30 23606 C 4120.24 7.45864 -1.40599 0
M  V30 23607 O 4120.45 6.17651 -0.734225 0
M  V30 23608 C 4121.64 8.05808 -1.51899 0
M  V30 23609 O 4122.03 8.74358 -0.335205 0
M  V30 23610 C 4122.52 6.83093 -1.70294 0
M  V30 23611 C 4121.81 5.79992 -0.836974 0
M  V30 23612 N 4121.86 4.41864 -1.38293 0
M  V30 23613 H 4119.02 8.13644 -3.0377 0
M  V30 23614 H 4118.75 6.42788 -2.55485 0
M  V30 23615 H 4119.61 8.12039 -0.792769 0
M  V30 23616 P 4123.58 8.91 -1.69302e-10 0
M  V30 23617 O 4123.8 10.1736 0.733766 0
M  V30 23618 O 4124.37 8.73247 -1.2395 0
M  V30 23619 O 4123.83 7.66872 0.971405 0
M  V30 23620 C 4122.89 7.42309 2.04641 0
M  V30 23621 C 4123.62 6.86059 3.24661 0
M  V30 23622 O 4123.83 5.42847 3.03646 0
M  V30 23623 C 4125.02 7.41196 3.50753 0
M  V30 23624 O 4125.41 7.27073 4.86816 0
M  V30 23625 C 4125.9 6.5273 2.63741 0
M  V30 23626 C 4125.19 5.1842 2.73198 0
M  V30 23627 N 4125.24 4.38668 1.47808 0
M  V30 23628 C 4125.39 3.00789 1.58511 0
M  V30 23629 O 4125.48 2.50116 2.71298 0
M  V30 23630 N 4125.44 2.29703 0.253698 0
M  V30 23631 C 4125.34 2.84269 -0.750133 0
M  V30 23632 N 4125.39 2.06951 -1.82612 0
M  V30 23633 C 4125.19 4.25803 -0.889776 0
M  V30 23634 C 4125.14 4.98326 0.259363 0
M  V30 23635 H 4122.4 8.36707 2.32466 0
M  V30 23636 H 4122.13 6.701 1.71105 0
M  V30 23637 H 4122.99 7.03638 4.13219 0
M  V30 23638 H 4125.65 4.59852 3.53955 0
M  V30 23639 H 4125.93 6.88995 1.59871 0
M  V30 23640 H 4126.92 6.46749 3.03687 0
M  V30 23641 H 4125.09 8.46908 3.20714 0
M  V30 23642 H 4125.01 6.06349 0.206238 0
M  V30 23643 H 4125.12 4.73163 -1.86796 0
M  V30 23644 H 4125.5 1.05099 -1.72271 0
M  V30 23645 H 4125.31 2.48716 -2.76361 0
M  V30 23646 P 4126.96 7.20834 5.23717 0
M  V30 23647 O 4127.18 7.79853 6.57286 0
M  V30 23648 O 4127.75 7.79239 4.12957 0
M  V30 23649 O 4127.21 5.63315 5.29344 0
M  V30 23650 C 4126.27 4.80255 6.01876 0
M  V30 23651 C 4127 3.64202 6.65911 0
M  V30 23652 O 4127.21 2.60694 5.64732 0
M  V30 23653 C 4128.4 3.93473 7.1943 0
M  V30 23654 O 4128.79 3.02071 8.21205 0
M  V30 23655 C 4129.28 3.73047 5.97036 0
M  V30 23656 C 4128.57 2.58828 5.25741 0
M  V30 23657 N 4128.62 2.68068 3.77503 0
M  V30 23658 C 4128.54 3.79715 2.96723 0
M  V30 23659 N 4128.62 3.5377 1.68852 0
M  V30 23660 C 4128.76 2.15054 1.63254 0
M  V30 23661 C 4128.89 1.28964 0.518571 0
M  V30 23662 O 4128.91 1.56826 -0.679156 0
M  V30 23663 N 4129.01 -0.0538097 0.918425 0
M  V30 23664 C 4129.01 -0.494275 2.22578 0
M  V30 23665 N 4129.14 -1.81086 2.40434 0
M  V30 23666 N 4128.88 0.313645 3.27502 0
M  V30 23667 C 4128.76 1.61829 2.91033 0
M  V30 23668 H 4125.78 5.40332 6.79951 0
M  V30 23669 H 4125.51 4.41613 5.32378 0
M  V30 23670 H 4126.37 3.26331 7.47797 0
M  V30 23671 H 4129.03 1.63422 5.56814 0
M  V30 23672 H 4129.31 4.63374 5.34244 0
M  V30 23673 H 4130.3 3.44728 6.25838 0
M  V30 23674 H 4128.47 4.96652 7.57263 0
M  V30 23675 H 4128.42 4.80617 3.3614 0
M  V30 23676 H 4129.1 -0.742702 0.199384 0
M  V30 23677 H 4129.14 -2.20598 3.35588 0
M  V30 23678 H 4129.24 -2.43518 1.58945 0
M  V30 23679 P 4130.34 2.75334 8.47391 0
M  V30 23680 O 4130.56 2.44571 9.90142 0
M  V30 23681 O 4131.13 3.87688 7.92115 0
M  V30 23682 O 4130.59 1.4459 7.59357 0
M  V30 23683 C 4129.65 0.347608 7.69215 0
M  V30 23684 C 4130.38 -0.96767 7.52806 0
M  V30 23685 O 4130.59 -1.21036 6.1011 0
M  V30 23686 C 4131.78 -1.04544 8.13308 0
M  V30 23687 O 4132.17 -2.38311 8.41922 0
M  V30 23688 C 4132.66 -0.491279 7.02284 0
M  V30 23689 C 4131.95 -0.996264 5.77469 0
M  V30 23690 N 4132 -0.0501916 4.62973 0
M  V30 23691 C 4131.92 1.32786 4.63244 0
M  V30 23692 N 4132 1.86957 3.44545 0
M  V30 23693 C 4132.14 0.780241 2.58481 0
M  V30 23694 C 4132.27 0.738536 1.17757 0
M  V30 23695 O 4132.29 1.66794 0.372349 0
M  V30 23696 N 4132.39 -0.58337 0.711393 0
M  V30 23697 C 4132.39 -1.70816 1.51017 0
M  V30 23698 N 4132.52 -2.87826 0.880757 0
M  V30 23699 N 4132.26 -1.67126 2.8339 0
M  V30 23700 C 4132.14 -0.401421 3.30572 0
M  V30 23701 H 4129.16 0.374722 8.67691 0
M  V30 23702 H 4128.89 0.443485 6.90277 0
M  V30 23703 H 4129.75 -1.75537 7.96793 0
M  V30 23704 H 4132.41 -1.95076 5.46529 0
M  V30 23705 H 4132.69 0.608565 7.04577 0
M  V30 23706 H 4133.68 -0.889672 7.08939 0
M  V30 23707 H 4131.85 -0.43308 9.04564 0
M  V30 23708 H 4131.8 1.91249 5.54442 0
M  V30 23709 H 4132.48 -0.718054 -0.275244 0
M  V30 23710 H 4132.52 -3.75721 1.41832 0
M  V30 23711 H 4132.62 -2.90436 -0.145468 0
M  V30 23712 P 4133.72 -2.75334 8.47391 0
M  V30 23713 O 4133.94 -3.84128 9.44797 0
M  V30 23714 O 4134.51 -1.51947 8.68712 0
M  V30 23715 O 4133.97 -3.29363 6.99321 0
M  V30 23716 C 4133.03 -4.24011 6.4274 0
M  V30 23717 C 4133.76 -5.20775 5.52155 0
M  V30 23718 O 4133.97 -4.56534 4.22446 0
M  V30 23719 C 4135.16 -5.62629 5.96531 0
M  V30 23720 O 4135.55 -6.87667 5.41053 0
M  V30 23721 C 4136.04 -4.52537 5.39283 0
M  V30 23722 C 4135.33 -4.20027 4.08623 0
M  V30 23723 N 4135.38 -2.76189 3.71603 0
M  V30 23724 H 4132.54 -4.797 7.24003 0
M  V30 23725 H 4132.27 -3.69856 5.84513 0
M  V30 23726 H 4133.13 -6.10356 5.41441 0
M  V30 23727 P 4137.1 -7.20834 5.23717 0
M  V30 23728 O 4137.32 -8.66104 5.38572 0
M  V30 23729 O 4137.89 -6.33544 6.1349 0
M  V30 23730 O 4137.35 -6.7751 3.72168 0
M  V30 23731 C 4136.41 -7.20825 2.7076 0
M  V30 23732 C 4137.14 -7.45864 1.40599 0
M  V30 23733 O 4137.35 -6.17651 0.734225 0
M  V30 23734 C 4138.54 -8.05808 1.51899 0
M  V30 23735 O 4138.93 -8.74358 0.335205 0
M  V30 23736 C 4139.42 -6.83093 1.70294 0
M  V30 23737 C 4138.71 -5.79992 0.836974 0
M  V30 23738 N 4138.76 -4.41864 1.38293 0
M  V30 23739 H 4135.92 -8.13644 3.0377 0
M  V30 23740 H 4135.65 -6.42788 2.55485 0
M  V30 23741 H 4136.51 -8.12039 0.792769 0
M  V30 23742 P 4140.48 -8.91 1.70411e-10 0
M  V30 23743 O 4140.7 -10.1736 -0.733766 0
M  V30 23744 O 4141.27 -8.73247 1.2395 0
M  V30 23745 O 4140.73 -7.66872 -0.971405 0
M  V30 23746 C 4139.79 -7.42309 -2.04641 0
M  V30 23747 C 4140.52 -6.86059 -3.24661 0
M  V30 23748 O 4140.73 -5.42847 -3.03646 0
M  V30 23749 C 4141.92 -7.41196 -3.50753 0
M  V30 23750 O 4142.31 -7.27073 -4.86816 0
M  V30 23751 C 4142.8 -6.5273 -2.63741 0
M  V30 23752 C 4142.09 -5.1842 -2.73198 0
M  V30 23753 N 4142.14 -4.38668 -1.47808 0
M  V30 23754 C 4142.29 -3.00789 -1.58511 0
M  V30 23755 O 4142.38 -2.50116 -2.71298 0
M  V30 23756 N 4142.34 -2.29703 -0.253698 0
M  V30 23757 C 4142.24 -2.84269 0.750133 0
M  V30 23758 N 4142.29 -2.06951 1.82612 0
M  V30 23759 C 4142.09 -4.25803 0.889776 0
M  V30 23760 C 4142.04 -4.98326 -0.259363 0
M  V30 23761 H 4139.3 -8.36707 -2.32466 0
M  V30 23762 H 4139.03 -6.701 -1.71105 0
M  V30 23763 H 4139.89 -7.03638 -4.13219 0
M  V30 23764 H 4142.55 -4.59852 -3.53955 0
M  V30 23765 H 4142.83 -6.88995 -1.59871 0
M  V30 23766 H 4143.82 -6.46749 -3.03687 0
M  V30 23767 H 4141.99 -8.46908 -3.20714 0
M  V30 23768 H 4141.91 -6.06349 -0.206238 0
M  V30 23769 H 4142.02 -4.73163 1.86796 0
M  V30 23770 H 4142.4 -1.05099 1.72271 0
M  V30 23771 H 4142.21 -2.48716 2.76361 0
M  V30 23772 P 4143.86 -7.20834 -5.23717 0
M  V30 23773 O 4144.08 -7.79853 -6.57286 0
M  V30 23774 O 4144.65 -7.79239 -4.12957 0
M  V30 23775 O 4144.11 -5.63315 -5.29344 0
M  V30 23776 C 4143.17 -4.80255 -6.01876 0
M  V30 23777 C 4143.9 -3.64202 -6.65911 0
M  V30 23778 O 4144.11 -2.60694 -5.64732 0
M  V30 23779 C 4145.3 -3.93473 -7.1943 0
M  V30 23780 O 4145.69 -3.02071 -8.21205 0
M  V30 23781 C 4146.18 -3.73047 -5.97036 0
M  V30 23782 C 4145.47 -2.58828 -5.25741 0
M  V30 23783 N 4145.52 -2.68068 -3.77503 0
M  V30 23784 H 4142.68 -5.40332 -6.79951 0
M  V30 23785 H 4142.41 -4.41613 -5.32378 0
M  V30 23786 H 4143.27 -3.26331 -7.47797 0
M  V30 23787 P 4147.24 -2.75334 -8.47391 0
M  V30 23788 O 4147.46 -2.44571 -9.90142 0
M  V30 23789 O 4148.03 -3.87688 -7.92115 0
M  V30 23790 O 4147.49 -1.4459 -7.59357 0
M  V30 23791 C 4146.55 -0.347608 -7.69215 0
M  V30 23792 C 4147.28 0.96767 -7.52806 0
M  V30 23793 O 4147.49 1.21036 -6.1011 0
M  V30 23794 C 4148.68 1.04544 -8.13308 0
M  V30 23795 O 4149.07 2.38311 -8.41922 0
M  V30 23796 C 4149.56 0.491279 -7.02284 0
M  V30 23797 C 4148.85 0.996264 -5.77469 0
M  V30 23798 N 4148.9 0.0501916 -4.62973 0
M  V30 23799 C 4148.82 -1.32786 -4.63244 0
M  V30 23800 N 4148.9 -1.86957 -3.44545 0
M  V30 23801 C 4149.04 -0.780241 -2.58481 0
M  V30 23802 C 4149.17 -0.738536 -1.17757 0
M  V30 23803 O 4149.19 -1.66794 -0.372349 0
M  V30 23804 N 4149.29 0.58337 -0.711393 0
M  V30 23805 C 4149.29 1.70816 -1.51017 0
M  V30 23806 N 4149.42 2.87826 -0.880757 0
M  V30 23807 N 4149.16 1.67126 -2.8339 0
M  V30 23808 C 4149.04 0.401421 -3.30572 0
M  V30 23809 H 4146.06 -0.374722 -8.67691 0
M  V30 23810 H 4145.79 -0.443485 -6.90277 0
M  V30 23811 H 4146.65 1.75537 -7.96793 0
M  V30 23812 H 4149.31 1.95076 -5.46529 0
M  V30 23813 H 4149.59 -0.608565 -7.04577 0
M  V30 23814 H 4150.58 0.889672 -7.08939 0
M  V30 23815 H 4148.75 0.43308 -9.04564 0
M  V30 23816 H 4148.7 -1.91249 -5.54442 0
M  V30 23817 H 4149.38 0.718054 0.275244 0
M  V30 23818 H 4149.42 3.75721 -1.41832 0
M  V30 23819 H 4149.52 2.90436 0.145468 0
M  V30 23820 P 4150.62 2.75334 -8.47391 0
M  V30 23821 O 4150.84 3.84128 -9.44797 0
M  V30 23822 O 4151.41 1.51947 -8.68712 0
M  V30 23823 O 4150.87 3.29363 -6.99321 0
M  V30 23824 C 4149.93 4.24011 -6.4274 0
M  V30 23825 C 4150.66 5.20775 -5.52155 0
M  V30 23826 O 4150.87 4.56534 -4.22446 0
M  V30 23827 C 4152.06 5.62629 -5.96531 0
M  V30 23828 O 4152.45 6.87667 -5.41053 0
M  V30 23829 C 4152.94 4.52537 -5.39283 0
M  V30 23830 C 4152.23 4.20027 -4.08623 0
M  V30 23831 N 4152.28 2.76189 -3.71603 0
M  V30 23832 H 4149.44 4.797 -7.24003 0
M  V30 23833 H 4149.17 3.69856 -5.84513 0
M  V30 23834 H 4150.03 6.10356 -5.41441 0
M  V30 23835 P 4154 7.20834 -5.23717 0
M  V30 23836 O 4154.22 8.66104 -5.38572 0
M  V30 23837 O 4154.79 6.33544 -6.1349 0
M  V30 23838 O 4154.25 6.7751 -3.72168 0
M  V30 23839 C 4153.31 7.20825 -2.7076 0
M  V30 23840 C 4154.04 7.45864 -1.40599 0
M  V30 23841 O 4154.25 6.17651 -0.734225 0
M  V30 23842 C 4155.44 8.05808 -1.51899 0
M  V30 23843 O 4155.83 8.74358 -0.335205 0
M  V30 23844 C 4156.32 6.83093 -1.70294 0
M  V30 23845 C 4155.61 5.79992 -0.836974 0
M  V30 23846 N 4155.66 4.41864 -1.38293 0
M  V30 23847 H 4152.82 8.13644 -3.0377 0
M  V30 23848 H 4152.55 6.42788 -2.55485 0
M  V30 23849 H 4153.41 8.12039 -0.792769 0
M  V30 23850 P 4157.38 8.91 -1.7152e-10 0
M  V30 23851 O 4157.6 10.1726 0.733694 0
M  V30 23852 O 4158.17 8.73148 -1.23936 0
M  V30 23853 O 4157.63 7.66872 0.971405 0
M  V30 23854 C 4156.69 7.42309 2.04641 0
M  V30 23855 C 4157.42 6.86059 3.24661 0
M  V30 23856 O 4157.63 5.42847 3.03646 0
M  V30 23857 C 4158.82 7.41196 3.50753 0
M  V30 23858 O 4159.21 7.27073 4.86816 0
M  V30 23859 C 4159.7 6.5273 2.63741 0
M  V30 23860 C 4158.99 5.1842 2.73198 0
M  V30 23861 N 4159.04 4.38762 1.4784 0
M  V30 23862 C 4158.96 4.81605 0.168631 0
M  V30 23863 N 4159.04 3.85454 -0.713363 0
M  V30 23864 C 4159.18 2.6994 0.0566958 0
M  V30 23865 C 4159.31 1.34815 -0.338502 0
M  V30 23866 O 4159.33 0.869548 -1.47125 0
M  V30 23867 N 4159.43 0.496304 0.77465 0
M  V30 23868 C 4159.43 0.908403 2.09122 0
M  V30 23869 N 4159.56 -0.0517805 3.00955 0
M  V30 23870 N 4159.3 2.17875 2.46519 0
M  V30 23871 C 4159.18 3.01988 1.4033 0
M  V30 23872 H 4156.2 8.36803 2.32493 0
M  V30 23873 H 4155.93 6.70197 1.71129 0
M  V30 23874 H 4156.79 7.03551 4.13168 0
M  V30 23875 H 4159.45 4.59498 3.54415 0
M  V30 23876 H 4159.73 6.88898 1.59848 0
M  V30 23877 H 4160.72 6.46749 3.03687 0
M  V30 23878 H 4158.89 8.46908 3.20714 0
M  V30 23879 H 4158.84 5.86405 -0.105564 0
M  V30 23880 H 4159.52 -0.483664 0.597855 0
M  V30 23881 H 4159.56 0.187865 4.0116 0
M  V30 23882 H 4159.66 -1.03585 2.71726 0
M  V30 23883 P 4160.76 7.20834 5.23717 0
M  V30 23884 O 4160.98 7.80006 6.57415 0
M  V30 23885 O 4161.55 7.79416 4.13051 0
M  V30 23886 O 4161.01 5.63315 5.29344 0
M  V30 23887 C 4160.07 4.80318 6.01954 0
M  V30 23888 C 4160.8 3.64202 6.65911 0
M  V30 23889 O 4161.01 2.60736 5.64823 0
M  V30 23890 C 4162.2 3.93521 7.19518 0
M  V30 23891 O 4162.59 3.02071 8.21205 0
M  V30 23892 C 4163.08 3.73047 5.97036 0
M  V30 23893 C 4162.37 2.58828 5.25741 0
M  V30 23894 N 4162.42 2.68068 3.77503 0
M  V30 23895 H 4159.58 5.40394 6.8003 0
M  V30 23896 H 4159.31 4.41741 5.32532 0
M  V30 23897 H 4160.17 3.26371 7.47889 0
M  V30 23898 H 4162.83 1.64007 5.56746 0
M  V30 23899 H 4163.11 4.63439 5.3432 0
M  V30 23900 H 4164.1 3.44776 6.25925 0
M  V30 23901 H 4162.27 4.96707 7.57347 0
M  V30 23902 P 4164.14 2.75334 8.47391 0
M  V30 23903 O 4164.36 2.44571 9.90142 0
M  V30 23904 O 4164.93 3.87688 7.92115 0
M  V30 23905 O 4164.39 1.4459 7.59357 0
M  V30 23906 C 4163.45 0.347608 7.69215 0
M  V30 23907 C 4164.18 -0.96767 7.52806 0
M  V30 23908 O 4164.39 -1.21036 6.1011 0
M  V30 23909 C 4165.58 -1.04544 8.13308 0
M  V30 23910 O 4165.97 -2.38311 8.41922 0
M  V30 23911 C 4166.46 -0.491279 7.02284 0
M  V30 23912 C 4165.75 -0.996264 5.77469 0
M  V30 23913 N 4165.8 -0.0501916 4.62973 0
M  V30 23914 H 4162.96 0.374722 8.67691 0
M  V30 23915 H 4162.69 0.443485 6.90277 0
M  V30 23916 H 4163.55 -1.75537 7.96793 0
M  V30 23917 P 4167.52 -2.75334 8.47391 0
M  V30 23918 O 4167.74 -3.84128 9.44797 0
M  V30 23919 O 4168.31 -1.51947 8.68712 0
M  V30 23920 O 4167.77 -3.29363 6.99321 0
M  V30 23921 C 4166.83 -4.24011 6.4274 0
M  V30 23922 C 4167.56 -5.20775 5.52155 0
M  V30 23923 O 4167.77 -4.56534 4.22446 0
M  V30 23924 C 4168.96 -5.62629 5.96531 0
M  V30 23925 O 4169.35 -6.87667 5.41053 0
M  V30 23926 C 4169.84 -4.52537 5.39283 0
M  V30 23927 C 4169.13 -4.20027 4.08623 0
M  V30 23928 N 4169.18 -2.76189 3.71603 0
M  V30 23929 C 4169.1 -1.64862 4.52822 0
M  V30 23930 N 4169.18 -0.512671 3.88633 0
M  V30 23931 C 4169.32 -0.888083 2.54977 0
M  V30 23932 C 4169.45 -0.094668 1.38677 0
M  V30 23933 N 4169.57 -0.890102 0.232633 0
M  V30 23934 C 4169.57 -2.26958 0.21772 0
M  V30 23935 N 4169.7 -2.84626 -0.97925 0
M  V30 23936 N 4169.44 -3.0178 1.31033 0
M  V30 23937 C 4169.32 -2.26781 2.43843 0
M  V30 23938 H 4166.34 -4.797 7.24003 0
M  V30 23939 H 4166.07 -3.69856 5.84513 0
M  V30 23940 H 4166.93 -6.10356 5.41441 0
M  V30 23941 P 4170.9 -7.20834 5.23717 0
M  V30 23942 O 4171.12 -8.66104 5.38572 0
M  V30 23943 O 4171.69 -6.33544 6.1349 0
M  V30 23944 O 4171.15 -6.7751 3.72168 0
M  V30 23945 C 4170.21 -7.20825 2.7076 0
M  V30 23946 C 4170.94 -7.45864 1.40599 0
M  V30 23947 O 4171.15 -6.17651 0.734225 0
M  V30 23948 C 4172.34 -8.05808 1.51899 0
M  V30 23949 O 4172.73 -8.74358 0.335205 0
M  V30 23950 C 4173.22 -6.83093 1.70294 0
M  V30 23951 C 4172.51 -5.79992 0.836974 0
M  V30 23952 N 4172.56 -4.41864 1.38293 0
M  V30 23953 H 4169.72 -8.13644 3.0377 0
M  V30 23954 H 4169.45 -6.42788 2.55485 0
M  V30 23955 H 4170.31 -8.12039 0.792769 0
M  V30 23956 P 4174.28 -8.91 1.72629e-10 0
M  V30 23957 O 4174.5 -10.1726 -0.733694 0
M  V30 23958 O 4175.07 -8.73148 1.23936 0
M  V30 23959 O 4174.53 -7.66872 -0.971405 0
M  V30 23960 C 4173.59 -7.42309 -2.04641 0
M  V30 23961 C 4174.32 -6.86059 -3.24661 0
M  V30 23962 O 4174.53 -5.42847 -3.03646 0
M  V30 23963 C 4175.72 -7.41196 -3.50753 0
M  V30 23964 O 4176.11 -7.27073 -4.86816 0
M  V30 23965 C 4176.6 -6.5273 -2.63741 0
M  V30 23966 C 4175.89 -5.1842 -2.73198 0
M  V30 23967 N 4175.94 -4.38762 -1.4784 0
M  V30 23968 H 4173.1 -8.36803 -2.32493 0
M  V30 23969 H 4172.83 -6.70197 -1.71129 0
M  V30 23970 H 4173.69 -7.03551 -4.13168 0
M  V30 23971 P 4177.66 -7.20834 -5.23717 0
M  V30 23972 O 4177.88 -7.79853 -6.57286 0
M  V30 23973 O 4178.45 -7.79239 -4.12957 0
M  V30 23974 O 4177.91 -5.63315 -5.29344 0
M  V30 23975 C 4176.97 -4.80255 -6.01876 0
M  V30 23976 C 4177.7 -3.64202 -6.65911 0
M  V30 23977 O 4177.91 -2.60694 -5.64732 0
M  V30 23978 C 4179.1 -3.93473 -7.1943 0
M  V30 23979 O 4179.49 -3.02071 -8.21205 0
M  V30 23980 C 4179.98 -3.73047 -5.97036 0
M  V30 23981 C 4179.27 -2.58828 -5.25741 0
M  V30 23982 N 4179.32 -2.68068 -3.77503 0
M  V30 23983 H 4176.48 -5.40332 -6.79951 0
M  V30 23984 H 4176.21 -4.41613 -5.32378 0
M  V30 23985 H 4177.07 -3.26331 -7.47797 0
M  V30 23986 P 4181.04 -2.75334 -8.47391 0
M  V30 23987 O 4181.26 -2.44571 -9.90142 0
M  V30 23988 O 4181.83 -3.87688 -7.92115 0
M  V30 23989 O 4181.29 -1.4459 -7.59357 0
M  V30 23990 C 4180.35 -0.347608 -7.69215 0
M  V30 23991 C 4181.08 0.96767 -7.52806 0
M  V30 23992 O 4181.29 1.21036 -6.1011 0
M  V30 23993 C 4182.48 1.04544 -8.13308 0
M  V30 23994 O 4182.87 2.38311 -8.41922 0
M  V30 23995 C 4183.36 0.491279 -7.02284 0
M  V30 23996 C 4182.65 0.996264 -5.77469 0
M  V30 23997 N 4182.7 0.0501916 -4.62973 0
M  V30 23998 C 4182.62 -1.32786 -4.63244 0
M  V30 23999 N 4182.7 -1.86957 -3.44545 0
M  V30 24000 C 4182.84 -0.780241 -2.58481 0
M  V30 24001 C 4182.97 -0.738536 -1.17757 0
M  V30 24002 N 4183.09 0.58337 -0.711393 0
M  V30 24003 C 4183.09 1.70816 -1.51017 0
M  V30 24004 N 4183.22 2.87826 -0.880757 0
M  V30 24005 N 4182.96 1.67126 -2.8339 0
M  V30 24006 C 4182.84 0.401421 -3.30572 0
M  V30 24007 H 4179.86 -0.374722 -8.67691 0
M  V30 24008 H 4179.59 -0.443485 -6.90277 0
M  V30 24009 H 4180.45 1.75537 -7.96793 0
M  V30 24010 P 4184.42 2.75334 -8.47391 0
M  V30 24011 O 4184.64 3.84166 -9.4489 0
M  V30 24012 O 4185.21 1.51964 -8.6881 0
M  V30 24013 O 4184.67 3.29363 -6.99321 0
M  V30 24014 C 4183.73 4.23956 -6.42656 0
M  V30 24015 C 4184.46 5.20775 -5.52155 0
M  V30 24016 O 4184.67 4.56534 -4.22446 0
M  V30 24017 C 4185.86 5.62629 -5.96531 0
M  V30 24018 O 4186.25 6.87667 -5.41053 0
M  V30 24019 C 4186.74 4.52537 -5.39283 0
M  V30 24020 C 4186.03 4.20027 -4.08623 0
M  V30 24021 N 4186.08 2.7613 -3.71522 0
M  V30 24022 C 4186.23 2.45612 -2.37989 0
M  V30 24023 O 4186.32 3.30919 -1.51621 0
M  V30 24024 N 4186.27 1.10684 -2.08435 0
M  V30 24025 C 4186.18 0.0690084 -2.9792 0
M  V30 24026 O 4186.23 -1.10553 -2.59426 0
M  V30 24027 C 4186.03 0.481522 -4.35345 0
M  V30 24028 C 4185.92 -0.618778 -5.36443 0
M  V30 24029 C 4185.98 1.78906 -4.67968 0
M  V30 24030 H 4183.24 4.797 -7.24003 0
M  V30 24031 H 4182.97 3.69802 -5.84429 0
M  V30 24032 H 4183.83 6.10356 -5.41441 0
M  V30 24033 H 4186.49 4.78651 -3.27911 0
M  V30 24034 H 4186.77 3.64957 -6.05871 0
M  V30 24035 H 4187.76 4.8868 -5.2125 0
M  V30 24036 H 4185.93 5.66726 -7.06352 0
M  V30 24037 H 4185.85 2.07737 -5.72367 0
M  V30 24038 H 4186.88 -0.754375 -5.86871 0
M  V30 24039 H 4185.15 -0.359721 -6.10641 0
M  V30 24040 H 4185.64 -1.55533 -4.8581 0
M  V30 24041 H 4186.37 0.862651 -1.12037 0
M  V30 24042 P 4187.8 7.20834 -5.23717 0
M  V30 24043 O 4188.02 8.66189 -5.38625 0
M  V30 24044 O 4188.59 6.33615 -6.1356 0
M  V30 24045 O 4188.05 6.7751 -3.72168 0
M  V30 24046 C 4187.11 7.20732 -2.70725 0
M  V30 24047 C 4187.84 7.45864 -1.40599 0
M  V30 24048 O 4188.05 6.17651 -0.734225 0
M  V30 24049 C 4189.24 8.05808 -1.51899 0
M  V30 24050 O 4189.63 8.74358 -0.335205 0
M  V30 24051 C 4190.12 6.83093 -1.70294 0
M  V30 24052 C 4189.41 5.79992 -0.836974 0
M  V30 24053 N 4189.46 4.41769 -1.38263 0
M  V30 24054 C 4189.61 3.38591 -0.481702 0
M  V30 24055 O 4189.7 3.56839 0.718452 0
M  V30 24056 N 4189.65 2.1206 -1.03569 0
M  V30 24057 C 4189.56 1.80696 -2.36966 0
M  V30 24058 C 4189.41 2.94845 -3.23898 0
M  V30 24059 C 4189.36 4.19803 -2.73435 0
M  V30 24060 H 4186.62 8.13644 -3.0377 0
M  V30 24061 H 4186.35 6.42695 -2.55448 0
M  V30 24062 H 4187.21 8.12039 -0.792769 0
M  V30 24063 H 4189.87 5.79978 0.160587 0
M  V30 24064 H 4190.15 6.51379 -2.75643 0
M  V30 24065 H 4191.14 7.01734 -1.34462 0
M  V30 24066 H 4189.31 8.73674 -2.38337 0
M  V30 24067 H 4189.23 5.04492 -3.4095 0
M  V30 24068 P 4191.18 8.91 -1.73738e-10 0
M  V30 24069 O 4191.4 10.1726 0.733694 0
M  V30 24070 O 4191.97 8.73148 -1.23936 0
M  V30 24071 O 4191.43 7.66872 0.971405 0
M  V30 24072 C 4190.49 7.42309 2.04641 0
M  V30 24073 C 4191.22 6.86059 3.24661 0
M  V30 24074 O 4191.43 5.42847 3.03646 0
M  V30 24075 C 4192.62 7.41196 3.50753 0
M  V30 24076 O 4193.01 7.27073 4.86816 0
M  V30 24077 C 4193.5 6.5273 2.63741 0
M  V30 24078 C 4192.79 5.1842 2.73198 0
M  V30 24079 N 4192.84 4.38762 1.4784 0
M  V30 24080 H 4190 8.36803 2.32493 0
M  V30 24081 H 4189.73 6.70197 1.71129 0
M  V30 24082 H 4190.59 7.03551 4.13168 0
M  V30 24083 P 4194.56 7.20834 5.23717 0
M  V30 24084 O 4194.78 7.79853 6.57286 0
M  V30 24085 O 4195.35 7.79239 4.12957 0
M  V30 24086 O 4194.81 5.63315 5.29344 0
M  V30 24087 C 4193.87 4.80255 6.01876 0
M  V30 24088 C 4194.6 3.64202 6.65911 0
M  V30 24089 O 4194.81 2.60694 5.64732 0
M  V30 24090 C 4196 3.93473 7.1943 0
M  V30 24091 O 4196.39 3.02071 8.21205 0
M  V30 24092 C 4196.88 3.73047 5.97036 0
M  V30 24093 C 4196.17 2.58828 5.25741 0
M  V30 24094 N 4196.22 2.68068 3.77503 0
M  V30 24095 H 4193.38 5.40332 6.79951 0
M  V30 24096 H 4193.11 4.41613 5.32378 0
M  V30 24097 H 4193.97 3.26331 7.47797 0
M  V30 24098 P 4197.94 2.75334 8.47391 0
M  V30 24099 O 4198.16 2.44571 9.90142 0
M  V30 24100 O 4198.73 3.87688 7.92115 0
M  V30 24101 O 4198.19 1.4459 7.59357 0
M  V30 24102 C 4197.25 0.347608 7.69215 0
M  V30 24103 C 4197.98 -0.96767 7.52806 0
M  V30 24104 O 4198.19 -1.21036 6.1011 0
M  V30 24105 C 4199.38 -1.04544 8.13308 0
M  V30 24106 O 4199.77 -2.38311 8.41922 0
M  V30 24107 C 4200.26 -0.491279 7.02284 0
M  V30 24108 C 4199.55 -0.996264 5.77469 0
M  V30 24109 N 4199.6 -0.0501916 4.62973 0
M  V30 24110 H 4196.76 0.374722 8.67691 0
M  V30 24111 H 4196.49 0.443485 6.90277 0
M  V30 24112 H 4197.35 -1.75537 7.96793 0
M  V30 24113 P 4201.32 -2.75334 8.47391 0
M  V30 24114 O 4201.54 -3.84128 9.44797 0
M  V30 24115 O 4202.11 -1.51947 8.68712 0
M  V30 24116 O 4201.57 -3.29363 6.99321 0
M  V30 24117 C 4200.63 -4.24011 6.4274 0
M  V30 24118 C 4201.36 -5.20775 5.52155 0
M  V30 24119 O 4201.57 -4.56534 4.22446 0
M  V30 24120 C 4202.76 -5.62629 5.96531 0
M  V30 24121 O 4203.15 -6.87667 5.41053 0
M  V30 24122 C 4203.64 -4.52537 5.39283 0
M  V30 24123 C 4202.93 -4.20027 4.08623 0
M  V30 24124 N 4202.98 -2.76189 3.71603 0
M  V30 24125 H 4200.14 -4.797 7.24003 0
M  V30 24126 H 4199.87 -3.69856 5.84513 0
M  V30 24127 H 4200.73 -6.10356 5.41441 0
M  V30 24128 P 4204.7 -7.20834 5.23717 0
M  V30 24129 O 4204.92 -8.66104 5.38572 0
M  V30 24130 O 4205.49 -6.33544 6.1349 0
M  V30 24131 O 4204.95 -6.7751 3.72168 0
M  V30 24132 C 4204.01 -7.20825 2.7076 0
M  V30 24133 C 4204.74 -7.45864 1.40599 0
M  V30 24134 O 4204.95 -6.17651 0.734225 0
M  V30 24135 C 4206.14 -8.05808 1.51899 0
M  V30 24136 O 4206.53 -8.74358 0.335205 0
M  V30 24137 C 4207.02 -6.83093 1.70294 0
M  V30 24138 C 4206.31 -5.79992 0.836974 0
M  V30 24139 N 4206.36 -4.41864 1.38293 0
M  V30 24140 H 4203.52 -8.13644 3.0377 0
M  V30 24141 H 4203.25 -6.42788 2.55485 0
M  V30 24142 H 4204.11 -8.12039 0.792769 0
M  V30 24143 P 4208.08 -8.91 1.74847e-10 0
M  V30 24144 O 4208.3 -10.1726 -0.733694 0
M  V30 24145 O 4208.87 -8.73148 1.23936 0
M  V30 24146 O 4208.33 -7.66872 -0.971405 0
M  V30 24147 C 4207.39 -7.42309 -2.04641 0
M  V30 24148 C 4208.12 -6.86059 -3.24661 0
M  V30 24149 O 4208.33 -5.42847 -3.03646 0
M  V30 24150 C 4209.52 -7.41196 -3.50753 0
M  V30 24151 O 4209.91 -7.27073 -4.86816 0
M  V30 24152 C 4210.4 -6.5273 -2.63741 0
M  V30 24153 C 4209.69 -5.1842 -2.73198 0
M  V30 24154 N 4209.74 -4.38762 -1.4784 0
M  V30 24155 H 4206.9 -8.36803 -2.32493 0
M  V30 24156 H 4206.63 -6.70197 -1.71129 0
M  V30 24157 H 4207.49 -7.03551 -4.13168 0
M  V30 24158 P 4211.46 -7.20834 -5.23717 0
M  V30 24159 O 4211.68 -7.79853 -6.57286 0
M  V30 24160 O 4212.25 -7.79239 -4.12957 0
M  V30 24161 O 4211.71 -5.63315 -5.29344 0
M  V30 24162 C 4210.77 -4.80255 -6.01876 0
M  V30 24163 C 4211.5 -3.64202 -6.65911 0
M  V30 24164 O 4211.71 -2.60694 -5.64732 0
M  V30 24165 C 4212.9 -3.93473 -7.1943 0
M  V30 24166 O 4213.29 -3.02071 -8.21205 0
M  V30 24167 C 4213.78 -3.73047 -5.97036 0
M  V30 24168 C 4213.07 -2.58828 -5.25741 0
M  V30 24169 N 4213.12 -2.68068 -3.77503 0
M  V30 24170 H 4210.28 -5.40332 -6.79951 0
M  V30 24171 H 4210.01 -4.41613 -5.32378 0
M  V30 24172 H 4210.87 -3.26331 -7.47797 0
M  V30 24173 P 4214.84 -2.75334 -8.47391 0
M  V30 24174 O 4215.06 -2.44571 -9.90142 0
M  V30 24175 O 4215.63 -3.87688 -7.92115 0
M  V30 24176 O 4215.09 -1.4459 -7.59357 0
M  V30 24177 C 4214.15 -0.347608 -7.69215 0
M  V30 24178 C 4214.88 0.96767 -7.52806 0
M  V30 24179 O 4215.09 1.21036 -6.1011 0
M  V30 24180 C 4216.28 1.04544 -8.13308 0
M  V30 24181 O 4216.67 2.38311 -8.41922 0
M  V30 24182 C 4217.16 0.491279 -7.02284 0
M  V30 24183 C 4216.45 0.996264 -5.77469 0
M  V30 24184 N 4216.5 0.0501916 -4.62973 0
M  V30 24185 H 4213.66 -0.374722 -8.67691 0
M  V30 24186 H 4213.39 -0.443485 -6.90277 0
M  V30 24187 H 4214.25 1.75537 -7.96793 0
M  V30 24188 P 4218.22 2.75334 -8.47391 0
M  V30 24189 O 4218.44 3.84128 -9.44797 0
M  V30 24190 O 4219.01 1.51947 -8.68712 0
M  V30 24191 O 4218.47 3.29363 -6.99321 0
M  V30 24192 C 4217.53 4.24011 -6.4274 0
M  V30 24193 C 4218.26 5.20775 -5.52155 0
M  V30 24194 O 4218.47 4.56534 -4.22446 0
M  V30 24195 C 4219.66 5.62629 -5.96531 0
M  V30 24196 O 4220.05 6.87667 -5.41053 0
M  V30 24197 C 4220.54 4.52537 -5.39283 0
M  V30 24198 C 4219.83 4.20027 -4.08623 0
M  V30 24199 N 4219.88 2.76189 -3.71603 0
M  V30 24200 H 4217.04 4.797 -7.24003 0
M  V30 24201 H 4216.77 3.69856 -5.84513 0
M  V30 24202 H 4217.63 6.10356 -5.41441 0
M  V30 24203 P 4221.6 7.20834 -5.23717 0
M  V30 24204 O 4221.82 8.66104 -5.38572 0
M  V30 24205 O 4222.39 6.33544 -6.1349 0
M  V30 24206 O 4221.85 6.7751 -3.72168 0
M  V30 24207 C 4220.91 7.20825 -2.7076 0
M  V30 24208 C 4221.64 7.45864 -1.40599 0
M  V30 24209 O 4221.85 6.17651 -0.734225 0
M  V30 24210 C 4223.04 8.05808 -1.51899 0
M  V30 24211 O 4223.43 8.74358 -0.335205 0
M  V30 24212 C 4223.92 6.83093 -1.70294 0
M  V30 24213 C 4223.21 5.79992 -0.836974 0
M  V30 24214 N 4223.26 4.41864 -1.38293 0
M  V30 24215 H 4220.42 8.13644 -3.0377 0
M  V30 24216 H 4220.15 6.42788 -2.55485 0
M  V30 24217 H 4221.01 8.12039 -0.792769 0
M  V30 24218 P 4224.98 8.91 -1.75956e-10 0
M  V30 24219 O 4225.2 10.1726 0.733694 0
M  V30 24220 O 4225.77 8.73148 -1.23936 0
M  V30 24221 O 4225.23 7.66872 0.971405 0
M  V30 24222 C 4224.29 7.42309 2.04641 0
M  V30 24223 C 4225.02 6.86059 3.24661 0
M  V30 24224 O 4225.23 5.42847 3.03646 0
M  V30 24225 C 4226.42 7.41196 3.50753 0
M  V30 24226 O 4226.81 7.27073 4.86816 0
M  V30 24227 C 4227.3 6.5273 2.63741 0
M  V30 24228 C 4226.59 5.1842 2.73198 0
M  V30 24229 N 4226.64 4.38762 1.4784 0
M  V30 24230 H 4223.8 8.36803 2.32493 0
M  V30 24231 H 4223.53 6.70197 1.71129 0
M  V30 24232 H 4224.39 7.03551 4.13168 0
M  V30 24233 P 4228.35 7.20834 5.23717 0
M  V30 24234 O 4228.57 7.79853 6.57286 0
M  V30 24235 O 4229.14 7.79239 4.12957 0
M  V30 24236 O 4228.6 5.63315 5.29344 0
M  V30 24237 C 4227.66 4.80255 6.01876 0
M  V30 24238 C 4228.39 3.64202 6.65911 0
M  V30 24239 O 4228.6 2.60694 5.64732 0
M  V30 24240 C 4229.79 3.93473 7.1943 0
M  V30 24241 O 4230.18 3.02071 8.21205 0
M  V30 24242 C 4230.67 3.73047 5.97036 0
M  V30 24243 C 4229.96 2.58828 5.25741 0
M  V30 24244 N 4230.01 2.68068 3.77503 0
M  V30 24245 H 4227.18 5.40332 6.79951 0
M  V30 24246 H 4226.91 4.41613 5.32378 0
M  V30 24247 H 4227.77 3.26331 7.47797 0
M  V30 24248 P 4231.73 2.75334 8.47391 0
M  V30 24249 O 4231.95 2.44571 9.90142 0
M  V30 24250 O 4232.52 3.87688 7.92115 0
M  V30 24251 O 4231.98 1.4459 7.59357 0
M  V30 24252 C 4231.04 0.347608 7.69215 0
M  V30 24253 C 4231.77 -0.96767 7.52806 0
M  V30 24254 O 4231.98 -1.21036 6.1011 0
M  V30 24255 C 4233.17 -1.04544 8.13308 0
M  V30 24256 O 4233.56 -2.38311 8.41922 0
M  V30 24257 C 4234.05 -0.491279 7.02284 0
M  V30 24258 C 4233.34 -0.996264 5.77469 0
M  V30 24259 N 4233.39 -0.0501916 4.62973 0
M  V30 24260 H 4230.56 0.374722 8.67691 0
M  V30 24261 H 4230.29 0.443485 6.90277 0
M  V30 24262 H 4231.15 -1.75537 7.96793 0
M  V30 24263 P 4235.11 -2.75334 8.47391 0
M  V30 24264 O 4235.33 -3.84166 9.4489 0
M  V30 24265 O 4235.9 -1.51964 8.6881 0
M  V30 24266 O 4235.36 -3.29363 6.99321 0
M  V30 24267 C 4234.42 -4.23956 6.42656 0
M  V30 24268 C 4235.15 -5.20775 5.52155 0
M  V30 24269 O 4235.36 -4.56534 4.22446 0
M  V30 24270 C 4236.55 -5.62629 5.96531 0
M  V30 24271 O 4236.94 -6.87667 5.41053 0
M  V30 24272 C 4237.43 -4.52537 5.39283 0
M  V30 24273 C 4236.72 -4.20027 4.08623 0
M  V30 24274 N 4236.77 -2.7613 3.71522 0
M  V30 24275 C 4236.92 -2.45612 2.37989 0
M  V30 24276 O 4237.01 -3.30919 1.51621 0
M  V30 24277 N 4236.96 -1.10684 2.08435 0
M  V30 24278 C 4236.87 -0.0690084 2.9792 0
M  V30 24279 C 4236.72 -0.481522 4.35345 0
M  V30 24280 C 4236.67 -1.78906 4.67968 0
M  V30 24281 H 4233.93 -4.797 7.24003 0
M  V30 24282 H 4233.67 -3.69802 5.84429 0
M  V30 24283 H 4234.53 -6.10356 5.41441 0
M  V30 24284 H 4237.19 -4.78651 3.27911 0
M  V30 24285 H 4237.47 -3.64957 6.05871 0
M  V30 24286 H 4238.46 -4.8868 5.2125 0
M  V30 24287 H 4236.62 -5.66726 7.06352 0
M  V30 24288 H 4236.55 -2.07737 5.72367 0
M  V30 24289 P 4238.49 -7.20834 5.23717 0
M  V30 24290 O 4238.71 -8.66189 5.38625 0
M  V30 24291 O 4239.28 -6.33615 6.1356 0
M  V30 24292 O 4238.74 -6.7751 3.72168 0
M  V30 24293 C 4237.8 -7.20825 2.7076 0
M  V30 24294 C 4238.53 -7.45864 1.40599 0
M  V30 24295 O 4238.74 -6.17651 0.734225 0
M  V30 24296 C 4239.93 -8.05808 1.51899 0
M  V30 24297 O 4240.32 -8.74358 0.335205 0
M  V30 24298 C 4240.81 -6.83093 1.70294 0
M  V30 24299 C 4240.1 -5.79992 0.836974 0
M  V30 24300 N 4240.15 -4.41769 1.38263 0
M  V30 24301 C 4240.3 -3.36514 0.485617 0
M  V30 24302 O 4240.39 -3.61814 -0.724703 0
M  V30 24303 N 4240.35 -2.00746 1.14492 0
M  V30 24304 C 4240.25 -1.85887 2.27776 0
M  V30 24305 N 4240.3 -0.600907 2.69379 0
M  V30 24306 C 4240.1 -2.92182 3.22265 0
M  V30 24307 C 4240.05 -4.18399 2.71925 0
M  V30 24308 H 4237.31 -8.1355 3.03735 0
M  V30 24309 H 4237.05 -6.42695 2.55448 0
M  V30 24310 H 4237.91 -8.12139 0.792866 0
M  V30 24311 H 4240.57 -5.80078 -0.160615 0
M  V30 24312 H 4240.85 -6.51379 2.75643 0
M  V30 24313 H 4241.84 -7.01734 1.34462 0
M  V30 24314 H 4240 -8.73674 2.38337 0
M  V30 24315 H 4239.93 -5.02669 3.39718 0
M  V30 24316 H 4240.03 -2.73001 4.29239 0
M  V30 24317 H 4240.42 0.162318 2.01146 0
M  V30 24318 H 4240.23 -0.387742 3.69773 0
M  V30 24319 P 4241.87 -8.91 1.77065e-10 0
M  V30 24320 O 4242.09 -10.1726 -0.733694 0
M  V30 24321 O 4242.66 -8.73148 1.23936 0
M  V30 24322 O 4242.12 -7.66872 -0.971405 0
M  V30 24323 C 4241.18 -7.42309 -2.04641 0
M  V30 24324 C 4241.91 -6.86059 -3.24661 0
M  V30 24325 O 4242.12 -5.42847 -3.03646 0
M  V30 24326 C 4243.31 -7.41196 -3.50753 0
M  V30 24327 O 4243.7 -7.27073 -4.86816 0
M  V30 24328 C 4244.19 -6.5273 -2.63741 0
M  V30 24329 C 4243.48 -5.1842 -2.73198 0
M  V30 24330 N 4243.53 -4.38762 -1.4784 0
M  V30 24331 H 4240.7 -8.36803 -2.32493 0
M  V30 24332 H 4240.43 -6.70197 -1.71129 0
M  V30 24333 H 4241.29 -7.03551 -4.13168 0
M  V30 24334 P 4245.25 -7.20834 -5.23717 0
M  V30 24335 O 4245.47 -7.7993 -6.57351 0
M  V30 24336 O 4246.04 -7.79328 -4.13004 0
M  V30 24337 O 4245.5 -5.63315 -5.29344 0
M  V30 24338 C 4244.56 -4.80193 -6.01798 0
M  V30 24339 C 4245.29 -3.64202 -6.65911 0
M  V30 24340 O 4245.5 -2.60694 -5.64732 0
M  V30 24341 C 4246.69 -3.93473 -7.1943 0
M  V30 24342 O 4247.08 -3.02071 -8.21205 0
M  V30 24343 C 4247.57 -3.73047 -5.97036 0
M  V30 24344 C 4246.86 -2.58828 -5.25741 0
M  V30 24345 N 4246.91 -2.6801 -3.77422 0
M  V30 24346 C 4247.06 -1.50443 -3.07133 0
M  V30 24347 O 4247.15 -0.419406 -3.61576 0
M  V30 24348 N 4247.1 -1.6403 -1.69677 0
M  V30 24349 C 4247.01 -2.81206 -0.986255 0
M  V30 24350 C 4246.86 -3.99158 -1.80325 0
M  V30 24351 C 4246.81 -3.89779 -3.1476 0
M  V30 24352 H 4244.07 -5.40332 -6.79951 0
M  V30 24353 H 4243.81 -4.41549 -5.32301 0
M  V30 24354 H 4244.67 -3.26331 -7.47797 0
M  V30 24355 H 4247.33 -1.6395 -5.56554 0
M  V30 24356 H 4247.61 -4.63439 -5.3432 0
M  V30 24357 H 4248.6 -3.44728 -6.25838 0
M  V30 24358 H 4246.76 -4.96652 -7.57263 0
M  V30 24359 H 4246.69 -4.80159 -3.74441 0
M  V30 24360 P 4248.63 -2.75334 -8.47391 0
M  V30 24361 O 4248.85 -2.44595 -9.90239 0
M  V30 24362 O 4249.42 -3.87732 -7.92204 0
M  V30 24363 O 4248.88 -1.4459 -7.59357 0
M  V30 24364 C 4247.94 -0.347563 -7.69115 0
M  V30 24365 C 4248.67 0.96767 -7.52806 0
M  V30 24366 O 4248.88 1.21036 -6.1011 0
M  V30 24367 C 4250.07 1.04544 -8.13308 0
M  V30 24368 O 4250.46 2.38311 -8.41922 0
M  V30 24369 C 4250.95 0.491279 -7.02284 0
M  V30 24370 C 4250.24 0.996264 -5.77469 0
M  V30 24371 N 4250.29 0.0501808 -4.62873 0
M  V30 24372 C 4250.44 0.588177 -3.36904 0
M  V30 24373 O 4250.53 1.78598 -3.17173 0
M  V30 24374 N 4250.48 -0.329694 -2.33686 0
M  V30 24375 C 4250.39 -1.6953 -2.45079 0
M  V30 24376 C 4250.24 -2.16933 -3.80505 0
M  V30 24377 C 4250.19 -1.30326 -4.83752 0
M  V30 24378 H 4247.45 -0.374722 -8.67691 0
M  V30 24379 H 4247.19 -0.443421 -6.90177 0
M  V30 24380 H 4248.05 1.75537 -7.96793 0
M  V30 24381 H 4250.71 1.94496 -5.46629 0
M  V30 24382 H 4250.99 -0.608651 -7.04676 0
M  V30 24383 H 4251.98 0.889672 -7.08939 0
M  V30 24384 H 4250.14 0.43308 -9.04564 0
M  V30 24385 H 4250.07 -1.68366 -5.8516 0
M  V30 24386 P 4252.01 2.75334 -8.47391 0
M  V30 24387 O 4252.23 3.84128 -9.44797 0
M  V30 24388 O 4252.8 1.51947 -8.68712 0
M  V30 24389 O 4252.26 3.29363 -6.99321 0
M  V30 24390 C 4251.32 4.24011 -6.4274 0
M  V30 24391 C 4252.05 5.20775 -5.52155 0
M  V30 24392 O 4252.26 4.56534 -4.22446 0
M  V30 24393 C 4253.45 5.62629 -5.96531 0
M  V30 24394 O 4253.84 6.87667 -5.41053 0
M  V30 24395 C 4254.33 4.52537 -5.39283 0
M  V30 24396 C 4253.62 4.20027 -4.08623 0
M  V30 24397 N 4253.67 2.76189 -3.71603 0
M  V30 24398 C 4253.59 1.64862 -4.52822 0
M  V30 24399 N 4253.67 0.512671 -3.88633 0
M  V30 24400 C 4253.81 0.888083 -2.54977 0
M  V30 24401 C 4253.94 0.094668 -1.38677 0
M  V30 24402 N 4254.06 0.890102 -0.232633 0
M  V30 24403 C 4254.06 2.26958 -0.21772 0
M  V30 24404 N 4254.19 2.84626 0.97925 0
M  V30 24405 N 4253.93 3.0178 -1.31033 0
M  V30 24406 C 4253.81 2.26781 -2.43843 0
M  V30 24407 H 4250.84 4.797 -7.24003 0
M  V30 24408 H 4250.57 3.69856 -5.84513 0
M  V30 24409 H 4251.43 6.10356 -5.41441 0
M  V30 24410 P 4255.39 7.20834 -5.23717 0
M  V30 24411 O 4255.61 8.66104 -5.38572 0
M  V30 24412 O 4256.18 6.33544 -6.1349 0
M  V30 24413 O 4255.64 6.7751 -3.72168 0
M  V30 24414 C 4254.7 7.20825 -2.7076 0
M  V30 24415 C 4255.43 7.45864 -1.40599 0
M  V30 24416 O 4255.64 6.17651 -0.734225 0
M  V30 24417 C 4256.83 8.05808 -1.51899 0
M  V30 24418 O 4257.22 8.74358 -0.335205 0
M  V30 24419 C 4257.71 6.83093 -1.70294 0
M  V30 24420 C 4257 5.79992 -0.836974 0
M  V30 24421 N 4257.05 4.41864 -1.38293 0
M  V30 24422 H 4254.22 8.13644 -3.0377 0
M  V30 24423 H 4253.95 6.42788 -2.55485 0
M  V30 24424 H 4254.81 8.12039 -0.792769 0
M  V30 24425 P 4258.77 8.91 -1.78174e-10 0
M  V30 24426 O 4258.99 10.1726 0.733694 0
M  V30 24427 O 4259.56 8.73148 -1.23936 0
M  V30 24428 O 4259.02 7.66872 0.971405 0
M  V30 24429 C 4258.08 7.42309 2.04641 0
M  V30 24430 C 4258.81 6.86059 3.24661 0
M  V30 24431 O 4259.02 5.42847 3.03646 0
M  V30 24432 C 4260.21 7.41196 3.50753 0
M  V30 24433 O 4260.6 7.27073 4.86816 0
M  V30 24434 C 4261.09 6.5273 2.63741 0
M  V30 24435 C 4260.38 5.1842 2.73198 0
M  V30 24436 N 4260.43 4.38762 1.4784 0
M  V30 24437 C 4260.35 4.81605 0.168631 0
M  V30 24438 N 4260.43 3.85454 -0.713363 0
M  V30 24439 C 4260.57 2.6994 0.0566958 0
M  V30 24440 C 4260.7 1.34815 -0.338502 0
M  V30 24441 N 4260.82 0.496304 0.77465 0
M  V30 24442 C 4260.82 0.908403 2.09122 0
M  V30 24443 N 4260.95 -0.0517805 3.00955 0
M  V30 24444 N 4260.69 2.17875 2.46519 0
M  V30 24445 C 4260.57 3.01988 1.4033 0
M  V30 24446 H 4257.6 8.36803 2.32493 0
M  V30 24447 H 4257.33 6.70197 1.71129 0
M  V30 24448 H 4258.19 7.03551 4.13168 0
M  V30 24449 P 4262.15 7.20834 5.23717 0
M  V30 24450 O 4262.37 7.79853 6.57286 0
M  V30 24451 O 4262.94 7.79239 4.12957 0
M  V30 24452 O 4262.4 5.63315 5.29344 0
M  V30 24453 C 4261.46 4.80255 6.01876 0
M  V30 24454 C 4262.19 3.64202 6.65911 0
M  V30 24455 O 4262.4 2.60694 5.64732 0
M  V30 24456 C 4263.59 3.93473 7.1943 0
M  V30 24457 O 4263.98 3.02071 8.21205 0
M  V30 24458 C 4264.47 3.73047 5.97036 0
M  V30 24459 C 4263.76 2.58828 5.25741 0
M  V30 24460 N 4263.81 2.68068 3.77503 0
M  V30 24461 H 4260.98 5.40332 6.79951 0
M  V30 24462 H 4260.71 4.41613 5.32378 0
M  V30 24463 H 4261.57 3.26331 7.47797 0
M  V30 24464 P 4265.53 2.75334 8.47391 0
M  V30 24465 O 4265.75 2.44571 9.90142 0
M  V30 24466 O 4266.32 3.87688 7.92115 0
M  V30 24467 O 4265.78 1.4459 7.59357 0
M  V30 24468 C 4264.84 0.347608 7.69215 0
M  V30 24469 C 4265.57 -0.96767 7.52806 0
M  V30 24470 O 4265.78 -1.21036 6.1011 0
M  V30 24471 C 4266.97 -1.04544 8.13308 0
M  V30 24472 O 4267.36 -2.38311 8.41922 0
M  V30 24473 C 4267.85 -0.491279 7.02284 0
M  V30 24474 C 4267.14 -0.996264 5.77469 0
M  V30 24475 N 4267.19 -0.0501916 4.62973 0
M  V30 24476 H 4264.36 0.374722 8.67691 0
M  V30 24477 H 4264.09 0.443485 6.90277 0
M  V30 24478 H 4264.95 -1.75537 7.96793 0
M  V30 24479 P 4268.91 -2.75334 8.47391 0
M  V30 24480 O 4269.13 -3.84128 9.44797 0
M  V30 24481 O 4269.7 -1.51947 8.68712 0
M  V30 24482 O 4269.16 -3.29363 6.99321 0
M  V30 24483 C 4268.22 -4.24011 6.4274 0
M  V30 24484 C 4268.95 -5.20775 5.52155 0
M  V30 24485 O 4269.16 -4.56534 4.22446 0
M  V30 24486 C 4270.35 -5.62629 5.96531 0
M  V30 24487 O 4270.74 -6.87667 5.41053 0
M  V30 24488 C 4271.23 -4.52537 5.39283 0
M  V30 24489 C 4270.52 -4.20027 4.08623 0
M  V30 24490 N 4270.57 -2.76189 3.71603 0
M  V30 24491 H 4267.74 -4.797 7.24003 0
M  V30 24492 H 4267.47 -3.69856 5.84513 0
M  V30 24493 H 4268.33 -6.10356 5.41441 0
M  V30 24494 P 4272.29 -7.20834 5.23717 0
M  V30 24495 O 4272.51 -8.66104 5.38572 0
M  V30 24496 O 4273.08 -6.33544 6.1349 0
M  V30 24497 O 4272.54 -6.7751 3.72168 0
M  V30 24498 C 4271.6 -7.20825 2.7076 0
M  V30 24499 C 4272.33 -7.45864 1.40599 0
M  V30 24500 O 4272.54 -6.17651 0.734225 0
M  V30 24501 C 4273.73 -8.05808 1.51899 0
M  V30 24502 O 4274.12 -8.74358 0.335205 0
M  V30 24503 C 4274.61 -6.83093 1.70294 0
M  V30 24504 C 4273.9 -5.79992 0.836974 0
M  V30 24505 N 4273.95 -4.41864 1.38293 0
M  V30 24506 H 4271.12 -8.13644 3.0377 0
M  V30 24507 H 4270.85 -6.42788 2.55485 0
M  V30 24508 H 4271.71 -8.12039 0.792769 0
M  V30 24509 P 4275.67 -8.91 1.79283e-10 0
M  V30 24510 O 4275.89 -10.1726 -0.733694 0
M  V30 24511 O 4276.46 -8.73148 1.23936 0
M  V30 24512 O 4275.92 -7.66872 -0.971405 0
M  V30 24513 C 4274.98 -7.42309 -2.04641 0
M  V30 24514 C 4275.71 -6.86059 -3.24661 0
M  V30 24515 O 4275.92 -5.42847 -3.03646 0
M  V30 24516 C 4277.11 -7.41196 -3.50753 0
M  V30 24517 O 4277.5 -7.27073 -4.86816 0
M  V30 24518 C 4277.99 -6.5273 -2.63741 0
M  V30 24519 C 4277.28 -5.1842 -2.73198 0
M  V30 24520 N 4277.33 -4.38762 -1.4784 0
M  V30 24521 H 4274.5 -8.36803 -2.32493 0
M  V30 24522 H 4274.23 -6.70197 -1.71129 0
M  V30 24523 H 4275.09 -7.03551 -4.13168 0
M  V30 24524 P 4279.05 -7.20834 -5.23717 0
M  V30 24525 O 4279.27 -7.79853 -6.57286 0
M  V30 24526 O 4279.84 -7.79239 -4.12957 0
M  V30 24527 O 4279.3 -5.63315 -5.29344 0
M  V30 24528 C 4278.36 -4.80255 -6.01876 0
M  V30 24529 C 4279.09 -3.64202 -6.65911 0
M  V30 24530 O 4279.3 -2.60694 -5.64732 0
M  V30 24531 C 4280.49 -3.93473 -7.1943 0
M  V30 24532 O 4280.88 -3.02071 -8.21205 0
M  V30 24533 C 4281.37 -3.73047 -5.97036 0
M  V30 24534 C 4280.66 -2.58828 -5.25741 0
M  V30 24535 N 4280.71 -2.68068 -3.77503 0
M  V30 24536 H 4277.88 -5.40332 -6.79951 0
M  V30 24537 H 4277.61 -4.41613 -5.32378 0
M  V30 24538 H 4278.47 -3.26331 -7.47797 0
M  V30 24539 P 4282.43 -2.75334 -8.47391 0
M  V30 24540 O 4282.65 -2.44571 -9.90142 0
M  V30 24541 O 4283.22 -3.87688 -7.92115 0
M  V30 24542 O 4282.68 -1.4459 -7.59357 0
M  V30 24543 C 4281.74 -0.347608 -7.69215 0
M  V30 24544 C 4282.47 0.96767 -7.52806 0
M  V30 24545 O 4282.68 1.21036 -6.1011 0
M  V30 24546 C 4283.87 1.04544 -8.13308 0
M  V30 24547 O 4284.26 2.38311 -8.41922 0
M  V30 24548 C 4284.75 0.491279 -7.02284 0
M  V30 24549 C 4284.04 0.996264 -5.77469 0
M  V30 24550 N 4284.09 0.0501916 -4.62973 0
M  V30 24551 H 4281.26 -0.374722 -8.67691 0
M  V30 24552 H 4280.99 -0.443485 -6.90277 0
M  V30 24553 H 4281.85 1.75537 -7.96793 0
M  V30 24554 P 4285.81 2.75334 -8.47391 0
M  V30 24555 O 4286.03 3.84128 -9.44797 0
M  V30 24556 O 4286.6 1.51947 -8.68712 0
M  V30 24557 O 4286.06 3.29363 -6.99321 0
M  V30 24558 C 4285.12 4.24011 -6.4274 0
M  V30 24559 C 4285.85 5.20775 -5.52155 0
M  V30 24560 O 4286.06 4.56534 -4.22446 0
M  V30 24561 C 4287.25 5.62629 -5.96531 0
M  V30 24562 O 4287.64 6.87667 -5.41053 0
M  V30 24563 C 4288.13 4.52537 -5.39283 0
M  V30 24564 C 4287.42 4.20027 -4.08623 0
M  V30 24565 N 4287.47 2.76189 -3.71603 0
M  V30 24566 C 4287.39 1.64862 -4.52822 0
M  V30 24567 N 4287.47 0.512671 -3.88633 0
M  V30 24568 C 4287.61 0.888083 -2.54977 0
M  V30 24569 C 4287.74 0.094668 -1.38677 0
M  V30 24570 N 4287.86 0.890102 -0.232633 0
M  V30 24571 C 4287.86 2.26958 -0.21772 0
M  V30 24572 N 4287.99 2.84626 0.97925 0
M  V30 24573 N 4287.73 3.0178 -1.31033 0
M  V30 24574 C 4287.61 2.26781 -2.43843 0
M  V30 24575 H 4284.64 4.797 -7.24003 0
M  V30 24576 H 4284.37 3.69856 -5.84513 0
M  V30 24577 H 4285.23 6.10356 -5.41441 0
M  V30 24578 P 4289.19 7.20834 -5.23717 0
M  V30 24579 O 4289.41 8.66104 -5.38572 0
M  V30 24580 O 4289.98 6.33544 -6.1349 0
M  V30 24581 O 4289.44 6.7751 -3.72168 0
M  V30 24582 C 4288.5 7.20825 -2.7076 0
M  V30 24583 C 4289.23 7.45864 -1.40599 0
M  V30 24584 O 4289.44 6.17651 -0.734225 0
M  V30 24585 C 4290.63 8.05808 -1.51899 0
M  V30 24586 O 4291.02 8.74358 -0.335205 0
M  V30 24587 C 4291.51 6.83093 -1.70294 0
M  V30 24588 C 4290.8 5.79992 -0.836974 0
M  V30 24589 N 4290.85 4.41864 -1.38293 0
M  V30 24590 H 4288.02 8.13644 -3.0377 0
M  V30 24591 H 4287.75 6.42788 -2.55485 0
M  V30 24592 H 4288.61 8.12039 -0.792769 0
M  V30 24593 P 4292.57 8.91 -1.80392e-10 0
M  V30 24594 O 4292.79 10.1726 0.733694 0
M  V30 24595 O 4293.36 8.73148 -1.23936 0
M  V30 24596 O 4292.82 7.66872 0.971405 0
M  V30 24597 C 4291.88 7.42309 2.04641 0
M  V30 24598 C 4292.61 6.86059 3.24661 0
M  V30 24599 O 4292.82 5.42847 3.03646 0
M  V30 24600 C 4294.01 7.41196 3.50753 0
M  V30 24601 O 4294.4 7.27073 4.86816 0
M  V30 24602 C 4294.89 6.5273 2.63741 0
M  V30 24603 C 4294.18 5.1842 2.73198 0
M  V30 24604 N 4294.23 4.38762 1.4784 0
M  V30 24605 H 4291.4 8.36803 2.32493 0
M  V30 24606 H 4291.13 6.70197 1.71129 0
M  V30 24607 H 4291.99 7.03551 4.13168 0
M  V30 24608 P 4295.95 7.20834 5.23717 0
M  V30 24609 O 4296.17 7.79853 6.57286 0
M  V30 24610 O 4296.74 7.79239 4.12957 0
M  V30 24611 O 4296.2 5.63315 5.29344 0
M  V30 24612 C 4295.26 4.80255 6.01876 0
M  V30 24613 C 4295.99 3.64202 6.65911 0
M  V30 24614 O 4296.2 2.60694 5.64732 0
M  V30 24615 C 4297.39 3.93473 7.1943 0
M  V30 24616 O 4297.78 3.02071 8.21205 0
M  V30 24617 C 4298.27 3.73047 5.97036 0
M  V30 24618 C 4297.56 2.58828 5.25741 0
M  V30 24619 N 4297.61 2.68068 3.77503 0
M  V30 24620 H 4294.78 5.40332 6.79951 0
M  V30 24621 H 4294.51 4.41613 5.32378 0
M  V30 24622 H 4295.37 3.26331 7.47797 0
M  V30 24623 P 4299.33 2.75334 8.47391 0
M  V30 24624 O 4299.55 2.44571 9.90142 0
M  V30 24625 O 4300.12 3.87688 7.92115 0
M  V30 24626 O 4299.58 1.4459 7.59357 0
M  V30 24627 C 4298.64 0.347608 7.69215 0
M  V30 24628 C 4299.37 -0.96767 7.52806 0
M  V30 24629 O 4299.58 -1.21036 6.1011 0
M  V30 24630 C 4300.77 -1.04544 8.13308 0
M  V30 24631 O 4301.16 -2.38311 8.41922 0
M  V30 24632 C 4301.65 -0.491279 7.02284 0
M  V30 24633 C 4300.94 -0.996264 5.77469 0
M  V30 24634 N 4300.99 -0.0501916 4.62973 0
M  V30 24635 H 4298.16 0.374722 8.67691 0
M  V30 24636 H 4297.89 0.443485 6.90277 0
M  V30 24637 H 4298.75 -1.75537 7.96793 0
M  V30 24638 P 4302.71 -2.75334 8.47391 0
M  V30 24639 O 4302.93 -3.84128 9.44797 0
M  V30 24640 O 4303.5 -1.51947 8.68712 0
M  V30 24641 O 4302.96 -3.29363 6.99321 0
M  V30 24642 C 4302.02 -4.24011 6.4274 0
M  V30 24643 C 4302.75 -5.20775 5.52155 0
M  V30 24644 O 4302.96 -4.56534 4.22446 0
M  V30 24645 C 4304.15 -5.62629 5.96531 0
M  V30 24646 O 4304.54 -6.87667 5.41053 0
M  V30 24647 C 4305.03 -4.52537 5.39283 0
M  V30 24648 C 4304.32 -4.20027 4.08623 0
M  V30 24649 N 4304.37 -2.76189 3.71603 0
M  V30 24650 H 4301.54 -4.797 7.24003 0
M  V30 24651 H 4301.27 -3.69856 5.84513 0
M  V30 24652 H 4302.13 -6.10356 5.41441 0
M  V30 24653 P 4306.09 -7.20834 5.23717 0
M  V30 24654 O 4306.31 -8.66104 5.38572 0
M  V30 24655 O 4306.88 -6.33544 6.1349 0
M  V30 24656 O 4306.34 -6.7751 3.72168 0
M  V30 24657 C 4305.4 -7.20825 2.7076 0
M  V30 24658 C 4306.13 -7.45864 1.40599 0
M  V30 24659 O 4306.34 -6.17651 0.734225 0
M  V30 24660 C 4307.53 -8.05808 1.51899 0
M  V30 24661 O 4307.92 -8.74358 0.335205 0
M  V30 24662 C 4308.41 -6.83093 1.70294 0
M  V30 24663 C 4307.7 -5.79992 0.836974 0
M  V30 24664 N 4307.75 -4.41864 1.38293 0
M  V30 24665 H 4304.92 -8.13644 3.0377 0
M  V30 24666 H 4304.65 -6.42788 2.55485 0
M  V30 24667 H 4305.51 -8.12039 0.792769 0
M  V30 24668 P 4309.47 -8.91 1.81501e-10 0
M  V30 24669 O 4309.69 -10.1726 -0.733694 0
M  V30 24670 O 4310.26 -8.73148 1.23936 0
M  V30 24671 O 4309.72 -7.66872 -0.971405 0
M  V30 24672 C 4308.78 -7.42309 -2.04641 0
M  V30 24673 C 4309.51 -6.86059 -3.24661 0
M  V30 24674 O 4309.72 -5.42847 -3.03646 0
M  V30 24675 C 4310.91 -7.41196 -3.50753 0
M  V30 24676 O 4311.3 -7.27073 -4.86816 0
M  V30 24677 C 4311.79 -6.5273 -2.63741 0
M  V30 24678 C 4311.08 -5.1842 -2.73198 0
M  V30 24679 N 4311.13 -4.38762 -1.4784 0
M  V30 24680 C 4311.05 -4.81605 -0.168631 0
M  V30 24681 N 4311.13 -3.85454 0.713363 0
M  V30 24682 C 4311.27 -2.6994 -0.0566958 0
M  V30 24683 C 4311.4 -1.34815 0.338502 0
M  V30 24684 N 4311.52 -0.496304 -0.77465 0
M  V30 24685 C 4311.52 -0.908403 -2.09122 0
M  V30 24686 N 4311.65 0.0517805 -3.00955 0
M  V30 24687 N 4311.39 -2.17875 -2.46519 0
M  V30 24688 C 4311.27 -3.01988 -1.4033 0
M  V30 24689 H 4308.3 -8.36803 -2.32493 0
M  V30 24690 H 4308.03 -6.70197 -1.71129 0
M  V30 24691 H 4308.89 -7.03551 -4.13168 0
M  V30 24692 P 4312.85 -7.20834 -5.23717 0
M  V30 24693 O 4313.07 -7.79853 -6.57286 0
M  V30 24694 O 4313.64 -7.79239 -4.12957 0
M  V30 24695 O 4313.1 -5.63315 -5.29344 0
M  V30 24696 C 4312.16 -4.80255 -6.01876 0
M  V30 24697 C 4312.89 -3.64202 -6.65911 0
M  V30 24698 O 4313.1 -2.60694 -5.64732 0
M  V30 24699 C 4314.29 -3.93473 -7.1943 0
M  V30 24700 O 4314.68 -3.02071 -8.21205 0
M  V30 24701 C 4315.17 -3.73047 -5.97036 0
M  V30 24702 C 4314.46 -2.58828 -5.25741 0
M  V30 24703 N 4314.51 -2.68068 -3.77503 0
M  V30 24704 H 4311.68 -5.40332 -6.79951 0
M  V30 24705 H 4311.41 -4.41613 -5.32378 0
M  V30 24706 H 4312.27 -3.26331 -7.47797 0
M  V30 24707 P 4316.23 -2.75334 -8.47391 0
M  V30 24708 O 4316.45 -2.44619 -9.90336 0
M  V30 24709 O 4317.02 -3.87776 -7.92294 0
M  V30 24710 O 4316.48 -1.4459 -7.59357 0
M  V30 24711 C 4315.54 -0.347653 -7.69315 0
M  V30 24712 C 4316.27 0.96767 -7.52806 0
M  V30 24713 O 4316.48 1.21055 -6.10208 0
M  V30 24714 C 4317.67 1.04557 -8.13408 0
M  V30 24715 O 4318.06 2.38311 -8.41922 0
M  V30 24716 C 4318.55 0.491279 -7.02284 0
M  V30 24717 C 4317.84 0.996264 -5.77469 0
M  V30 24718 N 4317.89 0.0501916 -4.62973 0
M  V30 24719 H 4315.06 -0.374765 -8.67791 0
M  V30 24720 H 4314.78 -0.443613 -6.90476 0
M  V30 24721 H 4315.65 1.75559 -7.96891 0
M  V30 24722 H 4318.31 1.94563 -5.46818 0
M  V30 24723 H 4318.59 -0.608651 -7.04676 0
M  V30 24724 H 4319.58 0.889796 -7.09039 0
M  V30 24725 H 4317.74 0.433128 -9.04664 0
M  V30 24726 P 4319.61 2.75334 -8.47391 0
M  V30 24727 O 4319.83 3.84128 -9.44797 0
M  V30 24728 O 4320.4 1.51947 -8.68712 0
M  V30 24729 O 4319.86 3.29363 -6.99321 0
M  V30 24730 C 4318.92 4.24011 -6.4274 0
M  V30 24731 C 4319.65 5.20775 -5.52155 0
M  V30 24732 O 4319.86 4.56534 -4.22446 0
M  V30 24733 C 4321.05 5.62629 -5.96531 0
M  V30 24734 O 4321.44 6.87667 -5.41053 0
M  V30 24735 C 4321.93 4.52537 -5.39283 0
M  V30 24736 C 4321.22 4.20027 -4.08623 0
M  V30 24737 N 4321.27 2.76189 -3.71603 0
M  V30 24738 H 4318.44 4.797 -7.24003 0
M  V30 24739 H 4318.17 3.69856 -5.84513 0
M  V30 24740 H 4319.03 6.10356 -5.41441 0
M  V30 24741 P 4322.99 7.20834 -5.23717 0
M  V30 24742 O 4323.21 8.66104 -5.38572 0
M  V30 24743 O 4323.78 6.33544 -6.1349 0
M  V30 24744 O 4323.24 6.7751 -3.72168 0
M  V30 24745 C 4322.3 7.20825 -2.7076 0
M  V30 24746 C 4323.03 7.45864 -1.40599 0
M  V30 24747 O 4323.24 6.17651 -0.734225 0
M  V30 24748 C 4324.43 8.05808 -1.51899 0
M  V30 24749 O 4324.82 8.74358 -0.335205 0
M  V30 24750 C 4325.31 6.83093 -1.70294 0
M  V30 24751 C 4324.6 5.79992 -0.836974 0
M  V30 24752 N 4324.65 4.41864 -1.38293 0
M  V30 24753 H 4321.82 8.13644 -3.0377 0
M  V30 24754 H 4321.55 6.42788 -2.55485 0
M  V30 24755 H 4322.41 8.12039 -0.792769 0
M  V30 24756 P 4326.37 8.91 -1.8261e-10 0
M  V30 24757 O 4326.59 10.1726 0.733694 0
M  V30 24758 O 4327.16 8.73148 -1.23936 0
M  V30 24759 O 4326.62 7.66872 0.971405 0
M  V30 24760 C 4325.68 7.42309 2.04641 0
M  V30 24761 C 4326.41 6.86059 3.24661 0
M  V30 24762 O 4326.62 5.42847 3.03646 0
M  V30 24763 C 4327.81 7.41196 3.50753 0
M  V30 24764 O 4328.2 7.27073 4.86816 0
M  V30 24765 C 4328.69 6.5273 2.63741 0
M  V30 24766 C 4327.98 5.1842 2.73198 0
M  V30 24767 N 4328.03 4.38762 1.4784 0
M  V30 24768 H 4325.2 8.36803 2.32493 0
M  V30 24769 H 4324.93 6.70197 1.71129 0
M  V30 24770 H 4325.79 7.03551 4.13168 0
M  V30 24771 P 4329.75 7.20834 5.23717 0
M  V30 24772 O 4329.97 7.79853 6.57286 0
M  V30 24773 O 4330.54 7.79239 4.12957 0
M  V30 24774 O 4330 5.63315 5.29344 0
M  V30 24775 C 4329.06 4.80255 6.01876 0
M  V30 24776 C 4329.79 3.64202 6.65911 0
M  V30 24777 O 4330 2.60694 5.64732 0
M  V30 24778 C 4331.19 3.93473 7.1943 0
M  V30 24779 O 4331.58 3.02071 8.21205 0
M  V30 24780 C 4332.07 3.73047 5.97036 0
M  V30 24781 C 4331.36 2.58828 5.25741 0
M  V30 24782 N 4331.41 2.68068 3.77503 0
M  V30 24783 H 4328.58 5.40332 6.79951 0
M  V30 24784 H 4328.31 4.41613 5.32378 0
M  V30 24785 H 4329.17 3.26331 7.47797 0
M  V30 24786 P 4333.13 2.75334 8.47391 0
M  V30 24787 O 4333.35 2.44595 9.90239 0
M  V30 24788 O 4333.92 3.87732 7.92204 0
M  V30 24789 O 4333.38 1.4459 7.59357 0
M  V30 24790 C 4332.44 0.347563 7.69115 0
M  V30 24791 C 4333.17 -0.96767 7.52806 0
M  V30 24792 O 4333.38 -1.21036 6.1011 0
M  V30 24793 C 4334.57 -1.04544 8.13308 0
M  V30 24794 O 4334.96 -2.38311 8.41922 0
M  V30 24795 C 4335.45 -0.491279 7.02284 0
M  V30 24796 C 4334.74 -0.996264 5.77469 0
M  V30 24797 N 4334.79 -0.0501808 4.62873 0
M  V30 24798 C 4334.94 -0.588177 3.36904 0
M  V30 24799 O 4335.03 -1.78598 3.17173 0
M  V30 24800 N 4334.98 0.329694 2.33686 0
M  V30 24801 C 4334.89 1.6953 2.45079 0
M  V30 24802 O 4334.94 2.41926 1.44899 0
M  V30 24803 C 4334.74 2.16933 3.80505 0
M  V30 24804 C 4334.63 3.65373 3.97621 0
M  V30 24805 C 4334.69 1.30326 4.83752 0
M  V30 24806 H 4331.95 0.374722 8.67691 0
M  V30 24807 H 4331.69 0.443421 6.90177 0
M  V30 24808 H 4332.55 -1.75537 7.96793 0
M  V30 24809 H 4335.21 -1.94496 5.46629 0
M  V30 24810 H 4335.49 0.608651 7.04676 0
M  V30 24811 H 4336.48 -0.889672 7.08939 0
M  V30 24812 H 4334.64 -0.43308 9.04564 0
M  V30 24813 H 4334.57 1.68366 5.8516 0
M  V30 24814 H 4335.6 4.05985 4.30448 0
M  V30 24815 H 4333.87 3.88028 4.72875 0
M  V30 24816 H 4334.35 4.11381 3.01609 0
M  V30 24817 H 4335.09 -0.0393617 1.41345 0
M  V30 24818 P 4336.51 -2.75334 8.47391 0
M  V30 24819 O 4336.73 -3.84128 9.44797 0
M  V30 24820 O 4337.3 -1.51947 8.68712 0
M  V30 24821 O 4336.76 -3.29363 6.99321 0
M  V30 24822 C 4335.82 -4.24011 6.4274 0
M  V30 24823 C 4336.55 -5.20775 5.52155 0
M  V30 24824 O 4336.76 -4.56534 4.22446 0
M  V30 24825 C 4337.95 -5.62629 5.96531 0
M  V30 24826 O 4338.34 -6.87667 5.41053 0
M  V30 24827 C 4338.83 -4.52537 5.39283 0
M  V30 24828 C 4338.12 -4.20027 4.08623 0
M  V30 24829 N 4338.17 -2.76189 3.71603 0
M  V30 24830 H 4335.34 -4.797 7.24003 0
M  V30 24831 H 4335.07 -3.69856 5.84513 0
M  V30 24832 H 4335.93 -6.10356 5.41441 0
M  V30 24833 P 4339.89 -7.20834 5.23717 0
M  V30 24834 O 4340.11 -8.66104 5.38572 0
M  V30 24835 O 4340.68 -6.33544 6.1349 0
M  V30 24836 O 4340.14 -6.7751 3.72168 0
M  V30 24837 C 4339.2 -7.20825 2.7076 0
M  V30 24838 C 4339.93 -7.45864 1.40599 0
M  V30 24839 O 4340.14 -6.17651 0.734225 0
M  V30 24840 C 4341.33 -8.05808 1.51899 0
M  V30 24841 O 4341.72 -8.74358 0.335205 0
M  V30 24842 C 4342.21 -6.83093 1.70294 0
M  V30 24843 C 4341.5 -5.79992 0.836974 0
M  V30 24844 N 4341.55 -4.41864 1.38293 0
M  V30 24845 C 4341.47 -3.99538 2.69438 0
M  V30 24846 N 4341.55 -2.69909 2.84277 0
M  V30 24847 C 4341.69 -2.21719 1.5408 0
M  V30 24848 C 4341.82 -0.891712 1.06628 0
M  V30 24849 N 4341.94 -0.856846 -0.334985 0
M  V30 24850 C 4341.94 -1.9641 -1.15789 0
M  V30 24851 N 4342.07 -1.72708 -2.46522 0
M  V30 24852 N 4341.81 -3.21165 -0.713741 0
M  V30 24853 C 4341.69 -3.26797 0.639748 0
M  V30 24854 H 4338.72 -8.13644 3.0377 0
M  V30 24855 H 4338.45 -6.42788 2.55485 0
M  V30 24856 H 4339.31 -8.12039 0.792769 0
M  V30 24857 P 4343.27 -8.91 1.83719e-10 0
M  V30 24858 O 4343.49 -10.1736 -0.733766 0
M  V30 24859 O 4344.06 -8.73247 1.2395 0
M  V30 24860 O 4343.52 -7.66872 -0.971405 0
M  V30 24861 C 4342.58 -7.42309 -2.04641 0
M  V30 24862 C 4343.31 -6.86059 -3.24661 0
M  V30 24863 O 4343.52 -5.42847 -3.03646 0
M  V30 24864 C 4344.71 -7.41196 -3.50753 0
M  V30 24865 O 4345.1 -7.27073 -4.86816 0
M  V30 24866 C 4345.59 -6.5273 -2.63741 0
M  V30 24867 C 4344.88 -5.1842 -2.73198 0
M  V30 24868 N 4344.93 -4.38668 -1.47808 0
M  V30 24869 C 4345.08 -3.00789 -1.58511 0
M  V30 24870 O 4345.17 -2.50116 -2.71298 0
M  V30 24871 N 4345.13 -2.29703 -0.253698 0
M  V30 24872 C 4345.03 -2.84269 0.750133 0
M  V30 24873 N 4345.08 -2.06951 1.82612 0
M  V30 24874 C 4344.88 -4.25803 0.889776 0
M  V30 24875 C 4344.83 -4.98326 -0.259363 0
M  V30 24876 H 4342.09 -8.36707 -2.32466 0
M  V30 24877 H 4341.83 -6.701 -1.71105 0
M  V30 24878 H 4342.69 -7.03638 -4.13219 0
M  V30 24879 H 4345.35 -4.59852 -3.53955 0
M  V30 24880 H 4345.63 -6.88995 -1.59871 0
M  V30 24881 H 4346.62 -6.46749 -3.03687 0
M  V30 24882 H 4344.78 -8.46908 -3.20714 0
M  V30 24883 H 4344.71 -6.06349 -0.206238 0
M  V30 24884 H 4344.81 -4.73163 1.86796 0
M  V30 24885 H 4345.2 -1.05099 1.72271 0
M  V30 24886 H 4345.01 -2.48716 2.76361 0
M  V30 24887 P 4346.65 -7.20834 -5.23717 0
M  V30 24888 O 4346.87 -7.79853 -6.57286 0
M  V30 24889 O 4347.44 -7.79239 -4.12957 0
M  V30 24890 O 4346.9 -5.63315 -5.29344 0
M  V30 24891 C 4345.96 -4.80255 -6.01876 0
M  V30 24892 C 4346.69 -3.64202 -6.65911 0
M  V30 24893 O 4346.9 -2.60694 -5.64732 0
M  V30 24894 C 4348.09 -3.93473 -7.1943 0
M  V30 24895 O 4348.48 -3.02071 -8.21205 0
M  V30 24896 C 4348.97 -3.73047 -5.97036 0
M  V30 24897 C 4348.26 -2.58828 -5.25741 0
M  V30 24898 N 4348.31 -2.68068 -3.77503 0
M  V30 24899 H 4345.48 -5.40332 -6.79951 0
M  V30 24900 H 4345.21 -4.41613 -5.32378 0
M  V30 24901 H 4346.07 -3.26331 -7.47797 0
M  V30 24902 P 4350.03 -2.75334 -8.47391 0
M  V30 24903 O 4350.25 -2.44571 -9.90142 0
M  V30 24904 O 4350.82 -3.87688 -7.92115 0
M  V30 24905 O 4350.28 -1.4459 -7.59357 0
M  V30 24906 C 4349.34 -0.347608 -7.69215 0
M  V30 24907 C 4350.07 0.96767 -7.52806 0
M  V30 24908 O 4350.28 1.21036 -6.1011 0
M  V30 24909 C 4351.47 1.04544 -8.13308 0
M  V30 24910 O 4351.86 2.38311 -8.41922 0
M  V30 24911 C 4352.35 0.491279 -7.02284 0
M  V30 24912 C 4351.64 0.996264 -5.77469 0
M  V30 24913 N 4351.69 0.0501916 -4.62973 0
M  V30 24914 H 4348.86 -0.374722 -8.67691 0
M  V30 24915 H 4348.59 -0.443485 -6.90277 0
M  V30 24916 H 4349.45 1.75537 -7.96793 0
M  V30 24917 P 4353.41 2.75334 -8.47391 0
M  V30 24918 O 4353.63 3.84128 -9.44797 0
M  V30 24919 O 4354.2 1.51947 -8.68712 0
M  V30 24920 O 4353.66 3.29363 -6.99321 0
M  V30 24921 C 4352.72 4.24011 -6.4274 0
M  V30 24922 C 4353.45 5.20775 -5.52155 0
M  V30 24923 O 4353.66 4.56534 -4.22446 0
M  V30 24924 C 4354.85 5.62629 -5.96531 0
M  V30 24925 O 4355.24 6.87667 -5.41053 0
M  V30 24926 C 4355.73 4.52537 -5.39283 0
M  V30 24927 C 4355.02 4.20027 -4.08623 0
M  V30 24928 N 4355.07 2.76189 -3.71603 0
M  V30 24929 C 4354.99 1.64862 -4.52822 0
M  V30 24930 N 4355.07 0.512671 -3.88633 0
M  V30 24931 C 4355.21 0.888083 -2.54977 0
M  V30 24932 C 4355.34 0.094668 -1.38677 0
M  V30 24933 N 4355.46 0.890102 -0.232633 0
M  V30 24934 C 4355.46 2.26958 -0.21772 0
M  V30 24935 N 4355.59 2.84626 0.97925 0
M  V30 24936 N 4355.33 3.0178 -1.31033 0
M  V30 24937 C 4355.21 2.26781 -2.43843 0
M  V30 24938 H 4352.24 4.797 -7.24003 0
M  V30 24939 H 4351.97 3.69856 -5.84513 0
M  V30 24940 H 4352.83 6.10356 -5.41441 0
M  V30 24941 P 4356.79 7.20834 -5.23717 0
M  V30 24942 O 4357.01 8.66274 -5.38678 0
M  V30 24943 O 4357.58 6.33687 -6.13629 0
M  V30 24944 O 4357.04 6.7751 -3.72168 0
M  V30 24945 C 4356.1 7.20919 -2.70795 0
M  V30 24946 C 4356.83 7.45864 -1.40599 0
M  V30 24947 O 4357.04 6.17751 -0.734343 0
M  V30 24948 C 4358.23 8.05906 -1.51917 0
M  V30 24949 O 4358.62 8.74358 -0.335205 0
M  V30 24950 C 4359.11 6.83093 -1.70294 0
M  V30 24951 C 4358.4 5.79992 -0.836974 0
M  V30 24952 N 4358.45 4.41864 -1.38293 0
M  V30 24953 H 4355.62 8.13738 -3.03804 0
M  V30 24954 H 4355.34 6.42974 -2.55559 0
M  V30 24955 H 4356.21 8.12139 -0.792866 0
M  V30 24956 H 4358.87 5.80178 0.160643 0
M  V30 24957 H 4359.15 6.51379 -2.75643 0
M  V30 24958 H 4360.14 7.01832 -1.3448 0
M  V30 24959 H 4358.3 8.73771 -2.38364 0
M  V30 24960 P 4360.17 8.91 -1.84828e-10 0
M  V30 24961 O 4360.39 10.1726 0.733694 0
M  V30 24962 O 4360.96 8.73148 -1.23936 0
M  V30 24963 O 4360.42 7.66872 0.971405 0
M  V30 24964 C 4359.48 7.42309 2.04641 0
M  V30 24965 C 4360.21 6.86059 3.24661 0
M  V30 24966 O 4360.42 5.42847 3.03646 0
M  V30 24967 C 4361.61 7.41196 3.50753 0
M  V30 24968 O 4362 7.27073 4.86816 0
M  V30 24969 C 4362.49 6.5273 2.63741 0
M  V30 24970 C 4361.78 5.1842 2.73198 0
M  V30 24971 N 4361.83 4.38762 1.4784 0
M  V30 24972 C 4361.75 4.81605 0.168631 0
M  V30 24973 N 4361.83 3.85454 -0.713363 0
M  V30 24974 C 4361.97 2.6994 0.0566958 0
M  V30 24975 C 4362.1 1.34815 -0.338502 0
M  V30 24976 O 4362.12 0.869548 -1.47125 0
M  V30 24977 N 4362.22 0.496304 0.77465 0
M  V30 24978 C 4362.22 0.908403 2.09122 0
M  V30 24979 N 4362.35 -0.0517805 3.00955 0
M  V30 24980 N 4362.09 2.17875 2.46519 0
M  V30 24981 C 4361.97 3.01988 1.4033 0
M  V30 24982 H 4359 8.36803 2.32493 0
M  V30 24983 H 4358.73 6.70197 1.71129 0
M  V30 24984 H 4359.59 7.03551 4.13168 0
M  V30 24985 H 4362.25 4.59498 3.54415 0
M  V30 24986 H 4362.53 6.88898 1.59848 0
M  V30 24987 H 4363.52 6.46749 3.03687 0
M  V30 24988 H 4361.68 8.46908 3.20714 0
M  V30 24989 H 4361.64 5.86405 -0.105564 0
M  V30 24990 H 4362.32 -0.483664 0.597855 0
M  V30 24991 H 4362.35 0.187865 4.0116 0
M  V30 24992 H 4362.46 -1.03585 2.71726 0
M  V30 24993 P 4363.55 7.20834 5.23717 0
M  V30 24994 O 4363.77 7.7993 6.57351 0
M  V30 24995 O 4364.34 7.79328 4.13004 0
M  V30 24996 O 4363.8 5.63315 5.29344 0
M  V30 24997 C 4362.86 4.80193 6.01798 0
M  V30 24998 C 4363.59 3.64202 6.65911 0
M  V30 24999 O 4363.8 2.60694 5.64732 0
M  V30 25000 C 4364.99 3.93473 7.1943 0
M  V30 25001 O 4365.38 3.02071 8.21205 0
M  V30 25002 C 4365.87 3.73047 5.97036 0
M  V30 25003 C 4365.16 2.58828 5.25741 0
M  V30 25004 N 4365.21 2.6801 3.77422 0
M  V30 25005 C 4365.36 1.50443 3.07133 0
M  V30 25006 O 4365.45 0.419406 3.61576 0
M  V30 25007 N 4365.4 1.6403 1.69677 0
M  V30 25008 C 4365.31 2.81206 0.986255 0
M  V30 25009 C 4365.16 3.99158 1.80325 0
M  V30 25010 C 4365.11 3.89779 3.1476 0
M  V30 25011 H 4362.37 5.40332 6.79951 0
M  V30 25012 H 4362.11 4.41549 5.32301 0
M  V30 25013 H 4362.97 3.26331 7.47797 0
M  V30 25014 H 4365.63 1.6395 5.56554 0
M  V30 25015 H 4365.91 4.63439 5.3432 0
M  V30 25016 H 4366.9 3.44728 6.25838 0
M  V30 25017 H 4365.06 4.96652 7.57263 0
M  V30 25018 H 4364.99 4.80159 3.74441 0
M  V30 25019 P 4366.93 2.75334 8.47391 0
M  V30 25020 O 4367.15 2.44571 9.90142 0
M  V30 25021 O 4367.72 3.87688 7.92115 0
M  V30 25022 O 4367.18 1.4459 7.59357 0
M  V30 25023 C 4366.24 0.347608 7.69215 0
M  V30 25024 C 4366.97 -0.96767 7.52806 0
M  V30 25025 O 4367.18 -1.21036 6.1011 0
M  V30 25026 C 4368.37 -1.04544 8.13308 0
M  V30 25027 O 4368.76 -2.38311 8.41922 0
M  V30 25028 C 4369.25 -0.491279 7.02284 0
M  V30 25029 C 4368.54 -0.996264 5.77469 0
M  V30 25030 N 4368.59 -0.0501916 4.62973 0
M  V30 25031 H 4365.76 0.374722 8.67691 0
M  V30 25032 H 4365.49 0.443485 6.90277 0
M  V30 25033 H 4366.35 -1.75537 7.96793 0
M  V30 25034 P 4370.31 -2.75334 8.47391 0
M  V30 25035 O 4370.53 -3.84166 9.4489 0
M  V30 25036 O 4371.1 -1.51964 8.6881 0
M  V30 25037 O 4370.56 -3.29363 6.99321 0
M  V30 25038 C 4369.62 -4.24011 6.4274 0
M  V30 25039 C 4370.35 -5.20775 5.52155 0
M  V30 25040 O 4370.56 -4.56534 4.22446 0
M  V30 25041 C 4371.75 -5.62629 5.96531 0
M  V30 25042 O 4372.14 -6.87667 5.41053 0
M  V30 25043 C 4372.63 -4.52537 5.39283 0
M  V30 25044 C 4371.92 -4.20027 4.08623 0
M  V30 25045 N 4371.97 -2.7613 3.71522 0
M  V30 25046 C 4372.12 -2.43702 2.37085 0
M  V30 25047 O 4372.21 -3.3531 1.54039 0
M  V30 25048 N 4372.17 -0.951103 2.10621 0
M  V30 25049 C 4372.07 -0.165021 2.93537 0
M  V30 25050 N 4372.12 1.09723 2.53253 0
M  V30 25051 C 4371.92 -0.469576 4.32458 0
M  V30 25052 C 4371.87 -1.78658 4.65921 0
M  V30 25053 H 4369.13 -4.79645 7.23919 0
M  V30 25054 H 4368.87 -3.69802 5.84429 0
M  V30 25055 H 4369.73 -6.10431 5.41508 0
M  V30 25056 H 4372.39 -4.78733 3.27967 0
M  V30 25057 H 4372.67 -3.64957 6.05871 0
M  V30 25058 H 4373.66 -4.8868 5.2125 0
M  V30 25059 H 4371.82 -5.66726 7.06352 0
M  V30 25060 H 4371.75 -2.06987 5.70299 0
M  V30 25061 H 4371.85 0.314383 5.07728 0
M  V30 25062 H 4372.24 1.31363 1.5319 0
M  V30 25063 H 4372.05 1.85978 3.21943 0
M  V30 25064 P 4373.69 -7.20834 5.23717 0
M  V30 25065 O 4373.91 -8.66189 5.38625 0
M  V30 25066 O 4374.48 -6.33615 6.1356 0
M  V30 25067 O 4373.94 -6.7751 3.72168 0
M  V30 25068 C 4373 -7.20732 2.70725 0
M  V30 25069 C 4373.73 -7.45864 1.40599 0
M  V30 25070 O 4373.94 -6.17651 0.734225 0
M  V30 25071 C 4375.13 -8.05808 1.51899 0
M  V30 25072 O 4375.52 -8.74358 0.335205 0
M  V30 25073 C 4376.01 -6.83093 1.70294 0
M  V30 25074 C 4375.3 -5.79992 0.836974 0
M  V30 25075 N 4375.35 -4.41769 1.38263 0
M  V30 25076 C 4375.5 -3.38591 0.481702 0
M  V30 25077 O 4375.59 -3.56839 -0.718452 0
M  V30 25078 N 4375.54 -2.1206 1.03569 0
M  V30 25079 C 4375.45 -1.80696 2.36966 0
M  V30 25080 O 4375.5 -0.630473 2.74862 0
M  V30 25081 C 4375.3 -2.94845 3.23898 0
M  V30 25082 C 4375.19 -2.65253 4.70362 0
M  V30 25083 C 4375.25 -4.19803 2.73435 0
M  V30 25084 H 4372.51 -8.13644 3.0377 0
M  V30 25085 H 4372.25 -6.42695 2.55448 0
M  V30 25086 H 4373.11 -8.12039 0.792769 0
M  V30 25087 H 4375.77 -5.79978 -0.160587 0
M  V30 25088 H 4376.05 -6.51379 2.75643 0
M  V30 25089 H 4377.04 -7.01734 1.34462 0
M  V30 25090 H 4375.2 -8.73674 2.38337 0
M  V30 25091 H 4375.13 -5.04492 3.4095 0
M  V30 25092 H 4376.16 -2.83924 5.1913 0
M  V30 25093 H 4374.43 -3.29824 5.15163 0
M  V30 25094 H 4374.91 -1.59723 4.84449 0
M  V30 25095 H 4375.65 -1.35644 0.399345 0
M  V30 25096 P 4377.07 -8.91 1.85937e-10 0
M  V30 25097 O 4377.29 -10.1726 -0.733694 0
M  V30 25098 O 4377.86 -8.73148 1.23936 0
M  V30 25099 O 4377.32 -7.66872 -0.971405 0
M  V30 25100 C 4376.38 -7.42309 -2.04641 0
M  V30 25101 C 4377.11 -6.86059 -3.24661 0
M  V30 25102 O 4377.32 -5.42847 -3.03646 0
M  V30 25103 C 4378.51 -7.41196 -3.50753 0
M  V30 25104 O 4378.9 -7.27073 -4.86816 0
M  V30 25105 C 4379.39 -6.5273 -2.63741 0
M  V30 25106 C 4378.68 -5.1842 -2.73198 0
M  V30 25107 N 4378.73 -4.38762 -1.4784 0
M  V30 25108 H 4375.9 -8.36803 -2.32493 0
M  V30 25109 H 4375.63 -6.70197 -1.71129 0
M  V30 25110 H 4376.49 -7.03551 -4.13168 0
M  V30 25111 P 4380.45 -7.20834 -5.23717 0
M  V30 25112 O 4380.67 -7.79853 -6.57286 0
M  V30 25113 O 4381.24 -7.79239 -4.12957 0
M  V30 25114 O 4380.7 -5.63315 -5.29344 0
M  V30 25115 C 4379.76 -4.80255 -6.01876 0
M  V30 25116 C 4380.49 -3.64202 -6.65911 0
M  V30 25117 O 4380.7 -2.60694 -5.64732 0
M  V30 25118 C 4381.89 -3.93473 -7.1943 0
M  V30 25119 O 4382.28 -3.02071 -8.21205 0
M  V30 25120 C 4382.77 -3.73047 -5.97036 0
M  V30 25121 C 4382.06 -2.58828 -5.25741 0
M  V30 25122 N 4382.11 -2.68068 -3.77503 0
M  V30 25123 C 4382.03 -3.79715 -2.96723 0
M  V30 25124 N 4382.11 -3.5377 -1.68852 0
M  V30 25125 C 4382.25 -2.15054 -1.63254 0
M  V30 25126 C 4382.38 -1.28964 -0.518571 0
M  V30 25127 O 4382.4 -1.56826 0.679156 0
M  V30 25128 N 4382.5 0.0538097 -0.918425 0
M  V30 25129 C 4382.5 0.494275 -2.22578 0
M  V30 25130 N 4382.63 1.81086 -2.40434 0
M  V30 25131 N 4382.37 -0.313645 -3.27502 0
M  V30 25132 C 4382.25 -1.61829 -2.91033 0
M  V30 25133 H 4379.28 -5.40332 -6.79951 0
M  V30 25134 H 4379.01 -4.41613 -5.32378 0
M  V30 25135 H 4379.87 -3.26331 -7.47797 0
M  V30 25136 H 4382.53 -1.63422 -5.56814 0
M  V30 25137 H 4382.81 -4.63374 -5.34244 0
M  V30 25138 H 4383.8 -3.44728 -6.25838 0
M  V30 25139 H 4381.96 -4.96652 -7.57263 0
M  V30 25140 H 4381.92 -4.80617 -3.3614 0
M  V30 25141 H 4382.6 0.742702 -0.199384 0
M  V30 25142 H 4382.63 2.20598 -3.35588 0
M  V30 25143 H 4382.74 2.43518 -1.58945 0
M  V30 25144 P 4383.83 -2.75334 -8.47391 0
M  V30 25145 O 4384.05 -2.44571 -9.90142 0
M  V30 25146 O 4384.62 -3.87688 -7.92115 0
M  V30 25147 O 4384.08 -1.4459 -7.59357 0
M  V30 25148 C 4383.14 -0.347608 -7.69215 0
M  V30 25149 C 4383.87 0.96767 -7.52806 0
M  V30 25150 O 4384.08 1.21036 -6.1011 0
M  V30 25151 C 4385.27 1.04544 -8.13308 0
M  V30 25152 O 4385.66 2.38311 -8.41922 0
M  V30 25153 C 4386.15 0.491279 -7.02284 0
M  V30 25154 C 4385.44 0.996264 -5.77469 0
M  V30 25155 N 4385.49 0.0501916 -4.62973 0
M  V30 25156 H 4382.66 -0.374722 -8.67691 0
M  V30 25157 H 4382.39 -0.443485 -6.90277 0
M  V30 25158 H 4383.25 1.75537 -7.96793 0
M  V30 25159 P 4387.21 2.75334 -8.47391 0
M  V30 25160 O 4387.43 3.84128 -9.44797 0
M  V30 25161 O 4388 1.51947 -8.68712 0
M  V30 25162 O 4387.46 3.29363 -6.99321 0
M  V30 25163 C 4386.52 4.24011 -6.4274 0
M  V30 25164 C 4387.25 5.20775 -5.52155 0
M  V30 25165 O 4387.46 4.56534 -4.22446 0
M  V30 25166 C 4388.65 5.62629 -5.96531 0
M  V30 25167 O 4389.04 6.87667 -5.41053 0
M  V30 25168 C 4389.53 4.52537 -5.39283 0
M  V30 25169 C 4388.82 4.20027 -4.08623 0
M  V30 25170 N 4388.87 2.76189 -3.71603 0
M  V30 25171 H 4386.04 4.797 -7.24003 0
M  V30 25172 H 4385.77 3.69856 -5.84513 0
M  V30 25173 H 4386.63 6.10356 -5.41441 0
M  V30 25174 P 4390.59 7.20834 -5.23717 0
M  V30 25175 O 4390.81 8.66104 -5.38572 0
M  V30 25176 O 4391.38 6.33544 -6.1349 0
M  V30 25177 O 4390.84 6.7751 -3.72168 0
M  V30 25178 C 4389.9 7.20825 -2.7076 0
M  V30 25179 C 4390.63 7.45864 -1.40599 0
M  V30 25180 O 4390.84 6.17651 -0.734225 0
M  V30 25181 C 4392.03 8.05808 -1.51899 0
M  V30 25182 O 4392.42 8.74358 -0.335205 0
M  V30 25183 C 4392.91 6.83093 -1.70294 0
M  V30 25184 C 4392.2 5.79992 -0.836974 0
M  V30 25185 N 4392.25 4.41864 -1.38293 0
M  V30 25186 H 4389.42 8.13644 -3.0377 0
M  V30 25187 H 4389.15 6.42788 -2.55485 0
M  V30 25188 H 4390.01 8.12039 -0.792769 0
M  V30 25189 P 4393.97 8.91 -1.87046e-10 0
M  V30 25190 O 4394.19 10.1746 0.733838 0
M  V30 25191 O 4394.76 8.73346 -1.23964 0
M  V30 25192 O 4394.22 7.66872 0.971405 0
M  V30 25193 C 4393.28 7.42405 2.04668 0
M  V30 25194 C 4394.01 6.86059 3.24661 0
M  V30 25195 O 4394.22 5.42934 3.03695 0
M  V30 25196 C 4395.41 7.41287 3.50796 0
M  V30 25197 O 4395.8 7.27073 4.86816 0
M  V30 25198 C 4396.29 6.5273 2.63741 0
M  V30 25199 C 4395.58 5.1842 2.73198 0
M  V30 25200 N 4395.63 4.38762 1.4784 0
M  V30 25201 C 4395.55 4.83651 0.183876 0
M  V30 25202 N 4395.62 3.88759 -0.699393 0
M  V30 25203 C 4395.77 2.7404 0.0575568 0
M  V30 25204 C 4395.9 1.37902 -0.293928 0
M  V30 25205 N 4395.91 0.938021 -1.54797 0
M  V30 25206 N 4396.02 0.491817 0.70549 0
M  V30 25207 C 4396.01 0.931735 1.95979 0
M  V30 25208 N 4395.89 2.16017 2.41481 0
M  V30 25209 C 4395.77 3.02547 1.39121 0
M  V30 25210 H 4392.8 8.36899 2.3252 0
M  V30 25211 H 4392.52 6.70391 1.71179 0
M  V30 25212 H 4393.39 7.03638 4.13219 0
M  V30 25213 H 4396.05 4.59931 3.54016 0
M  V30 25214 H 4396.33 6.88995 1.59871 0
M  V30 25215 H 4397.32 6.4684 3.0373 0
M  V30 25216 H 4395.48 8.47002 3.20749 0
M  V30 25217 H 4395.44 5.8885 -0.0765548 0
M  V30 25218 H 4395.82 1.60276 -2.32875 0
M  V30 25219 H 4396.01 -0.0699355 -1.73859 0
M  V30 25220 H 4396.12 0.165507 2.71897 0
M  V30 25221 P 4397.35 7.20834 5.23717 0
M  V30 25222 O 4397.57 7.79853 6.57286 0
M  V30 25223 O 4398.14 7.79239 4.12957 0
M  V30 25224 O 4397.6 5.63315 5.29344 0
M  V30 25225 C 4396.66 4.80255 6.01876 0
M  V30 25226 C 4397.39 3.64202 6.65911 0
M  V30 25227 O 4397.6 2.60694 5.64732 0
M  V30 25228 C 4398.79 3.93473 7.1943 0
M  V30 25229 O 4399.18 3.02071 8.21205 0
M  V30 25230 C 4399.67 3.73047 5.97036 0
M  V30 25231 C 4398.96 2.58828 5.25741 0
M  V30 25232 N 4399.01 2.68068 3.77503 0
M  V30 25233 C 4398.93 3.79715 2.96723 0
M  V30 25234 N 4399.01 3.5377 1.68852 0
M  V30 25235 C 4399.15 2.15054 1.63254 0
M  V30 25236 C 4399.28 1.28964 0.518571 0
M  V30 25237 O 4399.3 1.56826 -0.679156 0
M  V30 25238 N 4399.4 -0.0538097 0.918425 0
M  V30 25239 C 4399.4 -0.494275 2.22578 0
M  V30 25240 N 4399.53 -1.81086 2.40434 0
M  V30 25241 N 4399.27 0.313645 3.27502 0
M  V30 25242 C 4399.15 1.61829 2.91033 0
M  V30 25243 H 4396.17 5.40332 6.79951 0
M  V30 25244 H 4395.9 4.41613 5.32378 0
M  V30 25245 H 4396.77 3.26331 7.47797 0
M  V30 25246 H 4399.43 1.63422 5.56814 0
M  V30 25247 H 4399.71 4.63374 5.34244 0
M  V30 25248 H 4400.7 3.44728 6.25838 0
M  V30 25249 H 4398.86 4.96652 7.57263 0
M  V30 25250 H 4398.81 4.80617 3.3614 0
M  V30 25251 H 4399.5 -0.742702 0.199384 0
M  V30 25252 H 4399.53 -2.20598 3.35588 0
M  V30 25253 H 4399.63 -2.43518 1.58945 0
M  V30 25254 P 4400.73 2.75334 8.47391 0
M  V30 25255 O 4400.95 2.44571 9.90142 0
M  V30 25256 O 4401.52 3.87688 7.92115 0
M  V30 25257 O 4400.98 1.4459 7.59357 0
M  V30 25258 C 4400.04 0.347608 7.69215 0
M  V30 25259 C 4400.77 -0.96767 7.52806 0
M  V30 25260 O 4400.98 -1.21036 6.1011 0
M  V30 25261 C 4402.17 -1.04544 8.13308 0
M  V30 25262 O 4402.56 -2.38311 8.41922 0
M  V30 25263 C 4403.05 -0.491279 7.02284 0
M  V30 25264 C 4402.34 -0.996264 5.77469 0
M  V30 25265 N 4402.39 -0.0501916 4.62973 0
M  V30 25266 H 4399.55 0.374722 8.67691 0
M  V30 25267 H 4399.28 0.443485 6.90277 0
M  V30 25268 H 4400.15 -1.75537 7.96793 0
M  V30 25269 P 4404.11 -2.75334 8.47391 0
M  V30 25270 O 4404.33 -3.84166 9.4489 0
M  V30 25271 O 4404.9 -1.51964 8.6881 0
M  V30 25272 O 4404.36 -3.29363 6.99321 0
M  V30 25273 C 4403.42 -4.23956 6.42656 0
M  V30 25274 C 4404.15 -5.20775 5.52155 0
M  V30 25275 O 4404.36 -4.56534 4.22446 0
M  V30 25276 C 4405.55 -5.62629 5.96531 0
M  V30 25277 O 4405.94 -6.87667 5.41053 0
M  V30 25278 C 4406.43 -4.52537 5.39283 0
M  V30 25279 C 4405.72 -4.20027 4.08623 0
M  V30 25280 N 4405.77 -2.7613 3.71522 0
M  V30 25281 C 4405.92 -2.45612 2.37989 0
M  V30 25282 O 4406.01 -3.30919 1.51621 0
M  V30 25283 N 4405.96 -1.10684 2.08435 0
M  V30 25284 C 4405.87 -0.0690084 2.9792 0
M  V30 25285 C 4405.72 -0.481522 4.35345 0
M  V30 25286 C 4405.67 -1.78906 4.67968 0
M  V30 25287 H 4402.93 -4.797 7.24003 0
M  V30 25288 H 4402.66 -3.69802 5.84429 0
M  V30 25289 H 4403.53 -6.10356 5.41441 0
M  V30 25290 H 4406.19 -4.78651 3.27911 0
M  V30 25291 H 4406.47 -3.64957 6.05871 0
M  V30 25292 H 4407.46 -4.8868 5.2125 0
M  V30 25293 H 4405.62 -5.66726 7.06352 0
M  V30 25294 H 4405.55 -2.07737 5.72367 0
M  V30 25295 P 4407.49 -7.20834 5.23717 0
M  V30 25296 O 4407.71 -8.66104 5.38572 0
M  V30 25297 O 4408.28 -6.33544 6.1349 0
M  V30 25298 O 4407.74 -6.7751 3.72168 0
M  V30 25299 C 4406.8 -7.20825 2.7076 0
M  V30 25300 C 4407.53 -7.45864 1.40599 0
M  V30 25301 O 4407.74 -6.17651 0.734225 0
M  V30 25302 C 4408.93 -8.05808 1.51899 0
M  V30 25303 O 4409.32 -8.74358 0.335205 0
M  V30 25304 C 4409.81 -6.83093 1.70294 0
M  V30 25305 C 4409.1 -5.79992 0.836974 0
M  V30 25306 N 4409.15 -4.41864 1.38293 0
M  V30 25307 C 4409.07 -3.99538 2.69438 0
M  V30 25308 N 4409.15 -2.69909 2.84277 0
M  V30 25309 C 4409.29 -2.21719 1.5408 0
M  V30 25310 C 4409.42 -0.891712 1.06628 0
M  V30 25311 O 4409.44 0.161298 1.70137 0
M  V30 25312 N 4409.54 -0.856846 -0.334985 0
M  V30 25313 C 4409.54 -1.9641 -1.15789 0
M  V30 25314 N 4409.67 -1.72708 -2.46522 0
M  V30 25315 N 4409.41 -3.21165 -0.713741 0
M  V30 25316 C 4409.29 -3.26797 0.639748 0
M  V30 25317 H 4406.31 -8.13644 3.0377 0
M  V30 25318 H 4406.04 -6.42788 2.55485 0
M  V30 25319 H 4406.91 -8.12039 0.792769 0
M  V30 25320 H 4409.57 -5.80061 -0.166416 0
M  V30 25321 H 4409.85 -6.51287 2.75604 0
M  V30 25322 H 4410.84 -7.01734 1.34462 0
M  V30 25323 H 4409 -8.73674 2.38337 0
M  V30 25324 H 4408.95 -4.68207 3.53221 0
M  V30 25325 H 4409.64 0.0398818 -0.767965 0
M  V30 25326 H 4409.67 -2.50995 -3.13503 0
M  V30 25327 H 4409.77 -0.759148 -2.80716 0
M  V30 25328 P 4410.87 -8.91 1.88155e-10 0
M  V30 25329 O 4411.09 -10.1726 -0.733694 0
M  V30 25330 O 4411.66 -8.73148 1.23936 0
M  V30 25331 O 4411.12 -7.66872 -0.971405 0
M  V30 25332 C 4410.18 -7.42309 -2.04641 0
M  V30 25333 C 4410.91 -6.86059 -3.24661 0
M  V30 25334 O 4411.12 -5.42847 -3.03646 0
M  V30 25335 C 4412.31 -7.41196 -3.50753 0
M  V30 25336 O 4412.7 -7.27073 -4.86816 0
M  V30 25337 C 4413.19 -6.5273 -2.63741 0
M  V30 25338 C 4412.48 -5.1842 -2.73198 0
M  V30 25339 N 4412.53 -4.38762 -1.4784 0
M  V30 25340 H 4409.69 -8.36803 -2.32493 0
M  V30 25341 H 4409.42 -6.70197 -1.71129 0
M  V30 25342 H 4410.29 -7.03551 -4.13168 0
M  V30 25343 P 4414.25 -7.20834 -5.23717 0
M  V30 25344 O 4414.47 -7.80006 -6.57415 0
M  V30 25345 O 4415.04 -7.79416 -4.13051 0
M  V30 25346 O 4414.5 -5.63315 -5.29344 0
M  V30 25347 C 4413.56 -4.80318 -6.01954 0
M  V30 25348 C 4414.29 -3.64202 -6.65911 0
M  V30 25349 O 4414.5 -2.60736 -5.64823 0
M  V30 25350 C 4415.69 -3.93521 -7.19518 0
M  V30 25351 O 4416.08 -3.02071 -8.21205 0
M  V30 25352 C 4416.57 -3.73047 -5.97036 0
M  V30 25353 C 4415.86 -2.58828 -5.25741 0
M  V30 25354 N 4415.91 -2.68068 -3.77503 0
M  V30 25355 C 4415.83 -3.80474 -2.99159 0
M  V30 25356 N 4415.9 -3.55622 -1.71925 0
M  V30 25357 C 4416.05 -2.1832 -1.65733 0
M  V30 25358 C 4416.18 -1.28842 -0.572777 0
M  V30 25359 N 4416.19 -1.66875 0.70098 0
M  V30 25360 N 4416.3 0.016788 -0.859836 0
M  V30 25361 C 4416.29 0.398145 -2.13316 0
M  V30 25362 N 4416.17 -0.328224 -3.22333 0
M  V30 25363 C 4416.05 -1.62992 -2.90383 0
M  V30 25364 H 4413.08 -5.40394 -6.8003 0
M  V30 25365 H 4412.8 -4.41741 -5.32532 0
M  V30 25366 H 4413.67 -3.26371 -7.47889 0
M  V30 25367 H 4416.33 -1.64007 -5.56746 0
M  V30 25368 H 4416.61 -4.63439 -5.3432 0
M  V30 25369 H 4417.6 -3.44776 -6.25925 0
M  V30 25370 H 4415.76 -4.96707 -7.57347 0
M  V30 25371 H 4415.72 -4.8089 -3.39924 0
M  V30 25372 H 4416.1 -2.66547 0.941919 0
M  V30 25373 H 4416.29 -0.965341 1.44766 0
M  V30 25374 H 4416.4 1.46427 -2.29697 0
M  V30 25375 P 4417.63 -2.75334 -8.47391 0
M  V30 25376 O 4417.85 -2.44571 -9.90142 0
M  V30 25377 O 4418.42 -3.87688 -7.92115 0
M  V30 25378 O 4417.88 -1.4459 -7.59357 0
M  V30 25379 C 4416.94 -0.347608 -7.69215 0
M  V30 25380 C 4417.67 0.96767 -7.52806 0
M  V30 25381 O 4417.88 1.21036 -6.1011 0
M  V30 25382 C 4419.07 1.04544 -8.13308 0
M  V30 25383 O 4419.46 2.38311 -8.41922 0
M  V30 25384 C 4419.95 0.491279 -7.02284 0
M  V30 25385 C 4419.24 0.996264 -5.77469 0
M  V30 25386 N 4419.29 0.0501916 -4.62973 0
M  V30 25387 H 4416.45 -0.374722 -8.67691 0
M  V30 25388 H 4416.18 -0.443485 -6.90277 0
M  V30 25389 H 4417.05 1.75537 -7.96793 0
M  V30 25390 P 4421.01 2.75334 -8.47391 0
M  V30 25391 O 4421.23 3.84166 -9.4489 0
M  V30 25392 O 4421.8 1.51964 -8.6881 0
M  V30 25393 O 4421.26 3.29363 -6.99321 0
M  V30 25394 C 4420.32 4.23956 -6.42656 0
M  V30 25395 C 4421.05 5.20775 -5.52155 0
M  V30 25396 O 4421.26 4.56534 -4.22446 0
M  V30 25397 C 4422.45 5.62629 -5.96531 0
M  V30 25398 O 4422.84 6.87667 -5.41053 0
M  V30 25399 C 4423.33 4.52537 -5.39283 0
M  V30 25400 C 4422.62 4.20027 -4.08623 0
M  V30 25401 N 4422.67 2.7613 -3.71522 0
M  V30 25402 C 4422.82 2.45612 -2.37989 0
M  V30 25403 O 4422.91 3.30919 -1.51621 0
M  V30 25404 N 4422.86 1.10684 -2.08435 0
M  V30 25405 C 4422.77 0.0690084 -2.9792 0
M  V30 25406 O 4422.82 -1.10553 -2.59426 0
M  V30 25407 C 4422.62 0.481522 -4.35345 0
M  V30 25408 C 4422.51 -0.618778 -5.36443 0
M  V30 25409 C 4422.57 1.78906 -4.67968 0
M  V30 25410 H 4419.83 4.797 -7.24003 0
M  V30 25411 H 4419.56 3.69802 -5.84429 0
M  V30 25412 H 4420.43 6.10356 -5.41441 0
M  V30 25413 H 4423.09 4.78651 -3.27911 0
M  V30 25414 H 4423.37 3.64957 -6.05871 0
M  V30 25415 H 4424.36 4.8868 -5.2125 0
M  V30 25416 H 4422.52 5.66726 -7.06352 0
M  V30 25417 H 4422.45 2.07737 -5.72367 0
M  V30 25418 H 4423.48 -0.754375 -5.86871 0
M  V30 25419 H 4421.75 -0.359721 -6.10641 0
M  V30 25420 H 4422.23 -1.55533 -4.8581 0
M  V30 25421 H 4422.97 0.862651 -1.12037 0
M  V30 25422 P 4424.39 7.20834 -5.23717 0
M  V30 25423 O 4424.61 8.66104 -5.38572 0
M  V30 25424 O 4425.18 6.33544 -6.1349 0
M  V30 25425 O 4424.64 6.7751 -3.72168 0
M  V30 25426 C 4423.7 7.20825 -2.7076 0
M  V30 25427 C 4424.43 7.45864 -1.40599 0
M  V30 25428 O 4424.64 6.17651 -0.734225 0
M  V30 25429 C 4425.83 8.05808 -1.51899 0
M  V30 25430 O 4426.22 8.74358 -0.335205 0
M  V30 25431 C 4426.71 6.83093 -1.70294 0
M  V30 25432 C 4426 5.79992 -0.836974 0
M  V30 25433 N 4426.05 4.41864 -1.38293 0
M  V30 25434 C 4425.97 3.99538 -2.69438 0
M  V30 25435 N 4426.05 2.69909 -2.84277 0
M  V30 25436 C 4426.19 2.21719 -1.5408 0
M  V30 25437 C 4426.32 0.891712 -1.06628 0
M  V30 25438 N 4426.44 0.856846 0.334985 0
M  V30 25439 C 4426.44 1.9641 1.15789 0
M  V30 25440 N 4426.57 1.72708 2.46522 0
M  V30 25441 N 4426.31 3.21165 0.713741 0
M  V30 25442 C 4426.19 3.26797 -0.639748 0
M  V30 25443 H 4423.21 8.13644 -3.0377 0
M  V30 25444 H 4422.94 6.42788 -2.55485 0
M  V30 25445 H 4423.81 8.12039 -0.792769 0
M  V30 25446 P 4427.77 8.91 -1.89264e-10 0
M  V30 25447 O 4427.99 10.1726 0.733694 0
M  V30 25448 O 4428.56 8.73148 -1.23936 0
M  V30 25449 O 4428.02 7.66872 0.971405 0
M  V30 25450 C 4427.08 7.42309 2.04641 0
M  V30 25451 C 4427.81 6.86059 3.24661 0
M  V30 25452 O 4428.02 5.42847 3.03646 0
M  V30 25453 C 4429.21 7.41196 3.50753 0
M  V30 25454 O 4429.6 7.27073 4.86816 0
M  V30 25455 C 4430.09 6.5273 2.63741 0
M  V30 25456 C 4429.38 5.1842 2.73198 0
M  V30 25457 N 4429.43 4.38762 1.4784 0
M  V30 25458 C 4429.35 4.81605 0.168631 0
M  V30 25459 N 4429.43 3.85454 -0.713363 0
M  V30 25460 C 4429.57 2.6994 0.0566958 0
M  V30 25461 C 4429.7 1.34815 -0.338502 0
M  V30 25462 N 4429.82 0.496304 0.77465 0
M  V30 25463 C 4429.82 0.908403 2.09122 0
M  V30 25464 N 4429.95 -0.0517805 3.00955 0
M  V30 25465 N 4429.69 2.17875 2.46519 0
M  V30 25466 C 4429.57 3.01988 1.4033 0
M  V30 25467 H 4426.59 8.36803 2.32493 0
M  V30 25468 H 4426.32 6.70197 1.71129 0
M  V30 25469 H 4427.19 7.03551 4.13168 0
M  V30 25470 P 4431.15 7.20834 5.23717 0
M  V30 25471 O 4431.37 7.79853 6.57286 0
M  V30 25472 O 4431.94 7.79239 4.12957 0
M  V30 25473 O 4431.4 5.63315 5.29344 0
M  V30 25474 C 4430.46 4.80255 6.01876 0
M  V30 25475 C 4431.19 3.64202 6.65911 0
M  V30 25476 O 4431.4 2.60694 5.64732 0
M  V30 25477 C 4432.59 3.93473 7.1943 0
M  V30 25478 O 4432.98 3.02071 8.21205 0
M  V30 25479 C 4433.47 3.73047 5.97036 0
M  V30 25480 C 4432.76 2.58828 5.25741 0
M  V30 25481 N 4432.81 2.68068 3.77503 0
M  V30 25482 C 4432.73 3.79715 2.96723 0
M  V30 25483 N 4432.81 3.5377 1.68852 0
M  V30 25484 C 4432.95 2.15054 1.63254 0
M  V30 25485 C 4433.08 1.28964 0.518571 0
M  V30 25486 N 4433.2 -0.0538097 0.918425 0
M  V30 25487 C 4433.2 -0.494275 2.22578 0
M  V30 25488 N 4433.33 -1.81086 2.40434 0
M  V30 25489 N 4433.07 0.313645 3.27502 0
M  V30 25490 C 4432.95 1.61829 2.91033 0
M  V30 25491 H 4429.97 5.40332 6.79951 0
M  V30 25492 H 4429.7 4.41613 5.32378 0
M  V30 25493 H 4430.57 3.26331 7.47797 0
M  V30 25494 P 4434.53 2.75334 8.47391 0
M  V30 25495 O 4434.75 2.44619 9.90336 0
M  V30 25496 O 4435.32 3.87776 7.92294 0
M  V30 25497 O 4434.78 1.4459 7.59357 0
M  V30 25498 C 4433.84 0.347653 7.69315 0
M  V30 25499 C 4434.57 -0.96767 7.52806 0
M  V30 25500 O 4434.78 -1.21055 6.10208 0
M  V30 25501 C 4435.97 -1.04557 8.13408 0
M  V30 25502 O 4436.36 -2.38311 8.41922 0
M  V30 25503 C 4436.85 -0.491279 7.02284 0
M  V30 25504 C 4436.14 -0.996264 5.77469 0
M  V30 25505 N 4436.19 -0.0501916 4.62973 0
M  V30 25506 C 4436.11 1.31969 4.65661 0
M  V30 25507 N 4436.18 1.86649 3.48119 0
M  V30 25508 C 4436.33 0.792089 2.62406 0
M  V30 25509 C 4436.46 0.705684 1.2207 0
M  V30 25510 N 4436.47 1.76207 0.413762 0
M  V30 25511 N 4436.58 -0.518981 0.685754 0
M  V30 25512 C 4436.57 -1.57595 1.49174 0
M  V30 25513 N 4436.45 -1.62909 2.80066 0
M  V30 25514 C 4436.33 -0.388195 3.3073 0
M  V30 25515 H 4433.36 0.374765 8.67791 0
M  V30 25516 H 4433.08 0.443613 6.90476 0
M  V30 25517 H 4433.95 -1.75559 7.96891 0
M  V30 25518 H 4436.61 -1.94563 5.46818 0
M  V30 25519 H 4436.89 0.608651 7.04676 0
M  V30 25520 H 4437.88 -0.889796 7.09039 0
M  V30 25521 H 4436.04 -0.433128 9.04664 0
M  V30 25522 H 4436 1.89246 5.57664 0
M  V30 25523 H 4436.38 2.71005 0.804694 0
M  V30 25524 H 4436.57 1.63189 -0.603768 0
M  V30 25525 H 4436.68 -2.53475 0.997614 0
M  V30 25526 P 4437.91 -2.75334 8.47391 0
M  V30 25527 O 4438.13 -3.84128 9.44797 0
M  V30 25528 O 4438.7 -1.51947 8.68712 0
M  V30 25529 O 4438.16 -3.29363 6.99321 0
M  V30 25530 C 4437.22 -4.24011 6.4274 0
M  V30 25531 C 4437.95 -5.20775 5.52155 0
M  V30 25532 O 4438.16 -4.56534 4.22446 0
M  V30 25533 C 4439.35 -5.62629 5.96531 0
M  V30 25534 O 4439.74 -6.87667 5.41053 0
M  V30 25535 C 4440.23 -4.52537 5.39283 0
M  V30 25536 C 4439.52 -4.20027 4.08623 0
M  V30 25537 N 4439.57 -2.76189 3.71603 0
M  V30 25538 H 4436.73 -4.797 7.24003 0
M  V30 25539 H 4436.46 -3.69856 5.84513 0
M  V30 25540 H 4437.33 -6.10356 5.41441 0
M  V30 25541 P 4441.29 -7.20834 5.23717 0
M  V30 25542 O 4441.51 -8.66104 5.38572 0
M  V30 25543 O 4442.08 -6.33544 6.1349 0
M  V30 25544 O 4441.54 -6.7751 3.72168 0
M  V30 25545 C 4440.6 -7.20825 2.7076 0
M  V30 25546 C 4441.33 -7.45864 1.40599 0
M  V30 25547 O 4441.54 -6.17651 0.734225 0
M  V30 25548 C 4442.73 -8.05808 1.51899 0
M  V30 25549 O 4443.12 -8.74358 0.335205 0
M  V30 25550 C 4443.61 -6.83093 1.70294 0
M  V30 25551 C 4442.9 -5.79992 0.836974 0
M  V30 25552 N 4442.95 -4.41864 1.38293 0
M  V30 25553 H 4440.11 -8.13644 3.0377 0
M  V30 25554 H 4439.84 -6.42788 2.55485 0
M  V30 25555 H 4440.71 -8.12039 0.792769 0
M  V30 25556 P 4444.67 -8.91 1.90373e-10 0
M  V30 25557 O 4444.89 -10.1726 -0.733694 0
M  V30 25558 O 4445.46 -8.73148 1.23936 0
M  V30 25559 O 4444.92 -7.66872 -0.971405 0
M  V30 25560 C 4443.98 -7.42309 -2.04641 0
M  V30 25561 C 4444.71 -6.86059 -3.24661 0
M  V30 25562 O 4444.92 -5.42847 -3.03646 0
M  V30 25563 C 4446.11 -7.41196 -3.50753 0
M  V30 25564 O 4446.5 -7.27073 -4.86816 0
M  V30 25565 C 4446.99 -6.5273 -2.63741 0
M  V30 25566 C 4446.28 -5.1842 -2.73198 0
M  V30 25567 N 4446.33 -4.38762 -1.4784 0
M  V30 25568 H 4443.49 -8.36803 -2.32493 0
M  V30 25569 H 4443.22 -6.70197 -1.71129 0
M  V30 25570 H 4444.09 -7.03551 -4.13168 0
M  V30 25571 P 4448.05 -7.20834 -5.23717 0
M  V30 25572 O 4448.27 -7.80006 -6.57415 0
M  V30 25573 O 4448.84 -7.79416 -4.13051 0
M  V30 25574 O 4448.3 -5.63315 -5.29344 0
M  V30 25575 C 4447.36 -4.80318 -6.01954 0
M  V30 25576 C 4448.09 -3.64202 -6.65911 0
M  V30 25577 O 4448.3 -2.60736 -5.64823 0
M  V30 25578 C 4449.49 -3.93521 -7.19518 0
M  V30 25579 O 4449.88 -3.02071 -8.21205 0
M  V30 25580 C 4450.37 -3.73047 -5.97036 0
M  V30 25581 C 4449.66 -2.58828 -5.25741 0
M  V30 25582 N 4449.71 -2.68068 -3.77503 0
M  V30 25583 C 4449.63 -3.80474 -2.99159 0
M  V30 25584 N 4449.7 -3.55622 -1.71925 0
M  V30 25585 C 4449.85 -2.1832 -1.65733 0
M  V30 25586 C 4449.98 -1.28842 -0.572777 0
M  V30 25587 N 4449.99 -1.66875 0.70098 0
M  V30 25588 N 4450.1 0.016788 -0.859836 0
M  V30 25589 C 4450.09 0.398145 -2.13316 0
M  V30 25590 N 4449.97 -0.328224 -3.22333 0
M  V30 25591 C 4449.85 -1.62992 -2.90383 0
M  V30 25592 H 4446.88 -5.40394 -6.8003 0
M  V30 25593 H 4446.6 -4.41741 -5.32532 0
M  V30 25594 H 4447.47 -3.26371 -7.47889 0
M  V30 25595 H 4450.13 -1.64007 -5.56746 0
M  V30 25596 H 4450.41 -4.63439 -5.3432 0
M  V30 25597 H 4451.4 -3.44776 -6.25925 0
M  V30 25598 H 4449.56 -4.96707 -7.57347 0
M  V30 25599 H 4449.52 -4.8089 -3.39924 0
M  V30 25600 H 4449.9 -2.66547 0.941919 0
M  V30 25601 H 4450.09 -0.965341 1.44766 0
M  V30 25602 H 4450.2 1.46427 -2.29697 0
M  V30 25603 P 4451.43 -2.75334 -8.47391 0
M  V30 25604 O 4451.65 -2.44619 -9.90336 0
M  V30 25605 O 4452.22 -3.87776 -7.92294 0
M  V30 25606 O 4451.68 -1.4459 -7.59357 0
M  V30 25607 C 4450.74 -0.347653 -7.69315 0
M  V30 25608 C 4451.47 0.96767 -7.52806 0
M  V30 25609 O 4451.68 1.21055 -6.10208 0
M  V30 25610 C 4452.87 1.04557 -8.13408 0
M  V30 25611 O 4453.26 2.38311 -8.41922 0
M  V30 25612 C 4453.75 0.491279 -7.02284 0
M  V30 25613 C 4453.04 0.996264 -5.77469 0
M  V30 25614 N 4453.09 0.0501916 -4.62973 0
M  V30 25615 C 4453.01 -1.31969 -4.65661 0
M  V30 25616 N 4453.08 -1.86649 -3.48119 0
M  V30 25617 C 4453.23 -0.792089 -2.62406 0
M  V30 25618 C 4453.36 -0.705684 -1.2207 0
M  V30 25619 N 4453.37 -1.76207 -0.413762 0
M  V30 25620 N 4453.48 0.518981 -0.685754 0
M  V30 25621 C 4453.47 1.57595 -1.49174 0
M  V30 25622 N 4453.35 1.62909 -2.80066 0
M  V30 25623 C 4453.23 0.388195 -3.3073 0
M  V30 25624 H 4450.26 -0.374765 -8.67791 0
M  V30 25625 H 4449.98 -0.443613 -6.90476 0
M  V30 25626 H 4450.85 1.75559 -7.96891 0
M  V30 25627 H 4453.51 1.94563 -5.46818 0
M  V30 25628 H 4453.79 -0.608651 -7.04676 0
M  V30 25629 H 4454.78 0.889796 -7.09039 0
M  V30 25630 H 4452.94 0.433128 -9.04664 0
M  V30 25631 H 4452.9 -1.89246 -5.57664 0
M  V30 25632 H 4453.28 -2.71005 -0.804694 0
M  V30 25633 H 4453.47 -1.63189 0.603768 0
M  V30 25634 H 4453.58 2.53475 -0.997614 0
M  V30 25635 P 4454.81 2.75334 -8.47391 0
M  V30 25636 O 4455.03 3.84204 -9.44982 0
M  V30 25637 O 4455.6 1.51982 -8.68909 0
M  V30 25638 O 4455.06 3.29363 -6.99321 0
M  V30 25639 C 4454.12 4.24066 -6.42823 0
M  V30 25640 C 4454.85 5.20775 -5.52155 0
M  V30 25641 O 4455.06 4.56607 -4.22514 0
M  V30 25642 C 4456.25 5.62697 -5.96604 0
M  V30 25643 O 4456.64 6.87667 -5.41053 0
M  V30 25644 C 4457.13 4.52537 -5.39283 0
M  V30 25645 C 4456.42 4.20027 -4.08623 0
M  V30 25646 N 4456.47 2.76189 -3.71603 0
M  V30 25647 C 4456.39 1.66944 -4.54297 0
M  V30 25648 N 4456.46 0.536169 -3.91344 0
M  V30 25649 C 4456.61 0.901569 -2.58849 0
M  V30 25650 C 4456.74 0.146599 -1.40236 0
M  V30 25651 N 4456.75 -1.18234 -1.37046 0
M  V30 25652 N 4456.86 0.822941 -0.249738 0
M  V30 25653 C 4456.85 2.15179 -0.280525 0
M  V30 25654 N 4456.73 2.96414 -1.30822 0
M  V30 25655 C 4456.61 2.25804 -2.44748 0
M  V30 25656 H 4453.64 4.79756 -7.24086 0
M  V30 25657 H 4453.36 3.69963 -5.84682 0
M  V30 25658 H 4454.23 6.10431 -5.41508 0
M  V30 25659 H 4456.89 4.78816 -3.28024 0
M  V30 25660 H 4457.17 3.64957 -6.05871 0
M  V30 25661 H 4458.16 4.88748 -5.21323 0
M  V30 25662 H 4456.32 5.66789 -7.0643 0
M  V30 25663 H 4456.28 1.74684 -5.62396 0
M  V30 25664 H 4456.66 -1.71949 -2.24394 0
M  V30 25665 H 4456.85 -1.67511 -0.470742 0
M  V30 25666 H 4456.96 2.63704 0.6828 0
M  V30 25667 P 4458.19 7.20834 -5.23717 0
M  V30 25668 O 4458.41 8.66104 -5.38572 0
M  V30 25669 O 4458.98 6.33544 -6.1349 0
M  V30 25670 O 4458.44 6.7751 -3.72168 0
M  V30 25671 C 4457.5 7.20825 -2.7076 0
M  V30 25672 C 4458.23 7.45864 -1.40599 0
M  V30 25673 O 4458.44 6.17651 -0.734225 0
M  V30 25674 C 4459.63 8.05808 -1.51899 0
M  V30 25675 O 4460.02 8.74358 -0.335205 0
M  V30 25676 C 4460.51 6.83093 -1.70294 0
M  V30 25677 C 4459.8 5.79992 -0.836974 0
M  V30 25678 N 4459.85 4.41864 -1.38293 0
M  V30 25679 H 4457.01 8.13644 -3.0377 0
M  V30 25680 H 4456.74 6.42788 -2.55485 0
M  V30 25681 H 4457.61 8.12039 -0.792769 0
M  V30 25682 P 4461.57 8.91 -1.91482e-10 0
M  V30 25683 O 4461.79 10.1726 0.733694 0
M  V30 25684 O 4462.36 8.73148 -1.23936 0
M  V30 25685 O 4461.82 7.66872 0.971405 0
M  V30 25686 C 4460.88 7.42309 2.04641 0
M  V30 25687 C 4461.61 6.86059 3.24661 0
M  V30 25688 O 4461.82 5.42847 3.03646 0
M  V30 25689 C 4463.01 7.41196 3.50753 0
M  V30 25690 O 4463.4 7.27073 4.86816 0
M  V30 25691 C 4463.89 6.5273 2.63741 0
M  V30 25692 C 4463.18 5.1842 2.73198 0
M  V30 25693 N 4463.23 4.38762 1.4784 0
M  V30 25694 C 4463.15 4.81605 0.168631 0
M  V30 25695 N 4463.23 3.85454 -0.713363 0
M  V30 25696 C 4463.37 2.6994 0.0566958 0
M  V30 25697 C 4463.5 1.34815 -0.338502 0
M  V30 25698 O 4463.52 0.869548 -1.47125 0
M  V30 25699 N 4463.62 0.496304 0.77465 0
M  V30 25700 C 4463.62 0.908403 2.09122 0
M  V30 25701 N 4463.75 -0.0517805 3.00955 0
M  V30 25702 N 4463.49 2.17875 2.46519 0
M  V30 25703 C 4463.37 3.01988 1.4033 0
M  V30 25704 H 4460.39 8.36803 2.32493 0
M  V30 25705 H 4460.12 6.70197 1.71129 0
M  V30 25706 H 4460.99 7.03551 4.13168 0
M  V30 25707 H 4463.65 4.59498 3.54415 0
M  V30 25708 H 4463.93 6.88898 1.59848 0
M  V30 25709 H 4464.92 6.46749 3.03687 0
M  V30 25710 H 4463.08 8.46908 3.20714 0
M  V30 25711 H 4463.03 5.86405 -0.105564 0
M  V30 25712 H 4463.72 -0.483664 0.597855 0
M  V30 25713 H 4463.75 0.187865 4.0116 0
M  V30 25714 H 4463.85 -1.03585 2.71726 0
M  V30 25715 P 4464.95 7.20834 5.23717 0
M  V30 25716 O 4465.17 7.79853 6.57286 0
M  V30 25717 O 4465.74 7.79239 4.12957 0
M  V30 25718 O 4465.2 5.63315 5.29344 0
M  V30 25719 C 4464.26 4.80255 6.01876 0
M  V30 25720 C 4464.99 3.64202 6.65911 0
M  V30 25721 O 4465.2 2.60694 5.64732 0
M  V30 25722 C 4466.39 3.93473 7.1943 0
M  V30 25723 O 4466.78 3.02071 8.21205 0
M  V30 25724 C 4467.27 3.73047 5.97036 0
M  V30 25725 C 4466.56 2.58828 5.25741 0
M  V30 25726 N 4466.61 2.68068 3.77503 0
M  V30 25727 H 4463.77 5.40332 6.79951 0
M  V30 25728 H 4463.5 4.41613 5.32378 0
M  V30 25729 H 4464.37 3.26331 7.47797 0
M  V30 25730 P 4468.33 2.75334 8.47391 0
M  V30 25731 O 4468.55 2.44571 9.90142 0
M  V30 25732 O 4469.12 3.87688 7.92115 0
M  V30 25733 O 4468.58 1.4459 7.59357 0
M  V30 25734 C 4467.64 0.347608 7.69215 0
M  V30 25735 C 4468.37 -0.96767 7.52806 0
M  V30 25736 O 4468.58 -1.21036 6.1011 0
M  V30 25737 C 4469.77 -1.04544 8.13308 0
M  V30 25738 O 4470.16 -2.38311 8.41922 0
M  V30 25739 C 4470.65 -0.491279 7.02284 0
M  V30 25740 C 4469.94 -0.996264 5.77469 0
M  V30 25741 N 4469.99 -0.0501916 4.62973 0
M  V30 25742 H 4467.15 0.374722 8.67691 0
M  V30 25743 H 4466.88 0.443485 6.90277 0
M  V30 25744 H 4467.75 -1.75537 7.96793 0
M  V30 25745 P 4471.71 -2.75334 8.47391 0
M  V30 25746 O 4471.93 -3.84128 9.44797 0
M  V30 25747 O 4472.5 -1.51947 8.68712 0
M  V30 25748 O 4471.96 -3.29363 6.99321 0
M  V30 25749 C 4471.02 -4.24011 6.4274 0
M  V30 25750 C 4471.75 -5.20775 5.52155 0
M  V30 25751 O 4471.96 -4.56534 4.22446 0
M  V30 25752 C 4473.15 -5.62629 5.96531 0
M  V30 25753 O 4473.54 -6.87667 5.41053 0
M  V30 25754 C 4474.03 -4.52537 5.39283 0
M  V30 25755 C 4473.32 -4.20027 4.08623 0
M  V30 25756 N 4473.37 -2.76189 3.71603 0
M  V30 25757 H 4470.53 -4.797 7.24003 0
M  V30 25758 H 4470.26 -3.69856 5.84513 0
M  V30 25759 H 4471.13 -6.10356 5.41441 0
M  V30 25760 P 4475.09 -7.20834 5.23717 0
M  V30 25761 O 4475.31 -8.66104 5.38572 0
M  V30 25762 O 4475.88 -6.33544 6.1349 0
M  V30 25763 O 4475.34 -6.7751 3.72168 0
M  V30 25764 C 4474.4 -7.20825 2.7076 0
M  V30 25765 C 4475.13 -7.45864 1.40599 0
M  V30 25766 O 4475.34 -6.17651 0.734225 0
M  V30 25767 C 4476.53 -8.05808 1.51899 0
M  V30 25768 O 4476.92 -8.74358 0.335205 0
M  V30 25769 C 4477.41 -6.83093 1.70294 0
M  V30 25770 C 4476.7 -5.79992 0.836974 0
M  V30 25771 N 4476.75 -4.41864 1.38293 0
M  V30 25772 H 4473.91 -8.13644 3.0377 0
M  V30 25773 H 4473.64 -6.42788 2.55485 0
M  V30 25774 H 4474.51 -8.12039 0.792769 0
M  V30 25775 P 4478.47 -8.91 1.92591e-10 0
M  V30 25776 O 4478.69 -10.1726 -0.733694 0
M  V30 25777 O 4479.26 -8.73148 1.23936 0
M  V30 25778 O 4478.72 -7.66872 -0.971405 0
M  V30 25779 C 4477.78 -7.42309 -2.04641 0
M  V30 25780 C 4478.51 -6.86059 -3.24661 0
M  V30 25781 O 4478.72 -5.42847 -3.03646 0
M  V30 25782 C 4479.91 -7.41196 -3.50753 0
M  V30 25783 O 4480.3 -7.27073 -4.86816 0
M  V30 25784 C 4480.79 -6.5273 -2.63741 0
M  V30 25785 C 4480.08 -5.1842 -2.73198 0
M  V30 25786 N 4480.13 -4.38762 -1.4784 0
M  V30 25787 H 4477.29 -8.36803 -2.32493 0
M  V30 25788 H 4477.02 -6.70197 -1.71129 0
M  V30 25789 H 4477.89 -7.03551 -4.13168 0
M  V30 25790 P 4481.85 -7.20834 -5.23717 0
M  V30 25791 O 4482.07 -7.79853 -6.57286 0
M  V30 25792 O 4482.64 -7.79239 -4.12957 0
M  V30 25793 O 4482.1 -5.63315 -5.29344 0
M  V30 25794 C 4481.16 -4.80255 -6.01876 0
M  V30 25795 C 4481.89 -3.64202 -6.65911 0
M  V30 25796 O 4482.1 -2.60694 -5.64732 0
M  V30 25797 C 4483.29 -3.93473 -7.1943 0
M  V30 25798 O 4483.68 -3.02071 -8.21205 0
M  V30 25799 C 4484.17 -3.73047 -5.97036 0
M  V30 25800 C 4483.46 -2.58828 -5.25741 0
M  V30 25801 N 4483.51 -2.68068 -3.77503 0
M  V30 25802 H 4480.67 -5.40332 -6.79951 0
M  V30 25803 H 4480.4 -4.41613 -5.32378 0
M  V30 25804 H 4481.27 -3.26331 -7.47797 0
M  V30 25805 P 4485.23 -2.75334 -8.47391 0
M  V30 25806 O 4485.45 -2.44571 -9.90142 0
M  V30 25807 O 4486.02 -3.87688 -7.92115 0
M  V30 25808 O 4485.48 -1.4459 -7.59357 0
M  V30 25809 C 4484.54 -0.347608 -7.69215 0
M  V30 25810 C 4485.27 0.96767 -7.52806 0
M  V30 25811 O 4485.48 1.21036 -6.1011 0
M  V30 25812 C 4486.67 1.04544 -8.13308 0
M  V30 25813 O 4487.06 2.38311 -8.41922 0
M  V30 25814 C 4487.55 0.491279 -7.02284 0
M  V30 25815 C 4486.84 0.996264 -5.77469 0
M  V30 25816 N 4486.89 0.0501916 -4.62973 0
M  V30 25817 H 4484.05 -0.374722 -8.67691 0
M  V30 25818 H 4483.78 -0.443485 -6.90277 0
M  V30 25819 H 4484.65 1.75537 -7.96793 0
M  V30 25820 P 4488.61 2.75334 -8.47391 0
M  V30 25821 O 4488.83 3.84128 -9.44797 0
M  V30 25822 O 4489.4 1.51947 -8.68712 0
M  V30 25823 O 4488.86 3.29363 -6.99321 0
M  V30 25824 C 4487.92 4.24011 -6.4274 0
M  V30 25825 C 4488.65 5.20775 -5.52155 0
M  V30 25826 O 4488.86 4.56534 -4.22446 0
M  V30 25827 C 4490.05 5.62629 -5.96531 0
M  V30 25828 O 4490.44 6.87667 -5.41053 0
M  V30 25829 C 4490.93 4.52537 -5.39283 0
M  V30 25830 C 4490.22 4.20027 -4.08623 0
M  V30 25831 N 4490.27 2.76189 -3.71603 0
M  V30 25832 H 4487.43 4.797 -7.24003 0
M  V30 25833 H 4487.16 3.69856 -5.84513 0
M  V30 25834 H 4488.03 6.10356 -5.41441 0
M  V30 25835 P 4491.99 7.20834 -5.23717 0
M  V30 25836 O 4492.21 8.66104 -5.38572 0
M  V30 25837 O 4492.78 6.33544 -6.1349 0
M  V30 25838 O 4492.24 6.7751 -3.72168 0
M  V30 25839 C 4491.3 7.20825 -2.7076 0
M  V30 25840 C 4492.03 7.45864 -1.40599 0
M  V30 25841 O 4492.24 6.17651 -0.734225 0
M  V30 25842 C 4493.43 8.05808 -1.51899 0
M  V30 25843 O 4493.82 8.74358 -0.335205 0
M  V30 25844 C 4494.31 6.83093 -1.70294 0
M  V30 25845 C 4493.6 5.79992 -0.836974 0
M  V30 25846 N 4493.65 4.41864 -1.38293 0
M  V30 25847 H 4490.81 8.13644 -3.0377 0
M  V30 25848 H 4490.54 6.42788 -2.55485 0
M  V30 25849 H 4491.41 8.12039 -0.792769 0
M  V30 25850 P 4495.37 8.91 -1.937e-10 0
M  V30 25851 O 4495.59 10.1726 0.733694 0
M  V30 25852 O 4496.16 8.73148 -1.23936 0
M  V30 25853 O 4495.62 7.66872 0.971405 0
M  V30 25854 C 4494.68 7.42309 2.04641 0
M  V30 25855 C 4495.41 6.86059 3.24661 0
M  V30 25856 O 4495.62 5.42847 3.03646 0
M  V30 25857 C 4496.81 7.41196 3.50753 0
M  V30 25858 O 4497.2 7.27073 4.86816 0
M  V30 25859 C 4497.69 6.5273 2.63741 0
M  V30 25860 C 4496.98 5.1842 2.73198 0
M  V30 25861 N 4497.03 4.38762 1.4784 0
M  V30 25862 H 4494.19 8.36803 2.32493 0
M  V30 25863 H 4493.92 6.70197 1.71129 0
M  V30 25864 H 4494.79 7.03551 4.13168 0
M  V30 25865 P 4498.75 7.20834 5.23717 0
M  V30 25866 O 4498.97 7.80006 6.57415 0
M  V30 25867 O 4499.54 7.79416 4.13051 0
M  V30 25868 O 4499 5.63315 5.29344 0
M  V30 25869 C 4498.06 4.80318 6.01954 0
M  V30 25870 C 4498.79 3.64202 6.65911 0
M  V30 25871 O 4499 2.60736 5.64823 0
M  V30 25872 C 4500.19 3.93521 7.19518 0
M  V30 25873 O 4500.58 3.02071 8.21205 0
M  V30 25874 C 4501.07 3.73047 5.97036 0
M  V30 25875 C 4500.36 2.58828 5.25741 0
M  V30 25876 N 4500.41 2.68068 3.77503 0
M  V30 25877 H 4497.58 5.40394 6.8003 0
M  V30 25878 H 4497.3 4.41741 5.32532 0
M  V30 25879 H 4498.17 3.26371 7.47889 0
M  V30 25880 H 4500.83 1.64007 5.56746 0
M  V30 25881 H 4501.11 4.63439 5.3432 0
M  V30 25882 H 4502.1 3.44776 6.25925 0
M  V30 25883 H 4500.26 4.96707 7.57347 0
M  V30 25884 P 4502.13 2.75334 8.47391 0
M  V30 25885 O 4502.35 2.44571 9.90142 0
M  V30 25886 O 4502.92 3.87688 7.92115 0
M  V30 25887 O 4502.38 1.4459 7.59357 0
M  V30 25888 C 4501.44 0.347608 7.69215 0
M  V30 25889 C 4502.17 -0.96767 7.52806 0
M  V30 25890 O 4502.38 -1.21036 6.1011 0
M  V30 25891 C 4503.57 -1.04544 8.13308 0
M  V30 25892 O 4503.96 -2.38311 8.41922 0
M  V30 25893 C 4504.45 -0.491279 7.02284 0
M  V30 25894 C 4503.74 -0.996264 5.77469 0
M  V30 25895 N 4503.79 -0.0501916 4.62973 0
M  V30 25896 H 4500.95 0.374722 8.67691 0
M  V30 25897 H 4500.68 0.443485 6.90277 0
M  V30 25898 H 4501.55 -1.75537 7.96793 0
M  V30 25899 P 4505.51 -2.75334 8.47391 0
M  V30 25900 O 4505.73 -3.84128 9.44797 0
M  V30 25901 O 4506.3 -1.51947 8.68712 0
M  V30 25902 O 4505.76 -3.29363 6.99321 0
M  V30 25903 C 4504.82 -4.24011 6.4274 0
M  V30 25904 C 4505.55 -5.20775 5.52155 0
M  V30 25905 O 4505.76 -4.56534 4.22446 0
M  V30 25906 C 4506.95 -5.62629 5.96531 0
M  V30 25907 O 4507.34 -6.87667 5.41053 0
M  V30 25908 C 4507.83 -4.52537 5.39283 0
M  V30 25909 C 4507.12 -4.20027 4.08623 0
M  V30 25910 N 4507.17 -2.76189 3.71603 0
M  V30 25911 H 4504.33 -4.797 7.24003 0
M  V30 25912 H 4504.06 -3.69856 5.84513 0
M  V30 25913 H 4504.93 -6.10356 5.41441 0
M  V30 25914 P 4508.89 -7.20834 5.23717 0
M  V30 25915 O 4509.11 -8.66274 5.38678 0
M  V30 25916 O 4509.68 -6.33687 6.13629 0
M  V30 25917 O 4509.14 -6.7751 3.72168 0
M  V30 25918 C 4508.2 -7.20919 2.70795 0
M  V30 25919 C 4508.93 -7.45864 1.40599 0
M  V30 25920 O 4509.14 -6.17751 0.734343 0
M  V30 25921 C 4510.33 -8.05906 1.51917 0
M  V30 25922 O 4510.72 -8.74358 0.335205 0
M  V30 25923 C 4511.21 -6.83093 1.70294 0
M  V30 25924 C 4510.5 -5.79992 0.836974 0
M  V30 25925 N 4510.55 -4.41864 1.38293 0
M  V30 25926 C 4510.47 -4.02089 2.69407 0
M  V30 25927 N 4510.54 -2.73403 2.85089 0
M  V30 25928 C 4510.69 -2.25086 1.5642 0
M  V30 25929 C 4510.82 -0.942887 1.04836 0
M  V30 25930 N 4510.83 0.150999 1.80369 0
M  V30 25931 N 4510.94 -0.812565 -0.28167 0
M  V30 25932 C 4510.93 -1.90572 -1.03784 0
M  V30 25933 N 4510.81 -3.167 -0.683905 0
M  V30 25934 C 4510.69 -3.26538 0.652815 0
M  V30 25935 H 4507.72 -8.13738 3.03804 0
M  V30 25936 H 4507.44 -6.42974 2.55559 0
M  V30 25937 H 4508.31 -8.12139 0.792866 0
M  V30 25938 H 4510.97 -5.80178 -0.160643 0
M  V30 25939 H 4511.25 -6.51379 2.75643 0
M  V30 25940 H 4512.24 -7.01832 1.3448 0
M  V30 25941 H 4510.4 -8.73771 2.38364 0
M  V30 25942 H 4510.36 -4.7189 3.52311 0
M  V30 25943 H 4510.74 0.0721434 2.82608 0
M  V30 25944 H 4510.93 1.0785 1.36544 0
M  V30 25945 H 4511.04 -1.73207 -2.10241 0
M  V30 25946 P 4512.27 -8.91 1.94809e-10 0
M  V30 25947 O 4512.49 -10.1726 -0.733694 0
M  V30 25948 O 4513.06 -8.73148 1.23936 0
M  V30 25949 O 4512.52 -7.66872 -0.971405 0
M  V30 25950 C 4511.58 -7.42309 -2.04641 0
M  V30 25951 C 4512.31 -6.86059 -3.24661 0
M  V30 25952 O 4512.52 -5.42847 -3.03646 0
M  V30 25953 C 4513.71 -7.41196 -3.50753 0
M  V30 25954 O 4514.1 -7.27073 -4.86816 0
M  V30 25955 C 4514.59 -6.5273 -2.63741 0
M  V30 25956 C 4513.88 -5.1842 -2.73198 0
M  V30 25957 N 4513.93 -4.38762 -1.4784 0
M  V30 25958 H 4511.09 -8.36803 -2.32493 0
M  V30 25959 H 4510.82 -6.70197 -1.71129 0
M  V30 25960 H 4511.69 -7.03551 -4.13168 0
M  V30 25961 P 4515.65 -7.20834 -5.23717 0
M  V30 25962 O 4515.87 -7.79853 -6.57286 0
M  V30 25963 O 4516.44 -7.79239 -4.12957 0
M  V30 25964 O 4515.9 -5.63315 -5.29344 0
M  V30 25965 C 4514.96 -4.80255 -6.01876 0
M  V30 25966 C 4515.69 -3.64202 -6.65911 0
M  V30 25967 O 4515.9 -2.60694 -5.64732 0
M  V30 25968 C 4517.09 -3.93473 -7.1943 0
M  V30 25969 O 4517.48 -3.02071 -8.21205 0
M  V30 25970 C 4517.97 -3.73047 -5.97036 0
M  V30 25971 C 4517.26 -2.58828 -5.25741 0
M  V30 25972 N 4517.31 -2.68068 -3.77503 0
M  V30 25973 C 4517.23 -3.79715 -2.96723 0
M  V30 25974 N 4517.31 -3.5377 -1.68852 0
M  V30 25975 C 4517.45 -2.15054 -1.63254 0
M  V30 25976 C 4517.58 -1.28964 -0.518571 0
M  V30 25977 N 4517.7 0.0538097 -0.918425 0
M  V30 25978 C 4517.7 0.494275 -2.22578 0
M  V30 25979 N 4517.83 1.81086 -2.40434 0
M  V30 25980 N 4517.57 -0.313645 -3.27502 0
M  V30 25981 C 4517.45 -1.61829 -2.91033 0
M  V30 25982 H 4514.47 -5.40332 -6.79951 0
M  V30 25983 H 4514.2 -4.41613 -5.32378 0
M  V30 25984 H 4515.07 -3.26331 -7.47797 0
M  V30 25985 P 4519.03 -2.75334 -8.47391 0
M  V30 25986 O 4519.25 -2.44619 -9.90336 0
M  V30 25987 O 4519.82 -3.87776 -7.92294 0
M  V30 25988 O 4519.28 -1.4459 -7.59357 0
M  V30 25989 C 4518.34 -0.347653 -7.69315 0
M  V30 25990 C 4519.07 0.96767 -7.52806 0
M  V30 25991 O 4519.28 1.21055 -6.10208 0
M  V30 25992 C 4520.47 1.04557 -8.13408 0
M  V30 25993 O 4520.86 2.38311 -8.41922 0
M  V30 25994 C 4521.35 0.491279 -7.02284 0
M  V30 25995 C 4520.64 0.996264 -5.77469 0
M  V30 25996 N 4520.69 0.0501916 -4.62973 0
M  V30 25997 C 4520.61 -1.31969 -4.65661 0
M  V30 25998 N 4520.68 -1.86649 -3.48119 0
M  V30 25999 C 4520.83 -0.792089 -2.62406 0
M  V30 26000 C 4520.96 -0.705684 -1.2207 0
M  V30 26001 N 4520.97 -1.76207 -0.413762 0
M  V30 26002 N 4521.08 0.518981 -0.685754 0
M  V30 26003 C 4521.07 1.57595 -1.49174 0
M  V30 26004 N 4520.95 1.62909 -2.80066 0
M  V30 26005 C 4520.83 0.388195 -3.3073 0
M  V30 26006 H 4517.86 -0.374765 -8.67791 0
M  V30 26007 H 4517.58 -0.443613 -6.90476 0
M  V30 26008 H 4518.45 1.75559 -7.96891 0
M  V30 26009 H 4521.11 1.94563 -5.46818 0
M  V30 26010 H 4521.39 -0.608651 -7.04676 0
M  V30 26011 H 4522.38 0.889796 -7.09039 0
M  V30 26012 H 4520.54 0.433128 -9.04664 0
M  V30 26013 H 4520.5 -1.89246 -5.57664 0
M  V30 26014 H 4520.88 -2.71005 -0.804694 0
M  V30 26015 H 4521.07 -1.63189 0.603768 0
M  V30 26016 H 4521.18 2.53475 -0.997614 0
M  V30 26017 P 4522.41 2.75334 -8.47391 0
M  V30 26018 O 4522.63 3.84166 -9.4489 0
M  V30 26019 O 4523.2 1.51964 -8.6881 0
M  V30 26020 O 4522.66 3.29363 -6.99321 0
M  V30 26021 C 4521.72 4.24011 -6.4274 0
M  V30 26022 C 4522.45 5.20775 -5.52155 0
M  V30 26023 O 4522.66 4.56534 -4.22446 0
M  V30 26024 C 4523.85 5.62629 -5.96531 0
M  V30 26025 O 4524.24 6.87667 -5.41053 0
M  V30 26026 C 4524.73 4.52537 -5.39283 0
M  V30 26027 C 4524.02 4.20027 -4.08623 0
M  V30 26028 N 4524.07 2.7613 -3.71522 0
M  V30 26029 C 4524.22 2.43702 -2.37085 0
M  V30 26030 O 4524.31 3.3531 -1.54039 0
M  V30 26031 N 4524.27 0.951103 -2.10621 0
M  V30 26032 C 4524.17 0.165021 -2.93537 0
M  V30 26033 N 4524.22 -1.09723 -2.53253 0
M  V30 26034 C 4524.02 0.469576 -4.32458 0
M  V30 26035 C 4523.97 1.78658 -4.65921 0
M  V30 26036 H 4521.23 4.79645 -7.23919 0
M  V30 26037 H 4520.96 3.69802 -5.84429 0
M  V30 26038 H 4521.83 6.10431 -5.41508 0
M  V30 26039 H 4524.49 4.78733 -3.27967 0
M  V30 26040 H 4524.77 3.64957 -6.05871 0
M  V30 26041 H 4525.76 4.8868 -5.2125 0
M  V30 26042 H 4523.92 5.66726 -7.06352 0
M  V30 26043 H 4523.85 2.06987 -5.70299 0
M  V30 26044 H 4523.95 -0.314383 -5.07728 0
M  V30 26045 H 4524.34 -1.31363 -1.5319 0
M  V30 26046 H 4524.14 -1.85978 -3.21943 0
M  V30 26047 P 4525.79 7.20834 -5.23717 0
M  V30 26048 O 4526.01 8.66104 -5.38572 0
M  V30 26049 O 4526.58 6.33544 -6.1349 0
M  V30 26050 O 4526.04 6.7751 -3.72168 0
M  V30 26051 C 4525.1 7.20825 -2.7076 0
M  V30 26052 C 4525.83 7.45864 -1.40599 0
M  V30 26053 O 4526.04 6.17651 -0.734225 0
M  V30 26054 C 4527.23 8.05808 -1.51899 0
M  V30 26055 O 4527.62 8.74358 -0.335205 0
M  V30 26056 C 4528.11 6.83093 -1.70294 0
M  V30 26057 C 4527.4 5.79992 -0.836974 0
M  V30 26058 N 4527.45 4.41864 -1.38293 0
M  V30 26059 H 4524.61 8.13644 -3.0377 0
M  V30 26060 H 4524.34 6.42788 -2.55485 0
M  V30 26061 H 4525.21 8.12039 -0.792769 0
M  V30 26062 P 4529.17 8.91 -1.95918e-10 0
M  V30 26063 O 4529.39 10.1726 0.733694 0
M  V30 26064 O 4529.96 8.73148 -1.23936 0
M  V30 26065 O 4529.42 7.66872 0.971405 0
M  V30 26066 C 4528.48 7.42309 2.04641 0
M  V30 26067 C 4529.21 6.86059 3.24661 0
M  V30 26068 O 4529.42 5.42847 3.03646 0
M  V30 26069 C 4530.61 7.41196 3.50753 0
M  V30 26070 O 4531 7.27073 4.86816 0
M  V30 26071 C 4531.49 6.5273 2.63741 0
M  V30 26072 C 4530.78 5.1842 2.73198 0
M  V30 26073 N 4530.83 4.38762 1.4784 0
M  V30 26074 H 4527.99 8.36803 2.32493 0
M  V30 26075 H 4527.72 6.70197 1.71129 0
M  V30 26076 H 4528.59 7.03551 4.13168 0
M  V30 26077 P 4532.55 7.20834 5.23717 0
M  V30 26078 O 4532.77 7.79853 6.57286 0
M  V30 26079 O 4533.34 7.79239 4.12957 0
M  V30 26080 O 4532.8 5.63315 5.29344 0
M  V30 26081 C 4531.86 4.80255 6.01876 0
M  V30 26082 C 4532.59 3.64202 6.65911 0
M  V30 26083 O 4532.8 2.60694 5.64732 0
M  V30 26084 C 4533.99 3.93473 7.1943 0
M  V30 26085 O 4534.38 3.02071 8.21205 0
M  V30 26086 C 4534.87 3.73047 5.97036 0
M  V30 26087 C 4534.16 2.58828 5.25741 0
M  V30 26088 N 4534.21 2.68068 3.77503 0
M  V30 26089 H 4531.37 5.40332 6.79951 0
M  V30 26090 H 4531.1 4.41613 5.32378 0
M  V30 26091 H 4531.97 3.26331 7.47797 0
M  V30 26092 P 4535.93 2.75334 8.47391 0
M  V30 26093 O 4536.15 2.44571 9.90142 0
M  V30 26094 O 4536.72 3.87688 7.92115 0
M  V30 26095 O 4536.18 1.4459 7.59357 0
M  V30 26096 C 4535.24 0.347608 7.69215 0
M  V30 26097 C 4535.97 -0.96767 7.52806 0
M  V30 26098 O 4536.18 -1.21036 6.1011 0
M  V30 26099 C 4537.37 -1.04544 8.13308 0
M  V30 26100 O 4537.76 -2.38311 8.41922 0
M  V30 26101 C 4538.25 -0.491279 7.02284 0
M  V30 26102 C 4537.54 -0.996264 5.77469 0
M  V30 26103 N 4537.59 -0.0501916 4.62973 0
M  V30 26104 H 4534.75 0.374722 8.67691 0
M  V30 26105 H 4534.48 0.443485 6.90277 0
M  V30 26106 H 4535.35 -1.75537 7.96793 0
M  V30 26107 P 4539.31 -2.75334 8.47391 0
M  V30 26108 O 4539.53 -3.84128 9.44797 0
M  V30 26109 O 4540.1 -1.51947 8.68712 0
M  V30 26110 O 4539.56 -3.29363 6.99321 0
M  V30 26111 C 4538.62 -4.24011 6.4274 0
M  V30 26112 C 4539.35 -5.20775 5.52155 0
M  V30 26113 O 4539.56 -4.56534 4.22446 0
M  V30 26114 C 4540.75 -5.62629 5.96531 0
M  V30 26115 O 4541.14 -6.87667 5.41053 0
M  V30 26116 C 4541.63 -4.52537 5.39283 0
M  V30 26117 C 4540.92 -4.20027 4.08623 0
M  V30 26118 N 4540.97 -2.76189 3.71603 0
M  V30 26119 H 4538.13 -4.797 7.24003 0
M  V30 26120 H 4537.86 -3.69856 5.84513 0
M  V30 26121 H 4538.73 -6.10356 5.41441 0
M  V30 26122 P 4542.69 -7.20834 5.23717 0
M  V30 26123 O 4542.91 -8.66104 5.38572 0
M  V30 26124 O 4543.48 -6.33544 6.1349 0
M  V30 26125 O 4542.94 -6.7751 3.72168 0
M  V30 26126 C 4542 -7.20825 2.7076 0
M  V30 26127 C 4542.73 -7.45864 1.40599 0
M  V30 26128 O 4542.94 -6.17651 0.734225 0
M  V30 26129 C 4544.13 -8.05808 1.51899 0
M  V30 26130 O 4544.52 -8.74358 0.335205 0
M  V30 26131 C 4545.01 -6.83093 1.70294 0
M  V30 26132 C 4544.3 -5.79992 0.836974 0
M  V30 26133 N 4544.35 -4.41864 1.38293 0
M  V30 26134 H 4541.51 -8.13644 3.0377 0
M  V30 26135 H 4541.24 -6.42788 2.55485 0
M  V30 26136 H 4542.11 -8.12039 0.792769 0
M  V30 26137 P 4546.07 -8.91 1.97027e-10 0
M  V30 26138 O 4546.29 -10.1726 -0.733694 0
M  V30 26139 O 4546.86 -8.73148 1.23936 0
M  V30 26140 O 4546.32 -7.66872 -0.971405 0
M  V30 26141 C 4545.38 -7.42309 -2.04641 0
M  V30 26142 C 4546.11 -6.86059 -3.24661 0
M  V30 26143 O 4546.32 -5.42847 -3.03646 0
M  V30 26144 C 4547.51 -7.41196 -3.50753 0
M  V30 26145 O 4547.9 -7.27073 -4.86816 0
M  V30 26146 C 4548.39 -6.5273 -2.63741 0
M  V30 26147 C 4547.68 -5.1842 -2.73198 0
M  V30 26148 N 4547.73 -4.38762 -1.4784 0
M  V30 26149 H 4544.89 -8.36803 -2.32493 0
M  V30 26150 H 4544.62 -6.70197 -1.71129 0
M  V30 26151 H 4545.49 -7.03551 -4.13168 0
M  V30 26152 P 4549.45 -7.20834 -5.23717 0
M  V30 26153 O 4549.67 -7.79853 -6.57286 0
M  V30 26154 O 4550.24 -7.79239 -4.12957 0
M  V30 26155 O 4549.7 -5.63315 -5.29344 0
M  V30 26156 C 4548.76 -4.80255 -6.01876 0
M  V30 26157 C 4549.49 -3.64202 -6.65911 0
M  V30 26158 O 4549.7 -2.60694 -5.64732 0
M  V30 26159 C 4550.89 -3.93473 -7.1943 0
M  V30 26160 O 4551.28 -3.02071 -8.21205 0
M  V30 26161 C 4551.77 -3.73047 -5.97036 0
M  V30 26162 C 4551.06 -2.58828 -5.25741 0
M  V30 26163 N 4551.11 -2.68068 -3.77503 0
M  V30 26164 H 4548.27 -5.40332 -6.79951 0
M  V30 26165 H 4548 -4.41613 -5.32378 0
M  V30 26166 H 4548.87 -3.26331 -7.47797 0
M  V30 26167 P 4552.83 -2.75334 -8.47391 0
M  V30 26168 O 4553.05 -2.44571 -9.90142 0
M  V30 26169 O 4553.62 -3.87688 -7.92115 0
M  V30 26170 O 4553.08 -1.4459 -7.59357 0
M  V30 26171 C 4552.14 -0.347608 -7.69215 0
M  V30 26172 C 4552.87 0.96767 -7.52806 0
M  V30 26173 O 4553.08 1.21036 -6.1011 0
M  V30 26174 C 4554.27 1.04544 -8.13308 0
M  V30 26175 O 4554.66 2.38311 -8.41922 0
M  V30 26176 C 4555.15 0.491279 -7.02284 0
M  V30 26177 C 4554.44 0.996264 -5.77469 0
M  V30 26178 N 4554.49 0.0501916 -4.62973 0
M  V30 26179 H 4551.65 -0.374722 -8.67691 0
M  V30 26180 H 4551.38 -0.443485 -6.90277 0
M  V30 26181 H 4552.25 1.75537 -7.96793 0
M  V30 26182 P 4556.21 2.75334 -8.47391 0
M  V30 26183 O 4556.43 3.84128 -9.44797 0
M  V30 26184 O 4557 1.51947 -8.68712 0
M  V30 26185 O 4556.46 3.29363 -6.99321 0
M  V30 26186 C 4555.52 4.24011 -6.4274 0
M  V30 26187 C 4556.25 5.20775 -5.52155 0
M  V30 26188 O 4556.46 4.56534 -4.22446 0
M  V30 26189 C 4557.65 5.62629 -5.96531 0
M  V30 26190 O 4558.04 6.87667 -5.41053 0
M  V30 26191 C 4558.53 4.52537 -5.39283 0
M  V30 26192 C 4557.82 4.20027 -4.08623 0
M  V30 26193 N 4557.87 2.76189 -3.71603 0
M  V30 26194 H 4555.03 4.797 -7.24003 0
M  V30 26195 H 4554.76 3.69856 -5.84513 0
M  V30 26196 H 4555.63 6.10356 -5.41441 0
M  V30 26197 P 4559.59 7.20834 -5.23717 0
M  V30 26198 O 4559.81 8.66104 -5.38572 0
M  V30 26199 O 4560.38 6.33544 -6.1349 0
M  V30 26200 O 4559.84 6.7751 -3.72168 0
M  V30 26201 C 4558.9 7.20825 -2.7076 0
M  V30 26202 C 4559.63 7.45864 -1.40599 0
M  V30 26203 O 4559.84 6.17651 -0.734225 0
M  V30 26204 C 4561.03 8.05808 -1.51899 0
M  V30 26205 O 4561.42 8.74358 -0.335205 0
M  V30 26206 C 4561.91 6.83093 -1.70294 0
M  V30 26207 C 4561.2 5.79992 -0.836974 0
M  V30 26208 N 4561.25 4.41864 -1.38293 0
M  V30 26209 H 4558.41 8.13644 -3.0377 0
M  V30 26210 H 4558.14 6.42788 -2.55485 0
M  V30 26211 H 4559.01 8.12039 -0.792769 0
M  V30 26212 P 4562.97 8.91 -1.98136e-10 0
M  V30 26213 O 4563.19 10.1726 0.733694 0
M  V30 26214 O 4563.76 8.73148 -1.23936 0
M  V30 26215 O 4563.22 7.66872 0.971405 0
M  V30 26216 C 4562.28 7.42309 2.04641 0
M  V30 26217 C 4563.01 6.86059 3.24661 0
M  V30 26218 O 4563.22 5.42847 3.03646 0
M  V30 26219 C 4564.41 7.41196 3.50753 0
M  V30 26220 O 4564.8 7.27073 4.86816 0
M  V30 26221 C 4565.29 6.5273 2.63741 0
M  V30 26222 C 4564.58 5.1842 2.73198 0
M  V30 26223 N 4564.63 4.38762 1.4784 0
M  V30 26224 H 4561.79 8.36803 2.32493 0
M  V30 26225 H 4561.52 6.70197 1.71129 0
M  V30 26226 H 4562.39 7.03551 4.13168 0
M  V30 26227 P 4566.35 7.20834 5.23717 0
M  V30 26228 O 4566.57 7.79853 6.57286 0
M  V30 26229 O 4567.14 7.79239 4.12957 0
M  V30 26230 O 4566.6 5.63315 5.29344 0
M  V30 26231 C 4565.66 4.80255 6.01876 0
M  V30 26232 C 4566.39 3.64202 6.65911 0
M  V30 26233 O 4566.6 2.60694 5.64732 0
M  V30 26234 C 4567.79 3.93473 7.1943 0
M  V30 26235 O 4568.18 3.02071 8.21205 0
M  V30 26236 C 4568.67 3.73047 5.97036 0
M  V30 26237 C 4567.96 2.58828 5.25741 0
M  V30 26238 N 4568.01 2.68068 3.77503 0
M  V30 26239 H 4565.17 5.40332 6.79951 0
M  V30 26240 H 4564.9 4.41613 5.32378 0
M  V30 26241 H 4565.77 3.26331 7.47797 0
M  V30 26242 P 4569.73 2.75334 8.47391 0
M  V30 26243 O 4569.95 2.44571 9.90142 0
M  V30 26244 O 4570.52 3.87688 7.92115 0
M  V30 26245 O 4569.98 1.4459 7.59357 0
M  V30 26246 C 4569.04 0.347608 7.69215 0
M  V30 26247 C 4569.77 -0.96767 7.52806 0
M  V30 26248 O 4569.98 -1.21036 6.1011 0
M  V30 26249 C 4571.17 -1.04544 8.13308 0
M  V30 26250 O 4571.56 -2.38311 8.41922 0
M  V30 26251 C 4572.05 -0.491279 7.02284 0
M  V30 26252 C 4571.34 -0.996264 5.77469 0
M  V30 26253 N 4571.39 -0.0501916 4.62973 0
M  V30 26254 H 4568.55 0.374722 8.67691 0
M  V30 26255 H 4568.28 0.443485 6.90277 0
M  V30 26256 H 4569.15 -1.75537 7.96793 0
M  V30 26257 P 4573.11 -2.75334 8.47391 0
M  V30 26258 O 4573.33 -3.84128 9.44797 0
M  V30 26259 O 4573.9 -1.51947 8.68712 0
M  V30 26260 O 4573.36 -3.29363 6.99321 0
M  V30 26261 C 4572.42 -4.24011 6.4274 0
M  V30 26262 C 4573.15 -5.20775 5.52155 0
M  V30 26263 O 4573.36 -4.56534 4.22446 0
M  V30 26264 C 4574.55 -5.62629 5.96531 0
M  V30 26265 O 4574.94 -6.87667 5.41053 0
M  V30 26266 C 4575.43 -4.52537 5.39283 0
M  V30 26267 C 4574.72 -4.20027 4.08623 0
M  V30 26268 N 4574.77 -2.76189 3.71603 0
M  V30 26269 H 4571.93 -4.797 7.24003 0
M  V30 26270 H 4571.66 -3.69856 5.84513 0
M  V30 26271 H 4572.53 -6.10356 5.41441 0
M  V30 26272 P 4576.49 -7.20834 5.23717 0
M  V30 26273 O 4576.71 -8.66189 5.38625 0
M  V30 26274 O 4577.28 -6.33615 6.1356 0
M  V30 26275 O 4576.74 -6.7751 3.72168 0
M  V30 26276 C 4575.8 -7.20732 2.70725 0
M  V30 26277 C 4576.53 -7.45864 1.40599 0
M  V30 26278 O 4576.74 -6.17651 0.734225 0
M  V30 26279 C 4577.93 -8.05808 1.51899 0
M  V30 26280 O 4578.32 -8.74358 0.335205 0
M  V30 26281 C 4578.81 -6.83093 1.70294 0
M  V30 26282 C 4578.1 -5.79992 0.836974 0
M  V30 26283 N 4578.15 -4.41769 1.38263 0
M  V30 26284 C 4578.3 -3.38591 0.481702 0
M  V30 26285 O 4578.39 -3.56839 -0.718452 0
M  V30 26286 N 4578.34 -2.1206 1.03569 0
M  V30 26287 C 4578.25 -1.80696 2.36966 0
M  V30 26288 O 4578.3 -0.630473 2.74862 0
M  V30 26289 C 4578.1 -2.94845 3.23898 0
M  V30 26290 C 4577.99 -2.65253 4.70362 0
M  V30 26291 C 4578.05 -4.19803 2.73435 0
M  V30 26292 H 4575.31 -8.13644 3.0377 0
M  V30 26293 H 4575.04 -6.42695 2.55448 0
M  V30 26294 H 4575.91 -8.12039 0.792769 0
M  V30 26295 H 4578.57 -5.79978 -0.160587 0
M  V30 26296 H 4578.84 -6.51379 2.75643 0
M  V30 26297 H 4579.84 -7.01734 1.34462 0
M  V30 26298 H 4578 -8.73674 2.38337 0
M  V30 26299 H 4577.93 -5.04492 3.4095 0
M  V30 26300 H 4578.96 -2.83924 5.1913 0
M  V30 26301 H 4577.22 -3.29824 5.15163 0
M  V30 26302 H 4577.71 -1.59723 4.84449 0
M  V30 26303 H 4578.45 -1.35644 0.399345 0
M  V30 26304 P 4579.87 -8.91 1.99245e-10 0
M  V30 26305 O 4580.09 -10.1726 -0.733694 0
M  V30 26306 O 4580.66 -8.73148 1.23936 0
M  V30 26307 O 4580.12 -7.66872 -0.971405 0
M  V30 26308 C 4579.18 -7.42309 -2.04641 0
M  V30 26309 C 4579.91 -6.86059 -3.24661 0
M  V30 26310 O 4580.12 -5.42847 -3.03646 0
M  V30 26311 C 4581.31 -7.41196 -3.50753 0
M  V30 26312 O 4581.7 -7.27073 -4.86816 0
M  V30 26313 C 4582.19 -6.5273 -2.63741 0
M  V30 26314 C 4581.48 -5.1842 -2.73198 0
M  V30 26315 N 4581.53 -4.38762 -1.4784 0
M  V30 26316 C 4581.45 -4.81605 -0.168631 0
M  V30 26317 N 4581.53 -3.85454 0.713363 0
M  V30 26318 C 4581.67 -2.6994 -0.0566958 0
M  V30 26319 C 4581.8 -1.34815 0.338502 0
M  V30 26320 N 4581.92 -0.496304 -0.77465 0
M  V30 26321 C 4581.92 -0.908403 -2.09122 0
M  V30 26322 N 4582.05 0.0517805 -3.00955 0
M  V30 26323 N 4581.79 -2.17875 -2.46519 0
M  V30 26324 C 4581.67 -3.01988 -1.4033 0
M  V30 26325 H 4578.69 -8.36803 -2.32493 0
M  V30 26326 H 4578.42 -6.70197 -1.71129 0
M  V30 26327 H 4579.29 -7.03551 -4.13168 0
M  V30 26328 P 4583.25 -7.20834 -5.23717 0
M  V30 26329 O 4583.47 -7.79853 -6.57286 0
M  V30 26330 O 4584.04 -7.79239 -4.12957 0
M  V30 26331 O 4583.5 -5.63315 -5.29344 0
M  V30 26332 C 4582.56 -4.80255 -6.01876 0
M  V30 26333 C 4583.29 -3.64202 -6.65911 0
M  V30 26334 O 4583.5 -2.60694 -5.64732 0
M  V30 26335 C 4584.69 -3.93473 -7.1943 0
M  V30 26336 O 4585.08 -3.02071 -8.21205 0
M  V30 26337 C 4585.57 -3.73047 -5.97036 0
M  V30 26338 C 4584.86 -2.58828 -5.25741 0
M  V30 26339 N 4584.91 -2.68068 -3.77503 0
M  V30 26340 H 4582.07 -5.40332 -6.79951 0
M  V30 26341 H 4581.8 -4.41613 -5.32378 0
M  V30 26342 H 4582.67 -3.26331 -7.47797 0
M  V30 26343 P 4586.63 -2.75334 -8.47391 0
M  V30 26344 O 4586.85 -2.44571 -9.90142 0
M  V30 26345 O 4587.42 -3.87688 -7.92115 0
M  V30 26346 O 4586.88 -1.4459 -7.59357 0
M  V30 26347 C 4585.94 -0.347608 -7.69215 0
M  V30 26348 C 4586.67 0.96767 -7.52806 0
M  V30 26349 O 4586.88 1.21036 -6.1011 0
M  V30 26350 C 4588.07 1.04544 -8.13308 0
M  V30 26351 O 4588.46 2.38311 -8.41922 0
M  V30 26352 C 4588.95 0.491279 -7.02284 0
M  V30 26353 C 4588.24 0.996264 -5.77469 0
M  V30 26354 N 4588.29 0.0501916 -4.62973 0
M  V30 26355 H 4585.45 -0.374722 -8.67691 0
M  V30 26356 H 4585.18 -0.443485 -6.90277 0
M  V30 26357 H 4586.05 1.75537 -7.96793 0
M  V30 26358 P 4590.01 2.75334 -8.47391 0
M  V30 26359 O 4590.23 3.84128 -9.44797 0
M  V30 26360 O 4590.8 1.51947 -8.68712 0
M  V30 26361 O 4590.26 3.29363 -6.99321 0
M  V30 26362 C 4589.32 4.24011 -6.4274 0
M  V30 26363 C 4590.05 5.20775 -5.52155 0
M  V30 26364 O 4590.26 4.56534 -4.22446 0
M  V30 26365 C 4591.45 5.62629 -5.96531 0
M  V30 26366 O 4591.84 6.87667 -5.41053 0
M  V30 26367 C 4592.33 4.52537 -5.39283 0
M  V30 26368 C 4591.62 4.20027 -4.08623 0
M  V30 26369 N 4591.67 2.76189 -3.71603 0
M  V30 26370 H 4588.83 4.797 -7.24003 0
M  V30 26371 H 4588.56 3.69856 -5.84513 0
M  V30 26372 H 4589.43 6.10356 -5.41441 0
M  V30 26373 P 4593.39 7.20834 -5.23717 0
M  V30 26374 O 4593.61 8.66104 -5.38572 0
M  V30 26375 O 4594.18 6.33544 -6.1349 0
M  V30 26376 O 4593.64 6.7751 -3.72168 0
M  V30 26377 C 4592.7 7.20825 -2.7076 0
M  V30 26378 C 4593.43 7.45864 -1.40599 0
M  V30 26379 O 4593.64 6.17651 -0.734225 0
M  V30 26380 C 4594.83 8.05808 -1.51899 0
M  V30 26381 O 4595.22 8.74358 -0.335205 0
M  V30 26382 C 4595.71 6.83093 -1.70294 0
M  V30 26383 C 4595 5.79992 -0.836974 0
M  V30 26384 N 4595.05 4.41864 -1.38293 0
M  V30 26385 C 4594.97 3.99538 -2.69438 0
M  V30 26386 N 4595.05 2.69909 -2.84277 0
M  V30 26387 C 4595.19 2.21719 -1.5408 0
M  V30 26388 C 4595.32 0.891712 -1.06628 0
M  V30 26389 O 4595.34 -0.161298 -1.70137 0
M  V30 26390 N 4595.44 0.856846 0.334985 0
M  V30 26391 C 4595.44 1.9641 1.15789 0
M  V30 26392 N 4595.57 1.72708 2.46522 0
M  V30 26393 N 4595.31 3.21165 0.713741 0
M  V30 26394 C 4595.19 3.26797 -0.639748 0
M  V30 26395 H 4592.21 8.13644 -3.0377 0
M  V30 26396 H 4591.94 6.42788 -2.55485 0
M  V30 26397 H 4592.81 8.12039 -0.792769 0
M  V30 26398 H 4595.47 5.80061 0.166416 0
M  V30 26399 H 4595.74 6.51287 -2.75604 0
M  V30 26400 H 4596.74 7.01734 -1.34462 0
M  V30 26401 H 4594.9 8.73674 -2.38337 0
M  V30 26402 H 4594.85 4.68207 -3.53221 0
M  V30 26403 H 4595.54 -0.0398818 0.767965 0
M  V30 26404 H 4595.57 2.50995 3.13503 0
M  V30 26405 H 4595.67 0.759148 2.80716 0
M  V30 26406 P 4596.77 8.91 -2.00354e-10 0
M  V30 26407 O 4596.99 10.1726 0.733694 0
M  V30 26408 O 4597.56 8.73148 -1.23936 0
M  V30 26409 O 4597.02 7.66872 0.971405 0
M  V30 26410 C 4596.08 7.42309 2.04641 0
M  V30 26411 C 4596.81 6.86059 3.24661 0
M  V30 26412 O 4597.02 5.42847 3.03646 0
M  V30 26413 C 4598.21 7.41196 3.50753 0
M  V30 26414 O 4598.6 7.27073 4.86816 0
M  V30 26415 C 4599.09 6.5273 2.63741 0
M  V30 26416 C 4598.38 5.1842 2.73198 0
M  V30 26417 N 4598.43 4.38762 1.4784 0
M  V30 26418 H 4595.59 8.36803 2.32493 0
M  V30 26419 H 4595.32 6.70197 1.71129 0
M  V30 26420 H 4596.19 7.03551 4.13168 0
M  V30 26421 P 4600.15 7.20834 5.23717 0
M  V30 26422 O 4600.37 7.79853 6.57286 0
M  V30 26423 O 4600.94 7.79239 4.12957 0
M  V30 26424 O 4600.4 5.63315 5.29344 0
M  V30 26425 C 4599.46 4.80255 6.01876 0
M  V30 26426 C 4600.19 3.64202 6.65911 0
M  V30 26427 O 4600.4 2.60694 5.64732 0
M  V30 26428 C 4601.59 3.93473 7.1943 0
M  V30 26429 O 4601.98 3.02071 8.21205 0
M  V30 26430 C 4602.47 3.73047 5.97036 0
M  V30 26431 C 4601.76 2.58828 5.25741 0
M  V30 26432 N 4601.81 2.68068 3.77503 0
M  V30 26433 H 4598.97 5.40332 6.79951 0
M  V30 26434 H 4598.7 4.41613 5.32378 0
M  V30 26435 H 4599.57 3.26331 7.47797 0
M  V30 26436 P 4603.53 2.75334 8.47391 0
M  V30 26437 O 4603.75 2.44571 9.90142 0
M  V30 26438 O 4604.32 3.87688 7.92115 0
M  V30 26439 O 4603.78 1.4459 7.59357 0
M  V30 26440 C 4602.84 0.347608 7.69215 0
M  V30 26441 C 4603.57 -0.96767 7.52806 0
M  V30 26442 O 4603.78 -1.21036 6.1011 0
M  V30 26443 C 4604.97 -1.04544 8.13308 0
M  V30 26444 O 4605.36 -2.38311 8.41922 0
M  V30 26445 C 4605.85 -0.491279 7.02284 0
M  V30 26446 C 4605.14 -0.996264 5.77469 0
M  V30 26447 N 4605.19 -0.0501916 4.62973 0
M  V30 26448 C 4605.11 1.32786 4.63244 0
M  V30 26449 N 4605.19 1.86957 3.44545 0
M  V30 26450 C 4605.33 0.780241 2.58481 0
M  V30 26451 C 4605.46 0.738536 1.17757 0
M  V30 26452 N 4605.58 -0.58337 0.711393 0
M  V30 26453 C 4605.58 -1.70816 1.51017 0
M  V30 26454 N 4605.71 -2.87826 0.880757 0
M  V30 26455 N 4605.45 -1.67126 2.8339 0
M  V30 26456 C 4605.33 -0.401421 3.30572 0
M  V30 26457 H 4602.35 0.374722 8.67691 0
M  V30 26458 H 4602.08 0.443485 6.90277 0
M  V30 26459 H 4602.95 -1.75537 7.96793 0
M  V30 26460 P 4606.91 -2.75334 8.47391 0
M  V30 26461 O 4607.13 -3.84166 9.4489 0
M  V30 26462 O 4607.7 -1.51964 8.6881 0
M  V30 26463 O 4607.16 -3.29363 6.99321 0
M  V30 26464 C 4606.22 -4.23956 6.42656 0
M  V30 26465 C 4606.95 -5.20775 5.52155 0
M  V30 26466 O 4607.16 -4.56534 4.22446 0
M  V30 26467 C 4608.35 -5.62629 5.96531 0
M  V30 26468 O 4608.74 -6.87667 5.41053 0
M  V30 26469 C 4609.23 -4.52537 5.39283 0
M  V30 26470 C 4608.52 -4.20027 4.08623 0
M  V30 26471 N 4608.57 -2.7613 3.71522 0
M  V30 26472 C 4608.72 -2.45612 2.37989 0
M  V30 26473 O 4608.81 -3.30919 1.51621 0
M  V30 26474 N 4608.76 -1.10684 2.08435 0
M  V30 26475 C 4608.67 -0.0690084 2.9792 0
M  V30 26476 O 4608.72 1.10553 2.59426 0
M  V30 26477 C 4608.52 -0.481522 4.35345 0
M  V30 26478 C 4608.41 0.618778 5.36443 0
M  V30 26479 C 4608.47 -1.78906 4.67968 0
M  V30 26480 H 4605.73 -4.797 7.24003 0
M  V30 26481 H 4605.46 -3.69802 5.84429 0
M  V30 26482 H 4606.33 -6.10356 5.41441 0
M  V30 26483 H 4608.99 -4.78651 3.27911 0
M  V30 26484 H 4609.26 -3.64957 6.05871 0
M  V30 26485 H 4610.26 -4.8868 5.2125 0
M  V30 26486 H 4608.42 -5.66726 7.06352 0
M  V30 26487 H 4608.35 -2.07737 5.72367 0
M  V30 26488 H 4609.38 0.754375 5.86871 0
M  V30 26489 H 4607.64 0.359721 6.10641 0
M  V30 26490 H 4608.13 1.55533 4.8581 0
M  V30 26491 H 4608.87 -0.862651 1.12037 0
M  V30 26492 P 4610.29 -7.20834 5.23717 0
M  V30 26493 O 4610.51 -8.66104 5.38572 0
M  V30 26494 O 4611.08 -6.33544 6.1349 0
M  V30 26495 O 4610.54 -6.7751 3.72168 0
M  V30 26496 C 4609.6 -7.20825 2.7076 0
M  V30 26497 C 4610.33 -7.45864 1.40599 0
M  V30 26498 O 4610.54 -6.17651 0.734225 0
M  V30 26499 C 4611.73 -8.05808 1.51899 0
M  V30 26500 O 4612.12 -8.74358 0.335205 0
M  V30 26501 C 4612.61 -6.83093 1.70294 0
M  V30 26502 C 4611.9 -5.79992 0.836974 0
M  V30 26503 N 4611.95 -4.41864 1.38293 0
M  V30 26504 H 4609.11 -8.13644 3.0377 0
M  V30 26505 H 4608.84 -6.42788 2.55485 0
M  V30 26506 H 4609.71 -8.12039 0.792769 0
M  V30 26507 P 4613.67 -8.91 2.01463e-10 0
M  V30 26508 O 4613.89 -10.1736 -0.733766 0
M  V30 26509 O 4614.46 -8.73247 1.2395 0
M  V30 26510 O 4613.92 -7.66872 -0.971405 0
M  V30 26511 C 4612.98 -7.42212 -2.04614 0
M  V30 26512 C 4613.71 -6.86059 -3.24661 0
M  V30 26513 O 4613.92 -5.42847 -3.03646 0
M  V30 26514 C 4615.11 -7.41196 -3.50753 0
M  V30 26515 O 4615.5 -7.27073 -4.86816 0
M  V30 26516 C 4615.99 -6.5273 -2.63741 0
M  V30 26517 C 4615.28 -5.1842 -2.73198 0
M  V30 26518 N 4615.33 -4.38668 -1.47808 0
M  V30 26519 C 4615.48 -3.02239 -1.60048 0
M  V30 26520 O 4615.57 -2.46459 -2.67869 0
M  V30 26521 N 4615.52 -2.32436 -0.408571 0
M  V30 26522 C 4615.43 -2.85471 0.854993 0
M  V30 26523 O 4615.48 -2.12566 1.8531 0
M  V30 26524 C 4615.28 -4.28918 0.887335 0
M  V30 26525 C 4615.17 -4.91066 2.24619 0
M  V30 26526 C 4615.23 -5.00349 -0.255399 0
M  V30 26527 H 4612.49 -8.36803 -2.32493 0
M  V30 26528 H 4612.22 -6.701 -1.71105 0
M  V30 26529 H 4613.09 -7.03551 -4.13168 0
M  V30 26530 H 4615.75 -4.59773 -3.53894 0
M  V30 26531 H 4616.02 -6.88995 -1.59871 0
M  V30 26532 H 4617.02 -6.46749 -3.03687 0
M  V30 26533 H 4615.18 -8.46908 -3.20714 0
M  V30 26534 H 4615.11 -6.08548 -0.206986 0
M  V30 26535 H 4616.14 -5.34836 2.53099 0
M  V30 26536 H 4614.4 -5.69638 2.2291 0
M  V30 26537 H 4614.89 -4.13971 2.98044 0
M  V30 26538 H 4615.63 -1.33211 -0.474216 0
M  V30 26539 P 4617.05 -7.20834 -5.23717 0
M  V30 26540 O 4617.27 -7.79853 -6.57286 0
M  V30 26541 O 4617.84 -7.79239 -4.12957 0
M  V30 26542 O 4617.3 -5.63315 -5.29344 0
M  V30 26543 C 4616.36 -4.80255 -6.01876 0
M  V30 26544 C 4617.09 -3.64202 -6.65911 0
M  V30 26545 O 4617.3 -2.60694 -5.64732 0
M  V30 26546 C 4618.49 -3.93473 -7.1943 0
M  V30 26547 O 4618.88 -3.02071 -8.21205 0
M  V30 26548 C 4619.37 -3.73047 -5.97036 0
M  V30 26549 C 4618.66 -2.58828 -5.25741 0
M  V30 26550 N 4618.71 -2.68068 -3.77503 0
M  V30 26551 H 4615.87 -5.40332 -6.79951 0
M  V30 26552 H 4615.6 -4.41613 -5.32378 0
M  V30 26553 H 4616.47 -3.26331 -7.47797 0
M  V30 26554 P 4620.43 -2.75334 -8.47391 0
M  V30 26555 O 4620.65 -2.44571 -9.90142 0
M  V30 26556 O 4621.22 -3.87688 -7.92115 0
M  V30 26557 O 4620.68 -1.4459 -7.59357 0
M  V30 26558 C 4619.74 -0.347608 -7.69215 0
M  V30 26559 C 4620.47 0.96767 -7.52806 0
M  V30 26560 O 4620.68 1.21036 -6.1011 0
M  V30 26561 C 4621.87 1.04544 -8.13308 0
M  V30 26562 O 4622.26 2.38311 -8.41922 0
M  V30 26563 C 4622.75 0.491279 -7.02284 0
M  V30 26564 C 4622.04 0.996264 -5.77469 0
M  V30 26565 N 4622.09 0.0501916 -4.62973 0
M  V30 26566 C 4622.01 -1.32786 -4.63244 0
M  V30 26567 N 4622.09 -1.86957 -3.44545 0
M  V30 26568 C 4622.23 -0.780241 -2.58481 0
M  V30 26569 C 4622.36 -0.738536 -1.17757 0
M  V30 26570 N 4622.48 0.58337 -0.711393 0
M  V30 26571 C 4622.48 1.70816 -1.51017 0
M  V30 26572 N 4622.61 2.87826 -0.880757 0
M  V30 26573 N 4622.35 1.67126 -2.8339 0
M  V30 26574 C 4622.23 0.401421 -3.30572 0
M  V30 26575 H 4619.25 -0.374722 -8.67691 0
M  V30 26576 H 4618.98 -0.443485 -6.90277 0
M  V30 26577 H 4619.85 1.75537 -7.96793 0
M  V30 26578 P 4623.81 2.75334 -8.47391 0
M  V30 26579 O 4624.03 3.84128 -9.44797 0
M  V30 26580 O 4624.6 1.51947 -8.68712 0
M  V30 26581 O 4624.06 3.29363 -6.99321 0
M  V30 26582 C 4623.12 4.24011 -6.4274 0
M  V30 26583 C 4623.85 5.20775 -5.52155 0
M  V30 26584 O 4624.06 4.56534 -4.22446 0
M  V30 26585 C 4625.25 5.62629 -5.96531 0
M  V30 26586 O 4625.64 6.87667 -5.41053 0
M  V30 26587 C 4626.13 4.52537 -5.39283 0
M  V30 26588 C 4625.42 4.20027 -4.08623 0
M  V30 26589 N 4625.47 2.76189 -3.71603 0
M  V30 26590 H 4622.63 4.797 -7.24003 0
M  V30 26591 H 4622.36 3.69856 -5.84513 0
M  V30 26592 H 4623.23 6.10356 -5.41441 0
M  V30 26593 P 4627.19 7.20834 -5.23717 0
M  V30 26594 O 4627.41 8.66189 -5.38625 0
M  V30 26595 O 4627.98 6.33615 -6.1356 0
M  V30 26596 O 4627.44 6.7751 -3.72168 0
M  V30 26597 C 4626.5 7.20732 -2.70725 0
M  V30 26598 C 4627.23 7.45864 -1.40599 0
M  V30 26599 O 4627.44 6.17651 -0.734225 0
M  V30 26600 C 4628.63 8.05808 -1.51899 0
M  V30 26601 O 4629.02 8.74358 -0.335205 0
M  V30 26602 C 4629.51 6.83093 -1.70294 0
M  V30 26603 C 4628.8 5.79992 -0.836974 0
M  V30 26604 N 4628.85 4.41769 -1.38263 0
M  V30 26605 C 4629 3.38591 -0.481702 0
M  V30 26606 O 4629.09 3.56839 0.718452 0
M  V30 26607 N 4629.04 2.1206 -1.03569 0
M  V30 26608 C 4628.95 1.80696 -2.36966 0
M  V30 26609 O 4629 0.630473 -2.74862 0
M  V30 26610 C 4628.8 2.94845 -3.23898 0
M  V30 26611 C 4628.69 2.65253 -4.70362 0
M  V30 26612 C 4628.75 4.19803 -2.73435 0
M  V30 26613 H 4626.01 8.13644 -3.0377 0
M  V30 26614 H 4625.74 6.42695 -2.55448 0
M  V30 26615 H 4626.61 8.12039 -0.792769 0
M  V30 26616 H 4629.27 5.79978 0.160587 0
M  V30 26617 H 4629.54 6.51379 -2.75643 0
M  V30 26618 H 4630.54 7.01734 -1.34462 0
M  V30 26619 H 4628.7 8.73674 -2.38337 0
M  V30 26620 H 4628.63 5.04492 -3.4095 0
M  V30 26621 H 4629.66 2.83924 -5.1913 0
M  V30 26622 H 4627.92 3.29824 -5.15163 0
M  V30 26623 H 4628.41 1.59723 -4.84449 0
M  V30 26624 H 4629.15 1.35644 -0.399345 0
M  V30 26625 P 4630.57 8.91 -2.02572e-10 0
M  V30 26626 O 4630.79 10.1746 0.733838 0
M  V30 26627 O 4631.36 8.73346 -1.23964 0
M  V30 26628 O 4630.82 7.66872 0.971405 0
M  V30 26629 C 4629.88 7.42405 2.04668 0
M  V30 26630 C 4630.61 6.86059 3.24661 0
M  V30 26631 O 4630.82 5.42934 3.03695 0
M  V30 26632 C 4632.01 7.41287 3.50796 0
M  V30 26633 O 4632.4 7.27073 4.86816 0
M  V30 26634 C 4632.89 6.5273 2.63741 0
M  V30 26635 C 4632.18 5.1842 2.73198 0
M  V30 26636 N 4632.23 4.38762 1.4784 0
M  V30 26637 H 4629.39 8.36899 2.3252 0
M  V30 26638 H 4629.12 6.70391 1.71179 0
M  V30 26639 H 4629.99 7.03638 4.13219 0
M  V30 26640 H 4632.65 4.59931 3.54016 0
M  V30 26641 H 4632.93 6.88995 1.59871 0
M  V30 26642 H 4633.92 6.4684 3.0373 0
M  V30 26643 H 4632.08 8.47002 3.20749 0
M  V30 26644 P 4633.95 7.20834 5.23717 0
M  V30 26645 O 4634.17 7.79853 6.57286 0
M  V30 26646 O 4634.74 7.79239 4.12957 0
M  V30 26647 O 4634.2 5.63315 5.29344 0
M  V30 26648 C 4633.26 4.80255 6.01876 0
M  V30 26649 C 4633.99 3.64202 6.65911 0
M  V30 26650 O 4634.2 2.60694 5.64732 0
M  V30 26651 C 4635.39 3.93473 7.1943 0
M  V30 26652 O 4635.78 3.02071 8.21205 0
M  V30 26653 C 4636.27 3.73047 5.97036 0
M  V30 26654 C 4635.56 2.58828 5.25741 0
M  V30 26655 N 4635.61 2.68068 3.77503 0
M  V30 26656 H 4632.77 5.40332 6.79951 0
M  V30 26657 H 4632.5 4.41613 5.32378 0
M  V30 26658 H 4633.37 3.26331 7.47797 0
M  V30 26659 P 4637.33 2.75334 8.47391 0
M  V30 26660 O 4637.55 2.44571 9.90142 0
M  V30 26661 O 4638.12 3.87688 7.92115 0
M  V30 26662 O 4637.58 1.4459 7.59357 0
M  V30 26663 C 4636.64 0.347608 7.69215 0
M  V30 26664 C 4637.37 -0.96767 7.52806 0
M  V30 26665 O 4637.58 -1.21036 6.1011 0
M  V30 26666 C 4638.77 -1.04544 8.13308 0
M  V30 26667 O 4639.16 -2.38311 8.41922 0
M  V30 26668 C 4639.65 -0.491279 7.02284 0
M  V30 26669 C 4638.94 -0.996264 5.77469 0
M  V30 26670 N 4638.99 -0.0501916 4.62973 0
M  V30 26671 H 4636.15 0.374722 8.67691 0
M  V30 26672 H 4635.88 0.443485 6.90277 0
M  V30 26673 H 4636.75 -1.75537 7.96793 0
M  V30 26674 P 4640.71 -2.75334 8.47391 0
M  V30 26675 O 4640.93 -3.84128 9.44797 0
M  V30 26676 O 4641.5 -1.51947 8.68712 0
M  V30 26677 O 4640.96 -3.29363 6.99321 0
M  V30 26678 C 4640.02 -4.24011 6.4274 0
M  V30 26679 C 4640.75 -5.20775 5.52155 0
M  V30 26680 O 4640.96 -4.56534 4.22446 0
M  V30 26681 C 4642.15 -5.62629 5.96531 0
M  V30 26682 O 4642.54 -6.87667 5.41053 0
M  V30 26683 C 4643.03 -4.52537 5.39283 0
M  V30 26684 C 4642.32 -4.20027 4.08623 0
M  V30 26685 N 4642.37 -2.76189 3.71603 0
M  V30 26686 H 4639.53 -4.797 7.24003 0
M  V30 26687 H 4639.26 -3.69856 5.84513 0
M  V30 26688 H 4640.13 -6.10356 5.41441 0
M  V30 26689 P 4644.09 -7.20834 5.23717 0
M  V30 26690 O 4644.31 -8.66104 5.38572 0
M  V30 26691 O 4644.88 -6.33544 6.1349 0
M  V30 26692 O 4644.34 -6.7751 3.72168 0
M  V30 26693 C 4643.4 -7.20825 2.7076 0
M  V30 26694 C 4644.13 -7.45864 1.40599 0
M  V30 26695 O 4644.34 -6.17651 0.734225 0
M  V30 26696 C 4645.53 -8.05808 1.51899 0
M  V30 26697 O 4645.92 -8.74358 0.335205 0
M  V30 26698 C 4646.41 -6.83093 1.70294 0
M  V30 26699 C 4645.7 -5.79992 0.836974 0
M  V30 26700 N 4645.75 -4.41864 1.38293 0
M  V30 26701 H 4642.91 -8.13644 3.0377 0
M  V30 26702 H 4642.64 -6.42788 2.55485 0
M  V30 26703 H 4643.51 -8.12039 0.792769 0
M  V30 26704 P 4647.47 -8.91 2.03681e-10 0
M  V30 26705 O 4647.69 -10.1726 -0.733694 0
M  V30 26706 O 4648.26 -8.73148 1.23936 0
M  V30 26707 O 4647.72 -7.66872 -0.971405 0
M  V30 26708 C 4646.78 -7.42309 -2.04641 0
M  V30 26709 C 4647.51 -6.86059 -3.24661 0
M  V30 26710 O 4647.72 -5.42847 -3.03646 0
M  V30 26711 C 4648.91 -7.41196 -3.50753 0
M  V30 26712 O 4649.3 -7.27073 -4.86816 0
M  V30 26713 C 4649.79 -6.5273 -2.63741 0
M  V30 26714 C 4649.08 -5.1842 -2.73198 0
M  V30 26715 N 4649.13 -4.38762 -1.4784 0
M  V30 26716 H 4646.29 -8.36803 -2.32493 0
M  V30 26717 H 4646.02 -6.70197 -1.71129 0
M  V30 26718 H 4646.89 -7.03551 -4.13168 0
M  V30 26719 P 4650.85 -7.20834 -5.23717 0
M  V30 26720 O 4651.07 -7.79853 -6.57286 0
M  V30 26721 O 4651.64 -7.79239 -4.12957 0
M  V30 26722 O 4651.1 -5.63315 -5.29344 0
M  V30 26723 C 4650.16 -4.80255 -6.01876 0
M  V30 26724 C 4650.89 -3.64202 -6.65911 0
M  V30 26725 O 4651.1 -2.60694 -5.64732 0
M  V30 26726 C 4652.29 -3.93473 -7.1943 0
M  V30 26727 O 4652.68 -3.02071 -8.21205 0
M  V30 26728 C 4653.17 -3.73047 -5.97036 0
M  V30 26729 C 4652.46 -2.58828 -5.25741 0
M  V30 26730 N 4652.51 -2.68068 -3.77503 0
M  V30 26731 H 4649.67 -5.40332 -6.79951 0
M  V30 26732 H 4649.4 -4.41613 -5.32378 0
M  V30 26733 H 4650.27 -3.26331 -7.47797 0
M  V30 26734 P 4654.23 -2.75334 -8.47391 0
M  V30 26735 O 4654.45 -2.44571 -9.90142 0
M  V30 26736 O 4655.02 -3.87688 -7.92115 0
M  V30 26737 O 4654.48 -1.4459 -7.59357 0
M  V30 26738 C 4653.54 -0.347608 -7.69215 0
M  V30 26739 C 4654.27 0.96767 -7.52806 0
M  V30 26740 O 4654.48 1.21036 -6.1011 0
M  V30 26741 C 4655.67 1.04544 -8.13308 0
M  V30 26742 O 4656.06 2.38311 -8.41922 0
M  V30 26743 C 4656.55 0.491279 -7.02284 0
M  V30 26744 C 4655.84 0.996264 -5.77469 0
M  V30 26745 N 4655.89 0.0501916 -4.62973 0
M  V30 26746 C 4655.81 -1.32786 -4.63244 0
M  V30 26747 N 4655.89 -1.86957 -3.44545 0
M  V30 26748 C 4656.03 -0.780241 -2.58481 0
M  V30 26749 C 4656.16 -0.738536 -1.17757 0
M  V30 26750 N 4656.28 0.58337 -0.711393 0
M  V30 26751 C 4656.28 1.70816 -1.51017 0
M  V30 26752 N 4656.41 2.87826 -0.880757 0
M  V30 26753 N 4656.15 1.67126 -2.8339 0
M  V30 26754 C 4656.03 0.401421 -3.30572 0
M  V30 26755 H 4653.05 -0.374722 -8.67691 0
M  V30 26756 H 4652.78 -0.443485 -6.90277 0
M  V30 26757 H 4653.65 1.75537 -7.96793 0
M  V30 26758 P 4657.61 2.75334 -8.47391 0
M  V30 26759 O 4657.83 3.84128 -9.44797 0
M  V30 26760 O 4658.4 1.51947 -8.68712 0
M  V30 26761 O 4657.86 3.29363 -6.99321 0
M  V30 26762 C 4656.92 4.24011 -6.4274 0
M  V30 26763 C 4657.65 5.20775 -5.52155 0
M  V30 26764 O 4657.86 4.56534 -4.22446 0
M  V30 26765 C 4659.05 5.62629 -5.96531 0
M  V30 26766 O 4659.44 6.87667 -5.41053 0
M  V30 26767 C 4659.93 4.52537 -5.39283 0
M  V30 26768 C 4659.22 4.20027 -4.08623 0
M  V30 26769 N 4659.27 2.76189 -3.71603 0
M  V30 26770 H 4656.43 4.797 -7.24003 0
M  V30 26771 H 4656.16 3.69856 -5.84513 0
M  V30 26772 H 4657.03 6.10356 -5.41441 0
M  V30 26773 P 4660.99 7.20834 -5.23717 0
M  V30 26774 O 4661.21 8.66104 -5.38572 0
M  V30 26775 O 4661.78 6.33544 -6.1349 0
M  V30 26776 O 4661.24 6.7751 -3.72168 0
M  V30 26777 C 4660.3 7.20825 -2.7076 0
M  V30 26778 C 4661.03 7.45864 -1.40599 0
M  V30 26779 O 4661.24 6.17651 -0.734225 0
M  V30 26780 C 4662.43 8.05808 -1.51899 0
M  V30 26781 O 4662.82 8.74358 -0.335205 0
M  V30 26782 C 4663.31 6.83093 -1.70294 0
M  V30 26783 C 4662.6 5.79992 -0.836974 0
M  V30 26784 N 4662.65 4.41864 -1.38293 0
M  V30 26785 C 4662.57 3.99538 -2.69438 0
M  V30 26786 N 4662.65 2.69909 -2.84277 0
M  V30 26787 C 4662.79 2.21719 -1.5408 0
M  V30 26788 C 4662.92 0.891712 -1.06628 0
M  V30 26789 O 4662.94 -0.161298 -1.70137 0
M  V30 26790 N 4663.04 0.856846 0.334985 0
M  V30 26791 C 4663.04 1.9641 1.15789 0
M  V30 26792 N 4663.17 1.72708 2.46522 0
M  V30 26793 N 4662.91 3.21165 0.713741 0
M  V30 26794 C 4662.79 3.26797 -0.639748 0
M  V30 26795 H 4659.81 8.13644 -3.0377 0
M  V30 26796 H 4659.54 6.42788 -2.55485 0
M  V30 26797 H 4660.41 8.12039 -0.792769 0
M  V30 26798 H 4663.07 5.80061 0.166416 0
M  V30 26799 H 4663.34 6.51287 -2.75604 0
M  V30 26800 H 4664.34 7.01734 -1.34462 0
M  V30 26801 H 4662.5 8.73674 -2.38337 0
M  V30 26802 H 4662.45 4.68207 -3.53221 0
M  V30 26803 H 4663.14 -0.0398818 0.767965 0
M  V30 26804 H 4663.17 2.50995 3.13503 0
M  V30 26805 H 4663.27 0.759148 2.80716 0
M  V30 26806 P 4664.37 8.91 -2.0479e-10 0
M  V30 26807 O 4664.59 10.1746 0.733838 0
M  V30 26808 O 4665.16 8.73346 -1.23964 0
M  V30 26809 O 4664.62 7.66872 0.971405 0
M  V30 26810 C 4663.68 7.42405 2.04668 0
M  V30 26811 C 4664.41 6.86059 3.24661 0
M  V30 26812 O 4664.62 5.42934 3.03695 0
M  V30 26813 C 4665.81 7.41287 3.50796 0
M  V30 26814 O 4666.2 7.27073 4.86816 0
M  V30 26815 C 4666.69 6.5273 2.63741 0
M  V30 26816 C 4665.98 5.1842 2.73198 0
M  V30 26817 N 4666.03 4.38762 1.4784 0
M  V30 26818 C 4665.95 4.83651 0.183876 0
M  V30 26819 N 4666.02 3.88759 -0.699393 0
M  V30 26820 C 4666.17 2.7404 0.0575568 0
M  V30 26821 C 4666.3 1.37902 -0.293928 0
M  V30 26822 N 4666.31 0.938021 -1.54797 0
M  V30 26823 N 4666.42 0.491817 0.70549 0
M  V30 26824 C 4666.41 0.931735 1.95979 0
M  V30 26825 N 4666.29 2.16017 2.41481 0
M  V30 26826 C 4666.17 3.02547 1.39121 0
M  V30 26827 H 4663.19 8.36899 2.3252 0
M  V30 26828 H 4662.92 6.70391 1.71179 0
M  V30 26829 H 4663.79 7.03638 4.13219 0
M  V30 26830 H 4666.45 4.59931 3.54016 0
M  V30 26831 H 4666.73 6.88995 1.59871 0
M  V30 26832 H 4667.72 6.4684 3.0373 0
M  V30 26833 H 4665.88 8.47002 3.20749 0
M  V30 26834 H 4665.84 5.8885 -0.0765548 0
M  V30 26835 H 4666.22 1.60276 -2.32875 0
M  V30 26836 H 4666.41 -0.0699355 -1.73859 0
M  V30 26837 H 4666.52 0.165507 2.71897 0
M  V30 26838 P 4667.75 7.20834 5.23717 0
M  V30 26839 O 4667.97 7.79853 6.57286 0
M  V30 26840 O 4668.54 7.79239 4.12957 0
M  V30 26841 O 4668 5.63315 5.29344 0
M  V30 26842 C 4667.06 4.80255 6.01876 0
M  V30 26843 C 4667.79 3.64202 6.65911 0
M  V30 26844 O 4668 2.60694 5.64732 0
M  V30 26845 C 4669.19 3.93473 7.1943 0
M  V30 26846 O 4669.58 3.02071 8.21205 0
M  V30 26847 C 4670.07 3.73047 5.97036 0
M  V30 26848 C 4669.36 2.58828 5.25741 0
M  V30 26849 N 4669.41 2.68068 3.77503 0
M  V30 26850 H 4666.57 5.40332 6.79951 0
M  V30 26851 H 4666.3 4.41613 5.32378 0
M  V30 26852 H 4667.17 3.26331 7.47797 0
M  V30 26853 P 4671.13 2.75334 8.47391 0
M  V30 26854 O 4671.35 2.44619 9.90336 0
M  V30 26855 O 4671.92 3.87776 7.92294 0
M  V30 26856 O 4671.38 1.4459 7.59357 0
M  V30 26857 C 4670.44 0.347653 7.69315 0
M  V30 26858 C 4671.17 -0.96767 7.52806 0
M  V30 26859 O 4671.38 -1.21055 6.10208 0
M  V30 26860 C 4672.57 -1.04557 8.13408 0
M  V30 26861 O 4672.96 -2.38311 8.41922 0
M  V30 26862 C 4673.45 -0.491279 7.02284 0
M  V30 26863 C 4672.74 -0.996264 5.77469 0
M  V30 26864 N 4672.79 -0.0501916 4.62973 0
M  V30 26865 C 4672.71 1.31969 4.65661 0
M  V30 26866 N 4672.78 1.86649 3.48119 0
M  V30 26867 C 4672.93 0.792089 2.62406 0
M  V30 26868 C 4673.06 0.705684 1.2207 0
M  V30 26869 N 4673.07 1.76207 0.413762 0
M  V30 26870 N 4673.18 -0.518981 0.685754 0
M  V30 26871 C 4673.17 -1.57595 1.49174 0
M  V30 26872 N 4673.05 -1.62909 2.80066 0
M  V30 26873 C 4672.93 -0.388195 3.3073 0
M  V30 26874 H 4669.95 0.374765 8.67791 0
M  V30 26875 H 4669.68 0.443613 6.90476 0
M  V30 26876 H 4670.55 -1.75559 7.96891 0
M  V30 26877 H 4673.21 -1.94563 5.46818 0
M  V30 26878 H 4673.49 0.608651 7.04676 0
M  V30 26879 H 4674.48 -0.889796 7.09039 0
M  V30 26880 H 4672.64 -0.433128 9.04664 0
M  V30 26881 H 4672.6 1.89246 5.57664 0
M  V30 26882 H 4672.98 2.71005 0.804694 0
M  V30 26883 H 4673.17 1.63189 -0.603768 0
M  V30 26884 H 4673.28 -2.53475 0.997614 0
M  V30 26885 P 4674.51 -2.75334 8.47391 0
M  V30 26886 O 4674.73 -3.84128 9.44797 0
M  V30 26887 O 4675.3 -1.51947 8.68712 0
M  V30 26888 O 4674.76 -3.29363 6.99321 0
M  V30 26889 C 4673.82 -4.24011 6.4274 0
M  V30 26890 C 4674.55 -5.20775 5.52155 0
M  V30 26891 O 4674.76 -4.56534 4.22446 0
M  V30 26892 C 4675.95 -5.62629 5.96531 0
M  V30 26893 O 4676.34 -6.87667 5.41053 0
M  V30 26894 C 4676.83 -4.52537 5.39283 0
M  V30 26895 C 4676.12 -4.20027 4.08623 0
M  V30 26896 N 4676.17 -2.76189 3.71603 0
M  V30 26897 H 4673.33 -4.797 7.24003 0
M  V30 26898 H 4673.06 -3.69856 5.84513 0
M  V30 26899 H 4673.93 -6.10356 5.41441 0
M  V30 26900 P 4677.89 -7.20834 5.23717 0
M  V30 26901 O 4678.11 -8.66104 5.38572 0
M  V30 26902 O 4678.68 -6.33544 6.1349 0
M  V30 26903 O 4678.14 -6.7751 3.72168 0
M  V30 26904 C 4677.2 -7.20825 2.7076 0
M  V30 26905 C 4677.93 -7.45864 1.40599 0
M  V30 26906 O 4678.14 -6.17651 0.734225 0
M  V30 26907 C 4679.33 -8.05808 1.51899 0
M  V30 26908 O 4679.72 -8.74358 0.335205 0
M  V30 26909 C 4680.21 -6.83093 1.70294 0
M  V30 26910 C 4679.5 -5.79992 0.836974 0
M  V30 26911 N 4679.55 -4.41864 1.38293 0
M  V30 26912 H 4676.71 -8.13644 3.0377 0
M  V30 26913 H 4676.44 -6.42788 2.55485 0
M  V30 26914 H 4677.31 -8.12039 0.792769 0
M  V30 26915 P 4681.27 -8.91 2.05899e-10 0
M  V30 26916 O 4681.49 -10.1726 -0.733694 0
M  V30 26917 O 4682.06 -8.73148 1.23936 0
M  V30 26918 O 4681.52 -7.66872 -0.971405 0
M  V30 26919 C 4680.58 -7.42309 -2.04641 0
M  V30 26920 C 4681.31 -6.86059 -3.24661 0
M  V30 26921 O 4681.52 -5.42847 -3.03646 0
M  V30 26922 C 4682.71 -7.41196 -3.50753 0
M  V30 26923 O 4683.1 -7.27073 -4.86816 0
M  V30 26924 C 4683.59 -6.5273 -2.63741 0
M  V30 26925 C 4682.88 -5.1842 -2.73198 0
M  V30 26926 N 4682.93 -4.38762 -1.4784 0
M  V30 26927 H 4680.09 -8.36803 -2.32493 0
M  V30 26928 H 4679.82 -6.70197 -1.71129 0
M  V30 26929 H 4680.69 -7.03551 -4.13168 0
M  V30 26930 P 4684.65 -7.20834 -5.23717 0
M  V30 26931 O 4684.87 -7.79853 -6.57286 0
M  V30 26932 O 4685.44 -7.79239 -4.12957 0
M  V30 26933 O 4684.9 -5.63315 -5.29344 0
M  V30 26934 C 4683.96 -4.80255 -6.01876 0
M  V30 26935 C 4684.69 -3.64202 -6.65911 0
M  V30 26936 O 4684.9 -2.60694 -5.64732 0
M  V30 26937 C 4686.09 -3.93473 -7.1943 0
M  V30 26938 O 4686.48 -3.02071 -8.21205 0
M  V30 26939 C 4686.97 -3.73047 -5.97036 0
M  V30 26940 C 4686.26 -2.58828 -5.25741 0
M  V30 26941 N 4686.31 -2.68068 -3.77503 0
M  V30 26942 H 4683.47 -5.40332 -6.79951 0
M  V30 26943 H 4683.2 -4.41613 -5.32378 0
M  V30 26944 H 4684.07 -3.26331 -7.47797 0
M  V30 26945 P 4688.03 -2.75334 -8.47391 0
M  V30 26946 O 4688.25 -2.44595 -9.90239 0
M  V30 26947 O 4688.82 -3.87732 -7.92204 0
M  V30 26948 O 4688.28 -1.4459 -7.59357 0
M  V30 26949 C 4687.34 -0.347563 -7.69115 0
M  V30 26950 C 4688.07 0.96767 -7.52806 0
M  V30 26951 O 4688.28 1.21036 -6.1011 0
M  V30 26952 C 4689.47 1.04544 -8.13308 0
M  V30 26953 O 4689.86 2.38311 -8.41922 0
M  V30 26954 C 4690.35 0.491279 -7.02284 0
M  V30 26955 C 4689.64 0.996264 -5.77469 0
M  V30 26956 N 4689.69 0.0501808 -4.62873 0
M  V30 26957 C 4689.84 0.588177 -3.36904 0
M  V30 26958 O 4689.93 1.78598 -3.17173 0
M  V30 26959 N 4689.88 -0.329694 -2.33686 0
M  V30 26960 C 4689.79 -1.6953 -2.45079 0
M  V30 26961 C 4689.64 -2.16933 -3.80505 0
M  V30 26962 C 4689.59 -1.30326 -4.83752 0
M  V30 26963 H 4686.85 -0.374722 -8.67691 0
M  V30 26964 H 4686.58 -0.443421 -6.90177 0
M  V30 26965 H 4687.45 1.75537 -7.96793 0
M  V30 26966 H 4690.11 1.94496 -5.46629 0
M  V30 26967 H 4690.38 -0.608651 -7.04676 0
M  V30 26968 H 4691.38 0.889672 -7.08939 0
M  V30 26969 H 4689.54 0.43308 -9.04564 0
M  V30 26970 H 4689.47 -1.68366 -5.8516 0
M  V30 26971 P 4691.41 2.75334 -8.47391 0
M  V30 26972 O 4691.63 3.84128 -9.44797 0
M  V30 26973 O 4692.2 1.51947 -8.68712 0
M  V30 26974 O 4691.66 3.29363 -6.99321 0
M  V30 26975 C 4690.72 4.24011 -6.4274 0
M  V30 26976 C 4691.45 5.20775 -5.52155 0
M  V30 26977 O 4691.66 4.56534 -4.22446 0
M  V30 26978 C 4692.85 5.62629 -5.96531 0
M  V30 26979 O 4693.24 6.87667 -5.41053 0
M  V30 26980 C 4693.73 4.52537 -5.39283 0
M  V30 26981 C 4693.02 4.20027 -4.08623 0
M  V30 26982 N 4693.07 2.76189 -3.71603 0
M  V30 26983 H 4690.23 4.797 -7.24003 0
M  V30 26984 H 4689.96 3.69856 -5.84513 0
M  V30 26985 H 4690.83 6.10356 -5.41441 0
M  V30 26986 P 4694.79 7.20834 -5.23717 0
M  V30 26987 O 4695.01 8.66104 -5.38572 0
M  V30 26988 O 4695.58 6.33544 -6.1349 0
M  V30 26989 O 4695.04 6.7751 -3.72168 0
M  V30 26990 C 4694.1 7.20825 -2.7076 0
M  V30 26991 C 4694.83 7.45864 -1.40599 0
M  V30 26992 O 4695.04 6.17651 -0.734225 0
M  V30 26993 C 4696.23 8.05808 -1.51899 0
M  V30 26994 O 4696.62 8.74358 -0.335205 0
M  V30 26995 C 4697.11 6.83093 -1.70294 0
M  V30 26996 C 4696.4 5.79992 -0.836974 0
M  V30 26997 N 4696.45 4.41864 -1.38293 0
M  V30 26998 C 4696.37 3.99538 -2.69438 0
M  V30 26999 N 4696.45 2.69909 -2.84277 0
M  V30 27000 C 4696.59 2.21719 -1.5408 0
M  V30 27001 C 4696.72 0.891712 -1.06628 0
M  V30 27002 O 4696.74 -0.161298 -1.70137 0
M  V30 27003 N 4696.84 0.856846 0.334985 0
M  V30 27004 C 4696.84 1.9641 1.15789 0
M  V30 27005 N 4696.97 1.72708 2.46522 0
M  V30 27006 N 4696.71 3.21165 0.713741 0
M  V30 27007 C 4696.59 3.26797 -0.639748 0
M  V30 27008 H 4693.61 8.13644 -3.0377 0
M  V30 27009 H 4693.34 6.42788 -2.55485 0
M  V30 27010 H 4694.21 8.12039 -0.792769 0
M  V30 27011 H 4696.87 5.80061 0.166416 0
M  V30 27012 H 4697.14 6.51287 -2.75604 0
M  V30 27013 H 4698.14 7.01734 -1.34462 0
M  V30 27014 H 4696.3 8.73674 -2.38337 0
M  V30 27015 H 4696.25 4.68207 -3.53221 0
M  V30 27016 H 4696.94 -0.0398818 0.767965 0
M  V30 27017 H 4696.97 2.50995 3.13503 0
M  V30 27018 H 4697.07 0.759148 2.80716 0
M  V30 27019 P 4698.17 8.91 -2.07008e-10 0
M  V30 27020 O 4698.39 10.1726 0.733694 0
M  V30 27021 O 4698.96 8.73148 -1.23936 0
M  V30 27022 O 4698.42 7.66872 0.971405 0
M  V30 27023 C 4697.48 7.42309 2.04641 0
M  V30 27024 C 4698.21 6.86059 3.24661 0
M  V30 27025 O 4698.42 5.42847 3.03646 0
M  V30 27026 C 4699.61 7.41196 3.50753 0
M  V30 27027 O 4700 7.27073 4.86816 0
M  V30 27028 C 4700.49 6.5273 2.63741 0
M  V30 27029 C 4699.78 5.1842 2.73198 0
M  V30 27030 N 4699.83 4.38762 1.4784 0
M  V30 27031 H 4696.99 8.36803 2.32493 0
M  V30 27032 H 4696.72 6.70197 1.71129 0
M  V30 27033 H 4697.59 7.03551 4.13168 0
M  V30 27034 P 4701.55 7.20834 5.23717 0
M  V30 27035 O 4701.77 7.79853 6.57286 0
M  V30 27036 O 4702.34 7.79239 4.12957 0
M  V30 27037 O 4701.8 5.63315 5.29344 0
M  V30 27038 C 4700.86 4.80255 6.01876 0
M  V30 27039 C 4701.59 3.64202 6.65911 0
M  V30 27040 O 4701.8 2.60694 5.64732 0
M  V30 27041 C 4702.99 3.93473 7.1943 0
M  V30 27042 O 4703.38 3.02071 8.21205 0
M  V30 27043 C 4703.87 3.73047 5.97036 0
M  V30 27044 C 4703.16 2.58828 5.25741 0
M  V30 27045 N 4703.21 2.68068 3.77503 0
M  V30 27046 H 4700.37 5.40332 6.79951 0
M  V30 27047 H 4700.1 4.41613 5.32378 0
M  V30 27048 H 4700.97 3.26331 7.47797 0
M  V30 27049 P 4704.93 2.75334 8.47391 0
M  V30 27050 O 4705.15 2.44571 9.90142 0
M  V30 27051 O 4705.72 3.87688 7.92115 0
M  V30 27052 O 4705.18 1.4459 7.59357 0
M  V30 27053 C 4704.24 0.347608 7.69215 0
M  V30 27054 C 4704.97 -0.96767 7.52806 0
M  V30 27055 O 4705.18 -1.21036 6.1011 0
M  V30 27056 C 4706.37 -1.04544 8.13308 0
M  V30 27057 O 4706.76 -2.38311 8.41922 0
M  V30 27058 C 4707.25 -0.491279 7.02284 0
M  V30 27059 C 4706.54 -0.996264 5.77469 0
M  V30 27060 N 4706.59 -0.0501916 4.62973 0
M  V30 27061 H 4703.75 0.374722 8.67691 0
M  V30 27062 H 4703.48 0.443485 6.90277 0
M  V30 27063 H 4704.35 -1.75537 7.96793 0
M  V30 27064 P 4708.31 -2.75334 8.47391 0
M  V30 27065 O 4708.53 -3.84128 9.44797 0
M  V30 27066 O 4709.1 -1.51947 8.68712 0
M  V30 27067 O 4708.56 -3.29363 6.99321 0
M  V30 27068 C 4707.62 -4.24011 6.4274 0
M  V30 27069 C 4708.35 -5.20775 5.52155 0
M  V30 27070 O 4708.56 -4.56534 4.22446 0
M  V30 27071 C 4709.75 -5.62629 5.96531 0
M  V30 27072 O 4710.14 -6.87667 5.41053 0
M  V30 27073 C 4710.63 -4.52537 5.39283 0
M  V30 27074 C 4709.92 -4.20027 4.08623 0
M  V30 27075 N 4709.97 -2.76189 3.71603 0
M  V30 27076 H 4707.13 -4.797 7.24003 0
M  V30 27077 H 4706.86 -3.69856 5.84513 0
M  V30 27078 H 4707.73 -6.10356 5.41441 0
M  V30 27079 P 4711.69 -7.20834 5.23717 0
M  V30 27080 O 4711.91 -8.66274 5.38678 0
M  V30 27081 O 4712.48 -6.33687 6.13629 0
M  V30 27082 O 4711.94 -6.7751 3.72168 0
M  V30 27083 C 4711 -7.20919 2.70795 0
M  V30 27084 C 4711.73 -7.45864 1.40599 0
M  V30 27085 O 4711.94 -6.17751 0.734343 0
M  V30 27086 C 4713.13 -8.05906 1.51917 0
M  V30 27087 O 4713.52 -8.74358 0.335205 0
M  V30 27088 C 4714.01 -6.83093 1.70294 0
M  V30 27089 C 4713.3 -5.79992 0.836974 0
M  V30 27090 N 4713.35 -4.41864 1.38293 0
M  V30 27091 H 4710.51 -8.13738 3.03804 0
M  V30 27092 H 4710.24 -6.42974 2.55559 0
M  V30 27093 H 4711.11 -8.12139 0.792866 0
M  V30 27094 H 4713.77 -5.80178 -0.160643 0
M  V30 27095 H 4714.05 -6.51379 2.75643 0
M  V30 27096 H 4715.04 -7.01832 1.3448 0
M  V30 27097 H 4713.2 -8.73771 2.38364 0
M  V30 27098 P 4715.07 -8.91 2.08117e-10 0
M  V30 27099 O 4715.29 -10.1726 -0.733694 0
M  V30 27100 O 4715.86 -8.73148 1.23936 0
M  V30 27101 O 4715.32 -7.66872 -0.971405 0
M  V30 27102 C 4714.38 -7.42309 -2.04641 0
M  V30 27103 C 4715.11 -6.86059 -3.24661 0
M  V30 27104 O 4715.32 -5.42847 -3.03646 0
M  V30 27105 C 4716.51 -7.41196 -3.50753 0
M  V30 27106 O 4716.9 -7.27073 -4.86816 0
M  V30 27107 C 4717.39 -6.5273 -2.63741 0
M  V30 27108 C 4716.68 -5.1842 -2.73198 0
M  V30 27109 N 4716.73 -4.38762 -1.4784 0
M  V30 27110 H 4713.89 -8.36803 -2.32493 0
M  V30 27111 H 4713.62 -6.70197 -1.71129 0
M  V30 27112 H 4714.49 -7.03551 -4.13168 0
M  V30 27113 P 4718.45 -7.20834 -5.23717 0
M  V30 27114 O 4718.67 -7.79853 -6.57286 0
M  V30 27115 O 4719.24 -7.79239 -4.12957 0
M  V30 27116 O 4718.7 -5.63315 -5.29344 0
M  V30 27117 C 4717.76 -4.80255 -6.01876 0
M  V30 27118 C 4718.49 -3.64202 -6.65911 0
M  V30 27119 O 4718.7 -2.60694 -5.64732 0
M  V30 27120 C 4719.89 -3.93473 -7.1943 0
M  V30 27121 O 4720.28 -3.02071 -8.21205 0
M  V30 27122 C 4720.77 -3.73047 -5.97036 0
M  V30 27123 C 4720.06 -2.58828 -5.25741 0
M  V30 27124 N 4720.11 -2.68068 -3.77503 0
M  V30 27125 H 4717.27 -5.40332 -6.79951 0
M  V30 27126 H 4717 -4.41613 -5.32378 0
M  V30 27127 H 4717.87 -3.26331 -7.47797 0
M  V30 27128 P 4721.83 -2.75334 -8.47391 0
M  V30 27129 O 4722.05 -2.44571 -9.90142 0
M  V30 27130 O 4722.62 -3.87688 -7.92115 0
M  V30 27131 O 4722.08 -1.4459 -7.59357 0
M  V30 27132 C 4721.14 -0.347608 -7.69215 0
M  V30 27133 C 4721.87 0.96767 -7.52806 0
M  V30 27134 O 4722.08 1.21036 -6.1011 0
M  V30 27135 C 4723.27 1.04544 -8.13308 0
M  V30 27136 O 4723.66 2.38311 -8.41922 0
M  V30 27137 C 4724.15 0.491279 -7.02284 0
M  V30 27138 C 4723.44 0.996264 -5.77469 0
M  V30 27139 N 4723.49 0.0501916 -4.62973 0
M  V30 27140 C 4723.41 -1.32786 -4.63244 0
M  V30 27141 N 4723.49 -1.86957 -3.44545 0
M  V30 27142 C 4723.63 -0.780241 -2.58481 0
M  V30 27143 C 4723.76 -0.738536 -1.17757 0
M  V30 27144 N 4723.88 0.58337 -0.711393 0
M  V30 27145 C 4723.88 1.70816 -1.51017 0
M  V30 27146 N 4724.01 2.87826 -0.880757 0
M  V30 27147 N 4723.75 1.67126 -2.8339 0
M  V30 27148 C 4723.63 0.401421 -3.30572 0
M  V30 27149 H 4720.65 -0.374722 -8.67691 0
M  V30 27150 H 4720.38 -0.443485 -6.90277 0
M  V30 27151 H 4721.25 1.75537 -7.96793 0
M  V30 27152 P 4725.21 2.75334 -8.47391 0
M  V30 27153 O 4725.43 3.84128 -9.44797 0
M  V30 27154 O 4726 1.51947 -8.68712 0
M  V30 27155 O 4725.46 3.29363 -6.99321 0
M  V30 27156 C 4724.52 4.24011 -6.4274 0
M  V30 27157 C 4725.25 5.20775 -5.52155 0
M  V30 27158 O 4725.46 4.56534 -4.22446 0
M  V30 27159 C 4726.65 5.62629 -5.96531 0
M  V30 27160 O 4727.04 6.87667 -5.41053 0
M  V30 27161 C 4727.53 4.52537 -5.39283 0
M  V30 27162 C 4726.82 4.20027 -4.08623 0
M  V30 27163 N 4726.87 2.76189 -3.71603 0
M  V30 27164 H 4724.03 4.797 -7.24003 0
M  V30 27165 H 4723.76 3.69856 -5.84513 0
M  V30 27166 H 4724.63 6.10356 -5.41441 0
M  V30 27167 P 4728.59 7.20834 -5.23717 0
M  V30 27168 O 4728.81 8.66104 -5.38572 0
M  V30 27169 O 4729.38 6.33544 -6.1349 0
M  V30 27170 O 4728.84 6.7751 -3.72168 0
M  V30 27171 C 4727.9 7.20825 -2.7076 0
M  V30 27172 C 4728.63 7.45864 -1.40599 0
M  V30 27173 O 4728.84 6.17651 -0.734225 0
M  V30 27174 C 4730.03 8.05808 -1.51899 0
M  V30 27175 O 4730.42 8.74358 -0.335205 0
M  V30 27176 C 4730.91 6.83093 -1.70294 0
M  V30 27177 C 4730.2 5.79992 -0.836974 0
M  V30 27178 N 4730.25 4.41864 -1.38293 0
M  V30 27179 H 4727.41 8.13644 -3.0377 0
M  V30 27180 H 4727.14 6.42788 -2.55485 0
M  V30 27181 H 4728.01 8.12039 -0.792769 0
M  V30 27182 P 4731.97 8.91 -2.09226e-10 0
M  V30 27183 O 4732.19 10.1726 0.733694 0
M  V30 27184 O 4732.76 8.73148 -1.23936 0
M  V30 27185 O 4732.22 7.66872 0.971405 0
M  V30 27186 C 4731.28 7.42309 2.04641 0
M  V30 27187 C 4732.01 6.86059 3.24661 0
M  V30 27188 O 4732.22 5.42847 3.03646 0
M  V30 27189 C 4733.41 7.41196 3.50753 0
M  V30 27190 O 4733.8 7.27073 4.86816 0
M  V30 27191 C 4734.29 6.5273 2.63741 0
M  V30 27192 C 4733.58 5.1842 2.73198 0
M  V30 27193 N 4733.63 4.38762 1.4784 0
M  V30 27194 C 4733.55 4.81605 0.168631 0
M  V30 27195 N 4733.63 3.85454 -0.713363 0
M  V30 27196 C 4733.77 2.6994 0.0566958 0
M  V30 27197 C 4733.9 1.34815 -0.338502 0
M  V30 27198 N 4734.02 0.496304 0.77465 0
M  V30 27199 C 4734.02 0.908403 2.09122 0
M  V30 27200 N 4734.15 -0.0517805 3.00955 0
M  V30 27201 N 4733.89 2.17875 2.46519 0
M  V30 27202 C 4733.77 3.01988 1.4033 0
M  V30 27203 H 4730.79 8.36803 2.32493 0
M  V30 27204 H 4730.52 6.70197 1.71129 0
M  V30 27205 H 4731.39 7.03551 4.13168 0
M  V30 27206 P 4735.35 7.20834 5.23717 0
M  V30 27207 O 4735.57 7.79853 6.57286 0
M  V30 27208 O 4736.14 7.79239 4.12957 0
M  V30 27209 O 4735.6 5.63315 5.29344 0
M  V30 27210 C 4734.66 4.80255 6.01876 0
M  V30 27211 C 4735.39 3.64202 6.65911 0
M  V30 27212 O 4735.6 2.60694 5.64732 0
M  V30 27213 C 4736.79 3.93473 7.1943 0
M  V30 27214 O 4737.18 3.02071 8.21205 0
M  V30 27215 C 4737.67 3.73047 5.97036 0
M  V30 27216 C 4736.96 2.58828 5.25741 0
M  V30 27217 N 4737.01 2.68068 3.77503 0
M  V30 27218 C 4736.93 3.79715 2.96723 0
M  V30 27219 N 4737.01 3.5377 1.68852 0
M  V30 27220 C 4737.15 2.15054 1.63254 0
M  V30 27221 C 4737.28 1.28964 0.518571 0
M  V30 27222 O 4737.3 1.56826 -0.679156 0
M  V30 27223 N 4737.4 -0.0538097 0.918425 0
M  V30 27224 C 4737.4 -0.494275 2.22578 0
M  V30 27225 N 4737.53 -1.81086 2.40434 0
M  V30 27226 N 4737.27 0.313645 3.27502 0
M  V30 27227 C 4737.15 1.61829 2.91033 0
M  V30 27228 H 4734.17 5.40332 6.79951 0
M  V30 27229 H 4733.9 4.41613 5.32378 0
M  V30 27230 H 4734.77 3.26331 7.47797 0
M  V30 27231 H 4737.42 1.63422 5.56814 0
M  V30 27232 H 4737.7 4.63374 5.34244 0
M  V30 27233 H 4738.7 3.44728 6.25838 0
M  V30 27234 H 4736.86 4.96652 7.57263 0
M  V30 27235 H 4736.81 4.80617 3.3614 0
M  V30 27236 H 4737.49 -0.742702 0.199384 0
M  V30 27237 H 4737.53 -2.20598 3.35588 0
M  V30 27238 H 4737.63 -2.43518 1.58945 0
M  V30 27239 P 4738.73 2.75334 8.47391 0
M  V30 27240 O 4738.95 2.44619 9.90336 0
M  V30 27241 O 4739.52 3.87776 7.92294 0
M  V30 27242 O 4738.98 1.4459 7.59357 0
M  V30 27243 C 4738.04 0.347653 7.69315 0
M  V30 27244 C 4738.77 -0.96767 7.52806 0
M  V30 27245 O 4738.98 -1.21055 6.10208 0
M  V30 27246 C 4740.17 -1.04557 8.13408 0
M  V30 27247 O 4740.56 -2.38311 8.41922 0
M  V30 27248 C 4741.05 -0.491279 7.02284 0
M  V30 27249 C 4740.34 -0.996264 5.77469 0
M  V30 27250 N 4740.39 -0.0501916 4.62973 0
M  V30 27251 C 4740.31 1.31969 4.65661 0
M  V30 27252 N 4740.38 1.86649 3.48119 0
M  V30 27253 C 4740.53 0.792089 2.62406 0
M  V30 27254 C 4740.66 0.705684 1.2207 0
M  V30 27255 N 4740.67 1.76207 0.413762 0
M  V30 27256 N 4740.78 -0.518981 0.685754 0
M  V30 27257 C 4740.77 -1.57595 1.49174 0
M  V30 27258 N 4740.65 -1.62909 2.80066 0
M  V30 27259 C 4740.53 -0.388195 3.3073 0
M  V30 27260 H 4737.55 0.374765 8.67791 0
M  V30 27261 H 4737.28 0.443613 6.90476 0
M  V30 27262 H 4738.15 -1.75559 7.96891 0
M  V30 27263 H 4740.8 -1.94563 5.46818 0
M  V30 27264 H 4741.08 0.608651 7.04676 0
M  V30 27265 H 4742.08 -0.889796 7.09039 0
M  V30 27266 H 4740.24 -0.433128 9.04664 0
M  V30 27267 H 4740.2 1.89246 5.57664 0
M  V30 27268 H 4740.58 2.71005 0.804694 0
M  V30 27269 H 4740.77 1.63189 -0.603768 0
M  V30 27270 H 4740.88 -2.53475 0.997614 0
M  V30 27271 P 4742.11 -2.75334 8.47391 0
M  V30 27272 O 4742.33 -3.84128 9.44797 0
M  V30 27273 O 4742.9 -1.51947 8.68712 0
M  V30 27274 O 4742.36 -3.29363 6.99321 0
M  V30 27275 C 4741.42 -4.24011 6.4274 0
M  V30 27276 C 4742.15 -5.20775 5.52155 0
M  V30 27277 O 4742.36 -4.56534 4.22446 0
M  V30 27278 C 4743.55 -5.62629 5.96531 0
M  V30 27279 O 4743.94 -6.87667 5.41053 0
M  V30 27280 C 4744.43 -4.52537 5.39283 0
M  V30 27281 C 4743.72 -4.20027 4.08623 0
M  V30 27282 N 4743.77 -2.76189 3.71603 0
M  V30 27283 H 4740.93 -4.797 7.24003 0
M  V30 27284 H 4740.66 -3.69856 5.84513 0
M  V30 27285 H 4741.53 -6.10356 5.41441 0
M  V30 27286 P 4745.49 -7.20834 5.23717 0
M  V30 27287 O 4745.71 -8.66189 5.38625 0
M  V30 27288 O 4746.28 -6.33615 6.1356 0
M  V30 27289 O 4745.74 -6.7751 3.72168 0
M  V30 27290 C 4744.8 -7.20732 2.70725 0
M  V30 27291 C 4745.53 -7.45864 1.40599 0
M  V30 27292 O 4745.74 -6.17651 0.734225 0
M  V30 27293 C 4746.93 -8.05808 1.51899 0
M  V30 27294 O 4747.32 -8.74358 0.335205 0
M  V30 27295 C 4747.81 -6.83093 1.70294 0
M  V30 27296 C 4747.1 -5.79992 0.836974 0
M  V30 27297 N 4747.15 -4.41769 1.38263 0
M  V30 27298 C 4747.3 -3.38591 0.481702 0
M  V30 27299 O 4747.39 -3.56839 -0.718452 0
M  V30 27300 N 4747.34 -2.1206 1.03569 0
M  V30 27301 C 4747.25 -1.80696 2.36966 0
M  V30 27302 C 4747.1 -2.94845 3.23898 0
M  V30 27303 C 4747.05 -4.19803 2.73435 0
M  V30 27304 H 4744.31 -8.13644 3.0377 0
M  V30 27305 H 4744.04 -6.42695 2.55448 0
M  V30 27306 H 4744.91 -8.12039 0.792769 0
M  V30 27307 H 4747.56 -5.79978 -0.160587 0
M  V30 27308 H 4747.84 -6.51379 2.75643 0
M  V30 27309 H 4748.84 -7.01734 1.34462 0
M  V30 27310 H 4747 -8.73674 2.38337 0
M  V30 27311 H 4746.93 -5.04492 3.4095 0
M  V30 27312 P 4748.87 -8.91 2.10335e-10 0
M  V30 27313 O 4749.09 -10.1726 -0.733694 0
M  V30 27314 O 4749.66 -8.73148 1.23936 0
M  V30 27315 O 4749.12 -7.66872 -0.971405 0
M  V30 27316 C 4748.18 -7.42309 -2.04641 0
M  V30 27317 C 4748.91 -6.86059 -3.24661 0
M  V30 27318 O 4749.12 -5.42847 -3.03646 0
M  V30 27319 C 4750.31 -7.41196 -3.50753 0
M  V30 27320 O 4750.7 -7.27073 -4.86816 0
M  V30 27321 C 4751.19 -6.5273 -2.63741 0
M  V30 27322 C 4750.48 -5.1842 -2.73198 0
M  V30 27323 N 4750.53 -4.38762 -1.4784 0
M  V30 27324 H 4747.69 -8.36803 -2.32493 0
M  V30 27325 H 4747.42 -6.70197 -1.71129 0
M  V30 27326 H 4748.29 -7.03551 -4.13168 0
M  V30 27327 P 4752.25 -7.20834 -5.23717 0
M  V30 27328 O 4752.47 -7.79853 -6.57286 0
M  V30 27329 O 4753.04 -7.79239 -4.12957 0
M  V30 27330 O 4752.5 -5.63315 -5.29344 0
M  V30 27331 C 4751.56 -4.80255 -6.01876 0
M  V30 27332 C 4752.29 -3.64202 -6.65911 0
M  V30 27333 O 4752.5 -2.60694 -5.64732 0
M  V30 27334 C 4753.69 -3.93473 -7.1943 0
M  V30 27335 O 4754.08 -3.02071 -8.21205 0
M  V30 27336 C 4754.57 -3.73047 -5.97036 0
M  V30 27337 C 4753.86 -2.58828 -5.25741 0
M  V30 27338 N 4753.91 -2.68068 -3.77503 0
M  V30 27339 H 4751.07 -5.40332 -6.79951 0
M  V30 27340 H 4750.8 -4.41613 -5.32378 0
M  V30 27341 H 4751.67 -3.26331 -7.47797 0
M  V30 27342 P 4755.63 -2.75334 -8.47391 0
M  V30 27343 O 4755.85 -2.44571 -9.90142 0
M  V30 27344 O 4756.42 -3.87688 -7.92115 0
M  V30 27345 O 4755.88 -1.4459 -7.59357 0
M  V30 27346 C 4754.94 -0.347608 -7.69215 0
M  V30 27347 C 4755.67 0.96767 -7.52806 0
M  V30 27348 O 4755.88 1.21036 -6.1011 0
M  V30 27349 C 4757.07 1.04544 -8.13308 0
M  V30 27350 O 4757.46 2.38311 -8.41922 0
M  V30 27351 C 4757.95 0.491279 -7.02284 0
M  V30 27352 C 4757.24 0.996264 -5.77469 0
M  V30 27353 N 4757.29 0.0501916 -4.62973 0
M  V30 27354 H 4754.45 -0.374722 -8.67691 0
M  V30 27355 H 4754.18 -0.443485 -6.90277 0
M  V30 27356 H 4755.05 1.75537 -7.96793 0
M  V30 27357 P 4759.01 2.75334 -8.47391 0
M  V30 27358 O 4759.23 3.84128 -9.44797 0
M  V30 27359 O 4759.8 1.51947 -8.68712 0
M  V30 27360 O 4759.26 3.29363 -6.99321 0
M  V30 27361 C 4758.32 4.24011 -6.4274 0
M  V30 27362 C 4759.05 5.20775 -5.52155 0
M  V30 27363 O 4759.26 4.56534 -4.22446 0
M  V30 27364 C 4760.45 5.62629 -5.96531 0
M  V30 27365 O 4760.84 6.87667 -5.41053 0
M  V30 27366 C 4761.33 4.52537 -5.39283 0
M  V30 27367 C 4760.62 4.20027 -4.08623 0
M  V30 27368 N 4760.67 2.76189 -3.71603 0
M  V30 27369 H 4757.83 4.797 -7.24003 0
M  V30 27370 H 4757.56 3.69856 -5.84513 0
M  V30 27371 H 4758.43 6.10356 -5.41441 0
M  V30 27372 P 4762.39 7.20834 -5.23717 0
M  V30 27373 O 4762.61 8.66104 -5.38572 0
M  V30 27374 O 4763.18 6.33544 -6.1349 0
M  V30 27375 O 4762.64 6.7751 -3.72168 0
M  V30 27376 C 4761.7 7.20825 -2.7076 0
M  V30 27377 C 4762.43 7.45864 -1.40599 0
M  V30 27378 O 4762.64 6.17651 -0.734225 0
M  V30 27379 C 4763.83 8.05808 -1.51899 0
M  V30 27380 O 4764.22 8.74358 -0.335205 0
M  V30 27381 C 4764.71 6.83093 -1.70294 0
M  V30 27382 C 4764 5.79992 -0.836974 0
M  V30 27383 N 4764.05 4.41864 -1.38293 0
M  V30 27384 C 4763.97 3.99538 -2.69438 0
M  V30 27385 N 4764.05 2.69909 -2.84277 0
M  V30 27386 C 4764.19 2.21719 -1.5408 0
M  V30 27387 C 4764.32 0.891712 -1.06628 0
M  V30 27388 N 4764.44 0.856846 0.334985 0
M  V30 27389 C 4764.44 1.9641 1.15789 0
M  V30 27390 N 4764.57 1.72708 2.46522 0
M  V30 27391 N 4764.31 3.21165 0.713741 0
M  V30 27392 C 4764.19 3.26797 -0.639748 0
M  V30 27393 H 4761.21 8.13644 -3.0377 0
M  V30 27394 H 4760.94 6.42788 -2.55485 0
M  V30 27395 H 4761.81 8.12039 -0.792769 0
M  V30 27396 P 4765.77 8.91 -2.11444e-10 0
M  V30 27397 O 4765.99 10.1726 0.733694 0
M  V30 27398 O 4766.56 8.73148 -1.23936 0
M  V30 27399 O 4766.02 7.66872 0.971405 0
M  V30 27400 C 4765.08 7.42309 2.04641 0
M  V30 27401 C 4765.81 6.86059 3.24661 0
M  V30 27402 O 4766.02 5.42847 3.03646 0
M  V30 27403 C 4767.21 7.41196 3.50753 0
M  V30 27404 O 4767.6 7.27073 4.86816 0
M  V30 27405 C 4768.09 6.5273 2.63741 0
M  V30 27406 C 4767.38 5.1842 2.73198 0
M  V30 27407 N 4767.43 4.38762 1.4784 0
M  V30 27408 H 4764.59 8.36803 2.32493 0
M  V30 27409 H 4764.32 6.70197 1.71129 0
M  V30 27410 H 4765.19 7.03551 4.13168 0
M  V30 27411 P 4769.15 7.20834 5.23717 0
M  V30 27412 O 4769.37 7.80006 6.57415 0
M  V30 27413 O 4769.94 7.79416 4.13051 0
M  V30 27414 O 4769.4 5.63315 5.29344 0
M  V30 27415 C 4768.46 4.80318 6.01954 0
M  V30 27416 C 4769.19 3.64202 6.65911 0
M  V30 27417 O 4769.4 2.60736 5.64823 0
M  V30 27418 C 4770.59 3.93521 7.19518 0
M  V30 27419 O 4770.98 3.02071 8.21205 0
M  V30 27420 C 4771.47 3.73047 5.97036 0
M  V30 27421 C 4770.76 2.58828 5.25741 0
M  V30 27422 N 4770.81 2.68068 3.77503 0
M  V30 27423 H 4767.97 5.40394 6.8003 0
M  V30 27424 H 4767.7 4.41741 5.32532 0
M  V30 27425 H 4768.57 3.26371 7.47889 0
M  V30 27426 H 4771.22 1.64007 5.56746 0
M  V30 27427 H 4771.5 4.63439 5.3432 0
M  V30 27428 H 4772.5 3.44776 6.25925 0
M  V30 27429 H 4770.66 4.96707 7.57347 0
M  V30 27430 P 4772.53 2.75334 8.47391 0
M  V30 27431 O 4772.75 2.44571 9.90142 0
M  V30 27432 O 4773.32 3.87688 7.92115 0
M  V30 27433 O 4772.78 1.4459 7.59357 0
M  V30 27434 C 4771.84 0.347608 7.69215 0
M  V30 27435 C 4772.57 -0.96767 7.52806 0
M  V30 27436 O 4772.78 -1.21036 6.1011 0
M  V30 27437 C 4773.97 -1.04544 8.13308 0
M  V30 27438 O 4774.36 -2.38311 8.41922 0
M  V30 27439 C 4774.85 -0.491279 7.02284 0
M  V30 27440 C 4774.14 -0.996264 5.77469 0
M  V30 27441 N 4774.19 -0.0501916 4.62973 0
M  V30 27442 H 4771.35 0.374722 8.67691 0
M  V30 27443 H 4771.08 0.443485 6.90277 0
M  V30 27444 H 4771.95 -1.75537 7.96793 0
M  V30 27445 P 4775.91 -2.75334 8.47391 0
M  V30 27446 O 4776.13 -3.84166 9.4489 0
M  V30 27447 O 4776.7 -1.51964 8.6881 0
M  V30 27448 O 4776.16 -3.29363 6.99321 0
M  V30 27449 C 4775.22 -4.24011 6.4274 0
M  V30 27450 C 4775.95 -5.20775 5.52155 0
M  V30 27451 O 4776.16 -4.56534 4.22446 0
M  V30 27452 C 4777.35 -5.62629 5.96531 0
M  V30 27453 O 4777.74 -6.87667 5.41053 0
M  V30 27454 C 4778.23 -4.52537 5.39283 0
M  V30 27455 C 4777.52 -4.20027 4.08623 0
M  V30 27456 N 4777.57 -2.7613 3.71522 0
M  V30 27457 C 4777.72 -2.43702 2.37085 0
M  V30 27458 O 4777.81 -3.3531 1.54039 0
M  V30 27459 N 4777.77 -0.951103 2.10621 0
M  V30 27460 C 4777.67 -0.165021 2.93537 0
M  V30 27461 N 4777.72 1.09723 2.53253 0
M  V30 27462 C 4777.52 -0.469576 4.32458 0
M  V30 27463 C 4777.47 -1.78658 4.65921 0
M  V30 27464 H 4774.73 -4.79645 7.23919 0
M  V30 27465 H 4774.46 -3.69802 5.84429 0
M  V30 27466 H 4775.33 -6.10431 5.41508 0
M  V30 27467 H 4777.98 -4.78733 3.27967 0
M  V30 27468 H 4778.26 -3.64957 6.05871 0
M  V30 27469 H 4779.26 -4.8868 5.2125 0
M  V30 27470 H 4777.42 -5.66726 7.06352 0
M  V30 27471 H 4777.35 -2.06987 5.70299 0
M  V30 27472 H 4777.45 0.314383 5.07728 0
M  V30 27473 H 4777.84 1.31363 1.5319 0
M  V30 27474 H 4777.64 1.85978 3.21943 0
M  V30 27475 P 4779.29 -7.20834 5.23717 0
M  V30 27476 O 4779.51 -8.66104 5.38572 0
M  V30 27477 O 4780.08 -6.33544 6.1349 0
M  V30 27478 O 4779.54 -6.7751 3.72168 0
M  V30 27479 C 4778.6 -7.20825 2.7076 0
M  V30 27480 C 4779.33 -7.45864 1.40599 0
M  V30 27481 O 4779.54 -6.17651 0.734225 0
M  V30 27482 C 4780.73 -8.05808 1.51899 0
M  V30 27483 O 4781.12 -8.74358 0.335205 0
M  V30 27484 C 4781.61 -6.83093 1.70294 0
M  V30 27485 C 4780.9 -5.79992 0.836974 0
M  V30 27486 N 4780.95 -4.41864 1.38293 0
M  V30 27487 H 4778.11 -8.13644 3.0377 0
M  V30 27488 H 4777.84 -6.42788 2.55485 0
M  V30 27489 H 4778.71 -8.12039 0.792769 0
M  V30 27490 P 4782.67 -8.91 2.12553e-10 0
M  V30 27491 O 4782.89 -10.1726 -0.733694 0
M  V30 27492 O 4783.46 -8.73148 1.23936 0
M  V30 27493 O 4782.92 -7.66872 -0.971405 0
M  V30 27494 C 4781.98 -7.42309 -2.04641 0
M  V30 27495 C 4782.71 -6.86059 -3.24661 0
M  V30 27496 O 4782.92 -5.42847 -3.03646 0
M  V30 27497 C 4784.11 -7.41196 -3.50753 0
M  V30 27498 O 4784.5 -7.27073 -4.86816 0
M  V30 27499 C 4784.99 -6.5273 -2.63741 0
M  V30 27500 C 4784.28 -5.1842 -2.73198 0
M  V30 27501 N 4784.33 -4.38762 -1.4784 0
M  V30 27502 H 4781.49 -8.36803 -2.32493 0
M  V30 27503 H 4781.22 -6.70197 -1.71129 0
M  V30 27504 H 4782.09 -7.03551 -4.13168 0
M  V30 27505 P 4786.05 -7.20834 -5.23717 0
M  V30 27506 O 4786.27 -7.80006 -6.57415 0
M  V30 27507 O 4786.84 -7.79416 -4.13051 0
M  V30 27508 O 4786.3 -5.63315 -5.29344 0
M  V30 27509 C 4785.36 -4.80318 -6.01954 0
M  V30 27510 C 4786.09 -3.64202 -6.65911 0
M  V30 27511 O 4786.3 -2.60736 -5.64823 0
M  V30 27512 C 4787.49 -3.93521 -7.19518 0
M  V30 27513 O 4787.88 -3.02071 -8.21205 0
M  V30 27514 C 4788.37 -3.73047 -5.97036 0
M  V30 27515 C 4787.66 -2.58828 -5.25741 0
M  V30 27516 N 4787.71 -2.68068 -3.77503 0
M  V30 27517 H 4784.87 -5.40394 -6.8003 0
M  V30 27518 H 4784.6 -4.41741 -5.32532 0
M  V30 27519 H 4785.47 -3.26371 -7.47889 0
M  V30 27520 H 4788.12 -1.64007 -5.56746 0
M  V30 27521 H 4788.4 -4.63439 -5.3432 0
M  V30 27522 H 4789.4 -3.44776 -6.25925 0
M  V30 27523 H 4787.56 -4.96707 -7.57347 0
M  V30 27524 P 4789.43 -2.75334 -8.47391 0
M  V30 27525 O 4789.65 -2.44571 -9.90142 0
M  V30 27526 O 4790.22 -3.87688 -7.92115 0
M  V30 27527 O 4789.68 -1.4459 -7.59357 0
M  V30 27528 C 4788.74 -0.347608 -7.69215 0
M  V30 27529 C 4789.47 0.96767 -7.52806 0
M  V30 27530 O 4789.68 1.21036 -6.1011 0
M  V30 27531 C 4790.87 1.04544 -8.13308 0
M  V30 27532 O 4791.26 2.38311 -8.41922 0
M  V30 27533 C 4791.75 0.491279 -7.02284 0
M  V30 27534 C 4791.04 0.996264 -5.77469 0
M  V30 27535 N 4791.09 0.0501916 -4.62973 0
M  V30 27536 H 4788.25 -0.374722 -8.67691 0
M  V30 27537 H 4787.98 -0.443485 -6.90277 0
M  V30 27538 H 4788.85 1.75537 -7.96793 0
M  V30 27539 P 4792.81 2.75334 -8.47391 0
M  V30 27540 O 4793.03 3.84204 -9.44982 0
M  V30 27541 O 4793.6 1.51982 -8.68909 0
M  V30 27542 O 4793.06 3.29363 -6.99321 0
M  V30 27543 C 4792.12 4.24066 -6.42823 0
M  V30 27544 C 4792.85 5.20775 -5.52155 0
M  V30 27545 O 4793.06 4.56607 -4.22514 0
M  V30 27546 C 4794.25 5.62697 -5.96604 0
M  V30 27547 O 4794.64 6.87667 -5.41053 0
M  V30 27548 C 4795.13 4.52537 -5.39283 0
M  V30 27549 C 4794.42 4.20027 -4.08623 0
M  V30 27550 N 4794.47 2.76189 -3.71603 0
M  V30 27551 C 4794.39 1.66944 -4.54297 0
M  V30 27552 N 4794.46 0.536169 -3.91344 0
M  V30 27553 C 4794.61 0.901569 -2.58849 0
M  V30 27554 C 4794.74 0.146599 -1.40236 0
M  V30 27555 N 4794.75 -1.18234 -1.37046 0
M  V30 27556 N 4794.86 0.822941 -0.249738 0
M  V30 27557 C 4794.85 2.15179 -0.280525 0
M  V30 27558 N 4794.73 2.96414 -1.30822 0
M  V30 27559 C 4794.61 2.25804 -2.44748 0
M  V30 27560 H 4791.63 4.79756 -7.24086 0
M  V30 27561 H 4791.36 3.69963 -5.84682 0
M  V30 27562 H 4792.23 6.10431 -5.41508 0
M  V30 27563 H 4794.88 4.78816 -3.28024 0
M  V30 27564 H 4795.16 3.64957 -6.05871 0
M  V30 27565 H 4796.16 4.88748 -5.21323 0
M  V30 27566 H 4794.32 5.66789 -7.0643 0
M  V30 27567 H 4794.28 1.74684 -5.62396 0
M  V30 27568 H 4794.66 -1.71949 -2.24394 0
M  V30 27569 H 4794.85 -1.67511 -0.470742 0
M  V30 27570 H 4794.96 2.63704 0.6828 0
M  V30 27571 P 4796.19 7.20834 -5.23717 0
M  V30 27572 O 4796.41 8.66104 -5.38572 0
M  V30 27573 O 4796.98 6.33544 -6.1349 0
M  V30 27574 O 4796.44 6.7751 -3.72168 0
M  V30 27575 C 4795.5 7.20825 -2.7076 0
M  V30 27576 C 4796.23 7.45864 -1.40599 0
M  V30 27577 O 4796.44 6.17651 -0.734225 0
M  V30 27578 C 4797.63 8.05808 -1.51899 0
M  V30 27579 O 4798.02 8.74358 -0.335205 0
M  V30 27580 C 4798.51 6.83093 -1.70294 0
M  V30 27581 C 4797.8 5.79992 -0.836974 0
M  V30 27582 N 4797.85 4.41864 -1.38293 0
M  V30 27583 H 4795.01 8.13644 -3.0377 0
M  V30 27584 H 4794.74 6.42788 -2.55485 0
M  V30 27585 H 4795.61 8.12039 -0.792769 0
M  V30 27586 P 4799.57 8.91 -2.13662e-10 0
M  V30 27587 O 4799.79 10.1726 0.733694 0
M  V30 27588 O 4800.36 8.73148 -1.23936 0
M  V30 27589 O 4799.82 7.66872 0.971405 0
M  V30 27590 C 4798.88 7.42309 2.04641 0
M  V30 27591 C 4799.61 6.86059 3.24661 0
M  V30 27592 O 4799.82 5.42847 3.03646 0
M  V30 27593 C 4801.01 7.41196 3.50753 0
M  V30 27594 O 4801.4 7.27073 4.86816 0
M  V30 27595 C 4801.89 6.5273 2.63741 0
M  V30 27596 C 4801.18 5.1842 2.73198 0
M  V30 27597 N 4801.23 4.38762 1.4784 0
M  V30 27598 H 4798.39 8.36803 2.32493 0
M  V30 27599 H 4798.12 6.70197 1.71129 0
M  V30 27600 H 4798.99 7.03551 4.13168 0
M  V30 27601 P 4802.95 7.20834 5.23717 0
M  V30 27602 O 4803.17 7.80006 6.57415 0
M  V30 27603 O 4803.74 7.79416 4.13051 0
M  V30 27604 O 4803.2 5.63315 5.29344 0
M  V30 27605 C 4802.26 4.80318 6.01954 0
M  V30 27606 C 4802.99 3.64202 6.65911 0
M  V30 27607 O 4803.2 2.60736 5.64823 0
M  V30 27608 C 4804.39 3.93521 7.19518 0
M  V30 27609 O 4804.78 3.02071 8.21205 0
M  V30 27610 C 4805.27 3.73047 5.97036 0
M  V30 27611 C 4804.56 2.58828 5.25741 0
M  V30 27612 N 4804.61 2.68068 3.77503 0
M  V30 27613 C 4804.53 3.80474 2.99159 0
M  V30 27614 N 4804.6 3.55622 1.71925 0
M  V30 27615 C 4804.75 2.1832 1.65733 0
M  V30 27616 C 4804.88 1.28842 0.572777 0
M  V30 27617 N 4804.89 1.66875 -0.70098 0
M  V30 27618 N 4805 -0.016788 0.859836 0
M  V30 27619 C 4804.99 -0.398145 2.13316 0
M  V30 27620 N 4804.87 0.328224 3.22333 0
M  V30 27621 C 4804.75 1.62992 2.90383 0
M  V30 27622 H 4801.77 5.40394 6.8003 0
M  V30 27623 H 4801.5 4.41741 5.32532 0
M  V30 27624 H 4802.37 3.26371 7.47889 0
M  V30 27625 H 4805.02 1.64007 5.56746 0
M  V30 27626 H 4805.3 4.63439 5.3432 0
M  V30 27627 H 4806.3 3.44776 6.25925 0
M  V30 27628 H 4804.46 4.96707 7.57347 0
M  V30 27629 H 4804.42 4.8089 3.39924 0
M  V30 27630 H 4804.8 2.66547 -0.941919 0
M  V30 27631 H 4804.99 0.965341 -1.44766 0
M  V30 27632 H 4805.1 -1.46427 2.29697 0
M  V30 27633 P 4806.33 2.75334 8.47391 0
M  V30 27634 O 4806.55 2.44619 9.90336 0
M  V30 27635 O 4807.12 3.87776 7.92294 0
M  V30 27636 O 4806.58 1.4459 7.59357 0
M  V30 27637 C 4805.64 0.347653 7.69315 0
M  V30 27638 C 4806.37 -0.96767 7.52806 0
M  V30 27639 O 4806.58 -1.21055 6.10208 0
M  V30 27640 C 4807.77 -1.04557 8.13408 0
M  V30 27641 O 4808.16 -2.38311 8.41922 0
M  V30 27642 C 4808.65 -0.491279 7.02284 0
M  V30 27643 C 4807.94 -0.996264 5.77469 0
M  V30 27644 N 4807.99 -0.0501916 4.62973 0
M  V30 27645 C 4807.91 1.31969 4.65661 0
M  V30 27646 N 4807.98 1.86649 3.48119 0
M  V30 27647 C 4808.13 0.792089 2.62406 0
M  V30 27648 C 4808.26 0.705684 1.2207 0
M  V30 27649 N 4808.27 1.76207 0.413762 0
M  V30 27650 N 4808.38 -0.518981 0.685754 0
M  V30 27651 C 4808.37 -1.57595 1.49174 0
M  V30 27652 N 4808.25 -1.62909 2.80066 0
M  V30 27653 C 4808.13 -0.388195 3.3073 0
M  V30 27654 H 4805.15 0.374765 8.67791 0
M  V30 27655 H 4804.88 0.443613 6.90476 0
M  V30 27656 H 4805.75 -1.75559 7.96891 0
M  V30 27657 H 4808.4 -1.94563 5.46818 0
M  V30 27658 H 4808.68 0.608651 7.04676 0
M  V30 27659 H 4809.68 -0.889796 7.09039 0
M  V30 27660 H 4807.84 -0.433128 9.04664 0
M  V30 27661 H 4807.8 1.89246 5.57664 0
M  V30 27662 H 4808.18 2.71005 0.804694 0
M  V30 27663 H 4808.37 1.63189 -0.603768 0
M  V30 27664 H 4808.48 -2.53475 0.997614 0
M  V30 27665 P 4809.71 -2.75334 8.47391 0
M  V30 27666 O 4809.93 -3.84128 9.44797 0
M  V30 27667 O 4810.5 -1.51947 8.68712 0
M  V30 27668 O 4809.96 -3.29363 6.99321 0
M  V30 27669 C 4809.02 -4.24011 6.4274 0
M  V30 27670 C 4809.75 -5.20775 5.52155 0
M  V30 27671 O 4809.96 -4.56534 4.22446 0
M  V30 27672 C 4811.15 -5.62629 5.96531 0
M  V30 27673 O 4811.54 -6.87667 5.41053 0
M  V30 27674 C 4812.03 -4.52537 5.39283 0
M  V30 27675 C 4811.32 -4.20027 4.08623 0
M  V30 27676 N 4811.37 -2.76189 3.71603 0
M  V30 27677 C 4811.29 -1.64862 4.52822 0
M  V30 27678 N 4811.37 -0.512671 3.88633 0
M  V30 27679 C 4811.51 -0.888083 2.54977 0
M  V30 27680 C 4811.64 -0.094668 1.38677 0
M  V30 27681 N 4811.76 -0.890102 0.232633 0
M  V30 27682 C 4811.76 -2.26958 0.21772 0
M  V30 27683 N 4811.89 -2.84626 -0.97925 0
M  V30 27684 N 4811.63 -3.0178 1.31033 0
M  V30 27685 C 4811.51 -2.26781 2.43843 0
M  V30 27686 H 4808.53 -4.797 7.24003 0
M  V30 27687 H 4808.26 -3.69856 5.84513 0
M  V30 27688 H 4809.13 -6.10356 5.41441 0
M  V30 27689 P 4813.09 -7.20834 5.23717 0
M  V30 27690 O 4813.31 -8.66274 5.38678 0
M  V30 27691 O 4813.88 -6.33687 6.13629 0
M  V30 27692 O 4813.34 -6.7751 3.72168 0
M  V30 27693 C 4812.4 -7.20919 2.70795 0
M  V30 27694 C 4813.13 -7.45864 1.40599 0
M  V30 27695 O 4813.34 -6.17751 0.734343 0
M  V30 27696 C 4814.53 -8.05906 1.51917 0
M  V30 27697 O 4814.92 -8.74358 0.335205 0
M  V30 27698 C 4815.41 -6.83093 1.70294 0
M  V30 27699 C 4814.7 -5.79992 0.836974 0
M  V30 27700 N 4814.75 -4.41864 1.38293 0
M  V30 27701 H 4811.91 -8.13738 3.03804 0
M  V30 27702 H 4811.64 -6.42974 2.55559 0
M  V30 27703 H 4812.51 -8.12139 0.792866 0
M  V30 27704 H 4815.16 -5.80178 -0.160643 0
M  V30 27705 H 4815.44 -6.51379 2.75643 0
M  V30 27706 H 4816.44 -7.01832 1.3448 0
M  V30 27707 H 4814.6 -8.73771 2.38364 0
M  V30 27708 P 4816.47 -8.91 2.14771e-10 0
M  V30 27709 O 4816.69 -10.1726 -0.733694 0
M  V30 27710 O 4817.26 -8.73148 1.23936 0
M  V30 27711 O 4816.72 -7.66872 -0.971405 0
M  V30 27712 C 4815.78 -7.42309 -2.04641 0
M  V30 27713 C 4816.51 -6.86059 -3.24661 0
M  V30 27714 O 4816.72 -5.42847 -3.03646 0
M  V30 27715 C 4817.91 -7.41196 -3.50753 0
M  V30 27716 O 4818.3 -7.27073 -4.86816 0
M  V30 27717 C 4818.79 -6.5273 -2.63741 0
M  V30 27718 C 4818.08 -5.1842 -2.73198 0
M  V30 27719 N 4818.13 -4.38762 -1.4784 0
M  V30 27720 C 4818.05 -4.81605 -0.168631 0
M  V30 27721 N 4818.13 -3.85454 0.713363 0
M  V30 27722 C 4818.27 -2.6994 -0.0566958 0
M  V30 27723 C 4818.4 -1.34815 0.338502 0
M  V30 27724 N 4818.52 -0.496304 -0.77465 0
M  V30 27725 C 4818.52 -0.908403 -2.09122 0
M  V30 27726 N 4818.65 0.0517805 -3.00955 0
M  V30 27727 N 4818.39 -2.17875 -2.46519 0
M  V30 27728 C 4818.27 -3.01988 -1.4033 0
M  V30 27729 H 4815.29 -8.36803 -2.32493 0
M  V30 27730 H 4815.02 -6.70197 -1.71129 0
M  V30 27731 H 4815.89 -7.03551 -4.13168 0
M  V30 27732 P 4819.85 -7.20834 -5.23717 0
M  V30 27733 O 4820.07 -7.80006 -6.57415 0
M  V30 27734 O 4820.64 -7.79416 -4.13051 0
M  V30 27735 O 4820.1 -5.63315 -5.29344 0
M  V30 27736 C 4819.16 -4.80318 -6.01954 0
M  V30 27737 C 4819.89 -3.64202 -6.65911 0
M  V30 27738 O 4820.1 -2.60736 -5.64823 0
M  V30 27739 C 4821.29 -3.93521 -7.19518 0
M  V30 27740 O 4821.68 -3.02071 -8.21205 0
M  V30 27741 C 4822.17 -3.73047 -5.97036 0
M  V30 27742 C 4821.46 -2.58828 -5.25741 0
M  V30 27743 N 4821.51 -2.68068 -3.77503 0
M  V30 27744 H 4818.67 -5.40394 -6.8003 0
M  V30 27745 H 4818.4 -4.41741 -5.32532 0
M  V30 27746 H 4819.27 -3.26371 -7.47889 0
M  V30 27747 H 4821.92 -1.64007 -5.56746 0
M  V30 27748 H 4822.2 -4.63439 -5.3432 0
M  V30 27749 H 4823.2 -3.44776 -6.25925 0
M  V30 27750 H 4821.36 -4.96707 -7.57347 0
M  V30 27751 P 4823.23 -2.75334 -8.47391 0
M  V30 27752 O 4823.45 -2.44571 -9.90142 0
M  V30 27753 O 4824.02 -3.87688 -7.92115 0
M  V30 27754 O 4823.48 -1.4459 -7.59357 0
M  V30 27755 C 4822.54 -0.347608 -7.69215 0
M  V30 27756 C 4823.27 0.96767 -7.52806 0
M  V30 27757 O 4823.48 1.21036 -6.1011 0
M  V30 27758 C 4824.67 1.04544 -8.13308 0
M  V30 27759 O 4825.06 2.38311 -8.41922 0
M  V30 27760 C 4825.55 0.491279 -7.02284 0
M  V30 27761 C 4824.84 0.996264 -5.77469 0
M  V30 27762 N 4824.89 0.0501916 -4.62973 0
M  V30 27763 H 4822.05 -0.374722 -8.67691 0
M  V30 27764 H 4821.78 -0.443485 -6.90277 0
M  V30 27765 H 4822.65 1.75537 -7.96793 0
M  V30 27766 P 4826.61 2.75334 -8.47391 0
M  V30 27767 O 4826.83 3.84128 -9.44797 0
M  V30 27768 O 4827.4 1.51947 -8.68712 0
M  V30 27769 O 4826.86 3.29363 -6.99321 0
M  V30 27770 C 4825.92 4.24011 -6.4274 0
M  V30 27771 C 4826.65 5.20775 -5.52155 0
M  V30 27772 O 4826.86 4.56534 -4.22446 0
M  V30 27773 C 4828.05 5.62629 -5.96531 0
M  V30 27774 O 4828.44 6.87667 -5.41053 0
M  V30 27775 C 4828.93 4.52537 -5.39283 0
M  V30 27776 C 4828.22 4.20027 -4.08623 0
M  V30 27777 N 4828.27 2.76189 -3.71603 0
M  V30 27778 H 4825.43 4.797 -7.24003 0
M  V30 27779 H 4825.16 3.69856 -5.84513 0
M  V30 27780 H 4826.03 6.10356 -5.41441 0
M  V30 27781 P 4829.99 7.20834 -5.23717 0
M  V30 27782 O 4830.21 8.66104 -5.38572 0
M  V30 27783 O 4830.78 6.33544 -6.1349 0
M  V30 27784 O 4830.24 6.7751 -3.72168 0
M  V30 27785 C 4829.3 7.20825 -2.7076 0
M  V30 27786 C 4830.03 7.45864 -1.40599 0
M  V30 27787 O 4830.24 6.17651 -0.734225 0
M  V30 27788 C 4831.43 8.05808 -1.51899 0
M  V30 27789 O 4831.82 8.74358 -0.335205 0
M  V30 27790 C 4832.31 6.83093 -1.70294 0
M  V30 27791 C 4831.6 5.79992 -0.836974 0
M  V30 27792 N 4831.65 4.41864 -1.38293 0
M  V30 27793 H 4828.81 8.13644 -3.0377 0
M  V30 27794 H 4828.54 6.42788 -2.55485 0
M  V30 27795 H 4829.41 8.12039 -0.792769 0
M  V30 27796 P 4833.37 8.91 -2.1588e-10 0
M  V30 27797 O 4833.59 10.1746 0.733838 0
M  V30 27798 O 4834.16 8.73346 -1.23964 0
M  V30 27799 O 4833.62 7.66872 0.971405 0
M  V30 27800 C 4832.68 7.42405 2.04668 0
M  V30 27801 C 4833.41 6.86059 3.24661 0
M  V30 27802 O 4833.62 5.42934 3.03695 0
M  V30 27803 C 4834.81 7.41287 3.50796 0
M  V30 27804 O 4835.2 7.27073 4.86816 0
M  V30 27805 C 4835.69 6.5273 2.63741 0
M  V30 27806 C 4834.98 5.1842 2.73198 0
M  V30 27807 N 4835.03 4.38762 1.4784 0
M  V30 27808 C 4834.95 4.83651 0.183876 0
M  V30 27809 N 4835.02 3.88759 -0.699393 0
M  V30 27810 C 4835.17 2.7404 0.0575568 0
M  V30 27811 C 4835.3 1.37902 -0.293928 0
M  V30 27812 N 4835.31 0.938021 -1.54797 0
M  V30 27813 N 4835.42 0.491817 0.70549 0
M  V30 27814 C 4835.41 0.931735 1.95979 0
M  V30 27815 N 4835.29 2.16017 2.41481 0
M  V30 27816 C 4835.17 3.02547 1.39121 0
M  V30 27817 H 4832.19 8.36899 2.3252 0
M  V30 27818 H 4831.92 6.70391 1.71179 0
M  V30 27819 H 4832.79 7.03638 4.13219 0
M  V30 27820 H 4835.44 4.59931 3.54016 0
M  V30 27821 H 4835.72 6.88995 1.59871 0
M  V30 27822 H 4836.72 6.4684 3.0373 0
M  V30 27823 H 4834.88 8.47002 3.20749 0
M  V30 27824 H 4834.84 5.8885 -0.0765548 0
M  V30 27825 H 4835.22 1.60276 -2.32875 0
M  V30 27826 H 4835.41 -0.0699355 -1.73859 0
M  V30 27827 H 4835.52 0.165507 2.71897 0
M  V30 27828 P 4836.75 7.20834 5.23717 0
M  V30 27829 O 4836.97 7.79853 6.57286 0
M  V30 27830 O 4837.54 7.79239 4.12957 0
M  V30 27831 O 4837 5.63315 5.29344 0
M  V30 27832 C 4836.06 4.80255 6.01876 0
M  V30 27833 C 4836.79 3.64202 6.65911 0
M  V30 27834 O 4837 2.60694 5.64732 0
M  V30 27835 C 4838.19 3.93473 7.1943 0
M  V30 27836 O 4838.58 3.02071 8.21205 0
M  V30 27837 C 4839.07 3.73047 5.97036 0
M  V30 27838 C 4838.36 2.58828 5.25741 0
M  V30 27839 N 4838.41 2.68068 3.77503 0
M  V30 27840 H 4835.57 5.40332 6.79951 0
M  V30 27841 H 4835.3 4.41613 5.32378 0
M  V30 27842 H 4836.17 3.26331 7.47797 0
M  V30 27843 P 4840.13 2.75334 8.47391 0
M  V30 27844 O 4840.35 2.44571 9.90142 0
M  V30 27845 O 4840.92 3.87688 7.92115 0
M  V30 27846 O 4840.38 1.4459 7.59357 0
M  V30 27847 C 4839.44 0.347608 7.69215 0
M  V30 27848 C 4840.17 -0.96767 7.52806 0
M  V30 27849 O 4840.38 -1.21036 6.1011 0
M  V30 27850 C 4841.57 -1.04544 8.13308 0
M  V30 27851 O 4841.96 -2.38311 8.41922 0
M  V30 27852 C 4842.45 -0.491279 7.02284 0
M  V30 27853 C 4841.74 -0.996264 5.77469 0
M  V30 27854 N 4841.79 -0.0501916 4.62973 0
M  V30 27855 C 4841.71 1.32786 4.63244 0
M  V30 27856 N 4841.79 1.86957 3.44545 0
M  V30 27857 C 4841.93 0.780241 2.58481 0
M  V30 27858 C 4842.06 0.738536 1.17757 0
M  V30 27859 O 4842.08 1.66794 0.372349 0
M  V30 27860 N 4842.18 -0.58337 0.711393 0
M  V30 27861 C 4842.18 -1.70816 1.51017 0
M  V30 27862 N 4842.31 -2.87826 0.880757 0
M  V30 27863 N 4842.05 -1.67126 2.8339 0
M  V30 27864 C 4841.93 -0.401421 3.30572 0
M  V30 27865 H 4838.95 0.374722 8.67691 0
M  V30 27866 H 4838.68 0.443485 6.90277 0
M  V30 27867 H 4839.55 -1.75537 7.96793 0
M  V30 27868 H 4842.2 -1.95076 5.46529 0
M  V30 27869 H 4842.48 0.608565 7.04577 0
M  V30 27870 H 4843.48 -0.889672 7.08939 0
M  V30 27871 H 4841.64 -0.43308 9.04564 0
M  V30 27872 H 4841.59 1.91249 5.54442 0
M  V30 27873 H 4842.27 -0.718054 -0.275244 0
M  V30 27874 H 4842.31 -3.75721 1.41832 0
M  V30 27875 H 4842.41 -2.90436 -0.145468 0
M  V30 27876 P 4843.51 -2.75334 8.47391 0
M  V30 27877 O 4843.73 -3.84128 9.44797 0
M  V30 27878 O 4844.3 -1.51947 8.68712 0
M  V30 27879 O 4843.76 -3.29363 6.99321 0
M  V30 27880 C 4842.82 -4.24011 6.4274 0
M  V30 27881 C 4843.55 -5.20775 5.52155 0
M  V30 27882 O 4843.76 -4.56534 4.22446 0
M  V30 27883 C 4844.95 -5.62629 5.96531 0
M  V30 27884 O 4845.34 -6.87667 5.41053 0
M  V30 27885 C 4845.83 -4.52537 5.39283 0
M  V30 27886 C 4845.12 -4.20027 4.08623 0
M  V30 27887 N 4845.17 -2.76189 3.71603 0
M  V30 27888 H 4842.33 -4.797 7.24003 0
M  V30 27889 H 4842.06 -3.69856 5.84513 0
M  V30 27890 H 4842.93 -6.10356 5.41441 0
M  V30 27891 P 4846.89 -7.20834 5.23717 0
M  V30 27892 O 4847.11 -8.66104 5.38572 0
M  V30 27893 O 4847.68 -6.33544 6.1349 0
M  V30 27894 O 4847.14 -6.7751 3.72168 0
M  V30 27895 C 4846.2 -7.20825 2.7076 0
M  V30 27896 C 4846.93 -7.45864 1.40599 0
M  V30 27897 O 4847.14 -6.17651 0.734225 0
M  V30 27898 C 4848.33 -8.05808 1.51899 0
M  V30 27899 O 4848.72 -8.74358 0.335205 0
M  V30 27900 C 4849.21 -6.83093 1.70294 0
M  V30 27901 C 4848.5 -5.79992 0.836974 0
M  V30 27902 N 4848.55 -4.41864 1.38293 0
M  V30 27903 H 4845.71 -8.13644 3.0377 0
M  V30 27904 H 4845.44 -6.42788 2.55485 0
M  V30 27905 H 4846.31 -8.12039 0.792769 0
M  V30 27906 P 4850.27 -8.91 2.16989e-10 0
M  V30 27907 O 4850.49 -10.1746 -0.733838 0
M  V30 27908 O 4851.06 -8.73346 1.23964 0
M  V30 27909 O 4850.52 -7.66872 -0.971405 0
M  V30 27910 C 4849.58 -7.42405 -2.04668 0
M  V30 27911 C 4850.31 -6.86059 -3.24661 0
M  V30 27912 O 4850.52 -5.42934 -3.03695 0
M  V30 27913 C 4851.71 -7.41287 -3.50796 0
M  V30 27914 O 4852.1 -7.27073 -4.86816 0
M  V30 27915 C 4852.59 -6.5273 -2.63741 0
M  V30 27916 C 4851.88 -5.1842 -2.73198 0
M  V30 27917 N 4851.93 -4.38762 -1.4784 0
M  V30 27918 H 4849.09 -8.36899 -2.3252 0
M  V30 27919 H 4848.82 -6.70391 -1.71179 0
M  V30 27920 H 4849.69 -7.03638 -4.13219 0
M  V30 27921 H 4852.34 -4.59931 -3.54016 0
M  V30 27922 H 4852.62 -6.88995 -1.59871 0
M  V30 27923 H 4853.62 -6.4684 -3.0373 0
M  V30 27924 H 4851.78 -8.47002 -3.20749 0
M  V30 27925 P 4853.65 -7.20834 -5.23717 0
M  V30 27926 O 4853.87 -7.79853 -6.57286 0
M  V30 27927 O 4854.44 -7.79239 -4.12957 0
M  V30 27928 O 4853.9 -5.63315 -5.29344 0
M  V30 27929 C 4852.96 -4.80255 -6.01876 0
M  V30 27930 C 4853.69 -3.64202 -6.65911 0
M  V30 27931 O 4853.9 -2.60694 -5.64732 0
M  V30 27932 C 4855.09 -3.93473 -7.1943 0
M  V30 27933 O 4855.48 -3.02071 -8.21205 0
M  V30 27934 C 4855.97 -3.73047 -5.97036 0
M  V30 27935 C 4855.26 -2.58828 -5.25741 0
M  V30 27936 N 4855.31 -2.68068 -3.77503 0
M  V30 27937 C 4855.23 -3.79715 -2.96723 0
M  V30 27938 N 4855.31 -3.5377 -1.68852 0
M  V30 27939 C 4855.45 -2.15054 -1.63254 0
M  V30 27940 C 4855.58 -1.28964 -0.518571 0
M  V30 27941 N 4855.7 0.0538097 -0.918425 0
M  V30 27942 C 4855.7 0.494275 -2.22578 0
M  V30 27943 N 4855.83 1.81086 -2.40434 0
M  V30 27944 N 4855.57 -0.313645 -3.27502 0
M  V30 27945 C 4855.45 -1.61829 -2.91033 0
M  V30 27946 H 4852.47 -5.40332 -6.79951 0
M  V30 27947 H 4852.2 -4.41613 -5.32378 0
M  V30 27948 H 4853.07 -3.26331 -7.47797 0
M  V30 27949 P 4857.03 -2.75334 -8.47391 0
M  V30 27950 O 4857.25 -2.44571 -9.90142 0
M  V30 27951 O 4857.82 -3.87688 -7.92115 0
M  V30 27952 O 4857.28 -1.4459 -7.59357 0
M  V30 27953 C 4856.34 -0.347608 -7.69215 0
M  V30 27954 C 4857.07 0.96767 -7.52806 0
M  V30 27955 O 4857.28 1.21036 -6.1011 0
M  V30 27956 C 4858.47 1.04544 -8.13308 0
M  V30 27957 O 4858.86 2.38311 -8.41922 0
M  V30 27958 C 4859.35 0.491279 -7.02284 0
M  V30 27959 C 4858.64 0.996264 -5.77469 0
M  V30 27960 N 4858.69 0.0501916 -4.62973 0
M  V30 27961 H 4855.85 -0.374722 -8.67691 0
M  V30 27962 H 4855.58 -0.443485 -6.90277 0
M  V30 27963 H 4856.45 1.75537 -7.96793 0
M  V30 27964 P 4860.41 2.75334 -8.47391 0
M  V30 27965 O 4860.63 3.84128 -9.44797 0
M  V30 27966 O 4861.2 1.51947 -8.68712 0
M  V30 27967 O 4860.66 3.29363 -6.99321 0
M  V30 27968 C 4859.72 4.24011 -6.4274 0
M  V30 27969 C 4860.45 5.20775 -5.52155 0
M  V30 27970 O 4860.66 4.56534 -4.22446 0
M  V30 27971 C 4861.85 5.62629 -5.96531 0
M  V30 27972 O 4862.24 6.87667 -5.41053 0
M  V30 27973 C 4862.73 4.52537 -5.39283 0
M  V30 27974 C 4862.02 4.20027 -4.08623 0
M  V30 27975 N 4862.07 2.76189 -3.71603 0
M  V30 27976 H 4859.23 4.797 -7.24003 0
M  V30 27977 H 4858.96 3.69856 -5.84513 0
M  V30 27978 H 4859.83 6.10356 -5.41441 0
M  V30 27979 P 4863.79 7.20834 -5.23717 0
M  V30 27980 O 4864.01 8.66104 -5.38572 0
M  V30 27981 O 4864.58 6.33544 -6.1349 0
M  V30 27982 O 4864.04 6.7751 -3.72168 0
M  V30 27983 C 4863.1 7.20825 -2.7076 0
M  V30 27984 C 4863.83 7.45864 -1.40599 0
M  V30 27985 O 4864.04 6.17651 -0.734225 0
M  V30 27986 C 4865.23 8.05808 -1.51899 0
M  V30 27987 O 4865.62 8.74358 -0.335205 0
M  V30 27988 C 4866.11 6.83093 -1.70294 0
M  V30 27989 C 4865.4 5.79992 -0.836974 0
M  V30 27990 N 4865.45 4.41864 -1.38293 0
M  V30 27991 H 4862.61 8.13644 -3.0377 0
M  V30 27992 H 4862.34 6.42788 -2.55485 0
M  V30 27993 H 4863.21 8.12039 -0.792769 0
M  V30 27994 P 4867.17 8.91 -2.18098e-10 0
M  V30 27995 O 4867.39 10.1726 0.733694 0
M  V30 27996 O 4867.96 8.73148 -1.23936 0
M  V30 27997 O 4867.42 7.66872 0.971405 0
M  V30 27998 C 4866.48 7.42309 2.04641 0
M  V30 27999 C 4867.21 6.86059 3.24661 0
M  V30 28000 O 4867.42 5.42847 3.03646 0
M  V30 28001 C 4868.61 7.41196 3.50753 0
M  V30 28002 O 4869 7.27073 4.86816 0
M  V30 28003 C 4869.49 6.5273 2.63741 0
M  V30 28004 C 4868.78 5.1842 2.73198 0
M  V30 28005 N 4868.83 4.38762 1.4784 0
M  V30 28006 H 4865.99 8.36803 2.32493 0
M  V30 28007 H 4865.72 6.70197 1.71129 0
M  V30 28008 H 4866.59 7.03551 4.13168 0
M  V30 28009 P 4870.55 7.20834 5.23717 0
M  V30 28010 O 4870.77 7.79853 6.57286 0
M  V30 28011 O 4871.34 7.79239 4.12957 0
M  V30 28012 O 4870.8 5.63315 5.29344 0
M  V30 28013 C 4869.86 4.80255 6.01876 0
M  V30 28014 C 4870.59 3.64202 6.65911 0
M  V30 28015 O 4870.8 2.60694 5.64732 0
M  V30 28016 C 4871.99 3.93473 7.1943 0
M  V30 28017 O 4872.38 3.02071 8.21205 0
M  V30 28018 C 4872.87 3.73047 5.97036 0
M  V30 28019 C 4872.16 2.58828 5.25741 0
M  V30 28020 N 4872.21 2.68068 3.77503 0
M  V30 28021 H 4869.37 5.40332 6.79951 0
M  V30 28022 H 4869.1 4.41613 5.32378 0
M  V30 28023 H 4869.97 3.26331 7.47797 0
M  V30 28024 P 4873.93 2.75334 8.47391 0
M  V30 28025 O 4874.15 2.44571 9.90142 0
M  V30 28026 O 4874.72 3.87688 7.92115 0
M  V30 28027 O 4874.18 1.4459 7.59357 0
M  V30 28028 C 4873.24 0.347608 7.69215 0
M  V30 28029 C 4873.97 -0.96767 7.52806 0
M  V30 28030 O 4874.18 -1.21036 6.1011 0
M  V30 28031 C 4875.37 -1.04544 8.13308 0
M  V30 28032 O 4875.76 -2.38311 8.41922 0
M  V30 28033 C 4876.25 -0.491279 7.02284 0
M  V30 28034 C 4875.54 -0.996264 5.77469 0
M  V30 28035 N 4875.59 -0.0501916 4.62973 0
M  V30 28036 H 4872.75 0.374722 8.67691 0
M  V30 28037 H 4872.48 0.443485 6.90277 0
M  V30 28038 H 4873.35 -1.75537 7.96793 0
M  V30 28039 P 4877.31 -2.75334 8.47391 0
M  V30 28040 O 4877.53 -3.84128 9.44797 0
M  V30 28041 O 4878.1 -1.51947 8.68712 0
M  V30 28042 O 4877.56 -3.29363 6.99321 0
M  V30 28043 C 4876.62 -4.24011 6.4274 0
M  V30 28044 C 4877.35 -5.20775 5.52155 0
M  V30 28045 O 4877.56 -4.56534 4.22446 0
M  V30 28046 C 4878.75 -5.62629 5.96531 0
M  V30 28047 O 4879.14 -6.87667 5.41053 0
M  V30 28048 C 4879.63 -4.52537 5.39283 0
M  V30 28049 C 4878.92 -4.20027 4.08623 0
M  V30 28050 N 4878.97 -2.76189 3.71603 0
M  V30 28051 H 4876.13 -4.797 7.24003 0
M  V30 28052 H 4875.86 -3.69856 5.84513 0
M  V30 28053 H 4876.73 -6.10356 5.41441 0
M  V30 28054 P 4880.69 -7.20834 5.23717 0
M  V30 28055 O 4880.91 -8.66104 5.38572 0
M  V30 28056 O 4881.48 -6.33544 6.1349 0
M  V30 28057 O 4880.94 -6.7751 3.72168 0
M  V30 28058 C 4880 -7.20825 2.7076 0
M  V30 28059 C 4880.73 -7.45864 1.40599 0
M  V30 28060 O 4880.94 -6.17651 0.734225 0
M  V30 28061 C 4882.13 -8.05808 1.51899 0
M  V30 28062 O 4882.52 -8.74358 0.335205 0
M  V30 28063 C 4883.01 -6.83093 1.70294 0
M  V30 28064 C 4882.3 -5.79992 0.836974 0
M  V30 28065 N 4882.35 -4.41864 1.38293 0
M  V30 28066 C 4882.27 -3.99538 2.69438 0
M  V30 28067 N 4882.35 -2.69909 2.84277 0
M  V30 28068 C 4882.49 -2.21719 1.5408 0
M  V30 28069 C 4882.62 -0.891712 1.06628 0
M  V30 28070 N 4882.74 -0.856846 -0.334985 0
M  V30 28071 C 4882.74 -1.9641 -1.15789 0
M  V30 28072 N 4882.87 -1.72708 -2.46522 0
M  V30 28073 N 4882.61 -3.21165 -0.713741 0
M  V30 28074 C 4882.49 -3.26797 0.639748 0
M  V30 28075 H 4879.51 -8.13644 3.0377 0
M  V30 28076 H 4879.24 -6.42788 2.55485 0
M  V30 28077 H 4880.11 -8.12039 0.792769 0
M  V30 28078 P 4884.07 -8.91 2.19207e-10 0
M  V30 28079 O 4884.29 -10.1726 -0.733694 0
M  V30 28080 O 4884.86 -8.73148 1.23936 0
M  V30 28081 O 4884.32 -7.66872 -0.971405 0
M  V30 28082 C 4883.38 -7.42309 -2.04641 0
M  V30 28083 C 4884.11 -6.86059 -3.24661 0
M  V30 28084 O 4884.32 -5.42847 -3.03646 0
M  V30 28085 C 4885.51 -7.41196 -3.50753 0
M  V30 28086 O 4885.9 -7.27073 -4.86816 0
M  V30 28087 C 4886.39 -6.5273 -2.63741 0
M  V30 28088 C 4885.68 -5.1842 -2.73198 0
M  V30 28089 N 4885.73 -4.38762 -1.4784 0
M  V30 28090 H 4882.89 -8.36803 -2.32493 0
M  V30 28091 H 4882.62 -6.70197 -1.71129 0
M  V30 28092 H 4883.49 -7.03551 -4.13168 0
M  V30 28093 P 4887.45 -7.20834 -5.23717 0
M  V30 28094 O 4887.67 -7.79853 -6.57286 0
M  V30 28095 O 4888.24 -7.79239 -4.12957 0
M  V30 28096 O 4887.7 -5.63315 -5.29344 0
M  V30 28097 C 4886.76 -4.80255 -6.01876 0
M  V30 28098 C 4887.49 -3.64202 -6.65911 0
M  V30 28099 O 4887.7 -2.60694 -5.64732 0
M  V30 28100 C 4888.89 -3.93473 -7.1943 0
M  V30 28101 O 4889.28 -3.02071 -8.21205 0
M  V30 28102 C 4889.77 -3.73047 -5.97036 0
M  V30 28103 C 4889.06 -2.58828 -5.25741 0
M  V30 28104 N 4889.11 -2.68068 -3.77503 0
M  V30 28105 H 4886.27 -5.40332 -6.79951 0
M  V30 28106 H 4886 -4.41613 -5.32378 0
M  V30 28107 H 4886.87 -3.26331 -7.47797 0
M  V30 28108 P 4890.83 -2.75334 -8.47391 0
M  V30 28109 O 4891.05 -2.44571 -9.90142 0
M  V30 28110 O 4891.62 -3.87688 -7.92115 0
M  V30 28111 O 4891.08 -1.4459 -7.59357 0
M  V30 28112 C 4890.14 -0.347608 -7.69215 0
M  V30 28113 C 4890.87 0.96767 -7.52806 0
M  V30 28114 O 4891.08 1.21036 -6.1011 0
M  V30 28115 C 4892.27 1.04544 -8.13308 0
M  V30 28116 O 4892.66 2.38311 -8.41922 0
M  V30 28117 C 4893.15 0.491279 -7.02284 0
M  V30 28118 C 4892.44 0.996264 -5.77469 0
M  V30 28119 N 4892.49 0.0501916 -4.62973 0
M  V30 28120 H 4889.65 -0.374722 -8.67691 0
M  V30 28121 H 4889.38 -0.443485 -6.90277 0
M  V30 28122 H 4890.25 1.75537 -7.96793 0
M  V30 28123 P 4894.21 2.75334 -8.47391 0
M  V30 28124 O 4894.43 3.84128 -9.44797 0
M  V30 28125 O 4895 1.51947 -8.68712 0
M  V30 28126 O 4894.46 3.29363 -6.99321 0
M  V30 28127 C 4893.52 4.24011 -6.4274 0
M  V30 28128 C 4894.25 5.20775 -5.52155 0
M  V30 28129 O 4894.46 4.56534 -4.22446 0
M  V30 28130 C 4895.65 5.62629 -5.96531 0
M  V30 28131 O 4896.04 6.87667 -5.41053 0
M  V30 28132 C 4896.53 4.52537 -5.39283 0
M  V30 28133 C 4895.82 4.20027 -4.08623 0
M  V30 28134 N 4895.87 2.76189 -3.71603 0
M  V30 28135 C 4895.79 1.64862 -4.52822 0
M  V30 28136 N 4895.87 0.512671 -3.88633 0
M  V30 28137 C 4896.01 0.888083 -2.54977 0
M  V30 28138 C 4896.14 0.094668 -1.38677 0
M  V30 28139 O 4896.16 -1.13053 -1.28163 0
M  V30 28140 N 4896.26 0.890102 -0.232633 0
M  V30 28141 C 4896.26 2.26958 -0.21772 0
M  V30 28142 N 4896.39 2.84626 0.97925 0
M  V30 28143 N 4896.13 3.0178 -1.31033 0
M  V30 28144 C 4896.01 2.26781 -2.43843 0
M  V30 28145 H 4893.03 4.797 -7.24003 0
M  V30 28146 H 4892.76 3.69856 -5.84513 0
M  V30 28147 H 4893.63 6.10356 -5.41441 0
M  V30 28148 H 4896.28 4.79061 -3.27488 0
M  V30 28149 H 4896.56 3.64906 -6.05785 0
M  V30 28150 H 4897.56 4.8868 -5.2125 0
M  V30 28151 H 4895.72 5.66726 -7.06352 0
M  V30 28152 H 4895.67 1.71169 -5.60966 0
M  V30 28153 H 4896.35 0.419134 0.644739 0
M  V30 28154 H 4896.39 3.87332 1.06098 0
M  V30 28155 H 4896.49 2.26417 1.82483 0
M  V30 28156 P 4897.59 7.20834 -5.23717 0
M  V30 28157 O 4897.81 8.66189 -5.38625 0
M  V30 28158 O 4898.38 6.33615 -6.1356 0
M  V30 28159 O 4897.84 6.7751 -3.72168 0
M  V30 28160 C 4896.9 7.20732 -2.70725 0
M  V30 28161 C 4897.63 7.45864 -1.40599 0
M  V30 28162 O 4897.84 6.17651 -0.734225 0
M  V30 28163 C 4899.03 8.05808 -1.51899 0
M  V30 28164 O 4899.42 8.74358 -0.335205 0
M  V30 28165 C 4899.91 6.83093 -1.70294 0
M  V30 28166 C 4899.2 5.79992 -0.836974 0
M  V30 28167 N 4899.25 4.41769 -1.38263 0
M  V30 28168 C 4899.4 3.38591 -0.481702 0
M  V30 28169 O 4899.49 3.56839 0.718452 0
M  V30 28170 N 4899.44 2.1206 -1.03569 0
M  V30 28171 C 4899.35 1.80696 -2.36966 0
M  V30 28172 O 4899.4 0.630473 -2.74862 0
M  V30 28173 C 4899.2 2.94845 -3.23898 0
M  V30 28174 C 4899.09 2.65253 -4.70362 0
M  V30 28175 C 4899.15 4.19803 -2.73435 0
M  V30 28176 H 4896.41 8.13644 -3.0377 0
M  V30 28177 H 4896.14 6.42695 -2.55448 0
M  V30 28178 H 4897.01 8.12039 -0.792769 0
M  V30 28179 H 4899.66 5.79978 0.160587 0
M  V30 28180 H 4899.94 6.51379 -2.75643 0
M  V30 28181 H 4900.94 7.01734 -1.34462 0
M  V30 28182 H 4899.1 8.73674 -2.38337 0
M  V30 28183 H 4899.03 5.04492 -3.4095 0
M  V30 28184 H 4900.06 2.83924 -5.1913 0
M  V30 28185 H 4898.32 3.29824 -5.15163 0
M  V30 28186 H 4898.81 1.59723 -4.84449 0
M  V30 28187 H 4899.55 1.35644 -0.399345 0
M  V30 28188 P 4900.97 8.91 -2.20316e-10 0
M  V30 28189 O 4901.19 10.1746 0.733838 0
M  V30 28190 O 4901.76 8.73346 -1.23964 0
M  V30 28191 O 4901.22 7.66872 0.971405 0
M  V30 28192 C 4900.28 7.42405 2.04668 0
M  V30 28193 C 4901.01 6.86059 3.24661 0
M  V30 28194 O 4901.22 5.42934 3.03695 0
M  V30 28195 C 4902.41 7.41287 3.50796 0
M  V30 28196 O 4902.8 7.27073 4.86816 0
M  V30 28197 C 4903.29 6.5273 2.63741 0
M  V30 28198 C 4902.58 5.1842 2.73198 0
M  V30 28199 N 4902.63 4.38762 1.4784 0
M  V30 28200 H 4899.79 8.36899 2.3252 0
M  V30 28201 H 4899.52 6.70391 1.71179 0
M  V30 28202 H 4900.39 7.03638 4.13219 0
M  V30 28203 H 4903.04 4.59931 3.54016 0
M  V30 28204 H 4903.32 6.88995 1.59871 0
M  V30 28205 H 4904.32 6.4684 3.0373 0
M  V30 28206 H 4902.48 8.47002 3.20749 0
M  V30 28207 P 4904.35 7.20834 5.23717 0
M  V30 28208 O 4904.57 7.80006 6.57415 0
M  V30 28209 O 4905.14 7.79416 4.13051 0
M  V30 28210 O 4904.6 5.63315 5.29344 0
M  V30 28211 C 4903.66 4.80318 6.01954 0
M  V30 28212 C 4904.39 3.64202 6.65911 0
M  V30 28213 O 4904.6 2.60736 5.64823 0
M  V30 28214 C 4905.79 3.93521 7.19518 0
M  V30 28215 O 4906.18 3.02071 8.21205 0
M  V30 28216 C 4906.67 3.73047 5.97036 0
M  V30 28217 C 4905.96 2.58828 5.25741 0
M  V30 28218 N 4906.01 2.68068 3.77503 0
M  V30 28219 C 4905.93 3.80474 2.99159 0
M  V30 28220 N 4906 3.55622 1.71925 0
M  V30 28221 C 4906.15 2.1832 1.65733 0
M  V30 28222 C 4906.28 1.28842 0.572777 0
M  V30 28223 N 4906.29 1.66875 -0.70098 0
M  V30 28224 N 4906.4 -0.016788 0.859836 0
M  V30 28225 C 4906.39 -0.398145 2.13316 0
M  V30 28226 N 4906.27 0.328224 3.22333 0
M  V30 28227 C 4906.15 1.62992 2.90383 0
M  V30 28228 H 4903.17 5.40394 6.8003 0
M  V30 28229 H 4902.9 4.41741 5.32532 0
M  V30 28230 H 4903.77 3.26371 7.47889 0
M  V30 28231 H 4906.42 1.64007 5.56746 0
M  V30 28232 H 4906.7 4.63439 5.3432 0
M  V30 28233 H 4907.69 3.44776 6.25925 0
M  V30 28234 H 4905.86 4.96707 7.57347 0
M  V30 28235 H 4905.82 4.8089 3.39924 0
M  V30 28236 H 4906.2 2.66547 -0.941919 0
M  V30 28237 H 4906.39 0.965341 -1.44766 0
M  V30 28238 H 4906.5 -1.46427 2.29697 0
M  V30 28239 P 4907.73 2.75334 8.47391 0
M  V30 28240 O 4907.95 2.44571 9.90142 0
M  V30 28241 O 4908.52 3.87688 7.92115 0
M  V30 28242 O 4907.98 1.4459 7.59357 0
M  V30 28243 C 4907.04 0.347608 7.69215 0
M  V30 28244 C 4907.77 -0.96767 7.52806 0
M  V30 28245 O 4907.98 -1.21036 6.1011 0
M  V30 28246 C 4909.17 -1.04544 8.13308 0
M  V30 28247 O 4909.56 -2.38311 8.41922 0
M  V30 28248 C 4910.05 -0.491279 7.02284 0
M  V30 28249 C 4909.34 -0.996264 5.77469 0
M  V30 28250 N 4909.39 -0.0501916 4.62973 0
M  V30 28251 C 4909.31 1.32786 4.63244 0
M  V30 28252 N 4909.39 1.86957 3.44545 0
M  V30 28253 C 4909.53 0.780241 2.58481 0
M  V30 28254 C 4909.66 0.738536 1.17757 0
M  V30 28255 N 4909.78 -0.58337 0.711393 0
M  V30 28256 C 4909.78 -1.70816 1.51017 0
M  V30 28257 N 4909.91 -2.87826 0.880757 0
M  V30 28258 N 4909.65 -1.67126 2.8339 0
M  V30 28259 C 4909.53 -0.401421 3.30572 0
M  V30 28260 H 4906.55 0.374722 8.67691 0
M  V30 28261 H 4906.28 0.443485 6.90277 0
M  V30 28262 H 4907.15 -1.75537 7.96793 0
M  V30 28263 P 4911.11 -2.75334 8.47391 0
M  V30 28264 O 4911.33 -3.84128 9.44797 0
M  V30 28265 O 4911.9 -1.51947 8.68712 0
M  V30 28266 O 4911.36 -3.29363 6.99321 0
M  V30 28267 C 4910.42 -4.24011 6.4274 0
M  V30 28268 C 4911.15 -5.20775 5.52155 0
M  V30 28269 O 4911.36 -4.56534 4.22446 0
M  V30 28270 C 4912.55 -5.62629 5.96531 0
M  V30 28271 O 4912.94 -6.87667 5.41053 0
M  V30 28272 C 4913.43 -4.52537 5.39283 0
M  V30 28273 C 4912.72 -4.20027 4.08623 0
M  V30 28274 N 4912.77 -2.76189 3.71603 0
M  V30 28275 H 4909.93 -4.797 7.24003 0
M  V30 28276 H 4909.66 -3.69856 5.84513 0
M  V30 28277 H 4910.53 -6.10356 5.41441 0
M  V30 28278 P 4914.49 -7.20834 5.23717 0
M  V30 28279 O 4914.71 -8.66104 5.38572 0
M  V30 28280 O 4915.28 -6.33544 6.1349 0
M  V30 28281 O 4914.74 -6.7751 3.72168 0
M  V30 28282 C 4913.8 -7.20825 2.7076 0
M  V30 28283 C 4914.53 -7.45864 1.40599 0
M  V30 28284 O 4914.74 -6.17651 0.734225 0
M  V30 28285 C 4915.93 -8.05808 1.51899 0
M  V30 28286 O 4916.32 -8.74358 0.335205 0
M  V30 28287 C 4916.81 -6.83093 1.70294 0
M  V30 28288 C 4916.1 -5.79992 0.836974 0
M  V30 28289 N 4916.15 -4.41864 1.38293 0
M  V30 28290 H 4913.31 -8.13644 3.0377 0
M  V30 28291 H 4913.04 -6.42788 2.55485 0
M  V30 28292 H 4913.91 -8.12039 0.792769 0
M  V30 28293 P 4917.87 -8.91 2.21425e-10 0
M  V30 28294 O 4918.09 -10.1726 -0.733694 0
M  V30 28295 O 4918.66 -8.73148 1.23936 0
M  V30 28296 O 4918.12 -7.66872 -0.971405 0
M  V30 28297 C 4917.18 -7.42309 -2.04641 0
M  V30 28298 C 4917.91 -6.86059 -3.24661 0
M  V30 28299 O 4918.12 -5.42847 -3.03646 0
M  V30 28300 C 4919.31 -7.41196 -3.50753 0
M  V30 28301 O 4919.7 -7.27073 -4.86816 0
M  V30 28302 C 4920.19 -6.5273 -2.63741 0
M  V30 28303 C 4919.48 -5.1842 -2.73198 0
M  V30 28304 N 4919.53 -4.38762 -1.4784 0
M  V30 28305 C 4919.45 -4.81605 -0.168631 0
M  V30 28306 N 4919.53 -3.85454 0.713363 0
M  V30 28307 C 4919.67 -2.6994 -0.0566958 0
M  V30 28308 C 4919.8 -1.34815 0.338502 0
M  V30 28309 N 4919.92 -0.496304 -0.77465 0
M  V30 28310 C 4919.92 -0.908403 -2.09122 0
M  V30 28311 N 4920.05 0.0517805 -3.00955 0
M  V30 28312 N 4919.79 -2.17875 -2.46519 0
M  V30 28313 C 4919.67 -3.01988 -1.4033 0
M  V30 28314 H 4916.69 -8.36803 -2.32493 0
M  V30 28315 H 4916.42 -6.70197 -1.71129 0
M  V30 28316 H 4917.29 -7.03551 -4.13168 0
M  V30 28317 P 4921.25 -7.20834 -5.23717 0
M  V30 28318 O 4921.47 -7.7993 -6.57351 0
M  V30 28319 O 4922.04 -7.79328 -4.13004 0
M  V30 28320 O 4921.5 -5.63315 -5.29344 0
M  V30 28321 C 4920.56 -4.80193 -6.01798 0
M  V30 28322 C 4921.29 -3.64202 -6.65911 0
M  V30 28323 O 4921.5 -2.60694 -5.64732 0
M  V30 28324 C 4922.69 -3.93473 -7.1943 0
M  V30 28325 O 4923.08 -3.02071 -8.21205 0
M  V30 28326 C 4923.57 -3.73047 -5.97036 0
M  V30 28327 C 4922.86 -2.58828 -5.25741 0
M  V30 28328 N 4922.91 -2.6801 -3.77422 0
M  V30 28329 C 4923.06 -1.50443 -3.07133 0
M  V30 28330 O 4923.15 -0.419406 -3.61576 0
M  V30 28331 N 4923.1 -1.6403 -1.69677 0
M  V30 28332 C 4923.01 -2.81206 -0.986255 0
M  V30 28333 C 4922.86 -3.99158 -1.80325 0
M  V30 28334 C 4922.81 -3.89779 -3.1476 0
M  V30 28335 H 4920.07 -5.40332 -6.79951 0
M  V30 28336 H 4919.8 -4.41549 -5.32301 0
M  V30 28337 H 4920.67 -3.26331 -7.47797 0
M  V30 28338 H 4923.32 -1.6395 -5.56554 0
M  V30 28339 H 4923.6 -4.63439 -5.3432 0
M  V30 28340 H 4924.59 -3.44728 -6.25838 0
M  V30 28341 H 4922.76 -4.96652 -7.57263 0
M  V30 28342 H 4922.69 -4.80159 -3.74441 0
M  V30 28343 P 4924.63 -2.75334 -8.47391 0
M  V30 28344 O 4924.85 -2.44595 -9.90239 0
M  V30 28345 O 4925.42 -3.87732 -7.92204 0
M  V30 28346 O 4924.88 -1.4459 -7.59357 0
M  V30 28347 C 4923.94 -0.347563 -7.69115 0
M  V30 28348 C 4924.67 0.96767 -7.52806 0
M  V30 28349 O 4924.88 1.21036 -6.1011 0
M  V30 28350 C 4926.07 1.04544 -8.13308 0
M  V30 28351 O 4926.46 2.38311 -8.41922 0
M  V30 28352 C 4926.95 0.491279 -7.02284 0
M  V30 28353 C 4926.24 0.996264 -5.77469 0
M  V30 28354 N 4926.29 0.0501808 -4.62873 0
M  V30 28355 C 4926.44 0.588177 -3.36904 0
M  V30 28356 O 4926.53 1.78598 -3.17173 0
M  V30 28357 N 4926.48 -0.329694 -2.33686 0
M  V30 28358 C 4926.39 -1.6953 -2.45079 0
M  V30 28359 O 4926.44 -2.41926 -1.44899 0
M  V30 28360 C 4926.24 -2.16933 -3.80505 0
M  V30 28361 C 4926.13 -3.65373 -3.97621 0
M  V30 28362 C 4926.19 -1.30326 -4.83752 0
M  V30 28363 H 4923.45 -0.374722 -8.67691 0
M  V30 28364 H 4923.18 -0.443421 -6.90177 0
M  V30 28365 H 4924.05 1.75537 -7.96793 0
M  V30 28366 H 4926.7 1.94496 -5.46629 0
M  V30 28367 H 4926.98 -0.608651 -7.04676 0
M  V30 28368 H 4927.97 0.889672 -7.08939 0
M  V30 28369 H 4926.14 0.43308 -9.04564 0
M  V30 28370 H 4926.07 -1.68366 -5.8516 0
M  V30 28371 H 4927.1 -4.05985 -4.30448 0
M  V30 28372 H 4925.36 -3.88028 -4.72875 0
M  V30 28373 H 4925.85 -4.11381 -3.01609 0
M  V30 28374 H 4926.59 0.0393617 -1.41345 0
M  V30 28375 P 4928.01 2.75334 -8.47391 0
M  V30 28376 O 4928.23 3.84204 -9.44982 0
M  V30 28377 O 4928.8 1.51982 -8.68909 0
M  V30 28378 O 4928.26 3.29363 -6.99321 0
M  V30 28379 C 4927.32 4.24066 -6.42823 0
M  V30 28380 C 4928.05 5.20775 -5.52155 0
M  V30 28381 O 4928.26 4.56607 -4.22514 0
M  V30 28382 C 4929.45 5.62697 -5.96604 0
M  V30 28383 O 4929.84 6.87667 -5.41053 0
M  V30 28384 C 4930.33 4.52537 -5.39283 0
M  V30 28385 C 4929.62 4.20027 -4.08623 0
M  V30 28386 N 4929.67 2.76189 -3.71603 0
M  V30 28387 H 4926.83 4.79756 -7.24086 0
M  V30 28388 H 4926.56 3.69963 -5.84682 0
M  V30 28389 H 4927.43 6.10431 -5.41508 0
M  V30 28390 H 4930.08 4.78816 -3.28024 0
M  V30 28391 H 4930.36 3.64957 -6.05871 0
M  V30 28392 H 4931.35 4.88748 -5.21323 0
M  V30 28393 H 4929.52 5.66789 -7.0643 0
M  V30 28394 P 4931.39 7.20834 -5.23717 0
M  V30 28395 O 4931.61 8.66274 -5.38678 0
M  V30 28396 O 4932.18 6.33687 -6.13629 0
M  V30 28397 O 4931.64 6.7751 -3.72168 0
M  V30 28398 C 4930.7 7.20919 -2.70795 0
M  V30 28399 C 4931.43 7.45864 -1.40599 0
M  V30 28400 O 4931.64 6.17751 -0.734343 0
M  V30 28401 C 4932.83 8.05906 -1.51917 0
M  V30 28402 O 4933.22 8.74358 -0.335205 0
M  V30 28403 C 4933.71 6.83093 -1.70294 0
M  V30 28404 C 4933 5.79992 -0.836974 0
M  V30 28405 N 4933.05 4.41864 -1.38293 0
M  V30 28406 H 4930.21 8.13738 -3.03804 0
M  V30 28407 H 4929.94 6.42974 -2.55559 0
M  V30 28408 H 4930.81 8.12139 -0.792866 0
M  V30 28409 H 4933.46 5.80178 0.160643 0
M  V30 28410 H 4933.74 6.51379 -2.75643 0
M  V30 28411 H 4934.73 7.01832 -1.3448 0
M  V30 28412 H 4932.9 8.73771 -2.38364 0
M  V30 28413 P 4934.77 8.91 -2.22534e-10 0
M  V30 28414 O 4934.99 10.1726 0.733694 0
M  V30 28415 O 4935.56 8.73148 -1.23936 0
M  V30 28416 O 4935.02 7.66872 0.971405 0
M  V30 28417 C 4934.08 7.42309 2.04641 0
M  V30 28418 C 4934.81 6.86059 3.24661 0
M  V30 28419 O 4935.02 5.42847 3.03646 0
M  V30 28420 C 4936.21 7.41196 3.50753 0
M  V30 28421 O 4936.6 7.27073 4.86816 0
M  V30 28422 C 4937.09 6.5273 2.63741 0
M  V30 28423 C 4936.38 5.1842 2.73198 0
M  V30 28424 N 4936.43 4.38762 1.4784 0
M  V30 28425 H 4933.59 8.36803 2.32493 0
M  V30 28426 H 4933.32 6.70197 1.71129 0
M  V30 28427 H 4934.19 7.03551 4.13168 0
M  V30 28428 P 4938.15 7.20834 5.23717 0
M  V30 28429 O 4938.37 7.79853 6.57286 0
M  V30 28430 O 4938.94 7.79239 4.12957 0
M  V30 28431 O 4938.4 5.63315 5.29344 0
M  V30 28432 C 4937.46 4.80255 6.01876 0
M  V30 28433 C 4938.19 3.64202 6.65911 0
M  V30 28434 O 4938.4 2.60694 5.64732 0
M  V30 28435 C 4939.59 3.93473 7.1943 0
M  V30 28436 O 4939.98 3.02071 8.21205 0
M  V30 28437 C 4940.47 3.73047 5.97036 0
M  V30 28438 C 4939.76 2.58828 5.25741 0
M  V30 28439 N 4939.81 2.68068 3.77503 0
M  V30 28440 C 4939.73 3.79715 2.96723 0
M  V30 28441 N 4939.81 3.5377 1.68852 0
M  V30 28442 C 4939.95 2.15054 1.63254 0
M  V30 28443 C 4940.08 1.28964 0.518571 0
M  V30 28444 N 4940.2 -0.0538097 0.918425 0
M  V30 28445 C 4940.2 -0.494275 2.22578 0
M  V30 28446 N 4940.33 -1.81086 2.40434 0
M  V30 28447 N 4940.07 0.313645 3.27502 0
M  V30 28448 C 4939.95 1.61829 2.91033 0
M  V30 28449 H 4936.97 5.40332 6.79951 0
M  V30 28450 H 4936.7 4.41613 5.32378 0
M  V30 28451 H 4937.57 3.26331 7.47797 0
M  V30 28452 P 4941.53 2.75334 8.47391 0
M  V30 28453 O 4941.75 2.44571 9.90142 0
M  V30 28454 O 4942.32 3.87688 7.92115 0
M  V30 28455 O 4941.78 1.4459 7.59357 0
M  V30 28456 C 4940.84 0.347608 7.69215 0
M  V30 28457 C 4941.57 -0.96767 7.52806 0
M  V30 28458 O 4941.78 -1.21036 6.1011 0
M  V30 28459 C 4942.97 -1.04544 8.13308 0
M  V30 28460 O 4943.36 -2.38311 8.41922 0
M  V30 28461 C 4943.85 -0.491279 7.02284 0
M  V30 28462 C 4943.14 -0.996264 5.77469 0
M  V30 28463 N 4943.19 -0.0501916 4.62973 0
M  V30 28464 H 4940.35 0.374722 8.67691 0
M  V30 28465 H 4940.08 0.443485 6.90277 0
M  V30 28466 H 4940.95 -1.75537 7.96793 0
M  V30 28467 P 4944.91 -2.75334 8.47391 0
M  V30 28468 O 4945.13 -3.84128 9.44797 0
M  V30 28469 O 4945.7 -1.51947 8.68712 0
M  V30 28470 O 4945.16 -3.29363 6.99321 0
M  V30 28471 C 4944.22 -4.24011 6.4274 0
M  V30 28472 C 4944.95 -5.20775 5.52155 0
M  V30 28473 O 4945.16 -4.56534 4.22446 0
M  V30 28474 C 4946.35 -5.62629 5.96531 0
M  V30 28475 O 4946.74 -6.87667 5.41053 0
M  V30 28476 C 4947.23 -4.52537 5.39283 0
M  V30 28477 C 4946.52 -4.20027 4.08623 0
M  V30 28478 N 4946.57 -2.76189 3.71603 0
M  V30 28479 H 4943.73 -4.797 7.24003 0
M  V30 28480 H 4943.46 -3.69856 5.84513 0
M  V30 28481 H 4944.33 -6.10356 5.41441 0
M  V30 28482 P 4948.29 -7.20834 5.23717 0
M  V30 28483 O 4948.51 -8.66104 5.38572 0
M  V30 28484 O 4949.08 -6.33544 6.1349 0
M  V30 28485 O 4948.54 -6.7751 3.72168 0
M  V30 28486 C 4947.6 -7.20825 2.7076 0
M  V30 28487 C 4948.33 -7.45864 1.40599 0
M  V30 28488 O 4948.54 -6.17651 0.734225 0
M  V30 28489 C 4949.73 -8.05808 1.51899 0
M  V30 28490 O 4950.12 -8.74358 0.335205 0
M  V30 28491 C 4950.61 -6.83093 1.70294 0
M  V30 28492 C 4949.9 -5.79992 0.836974 0
M  V30 28493 N 4949.95 -4.41864 1.38293 0
M  V30 28494 C 4949.87 -3.99538 2.69438 0
M  V30 28495 N 4949.95 -2.69909 2.84277 0
M  V30 28496 C 4950.09 -2.21719 1.5408 0
M  V30 28497 C 4950.22 -0.891712 1.06628 0
M  V30 28498 O 4950.24 0.161298 1.70137 0
M  V30 28499 N 4950.34 -0.856846 -0.334985 0
M  V30 28500 C 4950.34 -1.9641 -1.15789 0
M  V30 28501 N 4950.47 -1.72708 -2.46522 0
M  V30 28502 N 4950.21 -3.21165 -0.713741 0
M  V30 28503 C 4950.09 -3.26797 0.639748 0
M  V30 28504 H 4947.11 -8.13644 3.0377 0
M  V30 28505 H 4946.84 -6.42788 2.55485 0
M  V30 28506 H 4947.71 -8.12039 0.792769 0
M  V30 28507 H 4950.36 -5.80061 -0.166416 0
M  V30 28508 H 4950.64 -6.51287 2.75604 0
M  V30 28509 H 4951.63 -7.01734 1.34462 0
M  V30 28510 H 4949.8 -8.73674 2.38337 0
M  V30 28511 H 4949.75 -4.68207 3.53221 0
M  V30 28512 H 4950.43 0.0398818 -0.767965 0
M  V30 28513 H 4950.47 -2.50995 -3.13503 0
M  V30 28514 H 4950.57 -0.759148 -2.80716 0
M  V30 28515 P 4951.67 -8.91 2.23643e-10 0
M  V30 28516 O 4951.89 -10.1726 -0.733694 0
M  V30 28517 O 4952.46 -8.73148 1.23936 0
M  V30 28518 O 4951.92 -7.66872 -0.971405 0
M  V30 28519 C 4950.98 -7.42309 -2.04641 0
M  V30 28520 C 4951.71 -6.86059 -3.24661 0
M  V30 28521 O 4951.92 -5.42847 -3.03646 0
M  V30 28522 C 4953.11 -7.41196 -3.50753 0
M  V30 28523 O 4953.5 -7.27073 -4.86816 0
M  V30 28524 C 4953.99 -6.5273 -2.63741 0
M  V30 28525 C 4953.28 -5.1842 -2.73198 0
M  V30 28526 N 4953.33 -4.38762 -1.4784 0
M  V30 28527 C 4953.25 -4.81605 -0.168631 0
M  V30 28528 N 4953.33 -3.85454 0.713363 0
M  V30 28529 C 4953.47 -2.6994 -0.0566958 0
M  V30 28530 C 4953.6 -1.34815 0.338502 0
M  V30 28531 N 4953.72 -0.496304 -0.77465 0
M  V30 28532 C 4953.72 -0.908403 -2.09122 0
M  V30 28533 N 4953.85 0.0517805 -3.00955 0
M  V30 28534 N 4953.59 -2.17875 -2.46519 0
M  V30 28535 C 4953.47 -3.01988 -1.4033 0
M  V30 28536 H 4950.49 -8.36803 -2.32493 0
M  V30 28537 H 4950.22 -6.70197 -1.71129 0
M  V30 28538 H 4951.09 -7.03551 -4.13168 0
M  V30 28539 P 4955.05 -7.20834 -5.23717 0
M  V30 28540 O 4955.27 -7.79853 -6.57286 0
M  V30 28541 O 4955.84 -7.79239 -4.12957 0
M  V30 28542 O 4955.3 -5.63315 -5.29344 0
M  V30 28543 C 4954.36 -4.80255 -6.01876 0
M  V30 28544 C 4955.09 -3.64202 -6.65911 0
M  V30 28545 O 4955.3 -2.60694 -5.64732 0
M  V30 28546 C 4956.49 -3.93473 -7.1943 0
M  V30 28547 O 4956.88 -3.02071 -8.21205 0
M  V30 28548 C 4957.37 -3.73047 -5.97036 0
M  V30 28549 C 4956.66 -2.58828 -5.25741 0
M  V30 28550 N 4956.71 -2.68068 -3.77503 0
M  V30 28551 H 4953.87 -5.40332 -6.79951 0
M  V30 28552 H 4953.6 -4.41613 -5.32378 0
M  V30 28553 H 4954.47 -3.26331 -7.47797 0
M  V30 28554 P 4958.43 -2.75334 -8.47391 0
M  V30 28555 O 4958.65 -2.44571 -9.90142 0
M  V30 28556 O 4959.22 -3.87688 -7.92115 0
M  V30 28557 O 4958.68 -1.4459 -7.59357 0
M  V30 28558 C 4957.74 -0.347608 -7.69215 0
M  V30 28559 C 4958.47 0.96767 -7.52806 0
M  V30 28560 O 4958.68 1.21036 -6.1011 0
M  V30 28561 C 4959.87 1.04544 -8.13308 0
M  V30 28562 O 4960.26 2.38311 -8.41922 0
M  V30 28563 C 4960.75 0.491279 -7.02284 0
M  V30 28564 C 4960.04 0.996264 -5.77469 0
M  V30 28565 N 4960.09 0.0501916 -4.62973 0
M  V30 28566 H 4957.25 -0.374722 -8.67691 0
M  V30 28567 H 4956.98 -0.443485 -6.90277 0
M  V30 28568 H 4957.85 1.75537 -7.96793 0
M  V30 28569 P 4961.81 2.75334 -8.47391 0
M  V30 28570 O 4962.03 3.84128 -9.44797 0
M  V30 28571 O 4962.6 1.51947 -8.68712 0
M  V30 28572 O 4962.06 3.29363 -6.99321 0
M  V30 28573 C 4961.12 4.24011 -6.4274 0
M  V30 28574 C 4961.85 5.20775 -5.52155 0
M  V30 28575 O 4962.06 4.56534 -4.22446 0
M  V30 28576 C 4963.25 5.62629 -5.96531 0
M  V30 28577 O 4963.64 6.87667 -5.41053 0
M  V30 28578 C 4964.13 4.52537 -5.39283 0
M  V30 28579 C 4963.42 4.20027 -4.08623 0
M  V30 28580 N 4963.47 2.76189 -3.71603 0
M  V30 28581 H 4960.63 4.797 -7.24003 0
M  V30 28582 H 4960.36 3.69856 -5.84513 0
M  V30 28583 H 4961.23 6.10356 -5.41441 0
M  V30 28584 P 4965.19 7.20834 -5.23717 0
M  V30 28585 O 4965.41 8.66104 -5.38572 0
M  V30 28586 O 4965.98 6.33544 -6.1349 0
M  V30 28587 O 4965.44 6.7751 -3.72168 0
M  V30 28588 C 4964.5 7.20825 -2.7076 0
M  V30 28589 C 4965.23 7.45864 -1.40599 0
M  V30 28590 O 4965.44 6.17651 -0.734225 0
M  V30 28591 C 4966.63 8.05808 -1.51899 0
M  V30 28592 O 4967.02 8.74358 -0.335205 0
M  V30 28593 C 4967.51 6.83093 -1.70294 0
M  V30 28594 C 4966.8 5.79992 -0.836974 0
M  V30 28595 N 4966.85 4.41864 -1.38293 0
M  V30 28596 C 4966.77 3.99538 -2.69438 0
M  V30 28597 N 4966.85 2.69909 -2.84277 0
M  V30 28598 C 4966.99 2.21719 -1.5408 0
M  V30 28599 C 4967.12 0.891712 -1.06628 0
M  V30 28600 O 4967.14 -0.161298 -1.70137 0
M  V30 28601 N 4967.24 0.856846 0.334985 0
M  V30 28602 C 4967.24 1.9641 1.15789 0
M  V30 28603 N 4967.37 1.72708 2.46522 0
M  V30 28604 N 4967.11 3.21165 0.713741 0
M  V30 28605 C 4966.99 3.26797 -0.639748 0
M  V30 28606 H 4964.01 8.13644 -3.0377 0
M  V30 28607 H 4963.74 6.42788 -2.55485 0
M  V30 28608 H 4964.61 8.12039 -0.792769 0
M  V30 28609 H 4967.26 5.80061 0.166416 0
M  V30 28610 H 4967.54 6.51287 -2.75604 0
M  V30 28611 H 4968.53 7.01734 -1.34462 0
M  V30 28612 H 4966.7 8.73674 -2.38337 0
M  V30 28613 H 4966.65 4.68207 -3.53221 0
M  V30 28614 H 4967.33 -0.0398818 0.767965 0
M  V30 28615 H 4967.37 2.50995 3.13503 0
M  V30 28616 H 4967.47 0.759148 2.80716 0
M  V30 28617 P 4968.57 8.91 -2.24752e-10 0
M  V30 28618 O 4968.79 10.1746 0.733838 0
M  V30 28619 O 4969.36 8.73346 -1.23964 0
M  V30 28620 O 4968.82 7.66872 0.971405 0
M  V30 28621 C 4967.88 7.42405 2.04668 0
M  V30 28622 C 4968.61 6.86059 3.24661 0
M  V30 28623 O 4968.82 5.42934 3.03695 0
M  V30 28624 C 4970.01 7.41287 3.50796 0
M  V30 28625 O 4970.4 7.27073 4.86816 0
M  V30 28626 C 4970.89 6.5273 2.63741 0
M  V30 28627 C 4970.18 5.1842 2.73198 0
M  V30 28628 N 4970.23 4.38762 1.4784 0
M  V30 28629 C 4970.15 4.83651 0.183876 0
M  V30 28630 N 4970.22 3.88759 -0.699393 0
M  V30 28631 C 4970.37 2.7404 0.0575568 0
M  V30 28632 C 4970.5 1.37902 -0.293928 0
M  V30 28633 N 4970.51 0.938021 -1.54797 0
M  V30 28634 N 4970.62 0.491817 0.70549 0
M  V30 28635 C 4970.61 0.931735 1.95979 0
M  V30 28636 N 4970.49 2.16017 2.41481 0
M  V30 28637 C 4970.37 3.02547 1.39121 0
M  V30 28638 H 4967.39 8.36899 2.3252 0
M  V30 28639 H 4967.12 6.70391 1.71179 0
M  V30 28640 H 4967.99 7.03638 4.13219 0
M  V30 28641 H 4970.64 4.59931 3.54016 0
M  V30 28642 H 4970.92 6.88995 1.59871 0
M  V30 28643 H 4971.91 6.4684 3.0373 0
M  V30 28644 H 4970.08 8.47002 3.20749 0
M  V30 28645 H 4970.04 5.8885 -0.0765548 0
M  V30 28646 H 4970.42 1.60276 -2.32875 0
M  V30 28647 H 4970.61 -0.0699355 -1.73859 0
M  V30 28648 H 4970.72 0.165507 2.71897 0
M  V30 28649 P 4971.95 7.20834 5.23717 0
M  V30 28650 O 4972.17 7.79853 6.57286 0
M  V30 28651 O 4972.74 7.79239 4.12957 0
M  V30 28652 O 4972.2 5.63315 5.29344 0
M  V30 28653 C 4971.26 4.80255 6.01876 0
M  V30 28654 C 4971.99 3.64202 6.65911 0
M  V30 28655 O 4972.2 2.60694 5.64732 0
M  V30 28656 C 4973.39 3.93473 7.1943 0
M  V30 28657 O 4973.78 3.02071 8.21205 0
M  V30 28658 C 4974.27 3.73047 5.97036 0
M  V30 28659 C 4973.56 2.58828 5.25741 0
M  V30 28660 N 4973.61 2.68068 3.77503 0
M  V30 28661 H 4970.77 5.40332 6.79951 0
M  V30 28662 H 4970.5 4.41613 5.32378 0
M  V30 28663 H 4971.37 3.26331 7.47797 0
M  V30 28664 P 4975.33 2.75334 8.47391 0
M  V30 28665 O 4975.55 2.44571 9.90142 0
M  V30 28666 O 4976.12 3.87688 7.92115 0
M  V30 28667 O 4975.58 1.4459 7.59357 0
M  V30 28668 C 4974.64 0.347608 7.69215 0
M  V30 28669 C 4975.37 -0.96767 7.52806 0
M  V30 28670 O 4975.58 -1.21036 6.1011 0
M  V30 28671 C 4976.77 -1.04544 8.13308 0
M  V30 28672 O 4977.16 -2.38311 8.41922 0
M  V30 28673 C 4977.65 -0.491279 7.02284 0
M  V30 28674 C 4976.94 -0.996264 5.77469 0
M  V30 28675 N 4976.99 -0.0501916 4.62973 0
M  V30 28676 C 4976.91 1.32786 4.63244 0
M  V30 28677 N 4976.99 1.86957 3.44545 0
M  V30 28678 C 4977.13 0.780241 2.58481 0
M  V30 28679 C 4977.26 0.738536 1.17757 0
M  V30 28680 N 4977.38 -0.58337 0.711393 0
M  V30 28681 C 4977.38 -1.70816 1.51017 0
M  V30 28682 N 4977.51 -2.87826 0.880757 0
M  V30 28683 N 4977.25 -1.67126 2.8339 0
M  V30 28684 C 4977.13 -0.401421 3.30572 0
M  V30 28685 H 4974.15 0.374722 8.67691 0
M  V30 28686 H 4973.88 0.443485 6.90277 0
M  V30 28687 H 4974.75 -1.75537 7.96793 0
M  V30 28688 P 4978.71 -2.75334 8.47391 0
M  V30 28689 O 4978.93 -3.84128 9.44797 0
M  V30 28690 O 4979.5 -1.51947 8.68712 0
M  V30 28691 O 4978.96 -3.29363 6.99321 0
M  V30 28692 C 4978.02 -4.24011 6.4274 0
M  V30 28693 C 4978.75 -5.20775 5.52155 0
M  V30 28694 O 4978.96 -4.56534 4.22446 0
M  V30 28695 C 4980.15 -5.62629 5.96531 0
M  V30 28696 O 4980.54 -6.87667 5.41053 0
M  V30 28697 C 4981.03 -4.52537 5.39283 0
M  V30 28698 C 4980.32 -4.20027 4.08623 0
M  V30 28699 N 4980.37 -2.76189 3.71603 0
M  V30 28700 C 4980.29 -1.64862 4.52822 0
M  V30 28701 N 4980.37 -0.512671 3.88633 0
M  V30 28702 C 4980.51 -0.888083 2.54977 0
M  V30 28703 C 4980.64 -0.094668 1.38677 0
M  V30 28704 O 4980.66 1.13053 1.28163 0
M  V30 28705 N 4980.76 -0.890102 0.232633 0
M  V30 28706 C 4980.76 -2.26958 0.21772 0
M  V30 28707 N 4980.89 -2.84626 -0.97925 0
M  V30 28708 N 4980.63 -3.0178 1.31033 0
M  V30 28709 C 4980.51 -2.26781 2.43843 0
M  V30 28710 H 4977.53 -4.797 7.24003 0
M  V30 28711 H 4977.26 -3.69856 5.84513 0
M  V30 28712 H 4978.13 -6.10356 5.41441 0
M  V30 28713 H 4980.78 -4.79061 3.27488 0
M  V30 28714 H 4981.06 -3.64906 6.05785 0
M  V30 28715 H 4982.05 -4.8868 5.2125 0
M  V30 28716 H 4980.22 -5.66726 7.06352 0
M  V30 28717 H 4980.17 -1.71169 5.60966 0
M  V30 28718 H 4980.85 -0.419134 -0.644739 0
M  V30 28719 H 4980.89 -3.87332 -1.06098 0
M  V30 28720 H 4980.99 -2.26417 -1.82483 0
M  V30 28721 P 4982.09 -7.20834 5.23717 0
M  V30 28722 O 4982.31 -8.66104 5.38572 0
M  V30 28723 O 4982.88 -6.33544 6.1349 0
M  V30 28724 O 4982.34 -6.7751 3.72168 0
M  V30 28725 C 4981.4 -7.20825 2.7076 0
M  V30 28726 C 4982.13 -7.45864 1.40599 0
M  V30 28727 O 4982.34 -6.17651 0.734225 0
M  V30 28728 C 4983.53 -8.05808 1.51899 0
M  V30 28729 O 4983.92 -8.74358 0.335205 0
M  V30 28730 C 4984.41 -6.83093 1.70294 0
M  V30 28731 C 4983.7 -5.79992 0.836974 0
M  V30 28732 N 4983.75 -4.41864 1.38293 0
M  V30 28733 H 4980.91 -8.13644 3.0377 0
M  V30 28734 H 4980.64 -6.42788 2.55485 0
M  V30 28735 H 4981.51 -8.12039 0.792769 0
M  V30 28736 P 4985.47 -8.91 2.25861e-10 0
M  V30 28737 O 4985.69 -10.1736 -0.733766 0
M  V30 28738 O 4986.26 -8.73247 1.2395 0
M  V30 28739 O 4985.72 -7.66872 -0.971405 0
M  V30 28740 C 4984.78 -7.42309 -2.04641 0
M  V30 28741 C 4985.51 -6.86059 -3.24661 0
M  V30 28742 O 4985.72 -5.42847 -3.03646 0
M  V30 28743 C 4986.91 -7.41196 -3.50753 0
M  V30 28744 O 4987.3 -7.27073 -4.86816 0
M  V30 28745 C 4987.79 -6.5273 -2.63741 0
M  V30 28746 C 4987.08 -5.1842 -2.73198 0
M  V30 28747 N 4987.13 -4.38668 -1.47808 0
M  V30 28748 C 4987.28 -3.00789 -1.58511 0
M  V30 28749 O 4987.37 -2.50116 -2.71298 0
M  V30 28750 N 4987.33 -2.29703 -0.253698 0
M  V30 28751 C 4987.23 -2.84269 0.750133 0
M  V30 28752 N 4987.28 -2.06951 1.82612 0
M  V30 28753 C 4987.08 -4.25803 0.889776 0
M  V30 28754 C 4987.03 -4.98326 -0.259363 0
M  V30 28755 H 4984.29 -8.36707 -2.32466 0
M  V30 28756 H 4984.02 -6.701 -1.71105 0
M  V30 28757 H 4984.89 -7.03638 -4.13219 0
M  V30 28758 H 4987.54 -4.59852 -3.53955 0
M  V30 28759 H 4987.82 -6.88995 -1.59871 0
M  V30 28760 H 4988.81 -6.46749 -3.03687 0
M  V30 28761 H 4986.98 -8.46908 -3.20714 0
M  V30 28762 H 4986.91 -6.06349 -0.206238 0
M  V30 28763 H 4987.01 -4.73163 1.86796 0
M  V30 28764 H 4987.4 -1.05099 1.72271 0
M  V30 28765 H 4987.2 -2.48716 2.76361 0
M  V30 28766 P 4988.85 -7.20834 -5.23717 0
M  V30 28767 O 4989.07 -7.79853 -6.57286 0
M  V30 28768 O 4989.64 -7.79239 -4.12957 0
M  V30 28769 O 4989.1 -5.63315 -5.29344 0
M  V30 28770 C 4988.16 -4.80255 -6.01876 0
M  V30 28771 C 4988.89 -3.64202 -6.65911 0
M  V30 28772 O 4989.1 -2.60694 -5.64732 0
M  V30 28773 C 4990.29 -3.93473 -7.1943 0
M  V30 28774 O 4990.68 -3.02071 -8.21205 0
M  V30 28775 C 4991.17 -3.73047 -5.97036 0
M  V30 28776 C 4990.46 -2.58828 -5.25741 0
M  V30 28777 N 4990.51 -2.68068 -3.77503 0
M  V30 28778 H 4987.67 -5.40332 -6.79951 0
M  V30 28779 H 4987.4 -4.41613 -5.32378 0
M  V30 28780 H 4988.27 -3.26331 -7.47797 0
M  V30 28781 P 4992.23 -2.75334 -8.47391 0
M  V30 28782 O 4992.45 -2.44595 -9.90239 0
M  V30 28783 O 4993.02 -3.87732 -7.92204 0
M  V30 28784 O 4992.48 -1.4459 -7.59357 0
M  V30 28785 C 4991.54 -0.347608 -7.69215 0
M  V30 28786 C 4992.27 0.96767 -7.52806 0
M  V30 28787 O 4992.48 1.21036 -6.1011 0
M  V30 28788 C 4993.67 1.04544 -8.13308 0
M  V30 28789 O 4994.06 2.38311 -8.41922 0
M  V30 28790 C 4994.55 0.491279 -7.02284 0
M  V30 28791 C 4993.84 0.996264 -5.77469 0
M  V30 28792 N 4993.89 0.0501808 -4.62873 0
M  V30 28793 C 4994.04 0.578037 -3.3505 0
M  V30 28794 O 4994.13 1.8073 -3.21711 0
M  V30 28795 N 4994.09 -0.468541 -2.263 0
M  V30 28796 C 4993.99 -1.59186 -2.47176 0
M  V30 28797 N 4994.04 -2.37626 -1.40392 0
M  V30 28798 C 4993.84 -2.16203 -3.77467 0
M  V30 28799 C 4993.79 -1.29324 -4.8195 0
M  V30 28800 H 4991.05 -0.374679 -8.67591 0
M  V30 28801 H 4990.78 -0.443421 -6.90177 0
M  V30 28802 H 4991.65 1.75559 -7.96891 0
M  V30 28803 H 4994.3 1.94529 -5.46723 0
M  V30 28804 H 4994.58 -0.608651 -7.04676 0
M  V30 28805 H 4995.57 0.889672 -7.08939 0
M  V30 28806 H 4993.74 0.43308 -9.04564 0
M  V30 28807 H 4993.67 -1.67758 -5.83046 0
M  V30 28808 H 4993.77 -3.23869 -3.92281 0
M  V30 28809 H 4994.16 -1.96317 -0.467202 0
M  V30 28810 H 4993.96 -3.39693 -1.51142 0
M  V30 28811 P 4995.61 2.75334 -8.47391 0
M  V30 28812 O 4995.83 3.84128 -9.44797 0
M  V30 28813 O 4996.4 1.51947 -8.68712 0
M  V30 28814 O 4995.86 3.29363 -6.99321 0
M  V30 28815 C 4994.92 4.24011 -6.4274 0
M  V30 28816 C 4995.65 5.20775 -5.52155 0
M  V30 28817 O 4995.86 4.56534 -4.22446 0
M  V30 28818 C 4997.05 5.62629 -5.96531 0
M  V30 28819 O 4997.44 6.87667 -5.41053 0
M  V30 28820 C 4997.93 4.52537 -5.39283 0
M  V30 28821 C 4997.22 4.20027 -4.08623 0
M  V30 28822 N 4997.27 2.76189 -3.71603 0
M  V30 28823 H 4994.43 4.797 -7.24003 0
M  V30 28824 H 4994.16 3.69856 -5.84513 0
M  V30 28825 H 4995.03 6.10356 -5.41441 0
M  V30 28826 P 4998.99 7.20834 -5.23717 0
M  V30 28827 O 4999.21 8.66104 -5.38572 0
M  V30 28828 O 4999.78 6.33544 -6.1349 0
M  V30 28829 O 4999.24 6.7751 -3.72168 0
M  V30 28830 C 4998.3 7.20825 -2.7076 0
M  V30 28831 C 4999.03 7.45864 -1.40599 0
M  V30 28832 O 4999.24 6.17651 -0.734225 0
M  V30 28833 C 5000.43 8.05808 -1.51899 0
M  V30 28834 O 5000.82 8.74358 -0.335205 0
M  V30 28835 C 5001.31 6.83093 -1.70294 0
M  V30 28836 C 5000.6 5.79992 -0.836974 0
M  V30 28837 N 5000.65 4.41864 -1.38293 0
M  V30 28838 H 4997.81 8.13644 -3.0377 0
M  V30 28839 H 4997.54 6.42788 -2.55485 0
M  V30 28840 H 4998.41 8.12039 -0.792769 0
M  V30 28841 P 5002.37 8.91 -2.2697e-10 0
M  V30 28842 O 5002.59 10.1746 0.733838 0
M  V30 28843 O 5003.16 8.73346 -1.23964 0
M  V30 28844 O 5002.62 7.66872 0.971405 0
M  V30 28845 C 5001.68 7.42405 2.04668 0
M  V30 28846 C 5002.41 6.86059 3.24661 0
M  V30 28847 O 5002.62 5.42934 3.03695 0
M  V30 28848 C 5003.81 7.41287 3.50796 0
M  V30 28849 O 5004.2 7.27073 4.86816 0
M  V30 28850 C 5004.69 6.5273 2.63741 0
M  V30 28851 C 5003.98 5.1842 2.73198 0
M  V30 28852 N 5004.03 4.38762 1.4784 0
M  V30 28853 C 5003.95 4.83651 0.183876 0
M  V30 28854 N 5004.02 3.88759 -0.699393 0
M  V30 28855 C 5004.17 2.7404 0.0575568 0
M  V30 28856 C 5004.3 1.37902 -0.293928 0
M  V30 28857 N 5004.31 0.938021 -1.54797 0
M  V30 28858 N 5004.42 0.491817 0.70549 0
M  V30 28859 C 5004.41 0.931735 1.95979 0
M  V30 28860 N 5004.29 2.16017 2.41481 0
M  V30 28861 C 5004.17 3.02547 1.39121 0
M  V30 28862 H 5001.19 8.36899 2.3252 0
M  V30 28863 H 5000.92 6.70391 1.71179 0
M  V30 28864 H 5001.79 7.03638 4.13219 0
M  V30 28865 H 5004.44 4.59931 3.54016 0
M  V30 28866 H 5004.72 6.88995 1.59871 0
M  V30 28867 H 5005.71 6.4684 3.0373 0
M  V30 28868 H 5003.88 8.47002 3.20749 0
M  V30 28869 H 5003.84 5.8885 -0.0765548 0
M  V30 28870 H 5004.22 1.60276 -2.32875 0
M  V30 28871 H 5004.41 -0.0699355 -1.73859 0
M  V30 28872 H 5004.52 0.165507 2.71897 0
M  V30 28873 P 5005.75 7.20834 5.23717 0
M  V30 28874 O 5005.97 7.79853 6.57286 0
M  V30 28875 O 5006.54 7.79239 4.12957 0
M  V30 28876 O 5006 5.63315 5.29344 0
M  V30 28877 C 5005.06 4.80255 6.01876 0
M  V30 28878 C 5005.79 3.64202 6.65911 0
M  V30 28879 O 5006 2.60694 5.64732 0
M  V30 28880 C 5007.19 3.93473 7.1943 0
M  V30 28881 O 5007.58 3.02071 8.21205 0
M  V30 28882 C 5008.07 3.73047 5.97036 0
M  V30 28883 C 5007.36 2.58828 5.25741 0
M  V30 28884 N 5007.41 2.68068 3.77503 0
M  V30 28885 C 5007.33 3.79715 2.96723 0
M  V30 28886 N 5007.41 3.5377 1.68852 0
M  V30 28887 C 5007.55 2.15054 1.63254 0
M  V30 28888 C 5007.68 1.28964 0.518571 0
M  V30 28889 O 5007.7 1.56826 -0.679156 0
M  V30 28890 N 5007.8 -0.0538097 0.918425 0
M  V30 28891 C 5007.8 -0.494275 2.22578 0
M  V30 28892 N 5007.93 -1.81086 2.40434 0
M  V30 28893 N 5007.67 0.313645 3.27502 0
M  V30 28894 C 5007.55 1.61829 2.91033 0
M  V30 28895 H 5004.57 5.40332 6.79951 0
M  V30 28896 H 5004.3 4.41613 5.32378 0
M  V30 28897 H 5005.17 3.26331 7.47797 0
M  V30 28898 H 5007.82 1.63422 5.56814 0
M  V30 28899 H 5008.1 4.63374 5.34244 0
M  V30 28900 H 5009.09 3.44728 6.25838 0
M  V30 28901 H 5007.26 4.96652 7.57263 0
M  V30 28902 H 5007.21 4.80617 3.3614 0
M  V30 28903 H 5007.89 -0.742702 0.199384 0
M  V30 28904 H 5007.93 -2.20598 3.35588 0
M  V30 28905 H 5008.03 -2.43518 1.58945 0
M  V30 28906 P 5009.13 2.75334 8.47391 0
M  V30 28907 O 5009.35 2.44571 9.90142 0
M  V30 28908 O 5009.92 3.87688 7.92115 0
M  V30 28909 O 5009.38 1.4459 7.59357 0
M  V30 28910 C 5008.44 0.347608 7.69215 0
M  V30 28911 C 5009.17 -0.96767 7.52806 0
M  V30 28912 O 5009.38 -1.21036 6.1011 0
M  V30 28913 C 5010.57 -1.04544 8.13308 0
M  V30 28914 O 5010.96 -2.38311 8.41922 0
M  V30 28915 C 5011.45 -0.491279 7.02284 0
M  V30 28916 C 5010.74 -0.996264 5.77469 0
M  V30 28917 N 5010.79 -0.0501916 4.62973 0
M  V30 28918 H 5007.95 0.374722 8.67691 0
M  V30 28919 H 5007.68 0.443485 6.90277 0
M  V30 28920 H 5008.55 -1.75537 7.96793 0
M  V30 28921 P 5012.51 -2.75334 8.47391 0
M  V30 28922 O 5012.73 -3.84204 9.44982 0
M  V30 28923 O 5013.3 -1.51982 8.68909 0
M  V30 28924 O 5012.76 -3.29363 6.99321 0
M  V30 28925 C 5011.82 -4.24066 6.42823 0
M  V30 28926 C 5012.55 -5.20775 5.52155 0
M  V30 28927 O 5012.76 -4.56607 4.22514 0
M  V30 28928 C 5013.95 -5.62697 5.96604 0
M  V30 28929 O 5014.34 -6.87667 5.41053 0
M  V30 28930 C 5014.83 -4.52537 5.39283 0
M  V30 28931 C 5014.12 -4.20027 4.08623 0
M  V30 28932 N 5014.17 -2.76189 3.71603 0
M  V30 28933 C 5014.09 -1.66944 4.54297 0
M  V30 28934 N 5014.16 -0.536169 3.91344 0
M  V30 28935 C 5014.31 -0.901569 2.58849 0
M  V30 28936 C 5014.44 -0.146599 1.40236 0
M  V30 28937 N 5014.45 1.18234 1.37046 0
M  V30 28938 N 5014.56 -0.822941 0.249738 0
M  V30 28939 C 5014.55 -2.15179 0.280525 0
M  V30 28940 N 5014.43 -2.96414 1.30822 0
M  V30 28941 C 5014.31 -2.25804 2.44748 0
M  V30 28942 H 5011.33 -4.79756 7.24086 0
M  V30 28943 H 5011.06 -3.69963 5.84682 0
M  V30 28944 H 5011.93 -6.10431 5.41508 0
M  V30 28945 H 5014.58 -4.78816 3.28024 0
M  V30 28946 H 5014.86 -3.64957 6.05871 0
M  V30 28947 H 5015.85 -4.88748 5.21323 0
M  V30 28948 H 5014.02 -5.66789 7.0643 0
M  V30 28949 H 5013.98 -1.74684 5.62396 0
M  V30 28950 H 5014.36 1.71949 2.24394 0
M  V30 28951 H 5014.55 1.67511 0.470742 0
M  V30 28952 H 5014.66 -2.63704 -0.6828 0
M  V30 28953 P 5015.89 -7.20834 5.23717 0
M  V30 28954 O 5016.11 -8.66189 5.38625 0
M  V30 28955 O 5016.68 -6.33615 6.1356 0
M  V30 28956 O 5016.14 -6.7751 3.72168 0
M  V30 28957 C 5015.2 -7.20825 2.7076 0
M  V30 28958 C 5015.93 -7.45864 1.40599 0
M  V30 28959 O 5016.14 -6.17651 0.734225 0
M  V30 28960 C 5017.33 -8.05808 1.51899 0
M  V30 28961 O 5017.72 -8.74358 0.335205 0
M  V30 28962 C 5018.21 -6.83093 1.70294 0
M  V30 28963 C 5017.5 -5.79992 0.836974 0
M  V30 28964 N 5017.55 -4.41769 1.38263 0
M  V30 28965 C 5017.7 -3.36514 0.485617 0
M  V30 28966 O 5017.79 -3.61814 -0.724703 0
M  V30 28967 N 5017.75 -2.00746 1.14492 0
M  V30 28968 C 5017.65 -1.85887 2.27776 0
M  V30 28969 N 5017.7 -0.600907 2.69379 0
M  V30 28970 C 5017.5 -2.92182 3.22265 0
M  V30 28971 C 5017.45 -4.18399 2.71925 0
M  V30 28972 H 5014.71 -8.1355 3.03735 0
M  V30 28973 H 5014.44 -6.42695 2.55448 0
M  V30 28974 H 5015.31 -8.12139 0.792866 0
M  V30 28975 H 5017.96 -5.80078 -0.160615 0
M  V30 28976 H 5018.24 -6.51379 2.75643 0
M  V30 28977 H 5019.23 -7.01734 1.34462 0
M  V30 28978 H 5017.4 -8.73674 2.38337 0
M  V30 28979 H 5017.33 -5.02669 3.39718 0
M  V30 28980 H 5017.43 -2.73001 4.29239 0
M  V30 28981 H 5017.82 0.162318 2.01146 0
M  V30 28982 H 5017.62 -0.387742 3.69773 0
M  V30 28983 P 5019.27 -8.91 2.28079e-10 0
M  V30 28984 O 5019.49 -10.1726 -0.733694 0
M  V30 28985 O 5020.06 -8.73148 1.23936 0
M  V30 28986 O 5019.52 -7.66872 -0.971405 0
M  V30 28987 C 5018.58 -7.42309 -2.04641 0
M  V30 28988 C 5019.31 -6.86059 -3.24661 0
M  V30 28989 O 5019.52 -5.42847 -3.03646 0
M  V30 28990 C 5020.71 -7.41196 -3.50753 0
M  V30 28991 O 5021.1 -7.27073 -4.86816 0
M  V30 28992 C 5021.59 -6.5273 -2.63741 0
M  V30 28993 C 5020.88 -5.1842 -2.73198 0
M  V30 28994 N 5020.93 -4.38762 -1.4784 0
M  V30 28995 H 5018.09 -8.36803 -2.32493 0
M  V30 28996 H 5017.82 -6.70197 -1.71129 0
M  V30 28997 H 5018.69 -7.03551 -4.13168 0
M  V30 28998 P 5022.65 -7.20834 -5.23717 0
M  V30 28999 O 5022.87 -7.79853 -6.57286 0
M  V30 29000 O 5023.44 -7.79239 -4.12957 0
M  V30 29001 O 5022.9 -5.63315 -5.29344 0
M  V30 29002 C 5021.96 -4.80255 -6.01876 0
M  V30 29003 C 5022.69 -3.64202 -6.65911 0
M  V30 29004 O 5022.9 -2.60694 -5.64732 0
M  V30 29005 C 5024.09 -3.93473 -7.1943 0
M  V30 29006 O 5024.48 -3.02071 -8.21205 0
M  V30 29007 C 5024.97 -3.73047 -5.97036 0
M  V30 29008 C 5024.26 -2.58828 -5.25741 0
M  V30 29009 N 5024.31 -2.68068 -3.77503 0
M  V30 29010 H 5021.47 -5.40332 -6.79951 0
M  V30 29011 H 5021.2 -4.41613 -5.32378 0
M  V30 29012 H 5022.07 -3.26331 -7.47797 0
M  V30 29013 P 5026.03 -2.75334 -8.47391 0
M  V30 29014 O 5026.25 -2.44619 -9.90336 0
M  V30 29015 O 5026.82 -3.87776 -7.92294 0
M  V30 29016 O 5026.28 -1.4459 -7.59357 0
M  V30 29017 C 5025.34 -0.347653 -7.69315 0
M  V30 29018 C 5026.07 0.96767 -7.52806 0
M  V30 29019 O 5026.28 1.21055 -6.10208 0
M  V30 29020 C 5027.47 1.04557 -8.13408 0
M  V30 29021 O 5027.86 2.38311 -8.41922 0
M  V30 29022 C 5028.35 0.491279 -7.02284 0
M  V30 29023 C 5027.64 0.996264 -5.77469 0
M  V30 29024 N 5027.69 0.0501916 -4.62973 0
M  V30 29025 C 5027.61 -1.31969 -4.65661 0
M  V30 29026 N 5027.68 -1.86649 -3.48119 0
M  V30 29027 C 5027.83 -0.792089 -2.62406 0
M  V30 29028 C 5027.96 -0.705684 -1.2207 0
M  V30 29029 N 5027.97 -1.76207 -0.413762 0
M  V30 29030 N 5028.08 0.518981 -0.685754 0
M  V30 29031 C 5028.07 1.57595 -1.49174 0
M  V30 29032 N 5027.95 1.62909 -2.80066 0
M  V30 29033 C 5027.83 0.388195 -3.3073 0
M  V30 29034 H 5024.85 -0.374765 -8.67791 0
M  V30 29035 H 5024.58 -0.443613 -6.90476 0
M  V30 29036 H 5025.45 1.75559 -7.96891 0
M  V30 29037 H 5028.1 1.94563 -5.46818 0
M  V30 29038 H 5028.38 -0.608651 -7.04676 0
M  V30 29039 H 5029.37 0.889796 -7.09039 0
M  V30 29040 H 5027.54 0.433128 -9.04664 0
M  V30 29041 H 5027.5 -1.89246 -5.57664 0
M  V30 29042 H 5027.88 -2.71005 -0.804694 0
M  V30 29043 H 5028.07 -1.63189 0.603768 0
M  V30 29044 H 5028.18 2.53475 -0.997614 0
M  V30 29045 P 5029.41 2.75334 -8.47391 0
M  V30 29046 O 5029.63 3.84204 -9.44982 0
M  V30 29047 O 5030.2 1.51982 -8.68909 0
M  V30 29048 O 5029.66 3.29363 -6.99321 0
M  V30 29049 C 5028.72 4.24066 -6.42823 0
M  V30 29050 C 5029.45 5.20775 -5.52155 0
M  V30 29051 O 5029.66 4.56607 -4.22514 0
M  V30 29052 C 5030.85 5.62697 -5.96604 0
M  V30 29053 O 5031.24 6.87667 -5.41053 0
M  V30 29054 C 5031.73 4.52537 -5.39283 0
M  V30 29055 C 5031.02 4.20027 -4.08623 0
M  V30 29056 N 5031.07 2.76189 -3.71603 0
M  V30 29057 C 5030.99 1.66944 -4.54297 0
M  V30 29058 N 5031.06 0.536169 -3.91344 0
M  V30 29059 C 5031.21 0.901569 -2.58849 0
M  V30 29060 C 5031.34 0.146599 -1.40236 0
M  V30 29061 N 5031.35 -1.18234 -1.37046 0
M  V30 29062 N 5031.46 0.822941 -0.249738 0
M  V30 29063 C 5031.45 2.15179 -0.280525 0
M  V30 29064 N 5031.33 2.96414 -1.30822 0
M  V30 29065 C 5031.21 2.25804 -2.44748 0
M  V30 29066 H 5028.23 4.79756 -7.24086 0
M  V30 29067 H 5027.96 3.69963 -5.84682 0
M  V30 29068 H 5028.83 6.10431 -5.41508 0
M  V30 29069 H 5031.48 4.78816 -3.28024 0
M  V30 29070 H 5031.76 3.64957 -6.05871 0
M  V30 29071 H 5032.75 4.88748 -5.21323 0
M  V30 29072 H 5030.92 5.66789 -7.0643 0
M  V30 29073 H 5030.88 1.74684 -5.62396 0
M  V30 29074 H 5031.26 -1.71949 -2.24394 0
M  V30 29075 H 5031.45 -1.67511 -0.470742 0
M  V30 29076 H 5031.56 2.63704 0.6828 0
M  V30 29077 P 5032.79 7.20834 -5.23717 0
M  V30 29078 O 5033.01 8.66104 -5.38572 0
M  V30 29079 O 5033.58 6.33544 -6.1349 0
M  V30 29080 O 5033.04 6.7751 -3.72168 0
M  V30 29081 C 5032.1 7.20825 -2.7076 0
M  V30 29082 C 5032.83 7.45864 -1.40599 0
M  V30 29083 O 5033.04 6.17651 -0.734225 0
M  V30 29084 C 5034.23 8.05808 -1.51899 0
M  V30 29085 O 5034.62 8.74358 -0.335205 0
M  V30 29086 C 5035.11 6.83093 -1.70294 0
M  V30 29087 C 5034.4 5.79992 -0.836974 0
M  V30 29088 N 5034.45 4.41864 -1.38293 0
M  V30 29089 C 5034.37 3.99538 -2.69438 0
M  V30 29090 N 5034.45 2.69909 -2.84277 0
M  V30 29091 C 5034.59 2.21719 -1.5408 0
M  V30 29092 C 5034.72 0.891712 -1.06628 0
M  V30 29093 N 5034.84 0.856846 0.334985 0
M  V30 29094 C 5034.84 1.9641 1.15789 0
M  V30 29095 N 5034.97 1.72708 2.46522 0
M  V30 29096 N 5034.71 3.21165 0.713741 0
M  V30 29097 C 5034.59 3.26797 -0.639748 0
M  V30 29098 H 5031.61 8.13644 -3.0377 0
M  V30 29099 H 5031.34 6.42788 -2.55485 0
M  V30 29100 H 5032.21 8.12039 -0.792769 0
M  V30 29101 P 5036.17 8.91 -2.29188e-10 0
M  V30 29102 O 5036.39 10.1726 0.733694 0
M  V30 29103 O 5036.96 8.73148 -1.23936 0
M  V30 29104 O 5036.42 7.66872 0.971405 0
M  V30 29105 C 5035.48 7.42309 2.04641 0
M  V30 29106 C 5036.21 6.86059 3.24661 0
M  V30 29107 O 5036.42 5.42847 3.03646 0
M  V30 29108 C 5037.61 7.41196 3.50753 0
M  V30 29109 O 5038 7.27073 4.86816 0
M  V30 29110 C 5038.49 6.5273 2.63741 0
M  V30 29111 C 5037.78 5.1842 2.73198 0
M  V30 29112 N 5037.83 4.38762 1.4784 0
M  V30 29113 H 5034.99 8.36803 2.32493 0
M  V30 29114 H 5034.72 6.70197 1.71129 0
M  V30 29115 H 5035.59 7.03551 4.13168 0
M  V30 29116 P 5039.55 7.20834 5.23717 0
M  V30 29117 O 5039.77 7.79853 6.57286 0
M  V30 29118 O 5040.34 7.79239 4.12957 0
M  V30 29119 O 5039.8 5.63315 5.29344 0
M  V30 29120 C 5038.86 4.80255 6.01876 0
M  V30 29121 C 5039.59 3.64202 6.65911 0
M  V30 29122 O 5039.8 2.60694 5.64732 0
M  V30 29123 C 5040.99 3.93473 7.1943 0
M  V30 29124 O 5041.38 3.02071 8.21205 0
M  V30 29125 C 5041.87 3.73047 5.97036 0
M  V30 29126 C 5041.16 2.58828 5.25741 0
M  V30 29127 N 5041.21 2.68068 3.77503 0
M  V30 29128 H 5038.37 5.40332 6.79951 0
M  V30 29129 H 5038.1 4.41613 5.32378 0
M  V30 29130 H 5038.97 3.26331 7.47797 0
M  V30 29131 P 5042.93 2.75334 8.47391 0
M  V30 29132 O 5043.15 2.44571 9.90142 0
M  V30 29133 O 5043.72 3.87688 7.92115 0
M  V30 29134 O 5043.18 1.4459 7.59357 0
M  V30 29135 C 5042.24 0.347608 7.69215 0
M  V30 29136 C 5042.97 -0.96767 7.52806 0
M  V30 29137 O 5043.18 -1.21036 6.1011 0
M  V30 29138 C 5044.37 -1.04544 8.13308 0
M  V30 29139 O 5044.76 -2.38311 8.41922 0
M  V30 29140 C 5045.25 -0.491279 7.02284 0
M  V30 29141 C 5044.54 -0.996264 5.77469 0
M  V30 29142 N 5044.59 -0.0501916 4.62973 0
M  V30 29143 H 5041.75 0.374722 8.67691 0
M  V30 29144 H 5041.48 0.443485 6.90277 0
M  V30 29145 H 5042.35 -1.75537 7.96793 0
M  V30 29146 P 5046.31 -2.75334 8.47391 0
M  V30 29147 O 5046.53 -3.84166 9.4489 0
M  V30 29148 O 5047.1 -1.51964 8.6881 0
M  V30 29149 O 5046.56 -3.29363 6.99321 0
M  V30 29150 C 5045.62 -4.23956 6.42656 0
M  V30 29151 C 5046.35 -5.20775 5.52155 0
M  V30 29152 O 5046.56 -4.56534 4.22446 0
M  V30 29153 C 5047.75 -5.62629 5.96531 0
M  V30 29154 O 5048.14 -6.87667 5.41053 0
M  V30 29155 C 5048.63 -4.52537 5.39283 0
M  V30 29156 C 5047.92 -4.20027 4.08623 0
M  V30 29157 N 5047.97 -2.7613 3.71522 0
M  V30 29158 C 5048.12 -2.45612 2.37989 0
M  V30 29159 O 5048.21 -3.30919 1.51621 0
M  V30 29160 N 5048.16 -1.10684 2.08435 0
M  V30 29161 C 5048.07 -0.0690084 2.9792 0
M  V30 29162 O 5048.12 1.10553 2.59426 0
M  V30 29163 C 5047.92 -0.481522 4.35345 0
M  V30 29164 C 5047.81 0.618778 5.36443 0
M  V30 29165 C 5047.87 -1.78906 4.67968 0
M  V30 29166 H 5045.13 -4.797 7.24003 0
M  V30 29167 H 5044.86 -3.69802 5.84429 0
M  V30 29168 H 5045.73 -6.10356 5.41441 0
M  V30 29169 H 5048.38 -4.78651 3.27911 0
M  V30 29170 H 5048.66 -3.64957 6.05871 0
M  V30 29171 H 5049.65 -4.8868 5.2125 0
M  V30 29172 H 5047.82 -5.66726 7.06352 0
M  V30 29173 H 5047.75 -2.07737 5.72367 0
M  V30 29174 H 5048.78 0.754375 5.86871 0
M  V30 29175 H 5047.04 0.359721 6.10641 0
M  V30 29176 H 5047.53 1.55533 4.8581 0
M  V30 29177 H 5048.27 -0.862651 1.12037 0
M  V30 29178 P 5049.69 -7.20834 5.23717 0
M  V30 29179 O 5049.91 -8.66104 5.38572 0
M  V30 29180 O 5050.48 -6.33544 6.1349 0
M  V30 29181 O 5049.94 -6.7751 3.72168 0
M  V30 29182 C 5049 -7.20825 2.7076 0
M  V30 29183 C 5049.73 -7.45864 1.40599 0
M  V30 29184 O 5049.94 -6.17651 0.734225 0
M  V30 29185 C 5051.13 -8.05808 1.51899 0
M  V30 29186 O 5051.52 -8.74358 0.335205 0
M  V30 29187 C 5052.01 -6.83093 1.70294 0
M  V30 29188 C 5051.3 -5.79992 0.836974 0
M  V30 29189 N 5051.35 -4.41864 1.38293 0
M  V30 29190 H 5048.51 -8.13644 3.0377 0
M  V30 29191 H 5048.24 -6.42788 2.55485 0
M  V30 29192 H 5049.11 -8.12039 0.792769 0
M  V30 29193 P 5053.07 -8.91 2.30297e-10 0
M  V30 29194 O 5053.29 -10.1726 -0.733694 0
M  V30 29195 O 5053.86 -8.73148 1.23936 0
M  V30 29196 O 5053.32 -7.66872 -0.971405 0
M  V30 29197 C 5052.38 -7.42309 -2.04641 0
M  V30 29198 C 5053.11 -6.86059 -3.24661 0
M  V30 29199 O 5053.32 -5.42847 -3.03646 0
M  V30 29200 C 5054.51 -7.41196 -3.50753 0
M  V30 29201 O 5054.9 -7.27073 -4.86816 0
M  V30 29202 C 5055.39 -6.5273 -2.63741 0
M  V30 29203 C 5054.68 -5.1842 -2.73198 0
M  V30 29204 N 5054.73 -4.38762 -1.4784 0
M  V30 29205 H 5051.89 -8.36803 -2.32493 0
M  V30 29206 H 5051.62 -6.70197 -1.71129 0
M  V30 29207 H 5052.49 -7.03551 -4.13168 0
M  V30 29208 P 5056.45 -7.20834 -5.23717 0
M  V30 29209 O 5056.67 -7.79853 -6.57286 0
M  V30 29210 O 5057.24 -7.79239 -4.12957 0
M  V30 29211 O 5056.7 -5.63315 -5.29344 0
M  V30 29212 C 5055.76 -4.80255 -6.01876 0
M  V30 29213 C 5056.49 -3.64202 -6.65911 0
M  V30 29214 O 5056.7 -2.60694 -5.64732 0
M  V30 29215 C 5057.89 -3.93473 -7.1943 0
M  V30 29216 O 5058.28 -3.02071 -8.21205 0
M  V30 29217 C 5058.77 -3.73047 -5.97036 0
M  V30 29218 C 5058.06 -2.58828 -5.25741 0
M  V30 29219 N 5058.11 -2.68068 -3.77503 0
M  V30 29220 H 5055.27 -5.40332 -6.79951 0
M  V30 29221 H 5055 -4.41613 -5.32378 0
M  V30 29222 H 5055.87 -3.26331 -7.47797 0
M  V30 29223 P 5059.83 -2.75334 -8.47391 0
M  V30 29224 O 5060.05 -2.44619 -9.90336 0
M  V30 29225 O 5060.62 -3.87776 -7.92294 0
M  V30 29226 O 5060.08 -1.4459 -7.59357 0
M  V30 29227 C 5059.14 -0.347653 -7.69315 0
M  V30 29228 C 5059.87 0.96767 -7.52806 0
M  V30 29229 O 5060.08 1.21055 -6.10208 0
M  V30 29230 C 5061.27 1.04557 -8.13408 0
M  V30 29231 O 5061.66 2.38311 -8.41922 0
M  V30 29232 C 5062.15 0.491279 -7.02284 0
M  V30 29233 C 5061.44 0.996264 -5.77469 0
M  V30 29234 N 5061.49 0.0501916 -4.62973 0
M  V30 29235 H 5058.65 -0.374765 -8.67791 0
M  V30 29236 H 5058.38 -0.443613 -6.90476 0
M  V30 29237 H 5059.25 1.75559 -7.96891 0
M  V30 29238 H 5061.9 1.94563 -5.46818 0
M  V30 29239 H 5062.18 -0.608651 -7.04676 0
M  V30 29240 H 5063.17 0.889796 -7.09039 0
M  V30 29241 H 5061.34 0.433128 -9.04664 0
M  V30 29242 P 5063.21 2.75334 -8.47391 0
M  V30 29243 O 5063.43 3.84166 -9.4489 0
M  V30 29244 O 5064 1.51964 -8.6881 0
M  V30 29245 O 5063.46 3.29363 -6.99321 0
M  V30 29246 C 5062.52 4.24011 -6.4274 0
M  V30 29247 C 5063.25 5.20775 -5.52155 0
M  V30 29248 O 5063.46 4.56534 -4.22446 0
M  V30 29249 C 5064.65 5.62629 -5.96531 0
M  V30 29250 O 5065.04 6.87667 -5.41053 0
M  V30 29251 C 5065.53 4.52537 -5.39283 0
M  V30 29252 C 5064.82 4.20027 -4.08623 0
M  V30 29253 N 5064.87 2.7613 -3.71522 0
M  V30 29254 C 5065.02 2.43702 -2.37085 0
M  V30 29255 O 5065.11 3.3531 -1.54039 0
M  V30 29256 N 5065.07 0.951103 -2.10621 0
M  V30 29257 C 5064.97 0.165021 -2.93537 0
M  V30 29258 N 5065.02 -1.09723 -2.53253 0
M  V30 29259 C 5064.82 0.469576 -4.32458 0
M  V30 29260 C 5064.77 1.78658 -4.65921 0
M  V30 29261 H 5062.03 4.79645 -7.23919 0
M  V30 29262 H 5061.76 3.69802 -5.84429 0
M  V30 29263 H 5062.63 6.10431 -5.41508 0
M  V30 29264 H 5065.28 4.78733 -3.27967 0
M  V30 29265 H 5065.56 3.64957 -6.05871 0
M  V30 29266 H 5066.55 4.8868 -5.2125 0
M  V30 29267 H 5064.72 5.66726 -7.06352 0
M  V30 29268 H 5064.65 2.06987 -5.70299 0
M  V30 29269 H 5064.75 -0.314383 -5.07728 0
M  V30 29270 H 5065.14 -1.31363 -1.5319 0
M  V30 29271 H 5064.94 -1.85978 -3.21943 0
M  V30 29272 P 5066.59 7.20834 -5.23717 0
M  V30 29273 O 5066.81 8.66104 -5.38572 0
M  V30 29274 O 5067.38 6.33544 -6.1349 0
M  V30 29275 O 5066.84 6.7751 -3.72168 0
M  V30 29276 C 5065.9 7.20825 -2.7076 0
M  V30 29277 C 5066.63 7.45864 -1.40599 0
M  V30 29278 O 5066.84 6.17651 -0.734225 0
M  V30 29279 C 5068.03 8.05808 -1.51899 0
M  V30 29280 O 5068.42 8.74358 -0.335205 0
M  V30 29281 C 5068.91 6.83093 -1.70294 0
M  V30 29282 C 5068.2 5.79992 -0.836974 0
M  V30 29283 N 5068.25 4.41864 -1.38293 0
M  V30 29284 H 5065.41 8.13644 -3.0377 0
M  V30 29285 H 5065.14 6.42788 -2.55485 0
M  V30 29286 H 5066.01 8.12039 -0.792769 0
M  V30 29287 P 5069.97 8.91 -2.31407e-10 0
M  V30 29288 O 5070.19 10.1726 0.733694 0
M  V30 29289 O 5070.76 8.73148 -1.23936 0
M  V30 29290 O 5070.22 7.66872 0.971405 0
M  V30 29291 C 5069.28 7.42309 2.04641 0
M  V30 29292 C 5070.01 6.86059 3.24661 0
M  V30 29293 O 5070.22 5.42847 3.03646 0
M  V30 29294 C 5071.41 7.41196 3.50753 0
M  V30 29295 O 5071.8 7.27073 4.86816 0
M  V30 29296 C 5072.29 6.5273 2.63741 0
M  V30 29297 C 5071.58 5.1842 2.73198 0
M  V30 29298 N 5071.63 4.38762 1.4784 0
M  V30 29299 H 5068.79 8.36803 2.32493 0
M  V30 29300 H 5068.52 6.70197 1.71129 0
M  V30 29301 H 5069.39 7.03551 4.13168 0
M  V30 29302 P 5073.35 7.20834 5.23717 0
M  V30 29303 O 5073.57 7.80006 6.57415 0
M  V30 29304 O 5074.14 7.79416 4.13051 0
M  V30 29305 O 5073.6 5.63315 5.29344 0
M  V30 29306 C 5072.66 4.80318 6.01954 0
M  V30 29307 C 5073.39 3.64202 6.65911 0
M  V30 29308 O 5073.6 2.60736 5.64823 0
M  V30 29309 C 5074.79 3.93521 7.19518 0
M  V30 29310 O 5075.18 3.02071 8.21205 0
M  V30 29311 C 5075.67 3.73047 5.97036 0
M  V30 29312 C 5074.96 2.58828 5.25741 0
M  V30 29313 N 5075.01 2.68068 3.77503 0
M  V30 29314 H 5072.17 5.40394 6.8003 0
M  V30 29315 H 5071.9 4.41741 5.32532 0
M  V30 29316 H 5072.77 3.26371 7.47889 0
M  V30 29317 H 5075.42 1.64007 5.56746 0
M  V30 29318 H 5075.7 4.63439 5.3432 0
M  V30 29319 H 5076.69 3.44776 6.25925 0
M  V30 29320 H 5074.86 4.96707 7.57347 0
M  V30 29321 P 5076.73 2.75334 8.47391 0
M  V30 29322 O 5076.95 2.44595 9.90239 0
M  V30 29323 O 5077.52 3.87732 7.92204 0
M  V30 29324 O 5076.98 1.4459 7.59357 0
M  V30 29325 C 5076.04 0.347563 7.69115 0
M  V30 29326 C 5076.77 -0.96767 7.52806 0
M  V30 29327 O 5076.98 -1.21036 6.1011 0
M  V30 29328 C 5078.17 -1.04544 8.13308 0
M  V30 29329 O 5078.56 -2.38311 8.41922 0
M  V30 29330 C 5079.05 -0.491279 7.02284 0
M  V30 29331 C 5078.34 -0.996264 5.77469 0
M  V30 29332 N 5078.39 -0.0501808 4.62873 0
M  V30 29333 C 5078.54 -0.588177 3.36904 0
M  V30 29334 O 5078.63 -1.78598 3.17173 0
M  V30 29335 N 5078.58 0.329694 2.33686 0
M  V30 29336 C 5078.49 1.6953 2.45079 0
M  V30 29337 O 5078.54 2.41926 1.44899 0
M  V30 29338 C 5078.34 2.16933 3.80505 0
M  V30 29339 C 5078.23 3.65373 3.97621 0
M  V30 29340 C 5078.29 1.30326 4.83752 0
M  V30 29341 H 5075.55 0.374722 8.67691 0
M  V30 29342 H 5075.28 0.443421 6.90177 0
M  V30 29343 H 5076.15 -1.75537 7.96793 0
M  V30 29344 H 5078.8 -1.94496 5.46629 0
M  V30 29345 H 5079.08 0.608651 7.04676 0
M  V30 29346 H 5080.07 -0.889672 7.08939 0
M  V30 29347 H 5078.24 -0.43308 9.04564 0
M  V30 29348 H 5078.17 1.68366 5.8516 0
M  V30 29349 H 5079.2 4.05985 4.30448 0
M  V30 29350 H 5077.46 3.88028 4.72875 0
M  V30 29351 H 5077.95 4.11381 3.01609 0
M  V30 29352 H 5078.69 -0.0393617 1.41345 0
M  V30 29353 P 5080.11 -2.75334 8.47391 0
M  V30 29354 O 5080.33 -3.84128 9.44797 0
M  V30 29355 O 5080.9 -1.51947 8.68712 0
M  V30 29356 O 5080.36 -3.29363 6.99321 0
M  V30 29357 C 5079.42 -4.24011 6.4274 0
M  V30 29358 C 5080.15 -5.20775 5.52155 0
M  V30 29359 O 5080.36 -4.56534 4.22446 0
M  V30 29360 C 5081.55 -5.62629 5.96531 0
M  V30 29361 O 5081.94 -6.87667 5.41053 0
M  V30 29362 C 5082.43 -4.52537 5.39283 0
M  V30 29363 C 5081.72 -4.20027 4.08623 0
M  V30 29364 N 5081.77 -2.76189 3.71603 0
M  V30 29365 C 5081.69 -1.64862 4.52822 0
M  V30 29366 N 5081.77 -0.512671 3.88633 0
M  V30 29367 C 5081.91 -0.888083 2.54977 0
M  V30 29368 C 5082.04 -0.094668 1.38677 0
M  V30 29369 O 5082.06 1.13053 1.28163 0
M  V30 29370 N 5082.16 -0.890102 0.232633 0
M  V30 29371 C 5082.16 -2.26958 0.21772 0
M  V30 29372 N 5082.29 -2.84626 -0.97925 0
M  V30 29373 N 5082.03 -3.0178 1.31033 0
M  V30 29374 C 5081.91 -2.26781 2.43843 0
M  V30 29375 H 5078.93 -4.797 7.24003 0
M  V30 29376 H 5078.66 -3.69856 5.84513 0
M  V30 29377 H 5079.53 -6.10356 5.41441 0
M  V30 29378 H 5082.18 -4.79061 3.27488 0
M  V30 29379 H 5082.46 -3.64906 6.05785 0
M  V30 29380 H 5083.45 -4.8868 5.2125 0
M  V30 29381 H 5081.62 -5.66726 7.06352 0
M  V30 29382 H 5081.57 -1.71169 5.60966 0
M  V30 29383 H 5082.25 -0.419134 -0.644739 0
M  V30 29384 H 5082.29 -3.87332 -1.06098 0
M  V30 29385 H 5082.39 -2.26417 -1.82483 0
M  V30 29386 P 5083.49 -7.20834 5.23717 0
M  V30 29387 O 5083.71 -8.66104 5.38572 0
M  V30 29388 O 5084.28 -6.33544 6.1349 0
M  V30 29389 O 5083.74 -6.7751 3.72168 0
M  V30 29390 C 5082.8 -7.20825 2.7076 0
M  V30 29391 C 5083.53 -7.45864 1.40599 0
M  V30 29392 O 5083.74 -6.17651 0.734225 0
M  V30 29393 C 5084.93 -8.05808 1.51899 0
M  V30 29394 O 5085.32 -8.74358 0.335205 0
M  V30 29395 C 5085.81 -6.83093 1.70294 0
M  V30 29396 C 5085.1 -5.79992 0.836974 0
M  V30 29397 N 5085.15 -4.41864 1.38293 0
M  V30 29398 H 5082.31 -8.13644 3.0377 0
M  V30 29399 H 5082.04 -6.42788 2.55485 0
M  V30 29400 H 5082.91 -8.12039 0.792769 0
M  V30 29401 P 5086.87 -8.91 2.32516e-10 0
M  V30 29402 O 5087.09 -10.1726 -0.733694 0
M  V30 29403 O 5087.66 -8.73148 1.23936 0
M  V30 29404 O 5087.12 -7.66872 -0.971405 0
M  V30 29405 C 5086.18 -7.42309 -2.04641 0
M  V30 29406 C 5086.91 -6.86059 -3.24661 0
M  V30 29407 O 5087.12 -5.42847 -3.03646 0
M  V30 29408 C 5088.31 -7.41196 -3.50753 0
M  V30 29409 O 5088.7 -7.27073 -4.86816 0
M  V30 29410 C 5089.19 -6.5273 -2.63741 0
M  V30 29411 C 5088.48 -5.1842 -2.73198 0
M  V30 29412 N 5088.53 -4.38762 -1.4784 0
M  V30 29413 C 5088.45 -4.81605 -0.168631 0
M  V30 29414 N 5088.53 -3.85454 0.713363 0
M  V30 29415 C 5088.67 -2.6994 -0.0566958 0
M  V30 29416 C 5088.8 -1.34815 0.338502 0
M  V30 29417 N 5088.92 -0.496304 -0.77465 0
M  V30 29418 C 5088.92 -0.908403 -2.09122 0
M  V30 29419 N 5089.05 0.0517805 -3.00955 0
M  V30 29420 N 5088.79 -2.17875 -2.46519 0
M  V30 29421 C 5088.67 -3.01988 -1.4033 0
M  V30 29422 H 5085.69 -8.36803 -2.32493 0
M  V30 29423 H 5085.42 -6.70197 -1.71129 0
M  V30 29424 H 5086.29 -7.03551 -4.13168 0
M  V30 29425 P 5090.25 -7.20834 -5.23717 0
M  V30 29426 O 5090.47 -7.80006 -6.57415 0
M  V30 29427 O 5091.04 -7.79416 -4.13051 0
M  V30 29428 O 5090.5 -5.63315 -5.29344 0
M  V30 29429 C 5089.56 -4.80318 -6.01954 0
M  V30 29430 C 5090.29 -3.64202 -6.65911 0
M  V30 29431 O 5090.5 -2.60736 -5.64823 0
M  V30 29432 C 5091.69 -3.93521 -7.19518 0
M  V30 29433 O 5092.08 -3.02071 -8.21205 0
M  V30 29434 C 5092.57 -3.73047 -5.97036 0
M  V30 29435 C 5091.86 -2.58828 -5.25741 0
M  V30 29436 N 5091.91 -2.68068 -3.77503 0
M  V30 29437 H 5089.07 -5.40394 -6.8003 0
M  V30 29438 H 5088.8 -4.41741 -5.32532 0
M  V30 29439 H 5089.67 -3.26371 -7.47889 0
M  V30 29440 H 5092.32 -1.64007 -5.56746 0
M  V30 29441 H 5092.6 -4.63439 -5.3432 0
M  V30 29442 H 5093.59 -3.44776 -6.25925 0
M  V30 29443 H 5091.76 -4.96707 -7.57347 0
M  V30 29444 P 5093.63 -2.75334 -8.47391 0
M  V30 29445 O 5093.85 -2.44571 -9.90142 0
M  V30 29446 O 5094.42 -3.87688 -7.92115 0
M  V30 29447 O 5093.88 -1.4459 -7.59357 0
M  V30 29448 C 5092.94 -0.347608 -7.69215 0
M  V30 29449 C 5093.67 0.96767 -7.52806 0
M  V30 29450 O 5093.88 1.21036 -6.1011 0
M  V30 29451 C 5095.07 1.04544 -8.13308 0
M  V30 29452 O 5095.46 2.38311 -8.41922 0
M  V30 29453 C 5095.95 0.491279 -7.02284 0
M  V30 29454 C 5095.24 0.996264 -5.77469 0
M  V30 29455 N 5095.29 0.0501916 -4.62973 0
M  V30 29456 H 5092.45 -0.374722 -8.67691 0
M  V30 29457 H 5092.18 -0.443485 -6.90277 0
M  V30 29458 H 5093.05 1.75537 -7.96793 0
M  V30 29459 P 5097.01 2.75334 -8.47391 0
M  V30 29460 O 5097.23 3.84204 -9.44982 0
M  V30 29461 O 5097.8 1.51982 -8.68909 0
M  V30 29462 O 5097.26 3.29363 -6.99321 0
M  V30 29463 C 5096.32 4.24066 -6.42823 0
M  V30 29464 C 5097.05 5.20775 -5.52155 0
M  V30 29465 O 5097.26 4.56607 -4.22514 0
M  V30 29466 C 5098.45 5.62697 -5.96604 0
M  V30 29467 O 5098.84 6.87667 -5.41053 0
M  V30 29468 C 5099.33 4.52537 -5.39283 0
M  V30 29469 C 5098.62 4.20027 -4.08623 0
M  V30 29470 N 5098.67 2.76189 -3.71603 0
M  V30 29471 H 5095.83 4.79756 -7.24086 0
M  V30 29472 H 5095.56 3.69963 -5.84682 0
M  V30 29473 H 5096.43 6.10431 -5.41508 0
M  V30 29474 H 5099.08 4.78816 -3.28024 0
M  V30 29475 H 5099.36 3.64957 -6.05871 0
M  V30 29476 H 5100.35 4.88748 -5.21323 0
M  V30 29477 H 5098.52 5.66789 -7.0643 0
M  V30 29478 P 5100.39 7.20834 -5.23717 0
M  V30 29479 O 5100.61 8.66274 -5.38678 0
M  V30 29480 O 5101.18 6.33687 -6.13629 0
M  V30 29481 O 5100.64 6.7751 -3.72168 0
M  V30 29482 C 5099.7 7.20919 -2.70795 0
M  V30 29483 C 5100.43 7.45864 -1.40599 0
M  V30 29484 O 5100.64 6.17751 -0.734343 0
M  V30 29485 C 5101.83 8.05906 -1.51917 0
M  V30 29486 O 5102.22 8.74358 -0.335205 0
M  V30 29487 C 5102.71 6.83093 -1.70294 0
M  V30 29488 C 5102 5.79992 -0.836974 0
M  V30 29489 N 5102.05 4.41864 -1.38293 0
M  V30 29490 H 5099.21 8.13738 -3.03804 0
M  V30 29491 H 5098.94 6.42974 -2.55559 0
M  V30 29492 H 5099.81 8.12139 -0.792866 0
M  V30 29493 H 5102.46 5.80178 0.160643 0
M  V30 29494 H 5102.74 6.51379 -2.75643 0
M  V30 29495 H 5103.73 7.01832 -1.3448 0
M  V30 29496 H 5101.9 8.73771 -2.38364 0
M  V30 29497 P 5103.77 8.91 -2.33625e-10 0
M  V30 29498 O 5103.99 10.1746 0.733838 0
M  V30 29499 O 5104.56 8.73346 -1.23964 0
M  V30 29500 O 5104.02 7.66872 0.971405 0
M  V30 29501 C 5103.08 7.42405 2.04668 0
M  V30 29502 C 5103.81 6.86059 3.24661 0
M  V30 29503 O 5104.02 5.42934 3.03695 0
M  V30 29504 C 5105.21 7.41287 3.50796 0
M  V30 29505 O 5105.6 7.27073 4.86816 0
M  V30 29506 C 5106.09 6.5273 2.63741 0
M  V30 29507 C 5105.38 5.1842 2.73198 0
M  V30 29508 N 5105.43 4.38762 1.4784 0
M  V30 29509 C 5105.35 4.83651 0.183876 0
M  V30 29510 N 5105.42 3.88759 -0.699393 0
M  V30 29511 C 5105.57 2.7404 0.0575568 0
M  V30 29512 C 5105.7 1.37902 -0.293928 0
M  V30 29513 N 5105.71 0.938021 -1.54797 0
M  V30 29514 N 5105.82 0.491817 0.70549 0
M  V30 29515 C 5105.81 0.931735 1.95979 0
M  V30 29516 N 5105.69 2.16017 2.41481 0
M  V30 29517 C 5105.57 3.02547 1.39121 0
M  V30 29518 H 5102.59 8.36899 2.3252 0
M  V30 29519 H 5102.32 6.70391 1.71179 0
M  V30 29520 H 5103.19 7.03638 4.13219 0
M  V30 29521 H 5105.84 4.59931 3.54016 0
M  V30 29522 H 5106.12 6.88995 1.59871 0
M  V30 29523 H 5107.11 6.4684 3.0373 0
M  V30 29524 H 5105.28 8.47002 3.20749 0
M  V30 29525 H 5105.24 5.8885 -0.0765548 0
M  V30 29526 H 5105.62 1.60276 -2.32875 0
M  V30 29527 H 5105.81 -0.0699355 -1.73859 0
M  V30 29528 H 5105.92 0.165507 2.71897 0
M  V30 29529 P 5107.15 7.20834 5.23717 0
M  V30 29530 O 5107.37 7.79853 6.57286 0
M  V30 29531 O 5107.94 7.79239 4.12957 0
M  V30 29532 O 5107.4 5.63315 5.29344 0
M  V30 29533 C 5106.46 4.80255 6.01876 0
M  V30 29534 C 5107.19 3.64202 6.65911 0
M  V30 29535 O 5107.4 2.60694 5.64732 0
M  V30 29536 C 5108.59 3.93473 7.1943 0
M  V30 29537 O 5108.98 3.02071 8.21205 0
M  V30 29538 C 5109.47 3.73047 5.97036 0
M  V30 29539 C 5108.76 2.58828 5.25741 0
M  V30 29540 N 5108.81 2.68068 3.77503 0
M  V30 29541 C 5108.73 3.79715 2.96723 0
M  V30 29542 N 5108.81 3.5377 1.68852 0
M  V30 29543 C 5108.95 2.15054 1.63254 0
M  V30 29544 C 5109.08 1.28964 0.518571 0
M  V30 29545 O 5109.1 1.56826 -0.679156 0
M  V30 29546 N 5109.2 -0.0538097 0.918425 0
M  V30 29547 C 5109.2 -0.494275 2.22578 0
M  V30 29548 N 5109.33 -1.81086 2.40434 0
M  V30 29549 N 5109.07 0.313645 3.27502 0
M  V30 29550 C 5108.95 1.61829 2.91033 0
M  V30 29551 H 5105.97 5.40332 6.79951 0
M  V30 29552 H 5105.7 4.41613 5.32378 0
M  V30 29553 H 5106.57 3.26331 7.47797 0
M  V30 29554 H 5109.22 1.63422 5.56814 0
M  V30 29555 H 5109.5 4.63374 5.34244 0
M  V30 29556 H 5110.49 3.44728 6.25838 0
M  V30 29557 H 5108.66 4.96652 7.57263 0
M  V30 29558 H 5108.61 4.80617 3.3614 0
M  V30 29559 H 5109.29 -0.742702 0.199384 0
M  V30 29560 H 5109.33 -2.20598 3.35588 0
M  V30 29561 H 5109.43 -2.43518 1.58945 0
M  V30 29562 P 5110.53 2.75334 8.47391 0
M  V30 29563 O 5110.75 2.44571 9.90142 0
M  V30 29564 O 5111.32 3.87688 7.92115 0
M  V30 29565 O 5110.78 1.4459 7.59357 0
M  V30 29566 C 5109.84 0.347608 7.69215 0
M  V30 29567 C 5110.57 -0.96767 7.52806 0
M  V30 29568 O 5110.78 -1.21036 6.1011 0
M  V30 29569 C 5111.97 -1.04544 8.13308 0
M  V30 29570 O 5112.36 -2.38311 8.41922 0
M  V30 29571 C 5112.85 -0.491279 7.02284 0
M  V30 29572 C 5112.14 -0.996264 5.77469 0
M  V30 29573 N 5112.19 -0.0501916 4.62973 0
M  V30 29574 H 5109.35 0.374722 8.67691 0
M  V30 29575 H 5109.08 0.443485 6.90277 0
M  V30 29576 H 5109.95 -1.75537 7.96793 0
M  V30 29577 P 5113.91 -2.75334 8.47391 0
M  V30 29578 O 5114.13 -3.84166 9.4489 0
M  V30 29579 O 5114.7 -1.51964 8.6881 0
M  V30 29580 O 5114.16 -3.29363 6.99321 0
M  V30 29581 C 5113.22 -4.23956 6.42656 0
M  V30 29582 C 5113.95 -5.20775 5.52155 0
M  V30 29583 O 5114.16 -4.56534 4.22446 0
M  V30 29584 C 5115.35 -5.62629 5.96531 0
M  V30 29585 O 5115.74 -6.87667 5.41053 0
M  V30 29586 C 5116.23 -4.52537 5.39283 0
M  V30 29587 C 5115.52 -4.20027 4.08623 0
M  V30 29588 N 5115.57 -2.7613 3.71522 0
M  V30 29589 C 5115.72 -2.45612 2.37989 0
M  V30 29590 O 5115.81 -3.30919 1.51621 0
M  V30 29591 N 5115.76 -1.10684 2.08435 0
M  V30 29592 C 5115.67 -0.0690084 2.9792 0
M  V30 29593 C 5115.52 -0.481522 4.35345 0
M  V30 29594 C 5115.47 -1.78906 4.67968 0
M  V30 29595 H 5112.73 -4.797 7.24003 0
M  V30 29596 H 5112.46 -3.69802 5.84429 0
M  V30 29597 H 5113.33 -6.10356 5.41441 0
M  V30 29598 H 5115.98 -4.78651 3.27911 0
M  V30 29599 H 5116.26 -3.64957 6.05871 0
M  V30 29600 H 5117.25 -4.8868 5.2125 0
M  V30 29601 H 5115.42 -5.66726 7.06352 0
M  V30 29602 H 5115.35 -2.07737 5.72367 0
M  V30 29603 P 5117.29 -7.20834 5.23717 0
M  V30 29604 O 5117.51 -8.66104 5.38572 0
M  V30 29605 O 5118.08 -6.33544 6.1349 0
M  V30 29606 O 5117.54 -6.7751 3.72168 0
M  V30 29607 C 5116.6 -7.20825 2.7076 0
M  V30 29608 C 5117.33 -7.45864 1.40599 0
M  V30 29609 O 5117.54 -6.17651 0.734225 0
M  V30 29610 C 5118.73 -8.05808 1.51899 0
M  V30 29611 O 5119.12 -8.74358 0.335205 0
M  V30 29612 C 5119.61 -6.83093 1.70294 0
M  V30 29613 C 5118.9 -5.79992 0.836974 0
M  V30 29614 N 5118.95 -4.41864 1.38293 0
M  V30 29615 C 5118.87 -3.99538 2.69438 0
M  V30 29616 N 5118.95 -2.69909 2.84277 0
M  V30 29617 C 5119.09 -2.21719 1.5408 0
M  V30 29618 C 5119.22 -0.891712 1.06628 0
M  V30 29619 O 5119.24 0.161298 1.70137 0
M  V30 29620 N 5119.34 -0.856846 -0.334985 0
M  V30 29621 C 5119.34 -1.9641 -1.15789 0
M  V30 29622 N 5119.47 -1.72708 -2.46522 0
M  V30 29623 N 5119.21 -3.21165 -0.713741 0
M  V30 29624 C 5119.09 -3.26797 0.639748 0
M  V30 29625 H 5116.11 -8.13644 3.0377 0
M  V30 29626 H 5115.84 -6.42788 2.55485 0
M  V30 29627 H 5116.71 -8.12039 0.792769 0
M  V30 29628 H 5119.36 -5.80061 -0.166416 0
M  V30 29629 H 5119.64 -6.51287 2.75604 0
M  V30 29630 H 5120.63 -7.01734 1.34462 0
M  V30 29631 H 5118.8 -8.73674 2.38337 0
M  V30 29632 H 5118.75 -4.68207 3.53221 0
M  V30 29633 H 5119.43 0.0398818 -0.767965 0
M  V30 29634 H 5119.47 -2.50995 -3.13503 0
M  V30 29635 H 5119.57 -0.759148 -2.80716 0
M  V30 29636 P 5120.67 -8.91 2.34734e-10 0
M  V30 29637 O 5120.89 -10.1726 -0.733694 0
M  V30 29638 O 5121.46 -8.73148 1.23936 0
M  V30 29639 O 5120.92 -7.66872 -0.971405 0
M  V30 29640 C 5119.98 -7.42309 -2.04641 0
M  V30 29641 C 5120.71 -6.86059 -3.24661 0
M  V30 29642 O 5120.92 -5.42847 -3.03646 0
M  V30 29643 C 5122.11 -7.41196 -3.50753 0
M  V30 29644 O 5122.5 -7.27073 -4.86816 0
M  V30 29645 C 5122.99 -6.5273 -2.63741 0
M  V30 29646 C 5122.28 -5.1842 -2.73198 0
M  V30 29647 N 5122.33 -4.38762 -1.4784 0
M  V30 29648 C 5122.25 -4.81605 -0.168631 0
M  V30 29649 N 5122.33 -3.85454 0.713363 0
M  V30 29650 C 5122.47 -2.6994 -0.0566958 0
M  V30 29651 C 5122.6 -1.34815 0.338502 0
M  V30 29652 N 5122.72 -0.496304 -0.77465 0
M  V30 29653 C 5122.72 -0.908403 -2.09122 0
M  V30 29654 N 5122.85 0.0517805 -3.00955 0
M  V30 29655 N 5122.59 -2.17875 -2.46519 0
M  V30 29656 C 5122.47 -3.01988 -1.4033 0
M  V30 29657 H 5119.49 -8.36803 -2.32493 0
M  V30 29658 H 5119.22 -6.70197 -1.71129 0
M  V30 29659 H 5120.09 -7.03551 -4.13168 0
M  V30 29660 P 5124.05 -7.20834 -5.23717 0
M  V30 29661 O 5124.27 -7.79853 -6.57286 0
M  V30 29662 O 5124.84 -7.79239 -4.12957 0
M  V30 29663 O 5124.3 -5.63315 -5.29344 0
M  V30 29664 C 5123.36 -4.80255 -6.01876 0
M  V30 29665 C 5124.09 -3.64202 -6.65911 0
M  V30 29666 O 5124.3 -2.60694 -5.64732 0
M  V30 29667 C 5125.49 -3.93473 -7.1943 0
M  V30 29668 O 5125.88 -3.02071 -8.21205 0
M  V30 29669 C 5126.37 -3.73047 -5.97036 0
M  V30 29670 C 5125.66 -2.58828 -5.25741 0
M  V30 29671 N 5125.71 -2.68068 -3.77503 0
M  V30 29672 H 5122.87 -5.40332 -6.79951 0
M  V30 29673 H 5122.6 -4.41613 -5.32378 0
M  V30 29674 H 5123.47 -3.26331 -7.47797 0
M  V30 29675 P 5127.43 -2.75334 -8.47391 0
M  V30 29676 O 5127.65 -2.44571 -9.90142 0
M  V30 29677 O 5128.22 -3.87688 -7.92115 0
M  V30 29678 O 5127.68 -1.4459 -7.59357 0
M  V30 29679 C 5126.74 -0.347608 -7.69215 0
M  V30 29680 C 5127.47 0.96767 -7.52806 0
M  V30 29681 O 5127.68 1.21036 -6.1011 0
M  V30 29682 C 5128.87 1.04544 -8.13308 0
M  V30 29683 O 5129.26 2.38311 -8.41922 0
M  V30 29684 C 5129.75 0.491279 -7.02284 0
M  V30 29685 C 5129.04 0.996264 -5.77469 0
M  V30 29686 N 5129.09 0.0501916 -4.62973 0
M  V30 29687 H 5126.25 -0.374722 -8.67691 0
M  V30 29688 H 5125.98 -0.443485 -6.90277 0
M  V30 29689 H 5126.85 1.75537 -7.96793 0
M  V30 29690 P 5130.81 2.75334 -8.47391 0
M  V30 29691 O 5131.03 3.84204 -9.44982 0
M  V30 29692 O 5131.6 1.51982 -8.68909 0
M  V30 29693 O 5131.06 3.29363 -6.99321 0
M  V30 29694 C 5130.12 4.24066 -6.42823 0
M  V30 29695 C 5130.85 5.20775 -5.52155 0
M  V30 29696 O 5131.06 4.56607 -4.22514 0
M  V30 29697 C 5132.25 5.62697 -5.96604 0
M  V30 29698 O 5132.64 6.87667 -5.41053 0
M  V30 29699 C 5133.13 4.52537 -5.39283 0
M  V30 29700 C 5132.42 4.20027 -4.08623 0
M  V30 29701 N 5132.47 2.76189 -3.71603 0
M  V30 29702 H 5129.63 4.79756 -7.24086 0
M  V30 29703 H 5129.36 3.69963 -5.84682 0
M  V30 29704 H 5130.23 6.10431 -5.41508 0
M  V30 29705 H 5132.88 4.78816 -3.28024 0
M  V30 29706 H 5133.16 3.64957 -6.05871 0
M  V30 29707 H 5134.15 4.88748 -5.21323 0
M  V30 29708 H 5132.32 5.66789 -7.0643 0
M  V30 29709 P 5134.19 7.20834 -5.23717 0
M  V30 29710 O 5134.41 8.66104 -5.38572 0
M  V30 29711 O 5134.98 6.33544 -6.1349 0
M  V30 29712 O 5134.44 6.7751 -3.72168 0
M  V30 29713 C 5133.5 7.20825 -2.7076 0
M  V30 29714 C 5134.23 7.45864 -1.40599 0
M  V30 29715 O 5134.44 6.17651 -0.734225 0
M  V30 29716 C 5135.63 8.05808 -1.51899 0
M  V30 29717 O 5136.02 8.74358 -0.335205 0
M  V30 29718 C 5136.51 6.83093 -1.70294 0
M  V30 29719 C 5135.8 5.79992 -0.836974 0
M  V30 29720 N 5135.85 4.41864 -1.38293 0
M  V30 29721 H 5133.01 8.13644 -3.0377 0
M  V30 29722 H 5132.74 6.42788 -2.55485 0
M  V30 29723 H 5133.61 8.12039 -0.792769 0
M  V30 29724 P 5137.57 8.91 -2.35843e-10 0
M  V30 29725 O 5137.79 10.1726 0.733694 0
M  V30 29726 O 5138.36 8.73148 -1.23936 0
M  V30 29727 O 5137.82 7.66872 0.971405 0
M  V30 29728 C 5136.88 7.42309 2.04641 0
M  V30 29729 C 5137.61 6.86059 3.24661 0
M  V30 29730 O 5137.82 5.42847 3.03646 0
M  V30 29731 C 5139.01 7.41196 3.50753 0
M  V30 29732 O 5139.4 7.27073 4.86816 0
M  V30 29733 C 5139.89 6.5273 2.63741 0
M  V30 29734 C 5139.18 5.1842 2.73198 0
M  V30 29735 N 5139.23 4.38762 1.4784 0
M  V30 29736 C 5139.15 4.81605 0.168631 0
M  V30 29737 N 5139.23 3.85454 -0.713363 0
M  V30 29738 C 5139.37 2.6994 0.0566958 0
M  V30 29739 C 5139.5 1.34815 -0.338502 0
M  V30 29740 O 5139.52 0.869548 -1.47125 0
M  V30 29741 N 5139.62 0.496304 0.77465 0
M  V30 29742 C 5139.62 0.908403 2.09122 0
M  V30 29743 N 5139.75 -0.0517805 3.00955 0
M  V30 29744 N 5139.49 2.17875 2.46519 0
M  V30 29745 C 5139.37 3.01988 1.4033 0
M  V30 29746 H 5136.39 8.36803 2.32493 0
M  V30 29747 H 5136.12 6.70197 1.71129 0
M  V30 29748 H 5136.99 7.03551 4.13168 0
M  V30 29749 H 5139.64 4.59498 3.54415 0
M  V30 29750 H 5139.92 6.88898 1.59848 0
M  V30 29751 H 5140.91 6.46749 3.03687 0
M  V30 29752 H 5139.08 8.46908 3.20714 0
M  V30 29753 H 5139.03 5.86405 -0.105564 0
M  V30 29754 H 5139.71 -0.483664 0.597855 0
M  V30 29755 H 5139.75 0.187865 4.0116 0
M  V30 29756 H 5139.85 -1.03585 2.71726 0
M  V30 29757 P 5140.95 7.20834 5.23717 0
M  V30 29758 O 5141.17 7.79853 6.57286 0
M  V30 29759 O 5141.74 7.79239 4.12957 0
M  V30 29760 O 5141.2 5.63315 5.29344 0
M  V30 29761 C 5140.26 4.80255 6.01876 0
M  V30 29762 C 5140.99 3.64202 6.65911 0
M  V30 29763 O 5141.2 2.60694 5.64732 0
M  V30 29764 C 5142.39 3.93473 7.1943 0
M  V30 29765 O 5142.78 3.02071 8.21205 0
M  V30 29766 C 5143.27 3.73047 5.97036 0
M  V30 29767 C 5142.56 2.58828 5.25741 0
M  V30 29768 N 5142.61 2.68068 3.77503 0
M  V30 29769 H 5139.77 5.40332 6.79951 0
M  V30 29770 H 5139.5 4.41613 5.32378 0
M  V30 29771 H 5140.37 3.26331 7.47797 0
M  V30 29772 P 5144.33 2.75334 8.47391 0
M  V30 29773 O 5144.55 2.44571 9.90142 0
M  V30 29774 O 5145.12 3.87688 7.92115 0
M  V30 29775 O 5144.58 1.4459 7.59357 0
M  V30 29776 C 5143.64 0.347608 7.69215 0
M  V30 29777 C 5144.37 -0.96767 7.52806 0
M  V30 29778 O 5144.58 -1.21036 6.1011 0
M  V30 29779 C 5145.77 -1.04544 8.13308 0
M  V30 29780 O 5146.16 -2.38311 8.41922 0
M  V30 29781 C 5146.65 -0.491279 7.02284 0
M  V30 29782 C 5145.94 -0.996264 5.77469 0
M  V30 29783 N 5145.99 -0.0501916 4.62973 0
M  V30 29784 H 5143.15 0.374722 8.67691 0
M  V30 29785 H 5142.88 0.443485 6.90277 0
M  V30 29786 H 5143.75 -1.75537 7.96793 0
M  V30 29787 P 5147.71 -2.75334 8.47391 0
M  V30 29788 O 5147.93 -3.84128 9.44797 0
M  V30 29789 O 5148.5 -1.51947 8.68712 0
M  V30 29790 O 5147.96 -3.29363 6.99321 0
M  V30 29791 C 5147.02 -4.24011 6.4274 0
M  V30 29792 C 5147.75 -5.20775 5.52155 0
M  V30 29793 O 5147.96 -4.56534 4.22446 0
M  V30 29794 C 5149.15 -5.62629 5.96531 0
M  V30 29795 O 5149.54 -6.87667 5.41053 0
M  V30 29796 C 5150.03 -4.52537 5.39283 0
M  V30 29797 C 5149.32 -4.20027 4.08623 0
M  V30 29798 N 5149.37 -2.76189 3.71603 0
M  V30 29799 H 5146.53 -4.797 7.24003 0
M  V30 29800 H 5146.26 -3.69856 5.84513 0
M  V30 29801 H 5147.13 -6.10356 5.41441 0
M  V30 29802 P 5151.09 -7.20834 5.23717 0
M  V30 29803 O 5151.31 -8.66189 5.38625 0
M  V30 29804 O 5151.88 -6.33615 6.1356 0
M  V30 29805 O 5151.34 -6.7751 3.72168 0
M  V30 29806 C 5150.4 -7.20732 2.70725 0
M  V30 29807 C 5151.13 -7.45864 1.40599 0
M  V30 29808 O 5151.34 -6.17651 0.734225 0
M  V30 29809 C 5152.53 -8.05808 1.51899 0
M  V30 29810 O 5152.92 -8.74358 0.335205 0
M  V30 29811 C 5153.41 -6.83093 1.70294 0
M  V30 29812 C 5152.7 -5.79992 0.836974 0
M  V30 29813 N 5152.75 -4.41769 1.38263 0
M  V30 29814 C 5152.9 -3.38591 0.481702 0
M  V30 29815 O 5152.99 -3.56839 -0.718452 0
M  V30 29816 N 5152.94 -2.1206 1.03569 0
M  V30 29817 C 5152.85 -1.80696 2.36966 0
M  V30 29818 O 5152.9 -0.630473 2.74862 0
M  V30 29819 C 5152.7 -2.94845 3.23898 0
M  V30 29820 C 5152.59 -2.65253 4.70362 0
M  V30 29821 C 5152.65 -4.19803 2.73435 0
M  V30 29822 H 5149.91 -8.13644 3.0377 0
M  V30 29823 H 5149.64 -6.42695 2.55448 0
M  V30 29824 H 5150.51 -8.12039 0.792769 0
M  V30 29825 H 5153.16 -5.79978 -0.160587 0
M  V30 29826 H 5153.44 -6.51379 2.75643 0
M  V30 29827 H 5154.43 -7.01734 1.34462 0
M  V30 29828 H 5152.6 -8.73674 2.38337 0
M  V30 29829 H 5152.53 -5.04492 3.4095 0
M  V30 29830 H 5153.56 -2.83924 5.1913 0
M  V30 29831 H 5151.82 -3.29824 5.15163 0
M  V30 29832 H 5152.31 -1.59723 4.84449 0
M  V30 29833 H 5153.05 -1.35644 0.399345 0
M  V30 29834 P 5154.47 -8.91 2.36952e-10 0
M  V30 29835 O 5154.69 -10.1736 -0.733766 0
M  V30 29836 O 5155.26 -8.73247 1.2395 0
M  V30 29837 O 5154.72 -7.66872 -0.971405 0
M  V30 29838 C 5153.78 -7.42212 -2.04614 0
M  V30 29839 C 5154.51 -6.86059 -3.24661 0
M  V30 29840 O 5154.72 -5.42847 -3.03646 0
M  V30 29841 C 5155.91 -7.41196 -3.50753 0
M  V30 29842 O 5156.3 -7.27073 -4.86816 0
M  V30 29843 C 5156.79 -6.5273 -2.63741 0
M  V30 29844 C 5156.08 -5.1842 -2.73198 0
M  V30 29845 N 5156.13 -4.38668 -1.47808 0
M  V30 29846 C 5156.28 -3.02239 -1.60048 0
M  V30 29847 O 5156.37 -2.46459 -2.67869 0
M  V30 29848 N 5156.32 -2.32436 -0.408571 0
M  V30 29849 C 5156.23 -2.85471 0.854993 0
M  V30 29850 O 5156.28 -2.12566 1.8531 0
M  V30 29851 C 5156.08 -4.28918 0.887335 0
M  V30 29852 C 5155.97 -4.91066 2.24619 0
M  V30 29853 C 5156.03 -5.00349 -0.255399 0
M  V30 29854 H 5153.29 -8.36803 -2.32493 0
M  V30 29855 H 5153.02 -6.701 -1.71105 0
M  V30 29856 H 5153.89 -7.03551 -4.13168 0
M  V30 29857 H 5156.54 -4.59773 -3.53894 0
M  V30 29858 H 5156.82 -6.88995 -1.59871 0
M  V30 29859 H 5157.81 -6.46749 -3.03687 0
M  V30 29860 H 5155.98 -8.46908 -3.20714 0
M  V30 29861 H 5155.91 -6.08548 -0.206986 0
M  V30 29862 H 5156.94 -5.34836 2.53099 0
M  V30 29863 H 5155.2 -5.69638 2.2291 0
M  V30 29864 H 5155.69 -4.13971 2.98044 0
M  V30 29865 H 5156.43 -1.33211 -0.474216 0
M  V30 29866 P 5157.85 -7.20834 -5.23717 0
M  V30 29867 O 5158.07 -7.79853 -6.57286 0
M  V30 29868 O 5158.64 -7.79239 -4.12957 0
M  V30 29869 O 5158.1 -5.63315 -5.29344 0
M  V30 29870 C 5157.16 -4.80255 -6.01876 0
M  V30 29871 C 5157.89 -3.64202 -6.65911 0
M  V30 29872 O 5158.1 -2.60694 -5.64732 0
M  V30 29873 C 5159.29 -3.93473 -7.1943 0
M  V30 29874 O 5159.68 -3.02071 -8.21205 0
M  V30 29875 C 5160.17 -3.73047 -5.97036 0
M  V30 29876 C 5159.46 -2.58828 -5.25741 0
M  V30 29877 N 5159.51 -2.68068 -3.77503 0
M  V30 29878 H 5156.67 -5.40332 -6.79951 0
M  V30 29879 H 5156.4 -4.41613 -5.32378 0
M  V30 29880 H 5157.27 -3.26331 -7.47797 0
M  V30 29881 P 5161.23 -2.75334 -8.47391 0
M  V30 29882 O 5161.45 -2.44595 -9.90239 0
M  V30 29883 O 5162.02 -3.87732 -7.92204 0
M  V30 29884 O 5161.48 -1.4459 -7.59357 0
M  V30 29885 C 5160.54 -0.347563 -7.69115 0
M  V30 29886 C 5161.27 0.96767 -7.52806 0
M  V30 29887 O 5161.48 1.21036 -6.1011 0
M  V30 29888 C 5162.67 1.04544 -8.13308 0
M  V30 29889 O 5163.06 2.38311 -8.41922 0
M  V30 29890 C 5163.55 0.491279 -7.02284 0
M  V30 29891 C 5162.84 0.996264 -5.77469 0
M  V30 29892 N 5162.89 0.0501808 -4.62873 0
M  V30 29893 C 5163.04 0.588177 -3.36904 0
M  V30 29894 O 5163.13 1.78598 -3.17173 0
M  V30 29895 N 5163.08 -0.329694 -2.33686 0
M  V30 29896 C 5162.99 -1.6953 -2.45079 0
M  V30 29897 O 5163.04 -2.41926 -1.44899 0
M  V30 29898 C 5162.84 -2.16933 -3.80505 0
M  V30 29899 C 5162.73 -3.65373 -3.97621 0
M  V30 29900 C 5162.79 -1.30326 -4.83752 0
M  V30 29901 H 5160.05 -0.374722 -8.67691 0
M  V30 29902 H 5159.78 -0.443421 -6.90177 0
M  V30 29903 H 5160.65 1.75537 -7.96793 0
M  V30 29904 H 5163.3 1.94496 -5.46629 0
M  V30 29905 H 5163.58 -0.608651 -7.04676 0
M  V30 29906 H 5164.57 0.889672 -7.08939 0
M  V30 29907 H 5162.74 0.43308 -9.04564 0
M  V30 29908 H 5162.67 -1.68366 -5.8516 0
M  V30 29909 H 5163.7 -4.05985 -4.30448 0
M  V30 29910 H 5161.96 -3.88028 -4.72875 0
M  V30 29911 H 5162.45 -4.11381 -3.01609 0
M  V30 29912 H 5163.19 0.0393617 -1.41345 0
M  V30 29913 P 5164.61 2.75334 -8.47391 0
M  V30 29914 O 5164.83 3.84128 -9.44797 0
M  V30 29915 O 5165.4 1.51947 -8.68712 0
M  V30 29916 O 5164.86 3.29363 -6.99321 0
M  V30 29917 C 5163.92 4.24011 -6.4274 0
M  V30 29918 C 5164.65 5.20775 -5.52155 0
M  V30 29919 O 5164.86 4.56534 -4.22446 0
M  V30 29920 C 5166.05 5.62629 -5.96531 0
M  V30 29921 O 5166.44 6.87667 -5.41053 0
M  V30 29922 C 5166.93 4.52537 -5.39283 0
M  V30 29923 C 5166.22 4.20027 -4.08623 0
M  V30 29924 N 5166.27 2.76189 -3.71603 0
M  V30 29925 H 5163.43 4.797 -7.24003 0
M  V30 29926 H 5163.16 3.69856 -5.84513 0
M  V30 29927 H 5164.03 6.10356 -5.41441 0
M  V30 29928 P 5167.99 7.20834 -5.23717 0
M  V30 29929 O 5168.21 8.66104 -5.38572 0
M  V30 29930 O 5168.78 6.33544 -6.1349 0
M  V30 29931 O 5168.24 6.7751 -3.72168 0
M  V30 29932 C 5167.3 7.20825 -2.7076 0
M  V30 29933 C 5168.03 7.45864 -1.40599 0
M  V30 29934 O 5168.24 6.17651 -0.734225 0
M  V30 29935 C 5169.43 8.05808 -1.51899 0
M  V30 29936 O 5169.82 8.74358 -0.335205 0
M  V30 29937 C 5170.31 6.83093 -1.70294 0
M  V30 29938 C 5169.6 5.79992 -0.836974 0
M  V30 29939 N 5169.65 4.41864 -1.38293 0
M  V30 29940 H 5166.81 8.13644 -3.0377 0
M  V30 29941 H 5166.54 6.42788 -2.55485 0
M  V30 29942 H 5167.41 8.12039 -0.792769 0
M  V30 29943 P 5171.37 8.91 -2.38061e-10 0
M  V30 29944 O 5171.59 10.1726 0.733694 0
M  V30 29945 O 5172.16 8.73148 -1.23936 0
M  V30 29946 O 5171.62 7.66872 0.971405 0
M  V30 29947 C 5170.68 7.42309 2.04641 0
M  V30 29948 C 5171.41 6.86059 3.24661 0
M  V30 29949 O 5171.62 5.42847 3.03646 0
M  V30 29950 C 5172.81 7.41196 3.50753 0
M  V30 29951 O 5173.2 7.27073 4.86816 0
M  V30 29952 C 5173.69 6.5273 2.63741 0
M  V30 29953 C 5172.98 5.1842 2.73198 0
M  V30 29954 N 5173.03 4.38762 1.4784 0
M  V30 29955 H 5170.19 8.36803 2.32493 0
M  V30 29956 H 5169.92 6.70197 1.71129 0
M  V30 29957 H 5170.79 7.03551 4.13168 0
M  V30 29958 P 5174.75 7.20834 5.23717 0
M  V30 29959 O 5174.97 7.79853 6.57286 0
M  V30 29960 O 5175.54 7.79239 4.12957 0
M  V30 29961 O 5175 5.63315 5.29344 0
M  V30 29962 C 5174.06 4.80255 6.01876 0
M  V30 29963 C 5174.79 3.64202 6.65911 0
M  V30 29964 O 5175 2.60694 5.64732 0
M  V30 29965 C 5176.19 3.93473 7.1943 0
M  V30 29966 O 5176.58 3.02071 8.21205 0
M  V30 29967 C 5177.07 3.73047 5.97036 0
M  V30 29968 C 5176.36 2.58828 5.25741 0
M  V30 29969 N 5176.41 2.68068 3.77503 0
M  V30 29970 H 5173.57 5.40332 6.79951 0
M  V30 29971 H 5173.3 4.41613 5.32378 0
M  V30 29972 H 5174.17 3.26331 7.47797 0
M  V30 29973 P 5178.13 2.75334 8.47391 0
M  V30 29974 O 5178.35 2.44619 9.90336 0
M  V30 29975 O 5178.92 3.87776 7.92294 0
M  V30 29976 O 5178.38 1.4459 7.59357 0
M  V30 29977 C 5177.44 0.347653 7.69315 0
M  V30 29978 C 5178.17 -0.96767 7.52806 0
M  V30 29979 O 5178.38 -1.21055 6.10208 0
M  V30 29980 C 5179.57 -1.04557 8.13408 0
M  V30 29981 O 5179.96 -2.38311 8.41922 0
M  V30 29982 C 5180.45 -0.491279 7.02284 0
M  V30 29983 C 5179.74 -0.996264 5.77469 0
M  V30 29984 N 5179.79 -0.0501916 4.62973 0
M  V30 29985 H 5176.95 0.374765 8.67791 0
M  V30 29986 H 5176.68 0.443613 6.90476 0
M  V30 29987 H 5177.55 -1.75559 7.96891 0
M  V30 29988 H 5180.2 -1.94563 5.46818 0
M  V30 29989 H 5180.48 0.608651 7.04676 0
M  V30 29990 H 5181.47 -0.889796 7.09039 0
M  V30 29991 H 5179.64 -0.433128 9.04664 0
M  V30 29992 P 5181.51 -2.75334 8.47391 0
M  V30 29993 O 5181.73 -3.84128 9.44797 0
M  V30 29994 O 5182.3 -1.51947 8.68712 0
M  V30 29995 O 5181.76 -3.29363 6.99321 0
M  V30 29996 C 5180.82 -4.24011 6.4274 0
M  V30 29997 C 5181.55 -5.20775 5.52155 0
M  V30 29998 O 5181.76 -4.56534 4.22446 0
M  V30 29999 C 5182.95 -5.62629 5.96531 0
M  V30 30000 O 5183.34 -6.87667 5.41053 0
M  V30 30001 C 5183.83 -4.52537 5.39283 0
M  V30 30002 C 5183.12 -4.20027 4.08623 0
M  V30 30003 N 5183.17 -2.76189 3.71603 0
M  V30 30004 C 5183.09 -1.64862 4.52822 0
M  V30 30005 N 5183.17 -0.512671 3.88633 0
M  V30 30006 C 5183.31 -0.888083 2.54977 0
M  V30 30007 C 5183.44 -0.094668 1.38677 0
M  V30 30008 O 5183.46 1.13053 1.28163 0
M  V30 30009 N 5183.56 -0.890102 0.232633 0
M  V30 30010 C 5183.56 -2.26958 0.21772 0
M  V30 30011 N 5183.69 -2.84626 -0.97925 0
M  V30 30012 N 5183.43 -3.0178 1.31033 0
M  V30 30013 C 5183.31 -2.26781 2.43843 0
M  V30 30014 H 5180.33 -4.797 7.24003 0
M  V30 30015 H 5180.06 -3.69856 5.84513 0
M  V30 30016 H 5180.93 -6.10356 5.41441 0
M  V30 30017 H 5183.58 -4.79061 3.27488 0
M  V30 30018 H 5183.86 -3.64906 6.05785 0
M  V30 30019 H 5184.85 -4.8868 5.2125 0
M  V30 30020 H 5183.02 -5.66726 7.06352 0
M  V30 30021 H 5182.97 -1.71169 5.60966 0
M  V30 30022 H 5183.65 -0.419134 -0.644739 0
M  V30 30023 H 5183.69 -3.87332 -1.06098 0
M  V30 30024 H 5183.79 -2.26417 -1.82483 0
M  V30 30025 P 5184.89 -7.20834 5.23717 0
M  V30 30026 O 5185.11 -8.66104 5.38572 0
M  V30 30027 O 5185.68 -6.33544 6.1349 0
M  V30 30028 O 5185.14 -6.7751 3.72168 0
M  V30 30029 C 5184.2 -7.20825 2.7076 0
M  V30 30030 C 5184.93 -7.45864 1.40599 0
M  V30 30031 O 5185.14 -6.17651 0.734225 0
M  V30 30032 C 5186.33 -8.05808 1.51899 0
M  V30 30033 O 5186.72 -8.74358 0.335205 0
M  V30 30034 C 5187.21 -6.83093 1.70294 0
M  V30 30035 C 5186.5 -5.79992 0.836974 0
M  V30 30036 N 5186.55 -4.41864 1.38293 0
M  V30 30037 H 5183.71 -8.13644 3.0377 0
M  V30 30038 H 5183.44 -6.42788 2.55485 0
M  V30 30039 H 5184.31 -8.12039 0.792769 0
M  V30 30040 P 5188.27 -8.91 2.3917e-10 0
M  V30 30041 O 5188.49 -10.1726 -0.733694 0
M  V30 30042 O 5189.06 -8.73148 1.23936 0
M  V30 30043 O 5188.52 -7.66872 -0.971405 0
M  V30 30044 C 5187.58 -7.42309 -2.04641 0
M  V30 30045 C 5188.31 -6.86059 -3.24661 0
M  V30 30046 O 5188.52 -5.42847 -3.03646 0
M  V30 30047 C 5189.71 -7.41196 -3.50753 0
M  V30 30048 O 5190.1 -7.27073 -4.86816 0
M  V30 30049 C 5190.59 -6.5273 -2.63741 0
M  V30 30050 C 5189.88 -5.1842 -2.73198 0
M  V30 30051 N 5189.93 -4.38762 -1.4784 0
M  V30 30052 H 5187.09 -8.36803 -2.32493 0
M  V30 30053 H 5186.82 -6.70197 -1.71129 0
M  V30 30054 H 5187.69 -7.03551 -4.13168 0
M  V30 30055 P 5191.65 -7.20834 -5.23717 0
M  V30 30056 O 5191.87 -7.79853 -6.57286 0
M  V30 30057 O 5192.44 -7.79239 -4.12957 0
M  V30 30058 O 5191.9 -5.63315 -5.29344 0
M  V30 30059 C 5190.96 -4.80255 -6.01876 0
M  V30 30060 C 5191.69 -3.64202 -6.65911 0
M  V30 30061 O 5191.9 -2.60694 -5.64732 0
M  V30 30062 C 5193.09 -3.93473 -7.1943 0
M  V30 30063 O 5193.48 -3.02071 -8.21205 0
M  V30 30064 C 5193.97 -3.73047 -5.97036 0
M  V30 30065 C 5193.26 -2.58828 -5.25741 0
M  V30 30066 N 5193.31 -2.68068 -3.77503 0
M  V30 30067 C 5193.23 -3.79715 -2.96723 0
M  V30 30068 N 5193.31 -3.5377 -1.68852 0
M  V30 30069 C 5193.45 -2.15054 -1.63254 0
M  V30 30070 C 5193.58 -1.28964 -0.518571 0
M  V30 30071 O 5193.6 -1.56826 0.679156 0
M  V30 30072 N 5193.7 0.0538097 -0.918425 0
M  V30 30073 C 5193.7 0.494275 -2.22578 0
M  V30 30074 N 5193.83 1.81086 -2.40434 0
M  V30 30075 N 5193.57 -0.313645 -3.27502 0
M  V30 30076 C 5193.45 -1.61829 -2.91033 0
M  V30 30077 H 5190.47 -5.40332 -6.79951 0
M  V30 30078 H 5190.2 -4.41613 -5.32378 0
M  V30 30079 H 5191.07 -3.26331 -7.47797 0
M  V30 30080 H 5193.72 -1.63422 -5.56814 0
M  V30 30081 H 5194 -4.63374 -5.34244 0
M  V30 30082 H 5194.99 -3.44728 -6.25838 0
M  V30 30083 H 5193.16 -4.96652 -7.57263 0
M  V30 30084 H 5193.11 -4.80617 -3.3614 0
M  V30 30085 H 5193.79 0.742702 -0.199384 0
M  V30 30086 H 5193.83 2.20598 -3.35588 0
M  V30 30087 H 5193.93 2.43518 -1.58945 0
M  V30 30088 P 5195.03 -2.75334 -8.47391 0
M  V30 30089 O 5195.25 -2.44571 -9.90142 0
M  V30 30090 O 5195.82 -3.87688 -7.92115 0
M  V30 30091 O 5195.28 -1.4459 -7.59357 0
M  V30 30092 C 5194.34 -0.347608 -7.69215 0
M  V30 30093 C 5195.07 0.96767 -7.52806 0
M  V30 30094 O 5195.28 1.21036 -6.1011 0
M  V30 30095 C 5196.47 1.04544 -8.13308 0
M  V30 30096 O 5196.86 2.38311 -8.41922 0
M  V30 30097 C 5197.35 0.491279 -7.02284 0
M  V30 30098 C 5196.64 0.996264 -5.77469 0
M  V30 30099 N 5196.69 0.0501916 -4.62973 0
M  V30 30100 C 5196.61 -1.32786 -4.63244 0
M  V30 30101 N 5196.69 -1.86957 -3.44545 0
M  V30 30102 C 5196.83 -0.780241 -2.58481 0
M  V30 30103 C 5196.96 -0.738536 -1.17757 0
M  V30 30104 N 5197.08 0.58337 -0.711393 0
M  V30 30105 C 5197.08 1.70816 -1.51017 0
M  V30 30106 N 5197.21 2.87826 -0.880757 0
M  V30 30107 N 5196.95 1.67126 -2.8339 0
M  V30 30108 C 5196.83 0.401421 -3.30572 0
M  V30 30109 H 5193.85 -0.374722 -8.67691 0
M  V30 30110 H 5193.58 -0.443485 -6.90277 0
M  V30 30111 H 5194.45 1.75537 -7.96793 0
M  V30 30112 P 5198.41 2.75334 -8.47391 0
M  V30 30113 O 5198.63 3.84128 -9.44797 0
M  V30 30114 O 5199.2 1.51947 -8.68712 0
M  V30 30115 O 5198.66 3.29363 -6.99321 0
M  V30 30116 C 5197.72 4.24011 -6.4274 0
M  V30 30117 C 5198.45 5.20775 -5.52155 0
M  V30 30118 O 5198.66 4.56534 -4.22446 0
M  V30 30119 C 5199.85 5.62629 -5.96531 0
M  V30 30120 O 5200.24 6.87667 -5.41053 0
M  V30 30121 C 5200.73 4.52537 -5.39283 0
M  V30 30122 C 5200.02 4.20027 -4.08623 0
M  V30 30123 N 5200.07 2.76189 -3.71603 0
M  V30 30124 H 5197.23 4.797 -7.24003 0
M  V30 30125 H 5196.96 3.69856 -5.84513 0
M  V30 30126 H 5197.83 6.10356 -5.41441 0
M  V30 30127 P 5201.79 7.20834 -5.23717 0
M  V30 30128 O 5202.01 8.66104 -5.38572 0
M  V30 30129 O 5202.58 6.33544 -6.1349 0
M  V30 30130 O 5202.04 6.7751 -3.72168 0
M  V30 30131 C 5201.1 7.20825 -2.7076 0
M  V30 30132 C 5201.83 7.45864 -1.40599 0
M  V30 30133 O 5202.04 6.17651 -0.734225 0
M  V30 30134 C 5203.23 8.05808 -1.51899 0
M  V30 30135 O 5203.62 8.74358 -0.335205 0
M  V30 30136 C 5204.11 6.83093 -1.70294 0
M  V30 30137 C 5203.4 5.79992 -0.836974 0
M  V30 30138 N 5203.45 4.41864 -1.38293 0
M  V30 30139 H 5200.61 8.13644 -3.0377 0
M  V30 30140 H 5200.34 6.42788 -2.55485 0
M  V30 30141 H 5201.21 8.12039 -0.792769 0
M  V30 30142 P 5205.17 8.91 -2.40279e-10 0
M  V30 30143 O 5205.39 10.1746 0.733838 0
M  V30 30144 O 5205.96 8.73346 -1.23964 0
M  V30 30145 O 5205.42 7.66872 0.971405 0
M  V30 30146 C 5204.48 7.42405 2.04668 0
M  V30 30147 C 5205.21 6.86059 3.24661 0
M  V30 30148 O 5205.42 5.42934 3.03695 0
M  V30 30149 C 5206.61 7.41287 3.50796 0
M  V30 30150 O 5207 7.27073 4.86816 0
M  V30 30151 C 5207.49 6.5273 2.63741 0
M  V30 30152 C 5206.78 5.1842 2.73198 0
M  V30 30153 N 5206.83 4.38762 1.4784 0
M  V30 30154 H 5203.99 8.36899 2.3252 0
M  V30 30155 H 5203.72 6.70391 1.71179 0
M  V30 30156 H 5204.59 7.03638 4.13219 0
M  V30 30157 H 5207.24 4.59931 3.54016 0
M  V30 30158 H 5207.52 6.88995 1.59871 0
M  V30 30159 H 5208.51 6.4684 3.0373 0
M  V30 30160 H 5206.68 8.47002 3.20749 0
M  V30 30161 P 5208.55 7.20834 5.23717 0
M  V30 30162 O 5208.77 7.79853 6.57286 0
M  V30 30163 O 5209.34 7.79239 4.12957 0
M  V30 30164 O 5208.8 5.63315 5.29344 0
M  V30 30165 C 5207.86 4.80255 6.01876 0
M  V30 30166 C 5208.59 3.64202 6.65911 0
M  V30 30167 O 5208.8 2.60694 5.64732 0
M  V30 30168 C 5209.99 3.93473 7.1943 0
M  V30 30169 O 5210.38 3.02071 8.21205 0
M  V30 30170 C 5210.87 3.73047 5.97036 0
M  V30 30171 C 5210.16 2.58828 5.25741 0
M  V30 30172 N 5210.21 2.68068 3.77503 0
M  V30 30173 H 5207.37 5.40332 6.79951 0
M  V30 30174 H 5207.1 4.41613 5.32378 0
M  V30 30175 H 5207.97 3.26331 7.47797 0
M  V30 30176 P 5211.93 2.75334 8.47391 0
M  V30 30177 O 5212.15 2.44571 9.90142 0
M  V30 30178 O 5212.72 3.87688 7.92115 0
M  V30 30179 O 5212.18 1.4459 7.59357 0
M  V30 30180 C 5211.24 0.347608 7.69215 0
M  V30 30181 C 5211.97 -0.96767 7.52806 0
M  V30 30182 O 5212.18 -1.21036 6.1011 0
M  V30 30183 C 5213.37 -1.04544 8.13308 0
M  V30 30184 O 5213.76 -2.38311 8.41922 0
M  V30 30185 C 5214.25 -0.491279 7.02284 0
M  V30 30186 C 5213.54 -0.996264 5.77469 0
M  V30 30187 N 5213.59 -0.0501916 4.62973 0
M  V30 30188 H 5210.75 0.374722 8.67691 0
M  V30 30189 H 5210.48 0.443485 6.90277 0
M  V30 30190 H 5211.35 -1.75537 7.96793 0
M  V30 30191 P 5215.31 -2.75334 8.47391 0
M  V30 30192 O 5215.53 -3.84128 9.44797 0
M  V30 30193 O 5216.1 -1.51947 8.68712 0
M  V30 30194 O 5215.56 -3.29363 6.99321 0
M  V30 30195 C 5214.62 -4.24011 6.4274 0
M  V30 30196 C 5215.35 -5.20775 5.52155 0
M  V30 30197 O 5215.56 -4.56534 4.22446 0
M  V30 30198 C 5216.75 -5.62629 5.96531 0
M  V30 30199 O 5217.14 -6.87667 5.41053 0
M  V30 30200 C 5217.63 -4.52537 5.39283 0
M  V30 30201 C 5216.92 -4.20027 4.08623 0
M  V30 30202 N 5216.97 -2.76189 3.71603 0
M  V30 30203 H 5214.13 -4.797 7.24003 0
M  V30 30204 H 5213.86 -3.69856 5.84513 0
M  V30 30205 H 5214.73 -6.10356 5.41441 0
M  V30 30206 P 5218.69 -7.20834 5.23717 0
M  V30 30207 O 5218.91 -8.66274 5.38678 0
M  V30 30208 O 5219.48 -6.33687 6.13629 0
M  V30 30209 O 5218.94 -6.7751 3.72168 0
M  V30 30210 C 5218 -7.20919 2.70795 0
M  V30 30211 C 5218.73 -7.45864 1.40599 0
M  V30 30212 O 5218.94 -6.17751 0.734343 0
M  V30 30213 C 5220.13 -8.05906 1.51917 0
M  V30 30214 O 5220.52 -8.74358 0.335205 0
M  V30 30215 C 5221.01 -6.83093 1.70294 0
M  V30 30216 C 5220.3 -5.79992 0.836974 0
M  V30 30217 N 5220.35 -4.41864 1.38293 0
M  V30 30218 H 5217.51 -8.13738 3.03804 0
M  V30 30219 H 5217.24 -6.42974 2.55559 0
M  V30 30220 H 5218.11 -8.12139 0.792866 0
M  V30 30221 H 5220.76 -5.80178 -0.160643 0
M  V30 30222 H 5221.04 -6.51379 2.75643 0
M  V30 30223 H 5222.03 -7.01832 1.3448 0
M  V30 30224 H 5220.2 -8.73771 2.38364 0
M  V30 30225 P 5222.07 -8.91 2.41388e-10 0
M  V30 30226 O 5222.29 -10.1726 -0.733694 0
M  V30 30227 O 5222.86 -8.73148 1.23936 0
M  V30 30228 O 5222.32 -7.66872 -0.971405 0
M  V30 30229 C 5221.38 -7.42309 -2.04641 0
M  V30 30230 C 5222.11 -6.86059 -3.24661 0
M  V30 30231 O 5222.32 -5.42847 -3.03646 0
M  V30 30232 C 5223.51 -7.41196 -3.50753 0
M  V30 30233 O 5223.9 -7.27073 -4.86816 0
M  V30 30234 C 5224.39 -6.5273 -2.63741 0
M  V30 30235 C 5223.68 -5.1842 -2.73198 0
M  V30 30236 N 5223.73 -4.38762 -1.4784 0
M  V30 30237 C 5223.65 -4.81605 -0.168631 0
M  V30 30238 N 5223.73 -3.85454 0.713363 0
M  V30 30239 C 5223.87 -2.6994 -0.0566958 0
M  V30 30240 C 5224 -1.34815 0.338502 0
M  V30 30241 N 5224.12 -0.496304 -0.77465 0
M  V30 30242 C 5224.12 -0.908403 -2.09122 0
M  V30 30243 N 5224.25 0.0517805 -3.00955 0
M  V30 30244 N 5223.99 -2.17875 -2.46519 0
M  V30 30245 C 5223.87 -3.01988 -1.4033 0
M  V30 30246 H 5220.89 -8.36803 -2.32493 0
M  V30 30247 H 5220.62 -6.70197 -1.71129 0
M  V30 30248 H 5221.49 -7.03551 -4.13168 0
M  V30 30249 P 5225.45 -7.20834 -5.23717 0
M  V30 30250 O 5225.67 -7.79853 -6.57286 0
M  V30 30251 O 5226.24 -7.79239 -4.12957 0
M  V30 30252 O 5225.7 -5.63315 -5.29344 0
M  V30 30253 C 5224.76 -4.80255 -6.01876 0
M  V30 30254 C 5225.49 -3.64202 -6.65911 0
M  V30 30255 O 5225.7 -2.60694 -5.64732 0
M  V30 30256 C 5226.89 -3.93473 -7.1943 0
M  V30 30257 O 5227.28 -3.02071 -8.21205 0
M  V30 30258 C 5227.77 -3.73047 -5.97036 0
M  V30 30259 C 5227.06 -2.58828 -5.25741 0
M  V30 30260 N 5227.11 -2.68068 -3.77503 0
M  V30 30261 H 5224.27 -5.40332 -6.79951 0
M  V30 30262 H 5224 -4.41613 -5.32378 0
M  V30 30263 H 5224.87 -3.26331 -7.47797 0
M  V30 30264 P 5228.83 -2.75334 -8.47391 0
M  V30 30265 O 5229.05 -2.44571 -9.90142 0
M  V30 30266 O 5229.62 -3.87688 -7.92115 0
M  V30 30267 O 5229.08 -1.4459 -7.59357 0
M  V30 30268 C 5228.14 -0.347608 -7.69215 0
M  V30 30269 C 5228.87 0.96767 -7.52806 0
M  V30 30270 O 5229.08 1.21036 -6.1011 0
M  V30 30271 C 5230.27 1.04544 -8.13308 0
M  V30 30272 O 5230.66 2.38311 -8.41922 0
M  V30 30273 C 5231.15 0.491279 -7.02284 0
M  V30 30274 C 5230.44 0.996264 -5.77469 0
M  V30 30275 N 5230.49 0.0501916 -4.62973 0
M  V30 30276 H 5227.65 -0.374722 -8.67691 0
M  V30 30277 H 5227.38 -0.443485 -6.90277 0
M  V30 30278 H 5228.25 1.75537 -7.96793 0
M  V30 30279 P 5232.21 2.75334 -8.47391 0
M  V30 30280 O 5232.43 3.84128 -9.44797 0
M  V30 30281 O 5233 1.51947 -8.68712 0
M  V30 30282 O 5232.46 3.29363 -6.99321 0
M  V30 30283 C 5231.52 4.24011 -6.4274 0
M  V30 30284 C 5232.25 5.20775 -5.52155 0
M  V30 30285 O 5232.46 4.56534 -4.22446 0
M  V30 30286 C 5233.65 5.62629 -5.96531 0
M  V30 30287 O 5234.04 6.87667 -5.41053 0
M  V30 30288 C 5234.53 4.52537 -5.39283 0
M  V30 30289 C 5233.82 4.20027 -4.08623 0
M  V30 30290 N 5233.87 2.76189 -3.71603 0
M  V30 30291 H 5231.03 4.797 -7.24003 0
M  V30 30292 H 5230.76 3.69856 -5.84513 0
M  V30 30293 H 5231.63 6.10356 -5.41441 0
M  V30 30294 P 5235.59 7.20834 -5.23717 0
M  V30 30295 O 5235.81 8.66104 -5.38572 0
M  V30 30296 O 5236.38 6.33544 -6.1349 0
M  V30 30297 O 5235.84 6.7751 -3.72168 0
M  V30 30298 C 5234.9 7.20825 -2.7076 0
M  V30 30299 C 5235.63 7.45864 -1.40599 0
M  V30 30300 O 5235.84 6.17651 -0.734225 0
M  V30 30301 C 5237.03 8.05808 -1.51899 0
M  V30 30302 O 5237.42 8.74358 -0.335205 0
M  V30 30303 C 5237.91 6.83093 -1.70294 0
M  V30 30304 C 5237.2 5.79992 -0.836974 0
M  V30 30305 N 5237.25 4.41864 -1.38293 0
M  V30 30306 H 5234.41 8.13644 -3.0377 0
M  V30 30307 H 5234.14 6.42788 -2.55485 0
M  V30 30308 H 5235.01 8.12039 -0.792769 0
M  V30 30309 P 5238.97 8.91 -2.42497e-10 0
M  V30 30310 O 5239.19 10.1726 0.733694 0
M  V30 30311 O 5239.76 8.73148 -1.23936 0
M  V30 30312 O 5239.22 7.66872 0.971405 0
M  V30 30313 C 5238.28 7.42309 2.04641 0
M  V30 30314 C 5239.01 6.86059 3.24661 0
M  V30 30315 O 5239.22 5.42847 3.03646 0
M  V30 30316 C 5240.41 7.41196 3.50753 0
M  V30 30317 O 5240.8 7.27073 4.86816 0
M  V30 30318 C 5241.29 6.5273 2.63741 0
M  V30 30319 C 5240.58 5.1842 2.73198 0
M  V30 30320 N 5240.63 4.38762 1.4784 0
M  V30 30321 C 5240.55 4.81605 0.168631 0
M  V30 30322 N 5240.63 3.85454 -0.713363 0
M  V30 30323 C 5240.77 2.6994 0.0566958 0
M  V30 30324 C 5240.9 1.34815 -0.338502 0
M  V30 30325 N 5241.02 0.496304 0.77465 0
M  V30 30326 C 5241.02 0.908403 2.09122 0
M  V30 30327 N 5241.15 -0.0517805 3.00955 0
M  V30 30328 N 5240.89 2.17875 2.46519 0
M  V30 30329 C 5240.77 3.01988 1.4033 0
M  V30 30330 H 5237.79 8.36803 2.32493 0
M  V30 30331 H 5237.52 6.70197 1.71129 0
M  V30 30332 H 5238.39 7.03551 4.13168 0
M  V30 30333 P 5242.35 7.20834 5.23717 0
M  V30 30334 O 5242.57 7.79853 6.57286 0
M  V30 30335 O 5243.14 7.79239 4.12957 0
M  V30 30336 O 5242.6 5.63315 5.29344 0
M  V30 30337 C 5241.66 4.80255 6.01876 0
M  V30 30338 C 5242.39 3.64202 6.65911 0
M  V30 30339 O 5242.6 2.60694 5.64732 0
M  V30 30340 C 5243.79 3.93473 7.1943 0
M  V30 30341 O 5244.18 3.02071 8.21205 0
M  V30 30342 C 5244.67 3.73047 5.97036 0
M  V30 30343 C 5243.96 2.58828 5.25741 0
M  V30 30344 N 5244.01 2.68068 3.77503 0
M  V30 30345 H 5241.17 5.40332 6.79951 0
M  V30 30346 H 5240.9 4.41613 5.32378 0
M  V30 30347 H 5241.77 3.26331 7.47797 0
M  V30 30348 P 5245.73 2.75334 8.47391 0
M  V30 30349 O 5245.95 2.44595 9.90239 0
M  V30 30350 O 5246.52 3.87732 7.92204 0
M  V30 30351 O 5245.98 1.4459 7.59357 0
M  V30 30352 C 5245.04 0.347608 7.69215 0
M  V30 30353 C 5245.77 -0.96767 7.52806 0
M  V30 30354 O 5245.98 -1.21036 6.1011 0
M  V30 30355 C 5247.17 -1.04544 8.13308 0
M  V30 30356 O 5247.56 -2.38311 8.41922 0
M  V30 30357 C 5248.05 -0.491279 7.02284 0
M  V30 30358 C 5247.34 -0.996264 5.77469 0
M  V30 30359 N 5247.39 -0.0501808 4.62873 0
M  V30 30360 C 5247.54 -0.578037 3.3505 0
M  V30 30361 O 5247.63 -1.8073 3.21711 0
M  V30 30362 N 5247.59 0.468541 2.263 0
M  V30 30363 C 5247.49 1.59186 2.47176 0
M  V30 30364 N 5247.54 2.37626 1.40392 0
M  V30 30365 C 5247.34 2.16203 3.77467 0
M  V30 30366 C 5247.29 1.29324 4.8195 0
M  V30 30367 H 5244.55 0.374679 8.67591 0
M  V30 30368 H 5244.28 0.443421 6.90177 0
M  V30 30369 H 5245.15 -1.75559 7.96891 0
M  V30 30370 H 5247.8 -1.94529 5.46723 0
M  V30 30371 H 5248.08 0.608651 7.04676 0
M  V30 30372 H 5249.07 -0.889672 7.08939 0
M  V30 30373 H 5247.24 -0.43308 9.04564 0
M  V30 30374 H 5247.17 1.67758 5.83046 0
M  V30 30375 H 5247.27 3.23869 3.92281 0
M  V30 30376 H 5247.66 1.96317 0.467202 0
M  V30 30377 H 5247.46 3.39693 1.51142 0
M  V30 30378 P 5249.11 -2.75334 8.47391 0
M  V30 30379 O 5249.33 -3.84204 9.44982 0
M  V30 30380 O 5249.9 -1.51982 8.68909 0
M  V30 30381 O 5249.36 -3.29363 6.99321 0
M  V30 30382 C 5248.42 -4.24066 6.42823 0
M  V30 30383 C 5249.15 -5.20775 5.52155 0
M  V30 30384 O 5249.36 -4.56607 4.22514 0
M  V30 30385 C 5250.55 -5.62697 5.96604 0
M  V30 30386 O 5250.94 -6.87667 5.41053 0
M  V30 30387 C 5251.43 -4.52537 5.39283 0
M  V30 30388 C 5250.72 -4.20027 4.08623 0
M  V30 30389 N 5250.77 -2.76189 3.71603 0
M  V30 30390 C 5250.69 -1.66944 4.54297 0
M  V30 30391 N 5250.76 -0.536169 3.91344 0
M  V30 30392 C 5250.91 -0.901569 2.58849 0
M  V30 30393 C 5251.04 -0.146599 1.40236 0
M  V30 30394 N 5251.05 1.18234 1.37046 0
M  V30 30395 N 5251.16 -0.822941 0.249738 0
M  V30 30396 C 5251.15 -2.15179 0.280525 0
M  V30 30397 N 5251.03 -2.96414 1.30822 0
M  V30 30398 C 5250.91 -2.25804 2.44748 0
M  V30 30399 H 5247.93 -4.79756 7.24086 0
M  V30 30400 H 5247.66 -3.69963 5.84682 0
M  V30 30401 H 5248.53 -6.10431 5.41508 0
M  V30 30402 H 5251.18 -4.78816 3.28024 0
M  V30 30403 H 5251.46 -3.64957 6.05871 0
M  V30 30404 H 5252.45 -4.88748 5.21323 0
M  V30 30405 H 5250.62 -5.66789 7.0643 0
M  V30 30406 H 5250.58 -1.74684 5.62396 0
M  V30 30407 H 5250.96 1.71949 2.24394 0
M  V30 30408 H 5251.15 1.67511 0.470742 0
M  V30 30409 H 5251.26 -2.63704 -0.6828 0
M  V30 30410 P 5252.49 -7.20834 5.23717 0
M  V30 30411 O 5252.71 -8.66104 5.38572 0
M  V30 30412 O 5253.28 -6.33544 6.1349 0
M  V30 30413 O 5252.74 -6.7751 3.72168 0
M  V30 30414 C 5251.8 -7.20825 2.7076 0
M  V30 30415 C 5252.53 -7.45864 1.40599 0
M  V30 30416 O 5252.74 -6.17651 0.734225 0
M  V30 30417 C 5253.93 -8.05808 1.51899 0
M  V30 30418 O 5254.32 -8.74358 0.335205 0
M  V30 30419 C 5254.81 -6.83093 1.70294 0
M  V30 30420 C 5254.1 -5.79992 0.836974 0
M  V30 30421 N 5254.15 -4.41864 1.38293 0
M  V30 30422 C 5254.07 -3.99538 2.69438 0
M  V30 30423 N 5254.15 -2.69909 2.84277 0
M  V30 30424 C 5254.29 -2.21719 1.5408 0
M  V30 30425 C 5254.42 -0.891712 1.06628 0
M  V30 30426 N 5254.54 -0.856846 -0.334985 0
M  V30 30427 C 5254.54 -1.9641 -1.15789 0
M  V30 30428 N 5254.67 -1.72708 -2.46522 0
M  V30 30429 N 5254.41 -3.21165 -0.713741 0
M  V30 30430 C 5254.29 -3.26797 0.639748 0
M  V30 30431 H 5251.31 -8.13644 3.0377 0
M  V30 30432 H 5251.04 -6.42788 2.55485 0
M  V30 30433 H 5251.91 -8.12039 0.792769 0
M  V30 30434 P 5255.87 -8.91 2.43606e-10 0
M  V30 30435 O 5256.09 -10.1726 -0.733694 0
M  V30 30436 O 5256.66 -8.73148 1.23936 0
M  V30 30437 O 5256.12 -7.66872 -0.971405 0
M  V30 30438 C 5255.18 -7.42309 -2.04641 0
M  V30 30439 C 5255.91 -6.86059 -3.24661 0
M  V30 30440 O 5256.12 -5.42847 -3.03646 0
M  V30 30441 C 5257.31 -7.41196 -3.50753 0
M  V30 30442 O 5257.7 -7.27073 -4.86816 0
M  V30 30443 C 5258.19 -6.5273 -2.63741 0
M  V30 30444 C 5257.48 -5.1842 -2.73198 0
M  V30 30445 N 5257.53 -4.38762 -1.4784 0
M  V30 30446 H 5254.69 -8.36803 -2.32493 0
M  V30 30447 H 5254.42 -6.70197 -1.71129 0
M  V30 30448 H 5255.29 -7.03551 -4.13168 0
M  V30 30449 P 5259.25 -7.20834 -5.23717 0
M  V30 30450 O 5259.47 -7.79853 -6.57286 0
M  V30 30451 O 5260.04 -7.79239 -4.12957 0
M  V30 30452 O 5259.5 -5.63315 -5.29344 0
M  V30 30453 C 5258.56 -4.80255 -6.01876 0
M  V30 30454 C 5259.29 -3.64202 -6.65911 0
M  V30 30455 O 5259.5 -2.60694 -5.64732 0
M  V30 30456 C 5260.69 -3.93473 -7.1943 0
M  V30 30457 O 5261.08 -3.02071 -8.21205 0
M  V30 30458 C 5261.57 -3.73047 -5.97036 0
M  V30 30459 C 5260.86 -2.58828 -5.25741 0
M  V30 30460 N 5260.91 -2.68068 -3.77503 0
M  V30 30461 H 5258.07 -5.40332 -6.79951 0
M  V30 30462 H 5257.8 -4.41613 -5.32378 0
M  V30 30463 H 5258.67 -3.26331 -7.47797 0
M  V30 30464 P 5262.63 -2.75334 -8.47391 0
M  V30 30465 O 5262.85 -2.44571 -9.90142 0
M  V30 30466 O 5263.42 -3.87688 -7.92115 0
M  V30 30467 O 5262.88 -1.4459 -7.59357 0
M  V30 30468 C 5261.94 -0.347608 -7.69215 0
M  V30 30469 C 5262.67 0.96767 -7.52806 0
M  V30 30470 O 5262.88 1.21036 -6.1011 0
M  V30 30471 C 5264.07 1.04544 -8.13308 0
M  V30 30472 O 5264.46 2.38311 -8.41922 0
M  V30 30473 C 5264.95 0.491279 -7.02284 0
M  V30 30474 C 5264.24 0.996264 -5.77469 0
M  V30 30475 N 5264.29 0.0501916 -4.62973 0
M  V30 30476 C 5264.21 -1.32786 -4.63244 0
M  V30 30477 N 5264.29 -1.86957 -3.44545 0
M  V30 30478 C 5264.43 -0.780241 -2.58481 0
M  V30 30479 C 5264.56 -0.738536 -1.17757 0
M  V30 30480 O 5264.58 -1.66794 -0.372349 0
M  V30 30481 N 5264.68 0.58337 -0.711393 0
M  V30 30482 C 5264.68 1.70816 -1.51017 0
M  V30 30483 N 5264.81 2.87826 -0.880757 0
M  V30 30484 N 5264.55 1.67126 -2.8339 0
M  V30 30485 C 5264.43 0.401421 -3.30572 0
M  V30 30486 H 5261.45 -0.374722 -8.67691 0
M  V30 30487 H 5261.18 -0.443485 -6.90277 0
M  V30 30488 H 5262.05 1.75537 -7.96793 0
M  V30 30489 H 5264.7 1.95076 -5.46529 0
M  V30 30490 H 5264.98 -0.608565 -7.04577 0
M  V30 30491 H 5265.97 0.889672 -7.08939 0
M  V30 30492 H 5264.14 0.43308 -9.04564 0
M  V30 30493 H 5264.09 -1.91249 -5.54442 0
M  V30 30494 H 5264.77 0.718054 0.275244 0
M  V30 30495 H 5264.81 3.75721 -1.41832 0
M  V30 30496 H 5264.91 2.90436 0.145468 0
M  V30 30497 P 5266.01 2.75334 -8.47391 0
M  V30 30498 O 5266.23 3.84128 -9.44797 0
M  V30 30499 O 5266.8 1.51947 -8.68712 0
M  V30 30500 O 5266.26 3.29363 -6.99321 0
M  V30 30501 C 5265.32 4.24011 -6.4274 0
M  V30 30502 C 5266.05 5.20775 -5.52155 0
M  V30 30503 O 5266.26 4.56534 -4.22446 0
M  V30 30504 C 5267.45 5.62629 -5.96531 0
M  V30 30505 O 5267.84 6.87667 -5.41053 0
M  V30 30506 C 5268.33 4.52537 -5.39283 0
M  V30 30507 C 5267.62 4.20027 -4.08623 0
M  V30 30508 N 5267.67 2.76189 -3.71603 0
M  V30 30509 H 5264.83 4.797 -7.24003 0
M  V30 30510 H 5264.56 3.69856 -5.84513 0
M  V30 30511 H 5265.43 6.10356 -5.41441 0
M  V30 30512 P 5269.39 7.20834 -5.23717 0
M  V30 30513 O 5269.61 8.66104 -5.38572 0
M  V30 30514 O 5270.18 6.33544 -6.1349 0
M  V30 30515 O 5269.64 6.7751 -3.72168 0
M  V30 30516 C 5268.7 7.20825 -2.7076 0
M  V30 30517 C 5269.43 7.45864 -1.40599 0
M  V30 30518 O 5269.64 6.17651 -0.734225 0
M  V30 30519 C 5270.83 8.05808 -1.51899 0
M  V30 30520 O 5271.22 8.74358 -0.335205 0
M  V30 30521 C 5271.71 6.83093 -1.70294 0
M  V30 30522 C 5271 5.79992 -0.836974 0
M  V30 30523 N 5271.05 4.41864 -1.38293 0
M  V30 30524 H 5268.21 8.13644 -3.0377 0
M  V30 30525 H 5267.94 6.42788 -2.55485 0
M  V30 30526 H 5268.81 8.12039 -0.792769 0
M  V30 30527 P 5272.77 8.91 -2.44715e-10 0
M  V30 30528 O 5272.99 10.1726 0.733694 0
M  V30 30529 O 5273.56 8.73148 -1.23936 0
M  V30 30530 O 5273.02 7.66872 0.971405 0
M  V30 30531 C 5272.08 7.42309 2.04641 0
M  V30 30532 C 5272.81 6.86059 3.24661 0
M  V30 30533 O 5273.02 5.42847 3.03646 0
M  V30 30534 C 5274.21 7.41196 3.50753 0
M  V30 30535 O 5274.6 7.27073 4.86816 0
M  V30 30536 C 5275.09 6.5273 2.63741 0
M  V30 30537 C 5274.38 5.1842 2.73198 0
M  V30 30538 N 5274.43 4.38762 1.4784 0
M  V30 30539 H 5271.59 8.36803 2.32493 0
M  V30 30540 H 5271.32 6.70197 1.71129 0
M  V30 30541 H 5272.19 7.03551 4.13168 0
M  V30 30542 P 5276.15 7.20834 5.23717 0
M  V30 30543 O 5276.37 7.7993 6.57351 0
M  V30 30544 O 5276.94 7.79328 4.13004 0
M  V30 30545 O 5276.4 5.63315 5.29344 0
M  V30 30546 C 5275.46 4.80193 6.01798 0
M  V30 30547 C 5276.19 3.64202 6.65911 0
M  V30 30548 O 5276.4 2.60694 5.64732 0
M  V30 30549 C 5277.59 3.93473 7.1943 0
M  V30 30550 O 5277.98 3.02071 8.21205 0
M  V30 30551 C 5278.47 3.73047 5.97036 0
M  V30 30552 C 5277.76 2.58828 5.25741 0
M  V30 30553 N 5277.81 2.6801 3.77422 0
M  V30 30554 C 5277.96 1.50443 3.07133 0
M  V30 30555 O 5278.05 0.419406 3.61576 0
M  V30 30556 N 5278 1.6403 1.69677 0
M  V30 30557 C 5277.91 2.81206 0.986255 0
M  V30 30558 O 5277.96 2.80892 -0.249754 0
M  V30 30559 C 5277.76 3.99158 1.80325 0
M  V30 30560 C 5277.65 5.29309 1.06921 0
M  V30 30561 C 5277.71 3.89779 3.1476 0
M  V30 30562 H 5274.97 5.40332 6.79951 0
M  V30 30563 H 5274.7 4.41549 5.32301 0
M  V30 30564 H 5275.57 3.26331 7.47797 0
M  V30 30565 H 5278.22 1.6395 5.56554 0
M  V30 30566 H 5278.5 4.63439 5.3432 0
M  V30 30567 H 5279.49 3.44728 6.25838 0
M  V30 30568 H 5277.66 4.96652 7.57263 0
M  V30 30569 H 5277.59 4.80159 3.74441 0
M  V30 30570 H 5278.62 5.81459 1.09608 0
M  V30 30571 H 5276.88 5.9187 1.54487 0
M  V30 30572 H 5277.37 5.10095 0.0220288 0
M  V30 30573 H 5278.1 0.798962 1.16664 0
M  V30 30574 P 5279.53 2.75334 8.47391 0
M  V30 30575 O 5279.75 2.44595 9.90239 0
M  V30 30576 O 5280.32 3.87732 7.92204 0
M  V30 30577 O 5279.78 1.4459 7.59357 0
M  V30 30578 C 5278.84 0.347563 7.69115 0
M  V30 30579 C 5279.57 -0.96767 7.52806 0
M  V30 30580 O 5279.78 -1.21036 6.1011 0
M  V30 30581 C 5280.97 -1.04544 8.13308 0
M  V30 30582 O 5281.36 -2.38311 8.41922 0
M  V30 30583 C 5281.85 -0.491279 7.02284 0
M  V30 30584 C 5281.14 -0.996264 5.77469 0
M  V30 30585 N 5281.19 -0.0501808 4.62873 0
M  V30 30586 C 5281.34 -0.588177 3.36904 0
M  V30 30587 O 5281.43 -1.78598 3.17173 0
M  V30 30588 N 5281.38 0.329694 2.33686 0
M  V30 30589 C 5281.29 1.6953 2.45079 0
M  V30 30590 C 5281.14 2.16933 3.80505 0
M  V30 30591 C 5281.09 1.30326 4.83752 0
M  V30 30592 H 5278.35 0.374722 8.67691 0
M  V30 30593 H 5278.08 0.443421 6.90177 0
M  V30 30594 H 5278.95 -1.75537 7.96793 0
M  V30 30595 H 5281.6 -1.94496 5.46629 0
M  V30 30596 H 5281.88 0.608651 7.04676 0
M  V30 30597 H 5282.87 -0.889672 7.08939 0
M  V30 30598 H 5281.04 -0.43308 9.04564 0
M  V30 30599 H 5280.97 1.68366 5.8516 0
M  V30 30600 P 5282.91 -2.75334 8.47391 0
M  V30 30601 O 5283.13 -3.84128 9.44797 0
M  V30 30602 O 5283.7 -1.51947 8.68712 0
M  V30 30603 O 5283.16 -3.29363 6.99321 0
M  V30 30604 C 5282.22 -4.24011 6.4274 0
M  V30 30605 C 5282.95 -5.20775 5.52155 0
M  V30 30606 O 5283.16 -4.56534 4.22446 0
M  V30 30607 C 5284.35 -5.62629 5.96531 0
M  V30 30608 O 5284.74 -6.87667 5.41053 0
M  V30 30609 C 5285.23 -4.52537 5.39283 0
M  V30 30610 C 5284.52 -4.20027 4.08623 0
M  V30 30611 N 5284.57 -2.76189 3.71603 0
M  V30 30612 C 5284.49 -1.64862 4.52822 0
M  V30 30613 N 5284.57 -0.512671 3.88633 0
M  V30 30614 C 5284.71 -0.888083 2.54977 0
M  V30 30615 C 5284.84 -0.094668 1.38677 0
M  V30 30616 N 5284.96 -0.890102 0.232633 0
M  V30 30617 C 5284.96 -2.26958 0.21772 0
M  V30 30618 N 5285.09 -2.84626 -0.97925 0
M  V30 30619 N 5284.83 -3.0178 1.31033 0
M  V30 30620 C 5284.71 -2.26781 2.43843 0
M  V30 30621 H 5281.73 -4.797 7.24003 0
M  V30 30622 H 5281.46 -3.69856 5.84513 0
M  V30 30623 H 5282.33 -6.10356 5.41441 0
M  V30 30624 P 5286.29 -7.20834 5.23717 0
M  V30 30625 O 5286.51 -8.66104 5.38572 0
M  V30 30626 O 5287.08 -6.33544 6.1349 0
M  V30 30627 O 5286.54 -6.7751 3.72168 0
M  V30 30628 C 5285.6 -7.20825 2.7076 0
M  V30 30629 C 5286.33 -7.45864 1.40599 0
M  V30 30630 O 5286.54 -6.17651 0.734225 0
M  V30 30631 C 5287.73 -8.05808 1.51899 0
M  V30 30632 O 5288.12 -8.74358 0.335205 0
M  V30 30633 C 5288.61 -6.83093 1.70294 0
M  V30 30634 C 5287.9 -5.79992 0.836974 0
M  V30 30635 N 5287.95 -4.41864 1.38293 0
M  V30 30636 H 5285.11 -8.13644 3.0377 0
M  V30 30637 H 5284.84 -6.42788 2.55485 0
M  V30 30638 H 5285.71 -8.12039 0.792769 0
M  V30 30639 P 5289.67 -8.91 2.45824e-10 0
M  V30 30640 O 5289.89 -10.1726 -0.733694 0
M  V30 30641 O 5290.46 -8.73148 1.23936 0
M  V30 30642 O 5289.92 -7.66872 -0.971405 0
M  V30 30643 C 5288.98 -7.42309 -2.04641 0
M  V30 30644 C 5289.71 -6.86059 -3.24661 0
M  V30 30645 O 5289.92 -5.42847 -3.03646 0
M  V30 30646 C 5291.11 -7.41196 -3.50753 0
M  V30 30647 O 5291.5 -7.27073 -4.86816 0
M  V30 30648 C 5291.99 -6.5273 -2.63741 0
M  V30 30649 C 5291.28 -5.1842 -2.73198 0
M  V30 30650 N 5291.33 -4.38762 -1.4784 0
M  V30 30651 H 5288.49 -8.36803 -2.32493 0
M  V30 30652 H 5288.22 -6.70197 -1.71129 0
M  V30 30653 H 5289.09 -7.03551 -4.13168 0
M  V30 30654 P 5293.05 -7.20834 -5.23717 0
M  V30 30655 O 5293.27 -7.79853 -6.57286 0
M  V30 30656 O 5293.84 -7.79239 -4.12957 0
M  V30 30657 O 5293.3 -5.63315 -5.29344 0
M  V30 30658 C 5292.36 -4.80255 -6.01876 0
M  V30 30659 C 5293.09 -3.64202 -6.65911 0
M  V30 30660 O 5293.3 -2.60694 -5.64732 0
M  V30 30661 C 5294.49 -3.93473 -7.1943 0
M  V30 30662 O 5294.88 -3.02071 -8.21205 0
M  V30 30663 C 5295.37 -3.73047 -5.97036 0
M  V30 30664 C 5294.66 -2.58828 -5.25741 0
M  V30 30665 N 5294.71 -2.68068 -3.77503 0
M  V30 30666 C 5294.63 -3.79715 -2.96723 0
M  V30 30667 N 5294.71 -3.5377 -1.68852 0
M  V30 30668 C 5294.85 -2.15054 -1.63254 0
M  V30 30669 C 5294.98 -1.28964 -0.518571 0
M  V30 30670 O 5295 -1.56826 0.679156 0
M  V30 30671 N 5295.1 0.0538097 -0.918425 0
M  V30 30672 C 5295.1 0.494275 -2.22578 0
M  V30 30673 N 5295.23 1.81086 -2.40434 0
M  V30 30674 N 5294.97 -0.313645 -3.27502 0
M  V30 30675 C 5294.85 -1.61829 -2.91033 0
M  V30 30676 H 5291.87 -5.40332 -6.79951 0
M  V30 30677 H 5291.6 -4.41613 -5.32378 0
M  V30 30678 H 5292.47 -3.26331 -7.47797 0
M  V30 30679 H 5295.12 -1.63422 -5.56814 0
M  V30 30680 H 5295.4 -4.63374 -5.34244 0
M  V30 30681 H 5296.39 -3.44728 -6.25838 0
M  V30 30682 H 5294.56 -4.96652 -7.57263 0
M  V30 30683 H 5294.51 -4.80617 -3.3614 0
M  V30 30684 H 5295.19 0.742702 -0.199384 0
M  V30 30685 H 5295.23 2.20598 -3.35588 0
M  V30 30686 H 5295.33 2.43518 -1.58945 0
M  V30 30687 P 5296.43 -2.75334 -8.47391 0
M  V30 30688 O 5296.65 -2.44571 -9.90142 0
M  V30 30689 O 5297.22 -3.87688 -7.92115 0
M  V30 30690 O 5296.68 -1.4459 -7.59357 0
M  V30 30691 C 5295.74 -0.347608 -7.69215 0
M  V30 30692 C 5296.47 0.96767 -7.52806 0
M  V30 30693 O 5296.68 1.21036 -6.1011 0
M  V30 30694 C 5297.87 1.04544 -8.13308 0
M  V30 30695 O 5298.26 2.38311 -8.41922 0
M  V30 30696 C 5298.75 0.491279 -7.02284 0
M  V30 30697 C 5298.04 0.996264 -5.77469 0
M  V30 30698 N 5298.09 0.0501916 -4.62973 0
M  V30 30699 H 5295.25 -0.374722 -8.67691 0
M  V30 30700 H 5294.98 -0.443485 -6.90277 0
M  V30 30701 H 5295.85 1.75537 -7.96793 0
M  V30 30702 P 5299.81 2.75334 -8.47391 0
M  V30 30703 O 5300.03 3.84128 -9.44797 0
M  V30 30704 O 5300.6 1.51947 -8.68712 0
M  V30 30705 O 5300.06 3.29363 -6.99321 0
M  V30 30706 C 5299.12 4.24011 -6.4274 0
M  V30 30707 C 5299.85 5.20775 -5.52155 0
M  V30 30708 O 5300.06 4.56534 -4.22446 0
M  V30 30709 C 5301.25 5.62629 -5.96531 0
M  V30 30710 O 5301.64 6.87667 -5.41053 0
M  V30 30711 C 5302.13 4.52537 -5.39283 0
M  V30 30712 C 5301.42 4.20027 -4.08623 0
M  V30 30713 N 5301.47 2.76189 -3.71603 0
M  V30 30714 H 5298.63 4.797 -7.24003 0
M  V30 30715 H 5298.36 3.69856 -5.84513 0
M  V30 30716 H 5299.23 6.10356 -5.41441 0
M  V30 30717 P 5303.19 7.20834 -5.23717 0
M  V30 30718 O 5303.41 8.66104 -5.38572 0
M  V30 30719 O 5303.98 6.33544 -6.1349 0
M  V30 30720 O 5303.44 6.7751 -3.72168 0
M  V30 30721 C 5302.5 7.20825 -2.7076 0
M  V30 30722 C 5303.23 7.45864 -1.40599 0
M  V30 30723 O 5303.44 6.17651 -0.734225 0
M  V30 30724 C 5304.63 8.05808 -1.51899 0
M  V30 30725 O 5305.02 8.74358 -0.335205 0
M  V30 30726 C 5305.51 6.83093 -1.70294 0
M  V30 30727 C 5304.8 5.79992 -0.836974 0
M  V30 30728 N 5304.85 4.41864 -1.38293 0
M  V30 30729 H 5302.01 8.13644 -3.0377 0
M  V30 30730 H 5301.74 6.42788 -2.55485 0
M  V30 30731 H 5302.61 8.12039 -0.792769 0
M  V30 30732 P 5306.57 8.91 -2.46933e-10 0
M  V30 30733 O 5306.79 10.1726 0.733694 0
M  V30 30734 O 5307.36 8.73148 -1.23936 0
M  V30 30735 O 5306.82 7.66872 0.971405 0
M  V30 30736 C 5305.88 7.42309 2.04641 0
M  V30 30737 C 5306.61 6.86059 3.24661 0
M  V30 30738 O 5306.82 5.42847 3.03646 0
M  V30 30739 C 5308.01 7.41196 3.50753 0
M  V30 30740 O 5308.4 7.27073 4.86816 0
M  V30 30741 C 5308.89 6.5273 2.63741 0
M  V30 30742 C 5308.18 5.1842 2.73198 0
M  V30 30743 N 5308.23 4.38762 1.4784 0
M  V30 30744 H 5305.39 8.36803 2.32493 0
M  V30 30745 H 5305.12 6.70197 1.71129 0
M  V30 30746 H 5305.99 7.03551 4.13168 0
M  V30 30747 P 5309.95 7.20834 5.23717 0
M  V30 30748 O 5310.17 7.79853 6.57286 0
M  V30 30749 O 5310.74 7.79239 4.12957 0
M  V30 30750 O 5310.2 5.63315 5.29344 0
M  V30 30751 C 5309.26 4.80255 6.01876 0
M  V30 30752 C 5309.99 3.64202 6.65911 0
M  V30 30753 O 5310.2 2.60694 5.64732 0
M  V30 30754 C 5311.39 3.93473 7.1943 0
M  V30 30755 O 5311.78 3.02071 8.21205 0
M  V30 30756 C 5312.27 3.73047 5.97036 0
M  V30 30757 C 5311.56 2.58828 5.25741 0
M  V30 30758 N 5311.61 2.68068 3.77503 0
M  V30 30759 H 5308.77 5.40332 6.79951 0
M  V30 30760 H 5308.5 4.41613 5.32378 0
M  V30 30761 H 5309.37 3.26331 7.47797 0
M  V30 30762 P 5313.33 2.75334 8.47391 0
M  V30 30763 O 5313.55 2.44619 9.90336 0
M  V30 30764 O 5314.12 3.87776 7.92294 0
M  V30 30765 O 5313.58 1.4459 7.59357 0
M  V30 30766 C 5312.64 0.347653 7.69315 0
M  V30 30767 C 5313.37 -0.96767 7.52806 0
M  V30 30768 O 5313.58 -1.21055 6.10208 0
M  V30 30769 C 5314.77 -1.04557 8.13408 0
M  V30 30770 O 5315.16 -2.38311 8.41922 0
M  V30 30771 C 5315.65 -0.491279 7.02284 0
M  V30 30772 C 5314.94 -0.996264 5.77469 0
M  V30 30773 N 5314.99 -0.0501916 4.62973 0
M  V30 30774 H 5312.15 0.374765 8.67791 0
M  V30 30775 H 5311.88 0.443613 6.90476 0
M  V30 30776 H 5312.75 -1.75559 7.96891 0
M  V30 30777 H 5315.4 -1.94563 5.46818 0
M  V30 30778 H 5315.68 0.608651 7.04676 0
M  V30 30779 H 5316.67 -0.889796 7.09039 0
M  V30 30780 H 5314.84 -0.433128 9.04664 0
M  V30 30781 P 5316.71 -2.75334 8.47391 0
M  V30 30782 O 5316.93 -3.84128 9.44797 0
M  V30 30783 O 5317.5 -1.51947 8.68712 0
M  V30 30784 O 5316.96 -3.29363 6.99321 0
M  V30 30785 C 5316.02 -4.24011 6.4274 0
M  V30 30786 C 5316.75 -5.20775 5.52155 0
M  V30 30787 O 5316.96 -4.56534 4.22446 0
M  V30 30788 C 5318.15 -5.62629 5.96531 0
M  V30 30789 O 5318.54 -6.87667 5.41053 0
M  V30 30790 C 5319.03 -4.52537 5.39283 0
M  V30 30791 C 5318.32 -4.20027 4.08623 0
M  V30 30792 N 5318.37 -2.76189 3.71603 0
M  V30 30793 C 5318.29 -1.64862 4.52822 0
M  V30 30794 N 5318.37 -0.512671 3.88633 0
M  V30 30795 C 5318.51 -0.888083 2.54977 0
M  V30 30796 C 5318.64 -0.094668 1.38677 0
M  V30 30797 N 5318.76 -0.890102 0.232633 0
M  V30 30798 C 5318.76 -2.26958 0.21772 0
M  V30 30799 N 5318.89 -2.84626 -0.97925 0
M  V30 30800 N 5318.63 -3.0178 1.31033 0
M  V30 30801 C 5318.51 -2.26781 2.43843 0
M  V30 30802 H 5315.53 -4.797 7.24003 0
M  V30 30803 H 5315.26 -3.69856 5.84513 0
M  V30 30804 H 5316.13 -6.10356 5.41441 0
M  V30 30805 P 5320.09 -7.20834 5.23717 0
M  V30 30806 O 5320.31 -8.66104 5.38572 0
M  V30 30807 O 5320.88 -6.33544 6.1349 0
M  V30 30808 O 5320.34 -6.7751 3.72168 0
M  V30 30809 C 5319.4 -7.20825 2.7076 0
M  V30 30810 C 5320.13 -7.45864 1.40599 0
M  V30 30811 O 5320.34 -6.17651 0.734225 0
M  V30 30812 C 5321.53 -8.05808 1.51899 0
M  V30 30813 O 5321.92 -8.74358 0.335205 0
M  V30 30814 C 5322.41 -6.83093 1.70294 0
M  V30 30815 C 5321.7 -5.79992 0.836974 0
M  V30 30816 N 5321.75 -4.41864 1.38293 0
M  V30 30817 H 5318.91 -8.13644 3.0377 0
M  V30 30818 H 5318.64 -6.42788 2.55485 0
M  V30 30819 H 5319.51 -8.12039 0.792769 0
M  V30 30820 P 5323.47 -8.91 2.48042e-10 0
M  V30 30821 O 5323.69 -10.1726 -0.733694 0
M  V30 30822 O 5324.26 -8.73148 1.23936 0
M  V30 30823 O 5323.72 -7.66872 -0.971405 0
M  V30 30824 C 5322.78 -7.42309 -2.04641 0
M  V30 30825 C 5323.51 -6.86059 -3.24661 0
M  V30 30826 O 5323.72 -5.42847 -3.03646 0
M  V30 30827 C 5324.91 -7.41196 -3.50753 0
M  V30 30828 O 5325.3 -7.27073 -4.86816 0
M  V30 30829 C 5325.79 -6.5273 -2.63741 0
M  V30 30830 C 5325.08 -5.1842 -2.73198 0
M  V30 30831 N 5325.13 -4.38762 -1.4784 0
M  V30 30832 H 5322.29 -8.36803 -2.32493 0
M  V30 30833 H 5322.02 -6.70197 -1.71129 0
M  V30 30834 H 5322.89 -7.03551 -4.13168 0
M  V30 30835 P 5326.85 -7.20834 -5.23717 0
M  V30 30836 O 5327.07 -7.79853 -6.57286 0
M  V30 30837 O 5327.64 -7.79239 -4.12957 0
M  V30 30838 O 5327.1 -5.63315 -5.29344 0
M  V30 30839 C 5326.16 -4.80255 -6.01876 0
M  V30 30840 C 5326.89 -3.64202 -6.65911 0
M  V30 30841 O 5327.1 -2.60694 -5.64732 0
M  V30 30842 C 5328.29 -3.93473 -7.1943 0
M  V30 30843 O 5328.68 -3.02071 -8.21205 0
M  V30 30844 C 5329.17 -3.73047 -5.97036 0
M  V30 30845 C 5328.46 -2.58828 -5.25741 0
M  V30 30846 N 5328.51 -2.68068 -3.77503 0
M  V30 30847 C 5328.43 -3.79715 -2.96723 0
M  V30 30848 N 5328.51 -3.5377 -1.68852 0
M  V30 30849 C 5328.65 -2.15054 -1.63254 0
M  V30 30850 C 5328.78 -1.28964 -0.518571 0
M  V30 30851 O 5328.8 -1.56826 0.679156 0
M  V30 30852 N 5328.9 0.0538097 -0.918425 0
M  V30 30853 C 5328.9 0.494275 -2.22578 0
M  V30 30854 N 5329.03 1.81086 -2.40434 0
M  V30 30855 N 5328.77 -0.313645 -3.27502 0
M  V30 30856 C 5328.65 -1.61829 -2.91033 0
M  V30 30857 H 5325.67 -5.40332 -6.79951 0
M  V30 30858 H 5325.4 -4.41613 -5.32378 0
M  V30 30859 H 5326.27 -3.26331 -7.47797 0
M  V30 30860 H 5328.92 -1.63422 -5.56814 0
M  V30 30861 H 5329.2 -4.63374 -5.34244 0
M  V30 30862 H 5330.19 -3.44728 -6.25838 0
M  V30 30863 H 5328.36 -4.96652 -7.57263 0
M  V30 30864 H 5328.31 -4.80617 -3.3614 0
M  V30 30865 H 5328.99 0.742702 -0.199384 0
M  V30 30866 H 5329.03 2.20598 -3.35588 0
M  V30 30867 H 5329.13 2.43518 -1.58945 0
M  V30 30868 P 5330.23 -2.75334 -8.47391 0
M  V30 30869 O 5330.45 -2.44571 -9.90142 0
M  V30 30870 O 5331.02 -3.87688 -7.92115 0
M  V30 30871 O 5330.48 -1.4459 -7.59357 0
M  V30 30872 C 5329.54 -0.347608 -7.69215 0
M  V30 30873 C 5330.27 0.96767 -7.52806 0
M  V30 30874 O 5330.48 1.21036 -6.1011 0
M  V30 30875 C 5331.67 1.04544 -8.13308 0
M  V30 30876 O 5332.06 2.38311 -8.41922 0
M  V30 30877 C 5332.55 0.491279 -7.02284 0
M  V30 30878 C 5331.84 0.996264 -5.77469 0
M  V30 30879 N 5331.89 0.0501916 -4.62973 0
M  V30 30880 H 5329.05 -0.374722 -8.67691 0
M  V30 30881 H 5328.78 -0.443485 -6.90277 0
M  V30 30882 H 5329.65 1.75537 -7.96793 0
M  V30 30883 P 5333.61 2.75334 -8.47391 0
M  V30 30884 O 5333.83 3.84204 -9.44982 0
M  V30 30885 O 5334.4 1.51982 -8.68909 0
M  V30 30886 O 5333.86 3.29363 -6.99321 0
M  V30 30887 C 5332.92 4.24066 -6.42823 0
M  V30 30888 C 5333.65 5.20775 -5.52155 0
M  V30 30889 O 5333.86 4.56607 -4.22514 0
M  V30 30890 C 5335.05 5.62697 -5.96604 0
M  V30 30891 O 5335.44 6.87667 -5.41053 0
M  V30 30892 C 5335.93 4.52537 -5.39283 0
M  V30 30893 C 5335.22 4.20027 -4.08623 0
M  V30 30894 N 5335.27 2.76189 -3.71603 0
M  V30 30895 C 5335.19 1.66944 -4.54297 0
M  V30 30896 N 5335.26 0.536169 -3.91344 0
M  V30 30897 C 5335.41 0.901569 -2.58849 0
M  V30 30898 C 5335.54 0.146599 -1.40236 0
M  V30 30899 N 5335.55 -1.18234 -1.37046 0
M  V30 30900 N 5335.66 0.822941 -0.249738 0
M  V30 30901 C 5335.65 2.15179 -0.280525 0
M  V30 30902 N 5335.53 2.96414 -1.30822 0
M  V30 30903 C 5335.41 2.25804 -2.44748 0
M  V30 30904 H 5332.43 4.79756 -7.24086 0
M  V30 30905 H 5332.16 3.69963 -5.84682 0
M  V30 30906 H 5333.03 6.10431 -5.41508 0
M  V30 30907 H 5335.68 4.78816 -3.28024 0
M  V30 30908 H 5335.96 3.64957 -6.05871 0
M  V30 30909 H 5336.95 4.88748 -5.21323 0
M  V30 30910 H 5335.12 5.66789 -7.0643 0
M  V30 30911 H 5335.08 1.74684 -5.62396 0
M  V30 30912 H 5335.46 -1.71949 -2.24394 0
M  V30 30913 H 5335.65 -1.67511 -0.470742 0
M  V30 30914 H 5335.76 2.63704 0.6828 0
M  V30 30915 P 5336.99 7.20834 -5.23717 0
M  V30 30916 O 5337.21 8.66104 -5.38572 0
M  V30 30917 O 5337.78 6.33544 -6.1349 0
M  V30 30918 O 5337.24 6.7751 -3.72168 0
M  V30 30919 C 5336.3 7.20825 -2.7076 0
M  V30 30920 C 5337.03 7.45864 -1.40599 0
M  V30 30921 O 5337.24 6.17651 -0.734225 0
M  V30 30922 C 5338.43 8.05808 -1.51899 0
M  V30 30923 O 5338.82 8.74358 -0.335205 0
M  V30 30924 C 5339.31 6.83093 -1.70294 0
M  V30 30925 C 5338.6 5.79992 -0.836974 0
M  V30 30926 N 5338.65 4.41864 -1.38293 0
M  V30 30927 H 5335.81 8.13644 -3.0377 0
M  V30 30928 H 5335.54 6.42788 -2.55485 0
M  V30 30929 H 5336.41 8.12039 -0.792769 0
M  V30 30930 P 5340.37 8.91 -2.49151e-10 0
M  V30 30931 O 5340.59 10.1726 0.733694 0
M  V30 30932 O 5341.16 8.73148 -1.23936 0
M  V30 30933 O 5340.62 7.66872 0.971405 0
M  V30 30934 C 5339.68 7.42309 2.04641 0
M  V30 30935 C 5340.41 6.86059 3.24661 0
M  V30 30936 O 5340.62 5.42847 3.03646 0
M  V30 30937 C 5341.81 7.41196 3.50753 0
M  V30 30938 O 5342.2 7.27073 4.86816 0
M  V30 30939 C 5342.69 6.5273 2.63741 0
M  V30 30940 C 5341.98 5.1842 2.73198 0
M  V30 30941 N 5342.03 4.38762 1.4784 0
M  V30 30942 H 5339.19 8.36803 2.32493 0
M  V30 30943 H 5338.92 6.70197 1.71129 0
M  V30 30944 H 5339.79 7.03551 4.13168 0
M  V30 30945 P 5343.75 7.20834 5.23717 0
M  V30 30946 O 5343.97 7.79853 6.57286 0
M  V30 30947 O 5344.54 7.79239 4.12957 0
M  V30 30948 O 5344 5.63315 5.29344 0
M  V30 30949 C 5343.06 4.80255 6.01876 0
M  V30 30950 C 5343.79 3.64202 6.65911 0
M  V30 30951 O 5344 2.60694 5.64732 0
M  V30 30952 C 5345.19 3.93473 7.1943 0
M  V30 30953 O 5345.58 3.02071 8.21205 0
M  V30 30954 C 5346.07 3.73047 5.97036 0
M  V30 30955 C 5345.36 2.58828 5.25741 0
M  V30 30956 N 5345.41 2.68068 3.77503 0
M  V30 30957 H 5342.57 5.40332 6.79951 0
M  V30 30958 H 5342.3 4.41613 5.32378 0
M  V30 30959 H 5343.17 3.26331 7.47797 0
M  V30 30960 P 5347.13 2.75334 8.47391 0
M  V30 30961 O 5347.35 2.44571 9.90142 0
M  V30 30962 O 5347.92 3.87688 7.92115 0
M  V30 30963 O 5347.38 1.4459 7.59357 0
M  V30 30964 C 5346.44 0.347608 7.69215 0
M  V30 30965 C 5347.17 -0.96767 7.52806 0
M  V30 30966 O 5347.38 -1.21036 6.1011 0
M  V30 30967 C 5348.57 -1.04544 8.13308 0
M  V30 30968 O 5348.96 -2.38311 8.41922 0
M  V30 30969 C 5349.45 -0.491279 7.02284 0
M  V30 30970 C 5348.74 -0.996264 5.77469 0
M  V30 30971 N 5348.79 -0.0501916 4.62973 0
M  V30 30972 H 5345.95 0.374722 8.67691 0
M  V30 30973 H 5345.68 0.443485 6.90277 0
M  V30 30974 H 5346.55 -1.75537 7.96793 0
M  V30 30975 P 5350.51 -2.75334 8.47391 0
M  V30 30976 O 5350.73 -3.84128 9.44797 0
M  V30 30977 O 5351.3 -1.51947 8.68712 0
M  V30 30978 O 5350.76 -3.29363 6.99321 0
M  V30 30979 C 5349.82 -4.24011 6.4274 0
M  V30 30980 C 5350.55 -5.20775 5.52155 0
M  V30 30981 O 5350.76 -4.56534 4.22446 0
M  V30 30982 C 5351.95 -5.62629 5.96531 0
M  V30 30983 O 5352.34 -6.87667 5.41053 0
M  V30 30984 C 5352.83 -4.52537 5.39283 0
M  V30 30985 C 5352.12 -4.20027 4.08623 0
M  V30 30986 N 5352.17 -2.76189 3.71603 0
M  V30 30987 H 5349.33 -4.797 7.24003 0
M  V30 30988 H 5349.06 -3.69856 5.84513 0
M  V30 30989 H 5349.93 -6.10356 5.41441 0
M  V30 30990 P 5353.89 -7.20834 5.23717 0
M  V30 30991 O 5354.11 -8.66274 5.38678 0
M  V30 30992 O 5354.68 -6.33687 6.13629 0
M  V30 30993 O 5354.14 -6.7751 3.72168 0
M  V30 30994 C 5353.2 -7.20919 2.70795 0
M  V30 30995 C 5353.93 -7.45864 1.40599 0
M  V30 30996 O 5354.14 -6.17751 0.734343 0
M  V30 30997 C 5355.33 -8.05906 1.51917 0
M  V30 30998 O 5355.72 -8.74358 0.335205 0
M  V30 30999 C 5356.21 -6.83093 1.70294 0
M  V30 31000 C 5355.5 -5.79992 0.836974 0
M  V30 31001 N 5355.55 -4.41864 1.38293 0
M  V30 31002 C 5355.47 -4.02089 2.69407 0
M  V30 31003 N 5355.54 -2.73403 2.85089 0
M  V30 31004 C 5355.69 -2.25086 1.5642 0
M  V30 31005 C 5355.82 -0.942887 1.04836 0
M  V30 31006 N 5355.83 0.150999 1.80369 0
M  V30 31007 N 5355.94 -0.812565 -0.28167 0
M  V30 31008 C 5355.93 -1.90572 -1.03784 0
M  V30 31009 N 5355.81 -3.167 -0.683905 0
M  V30 31010 C 5355.69 -3.26538 0.652815 0
M  V30 31011 H 5352.71 -8.13738 3.03804 0
M  V30 31012 H 5352.44 -6.42974 2.55559 0
M  V30 31013 H 5353.31 -8.12139 0.792866 0
M  V30 31014 H 5355.96 -5.80178 -0.160643 0
M  V30 31015 H 5356.24 -6.51379 2.75643 0
M  V30 31016 H 5357.23 -7.01832 1.3448 0
M  V30 31017 H 5355.4 -8.73771 2.38364 0
M  V30 31018 H 5355.36 -4.7189 3.52311 0
M  V30 31019 H 5355.74 0.0721434 2.82608 0
M  V30 31020 H 5355.93 1.0785 1.36544 0
M  V30 31021 H 5356.04 -1.73207 -2.10241 0
M  V30 31022 P 5357.27 -8.91 2.5026e-10 0
M  V30 31023 O 5357.49 -10.1726 -0.733694 0
M  V30 31024 O 5358.06 -8.73148 1.23936 0
M  V30 31025 O 5357.52 -7.66872 -0.971405 0
M  V30 31026 C 5356.58 -7.42309 -2.04641 0
M  V30 31027 C 5357.31 -6.86059 -3.24661 0
M  V30 31028 O 5357.52 -5.42847 -3.03646 0
M  V30 31029 C 5358.71 -7.41196 -3.50753 0
M  V30 31030 O 5359.1 -7.27073 -4.86816 0
M  V30 31031 C 5359.59 -6.5273 -2.63741 0
M  V30 31032 C 5358.88 -5.1842 -2.73198 0
M  V30 31033 N 5358.93 -4.38762 -1.4784 0
M  V30 31034 H 5356.09 -8.36803 -2.32493 0
M  V30 31035 H 5355.82 -6.70197 -1.71129 0
M  V30 31036 H 5356.69 -7.03551 -4.13168 0
M  V30 31037 P 5360.65 -7.20834 -5.23717 0
M  V30 31038 O 5360.87 -7.80006 -6.57415 0
M  V30 31039 O 5361.44 -7.79416 -4.13051 0
M  V30 31040 O 5360.9 -5.63315 -5.29344 0
M  V30 31041 C 5359.96 -4.80318 -6.01954 0
M  V30 31042 C 5360.69 -3.64202 -6.65911 0
M  V30 31043 O 5360.9 -2.60736 -5.64823 0
M  V30 31044 C 5362.09 -3.93521 -7.19518 0
M  V30 31045 O 5362.48 -3.02071 -8.21205 0
M  V30 31046 C 5362.97 -3.73047 -5.97036 0
M  V30 31047 C 5362.26 -2.58828 -5.25741 0
M  V30 31048 N 5362.31 -2.68068 -3.77503 0
M  V30 31049 C 5362.23 -3.80474 -2.99159 0
M  V30 31050 N 5362.3 -3.55622 -1.71925 0
M  V30 31051 C 5362.45 -2.1832 -1.65733 0
M  V30 31052 C 5362.58 -1.28842 -0.572777 0
M  V30 31053 N 5362.59 -1.66875 0.70098 0
M  V30 31054 N 5362.7 0.016788 -0.859836 0
M  V30 31055 C 5362.69 0.398145 -2.13316 0
M  V30 31056 N 5362.57 -0.328224 -3.22333 0
M  V30 31057 C 5362.45 -1.62992 -2.90383 0
M  V30 31058 H 5359.47 -5.40394 -6.8003 0
M  V30 31059 H 5359.2 -4.41741 -5.32532 0
M  V30 31060 H 5360.07 -3.26371 -7.47889 0
M  V30 31061 H 5362.72 -1.64007 -5.56746 0
M  V30 31062 H 5363 -4.63439 -5.3432 0
M  V30 31063 H 5363.99 -3.44776 -6.25925 0
M  V30 31064 H 5362.16 -4.96707 -7.57347 0
M  V30 31065 H 5362.12 -4.8089 -3.39924 0
M  V30 31066 H 5362.5 -2.66547 0.941919 0
M  V30 31067 H 5362.69 -0.965341 1.44766 0
M  V30 31068 H 5362.8 1.46427 -2.29697 0
M  V30 31069 P 5364.03 -2.75334 -8.47391 0
M  V30 31070 O 5364.25 -2.44571 -9.90142 0
M  V30 31071 O 5364.82 -3.87688 -7.92115 0
M  V30 31072 O 5364.28 -1.4459 -7.59357 0
M  V30 31073 C 5363.34 -0.347608 -7.69215 0
M  V30 31074 C 5364.07 0.96767 -7.52806 0
M  V30 31075 O 5364.28 1.21036 -6.1011 0
M  V30 31076 C 5365.47 1.04544 -8.13308 0
M  V30 31077 O 5365.86 2.38311 -8.41922 0
M  V30 31078 C 5366.35 0.491279 -7.02284 0
M  V30 31079 C 5365.64 0.996264 -5.77469 0
M  V30 31080 N 5365.69 0.0501916 -4.62973 0
M  V30 31081 H 5362.85 -0.374722 -8.67691 0
M  V30 31082 H 5362.58 -0.443485 -6.90277 0
M  V30 31083 H 5363.45 1.75537 -7.96793 0
M  V30 31084 P 5367.41 2.75334 -8.47391 0
M  V30 31085 O 5367.63 3.84128 -9.44797 0
M  V30 31086 O 5368.2 1.51947 -8.68712 0
M  V30 31087 O 5367.66 3.29363 -6.99321 0
M  V30 31088 C 5366.72 4.24011 -6.4274 0
M  V30 31089 C 5367.45 5.20775 -5.52155 0
M  V30 31090 O 5367.66 4.56534 -4.22446 0
M  V30 31091 C 5368.85 5.62629 -5.96531 0
M  V30 31092 O 5369.24 6.87667 -5.41053 0
M  V30 31093 C 5369.73 4.52537 -5.39283 0
M  V30 31094 C 5369.02 4.20027 -4.08623 0
M  V30 31095 N 5369.07 2.76189 -3.71603 0
M  V30 31096 C 5368.99 1.64862 -4.52822 0
M  V30 31097 N 5369.07 0.512671 -3.88633 0
M  V30 31098 C 5369.21 0.888083 -2.54977 0
M  V30 31099 C 5369.34 0.094668 -1.38677 0
M  V30 31100 O 5369.36 -1.13053 -1.28163 0
M  V30 31101 N 5369.46 0.890102 -0.232633 0
M  V30 31102 C 5369.46 2.26958 -0.21772 0
M  V30 31103 N 5369.59 2.84626 0.97925 0
M  V30 31104 N 5369.33 3.0178 -1.31033 0
M  V30 31105 C 5369.21 2.26781 -2.43843 0
M  V30 31106 H 5366.23 4.797 -7.24003 0
M  V30 31107 H 5365.96 3.69856 -5.84513 0
M  V30 31108 H 5366.83 6.10356 -5.41441 0
M  V30 31109 H 5369.48 4.79061 -3.27488 0
M  V30 31110 H 5369.76 3.64906 -6.05785 0
M  V30 31111 H 5370.75 4.8868 -5.2125 0
M  V30 31112 H 5368.92 5.66726 -7.06352 0
M  V30 31113 H 5368.87 1.71169 -5.60966 0
M  V30 31114 H 5369.55 0.419134 0.644739 0
M  V30 31115 H 5369.59 3.87332 1.06098 0
M  V30 31116 H 5369.69 2.26417 1.82483 0
M  V30 31117 P 5370.79 7.20834 -5.23717 0
M  V30 31118 O 5371.01 8.66104 -5.38572 0
M  V30 31119 O 5371.58 6.33544 -6.1349 0
M  V30 31120 O 5371.04 6.7751 -3.72168 0
M  V30 31121 C 5370.1 7.20825 -2.7076 0
M  V30 31122 C 5370.83 7.45864 -1.40599 0
M  V30 31123 O 5371.04 6.17651 -0.734225 0
M  V30 31124 C 5372.23 8.05808 -1.51899 0
M  V30 31125 O 5372.62 8.74358 -0.335205 0
M  V30 31126 C 5373.11 6.83093 -1.70294 0
M  V30 31127 C 5372.4 5.79992 -0.836974 0
M  V30 31128 N 5372.45 4.41864 -1.38293 0
M  V30 31129 H 5369.61 8.13644 -3.0377 0
M  V30 31130 H 5369.34 6.42788 -2.55485 0
M  V30 31131 H 5370.21 8.12039 -0.792769 0
M  V30 31132 P 5374.17 8.91 -2.51369e-10 0
M  V30 31133 O 5374.39 10.1726 0.733694 0
M  V30 31134 O 5374.96 8.73148 -1.23936 0
M  V30 31135 O 5374.42 7.66872 0.971405 0
M  V30 31136 C 5373.48 7.42309 2.04641 0
M  V30 31137 C 5374.21 6.86059 3.24661 0
M  V30 31138 O 5374.42 5.42847 3.03646 0
M  V30 31139 C 5375.61 7.41196 3.50753 0
M  V30 31140 O 5376 7.27073 4.86816 0
M  V30 31141 C 5376.49 6.5273 2.63741 0
M  V30 31142 C 5375.78 5.1842 2.73198 0
M  V30 31143 N 5375.83 4.38762 1.4784 0
M  V30 31144 H 5372.99 8.36803 2.32493 0
M  V30 31145 H 5372.72 6.70197 1.71129 0
M  V30 31146 H 5373.59 7.03551 4.13168 0
M  V30 31147 P 5377.55 7.20834 5.23717 0
M  V30 31148 O 5377.77 7.79853 6.57286 0
M  V30 31149 O 5378.34 7.79239 4.12957 0
M  V30 31150 O 5377.8 5.63315 5.29344 0
M  V30 31151 C 5376.86 4.80255 6.01876 0
M  V30 31152 C 5377.59 3.64202 6.65911 0
M  V30 31153 O 5377.8 2.60694 5.64732 0
M  V30 31154 C 5378.99 3.93473 7.1943 0
M  V30 31155 O 5379.38 3.02071 8.21205 0
M  V30 31156 C 5379.87 3.73047 5.97036 0
M  V30 31157 C 5379.16 2.58828 5.25741 0
M  V30 31158 N 5379.21 2.68068 3.77503 0
M  V30 31159 H 5376.37 5.40332 6.79951 0
M  V30 31160 H 5376.1 4.41613 5.32378 0
M  V30 31161 H 5376.97 3.26331 7.47797 0
M  V30 31162 P 5380.93 2.75334 8.47391 0
M  V30 31163 O 5381.15 2.44571 9.90142 0
M  V30 31164 O 5381.72 3.87688 7.92115 0
M  V30 31165 O 5381.18 1.4459 7.59357 0
M  V30 31166 C 5380.24 0.347608 7.69215 0
M  V30 31167 C 5380.97 -0.96767 7.52806 0
M  V30 31168 O 5381.18 -1.21036 6.1011 0
M  V30 31169 C 5382.37 -1.04544 8.13308 0
M  V30 31170 O 5382.76 -2.38311 8.41922 0
M  V30 31171 C 5383.25 -0.491279 7.02284 0
M  V30 31172 C 5382.54 -0.996264 5.77469 0
M  V30 31173 N 5382.59 -0.0501916 4.62973 0
M  V30 31174 H 5379.75 0.374722 8.67691 0
M  V30 31175 H 5379.48 0.443485 6.90277 0
M  V30 31176 H 5380.35 -1.75537 7.96793 0
M  V30 31177 P 5384.31 -2.75334 8.47391 0
M  V30 31178 O 5384.53 -3.84128 9.44797 0
M  V30 31179 O 5385.1 -1.51947 8.68712 0
M  V30 31180 O 5384.56 -3.29363 6.99321 0
M  V30 31181 C 5383.62 -4.24011 6.4274 0
M  V30 31182 C 5384.35 -5.20775 5.52155 0
M  V30 31183 O 5384.56 -4.56534 4.22446 0
M  V30 31184 C 5385.75 -5.62629 5.96531 0
M  V30 31185 O 5386.14 -6.87667 5.41053 0
M  V30 31186 C 5386.63 -4.52537 5.39283 0
M  V30 31187 C 5385.92 -4.20027 4.08623 0
M  V30 31188 N 5385.97 -2.76189 3.71603 0
M  V30 31189 H 5383.13 -4.797 7.24003 0
M  V30 31190 H 5382.86 -3.69856 5.84513 0
M  V30 31191 H 5383.73 -6.10356 5.41441 0
M  V30 31192 P 5387.69 -7.20834 5.23717 0
M  V30 31193 O 5387.91 -8.66189 5.38625 0
M  V30 31194 O 5388.48 -6.33615 6.1356 0
M  V30 31195 O 5387.94 -6.7751 3.72168 0
M  V30 31196 C 5387 -7.20825 2.7076 0
M  V30 31197 C 5387.73 -7.45864 1.40599 0
M  V30 31198 O 5387.94 -6.17651 0.734225 0
M  V30 31199 C 5389.13 -8.05808 1.51899 0
M  V30 31200 O 5389.52 -8.74358 0.335205 0
M  V30 31201 C 5390.01 -6.83093 1.70294 0
M  V30 31202 C 5389.3 -5.79992 0.836974 0
M  V30 31203 N 5389.35 -4.41769 1.38263 0
M  V30 31204 C 5389.5 -3.36514 0.485617 0
M  V30 31205 O 5389.59 -3.61814 -0.724703 0
M  V30 31206 N 5389.55 -2.00746 1.14492 0
M  V30 31207 C 5389.45 -1.85887 2.27776 0
M  V30 31208 N 5389.5 -0.600907 2.69379 0
M  V30 31209 C 5389.3 -2.92182 3.22265 0
M  V30 31210 C 5389.25 -4.18399 2.71925 0
M  V30 31211 H 5386.51 -8.1355 3.03735 0
M  V30 31212 H 5386.24 -6.42695 2.55448 0
M  V30 31213 H 5387.11 -8.12139 0.792866 0
M  V30 31214 H 5389.76 -5.80078 -0.160615 0
M  V30 31215 H 5390.04 -6.51379 2.75643 0
M  V30 31216 H 5391.03 -7.01734 1.34462 0
M  V30 31217 H 5389.2 -8.73674 2.38337 0
M  V30 31218 H 5389.13 -5.02669 3.39718 0
M  V30 31219 H 5389.23 -2.73001 4.29239 0
M  V30 31220 H 5389.62 0.162318 2.01146 0
M  V30 31221 H 5389.42 -0.387742 3.69773 0
M  V30 31222 P 5391.07 -8.91 2.52478e-10 0
M  V30 31223 O 5391.29 -10.1746 -0.733838 0
M  V30 31224 O 5391.86 -8.73346 1.23964 0
M  V30 31225 O 5391.32 -7.66872 -0.971405 0
M  V30 31226 C 5390.38 -7.42405 -2.04668 0
M  V30 31227 C 5391.11 -6.86059 -3.24661 0
M  V30 31228 O 5391.32 -5.42934 -3.03695 0
M  V30 31229 C 5392.51 -7.41287 -3.50796 0
M  V30 31230 O 5392.9 -7.27073 -4.86816 0
M  V30 31231 C 5393.39 -6.5273 -2.63741 0
M  V30 31232 C 5392.68 -5.1842 -2.73198 0
M  V30 31233 N 5392.73 -4.38762 -1.4784 0
M  V30 31234 H 5389.89 -8.36899 -2.3252 0
M  V30 31235 H 5389.62 -6.70391 -1.71179 0
M  V30 31236 H 5390.49 -7.03638 -4.13219 0
M  V30 31237 H 5393.14 -4.59931 -3.54016 0
M  V30 31238 H 5393.42 -6.88995 -1.59871 0
M  V30 31239 H 5394.41 -6.4684 -3.0373 0
M  V30 31240 H 5392.58 -8.47002 -3.20749 0
M  V30 31241 P 5394.45 -7.20834 -5.23717 0
M  V30 31242 O 5394.67 -7.79853 -6.57286 0
M  V30 31243 O 5395.24 -7.79239 -4.12957 0
M  V30 31244 O 5394.7 -5.63315 -5.29344 0
M  V30 31245 C 5393.76 -4.80255 -6.01876 0
M  V30 31246 C 5394.49 -3.64202 -6.65911 0
M  V30 31247 O 5394.7 -2.60694 -5.64732 0
M  V30 31248 C 5395.89 -3.93473 -7.1943 0
M  V30 31249 O 5396.28 -3.02071 -8.21205 0
M  V30 31250 C 5396.77 -3.73047 -5.97036 0
M  V30 31251 C 5396.06 -2.58828 -5.25741 0
M  V30 31252 N 5396.11 -2.68068 -3.77503 0
M  V30 31253 H 5393.27 -5.40332 -6.79951 0
M  V30 31254 H 5393 -4.41613 -5.32378 0
M  V30 31255 H 5393.87 -3.26331 -7.47797 0
M  V30 31256 P 5397.83 -2.75334 -8.47391 0
M  V30 31257 O 5398.05 -2.44619 -9.90336 0
M  V30 31258 O 5398.62 -3.87776 -7.92294 0
M  V30 31259 O 5398.08 -1.4459 -7.59357 0
M  V30 31260 C 5397.14 -0.347653 -7.69315 0
M  V30 31261 C 5397.87 0.96767 -7.52806 0
M  V30 31262 O 5398.08 1.21055 -6.10208 0
M  V30 31263 C 5399.27 1.04557 -8.13408 0
M  V30 31264 O 5399.66 2.38311 -8.41922 0
M  V30 31265 C 5400.15 0.491279 -7.02284 0
M  V30 31266 C 5399.44 0.996264 -5.77469 0
M  V30 31267 N 5399.49 0.0501916 -4.62973 0
M  V30 31268 C 5399.41 -1.31969 -4.65661 0
M  V30 31269 N 5399.48 -1.86649 -3.48119 0
M  V30 31270 C 5399.63 -0.792089 -2.62406 0
M  V30 31271 C 5399.76 -0.705684 -1.2207 0
M  V30 31272 N 5399.77 -1.76207 -0.413762 0
M  V30 31273 N 5399.88 0.518981 -0.685754 0
M  V30 31274 C 5399.87 1.57595 -1.49174 0
M  V30 31275 N 5399.75 1.62909 -2.80066 0
M  V30 31276 C 5399.63 0.388195 -3.3073 0
M  V30 31277 H 5396.65 -0.374765 -8.67791 0
M  V30 31278 H 5396.38 -0.443613 -6.90476 0
M  V30 31279 H 5397.25 1.75559 -7.96891 0
M  V30 31280 H 5399.9 1.94563 -5.46818 0
M  V30 31281 H 5400.18 -0.608651 -7.04676 0
M  V30 31282 H 5401.17 0.889796 -7.09039 0
M  V30 31283 H 5399.34 0.433128 -9.04664 0
M  V30 31284 H 5399.3 -1.89246 -5.57664 0
M  V30 31285 H 5399.68 -2.71005 -0.804694 0
M  V30 31286 H 5399.87 -1.63189 0.603768 0
M  V30 31287 H 5399.98 2.53475 -0.997614 0
M  V30 31288 P 5401.21 2.75334 -8.47391 0
M  V30 31289 O 5401.43 3.84128 -9.44797 0
M  V30 31290 O 5402 1.51947 -8.68712 0
M  V30 31291 O 5401.46 3.29363 -6.99321 0
M  V30 31292 C 5400.52 4.24011 -6.4274 0
M  V30 31293 C 5401.25 5.20775 -5.52155 0
M  V30 31294 O 5401.46 4.56534 -4.22446 0
M  V30 31295 C 5402.65 5.62629 -5.96531 0
M  V30 31296 O 5403.04 6.87667 -5.41053 0
M  V30 31297 C 5403.53 4.52537 -5.39283 0
M  V30 31298 C 5402.82 4.20027 -4.08623 0
M  V30 31299 N 5402.87 2.76189 -3.71603 0
M  V30 31300 H 5400.03 4.797 -7.24003 0
M  V30 31301 H 5399.76 3.69856 -5.84513 0
M  V30 31302 H 5400.63 6.10356 -5.41441 0
M  V30 31303 P 5404.59 7.20834 -5.23717 0
M  V30 31304 O 5404.81 8.66274 -5.38678 0
M  V30 31305 O 5405.38 6.33687 -6.13629 0
M  V30 31306 O 5404.84 6.7751 -3.72168 0
M  V30 31307 C 5403.9 7.20919 -2.70795 0
M  V30 31308 C 5404.63 7.45864 -1.40599 0
M  V30 31309 O 5404.84 6.17751 -0.734343 0
M  V30 31310 C 5406.03 8.05906 -1.51917 0
M  V30 31311 O 5406.42 8.74358 -0.335205 0
M  V30 31312 C 5406.91 6.83093 -1.70294 0
M  V30 31313 C 5406.2 5.79992 -0.836974 0
M  V30 31314 N 5406.25 4.41864 -1.38293 0
M  V30 31315 C 5406.17 4.02089 -2.69407 0
M  V30 31316 N 5406.24 2.73403 -2.85089 0
M  V30 31317 C 5406.39 2.25086 -1.5642 0
M  V30 31318 C 5406.52 0.942887 -1.04836 0
M  V30 31319 N 5406.53 -0.150999 -1.80369 0
M  V30 31320 N 5406.64 0.812565 0.28167 0
M  V30 31321 C 5406.63 1.90572 1.03784 0
M  V30 31322 N 5406.51 3.167 0.683905 0
M  V30 31323 C 5406.39 3.26538 -0.652815 0
M  V30 31324 H 5403.41 8.13738 -3.03804 0
M  V30 31325 H 5403.14 6.42974 -2.55559 0
M  V30 31326 H 5404.01 8.12139 -0.792866 0
M  V30 31327 H 5406.66 5.80178 0.160643 0
M  V30 31328 H 5406.94 6.51379 -2.75643 0
M  V30 31329 H 5407.93 7.01832 -1.3448 0
M  V30 31330 H 5406.1 8.73771 -2.38364 0
M  V30 31331 H 5406.06 4.7189 -3.52311 0
M  V30 31332 H 5406.44 -0.0721434 -2.82608 0
M  V30 31333 H 5406.63 -1.0785 -1.36544 0
M  V30 31334 H 5406.74 1.73207 2.10241 0
M  V30 31335 P 5407.97 8.91 -2.53587e-10 0
M  V30 31336 O 5408.19 10.1726 0.733694 0
M  V30 31337 O 5408.76 8.73148 -1.23936 0
M  V30 31338 O 5408.22 7.66872 0.971405 0
M  V30 31339 C 5407.28 7.42309 2.04641 0
M  V30 31340 C 5408.01 6.86059 3.24661 0
M  V30 31341 O 5408.22 5.42847 3.03646 0
M  V30 31342 C 5409.41 7.41196 3.50753 0
M  V30 31343 O 5409.8 7.27073 4.86816 0
M  V30 31344 C 5410.29 6.5273 2.63741 0
M  V30 31345 C 5409.58 5.1842 2.73198 0
M  V30 31346 N 5409.63 4.38762 1.4784 0
M  V30 31347 C 5409.55 4.81605 0.168631 0
M  V30 31348 N 5409.63 3.85454 -0.713363 0
M  V30 31349 C 5409.77 2.6994 0.0566958 0
M  V30 31350 C 5409.9 1.34815 -0.338502 0
M  V30 31351 N 5410.02 0.496304 0.77465 0
M  V30 31352 C 5410.02 0.908403 2.09122 0
M  V30 31353 N 5410.15 -0.0517805 3.00955 0
M  V30 31354 N 5409.89 2.17875 2.46519 0
M  V30 31355 C 5409.77 3.01988 1.4033 0
M  V30 31356 H 5406.79 8.36803 2.32493 0
M  V30 31357 H 5406.52 6.70197 1.71129 0
M  V30 31358 H 5407.39 7.03551 4.13168 0
M  V30 31359 P 5411.35 7.20834 5.23717 0
M  V30 31360 O 5411.57 7.79853 6.57286 0
M  V30 31361 O 5412.14 7.79239 4.12957 0
M  V30 31362 O 5411.6 5.63315 5.29344 0
M  V30 31363 C 5410.66 4.80255 6.01876 0
M  V30 31364 C 5411.39 3.64202 6.65911 0
M  V30 31365 O 5411.6 2.60694 5.64732 0
M  V30 31366 C 5412.79 3.93473 7.1943 0
M  V30 31367 O 5413.18 3.02071 8.21205 0
M  V30 31368 C 5413.67 3.73047 5.97036 0
M  V30 31369 C 5412.96 2.58828 5.25741 0
M  V30 31370 N 5413.01 2.68068 3.77503 0
M  V30 31371 H 5410.17 5.40332 6.79951 0
M  V30 31372 H 5409.9 4.41613 5.32378 0
M  V30 31373 H 5410.77 3.26331 7.47797 0
M  V30 31374 P 5414.73 2.75334 8.47391 0
M  V30 31375 O 5414.95 2.44571 9.90142 0
M  V30 31376 O 5415.52 3.87688 7.92115 0
M  V30 31377 O 5414.98 1.4459 7.59357 0
M  V30 31378 C 5414.04 0.347608 7.69215 0
M  V30 31379 C 5414.77 -0.96767 7.52806 0
M  V30 31380 O 5414.98 -1.21036 6.1011 0
M  V30 31381 C 5416.17 -1.04544 8.13308 0
M  V30 31382 O 5416.56 -2.38311 8.41922 0
M  V30 31383 C 5417.05 -0.491279 7.02284 0
M  V30 31384 C 5416.34 -0.996264 5.77469 0
M  V30 31385 N 5416.39 -0.0501916 4.62973 0
M  V30 31386 H 5413.55 0.374722 8.67691 0
M  V30 31387 H 5413.28 0.443485 6.90277 0
M  V30 31388 H 5414.15 -1.75537 7.96793 0
M  V30 31389 P 5418.11 -2.75334 8.47391 0
M  V30 31390 O 5418.33 -3.84204 9.44982 0
M  V30 31391 O 5418.9 -1.51982 8.68909 0
M  V30 31392 O 5418.36 -3.29363 6.99321 0
M  V30 31393 C 5417.42 -4.24066 6.42823 0
M  V30 31394 C 5418.15 -5.20775 5.52155 0
M  V30 31395 O 5418.36 -4.56607 4.22514 0
M  V30 31396 C 5419.55 -5.62697 5.96604 0
M  V30 31397 O 5419.94 -6.87667 5.41053 0
M  V30 31398 C 5420.43 -4.52537 5.39283 0
M  V30 31399 C 5419.72 -4.20027 4.08623 0
M  V30 31400 N 5419.77 -2.76189 3.71603 0
M  V30 31401 C 5419.69 -1.66944 4.54297 0
M  V30 31402 N 5419.76 -0.536169 3.91344 0
M  V30 31403 C 5419.91 -0.901569 2.58849 0
M  V30 31404 C 5420.04 -0.146599 1.40236 0
M  V30 31405 N 5420.05 1.18234 1.37046 0
M  V30 31406 N 5420.16 -0.822941 0.249738 0
M  V30 31407 C 5420.15 -2.15179 0.280525 0
M  V30 31408 N 5420.03 -2.96414 1.30822 0
M  V30 31409 C 5419.91 -2.25804 2.44748 0
M  V30 31410 H 5416.93 -4.79756 7.24086 0
M  V30 31411 H 5416.66 -3.69963 5.84682 0
M  V30 31412 H 5417.53 -6.10431 5.41508 0
M  V30 31413 H 5420.18 -4.78816 3.28024 0
M  V30 31414 H 5420.46 -3.64957 6.05871 0
M  V30 31415 H 5421.45 -4.88748 5.21323 0
M  V30 31416 H 5419.62 -5.66789 7.0643 0
M  V30 31417 H 5419.58 -1.74684 5.62396 0
M  V30 31418 H 5419.96 1.71949 2.24394 0
M  V30 31419 H 5420.15 1.67511 0.470742 0
M  V30 31420 H 5420.25 -2.63704 -0.6828 0
M  V30 31421 P 5421.49 -7.20834 5.23717 0
M  V30 31422 O 5421.71 -8.66104 5.38572 0
M  V30 31423 O 5422.28 -6.33544 6.1349 0
M  V30 31424 O 5421.74 -6.7751 3.72168 0
M  V30 31425 C 5420.8 -7.20825 2.7076 0
M  V30 31426 C 5421.53 -7.45864 1.40599 0
M  V30 31427 O 5421.74 -6.17651 0.734225 0
M  V30 31428 C 5422.93 -8.05808 1.51899 0
M  V30 31429 O 5423.32 -8.74358 0.335205 0
M  V30 31430 C 5423.81 -6.83093 1.70294 0
M  V30 31431 C 5423.1 -5.79992 0.836974 0
M  V30 31432 N 5423.15 -4.41864 1.38293 0
M  V30 31433 H 5420.31 -8.13644 3.0377 0
M  V30 31434 H 5420.04 -6.42788 2.55485 0
M  V30 31435 H 5420.91 -8.12039 0.792769 0
M  V30 31436 P 5424.87 -8.91 2.54696e-10 0
M  V30 31437 O 5425.09 -10.1746 -0.733838 0
M  V30 31438 O 5425.66 -8.73346 1.23964 0
M  V30 31439 O 5425.12 -7.66872 -0.971405 0
M  V30 31440 C 5424.18 -7.42405 -2.04668 0
M  V30 31441 C 5424.91 -6.86059 -3.24661 0
M  V30 31442 O 5425.12 -5.42934 -3.03695 0
M  V30 31443 C 5426.31 -7.41287 -3.50796 0
M  V30 31444 O 5426.7 -7.27073 -4.86816 0
M  V30 31445 C 5427.19 -6.5273 -2.63741 0
M  V30 31446 C 5426.48 -5.1842 -2.73198 0
M  V30 31447 N 5426.53 -4.38762 -1.4784 0
M  V30 31448 C 5426.45 -4.83651 -0.183876 0
M  V30 31449 N 5426.52 -3.88759 0.699393 0
M  V30 31450 C 5426.67 -2.7404 -0.0575568 0
M  V30 31451 C 5426.8 -1.37902 0.293928 0
M  V30 31452 N 5426.81 -0.938021 1.54797 0
M  V30 31453 N 5426.92 -0.491817 -0.70549 0
M  V30 31454 C 5426.91 -0.931735 -1.95979 0
M  V30 31455 N 5426.79 -2.16017 -2.41481 0
M  V30 31456 C 5426.67 -3.02547 -1.39121 0
M  V30 31457 H 5423.69 -8.36899 -2.3252 0
M  V30 31458 H 5423.42 -6.70391 -1.71179 0
M  V30 31459 H 5424.29 -7.03638 -4.13219 0
M  V30 31460 H 5426.94 -4.59931 -3.54016 0
M  V30 31461 H 5427.22 -6.88995 -1.59871 0
M  V30 31462 H 5428.21 -6.4684 -3.0373 0
M  V30 31463 H 5426.38 -8.47002 -3.20749 0
M  V30 31464 H 5426.34 -5.8885 0.0765548 0
M  V30 31465 H 5426.72 -1.60276 2.32875 0
M  V30 31466 H 5426.91 0.0699355 1.73859 0
M  V30 31467 H 5427.01 -0.165507 -2.71897 0
M  V30 31468 P 5428.25 -7.20834 -5.23717 0
M  V30 31469 O 5428.47 -7.79853 -6.57286 0
M  V30 31470 O 5429.04 -7.79239 -4.12957 0
M  V30 31471 O 5428.5 -5.63315 -5.29344 0
M  V30 31472 C 5427.56 -4.80255 -6.01876 0
M  V30 31473 C 5428.29 -3.64202 -6.65911 0
M  V30 31474 O 5428.5 -2.60694 -5.64732 0
M  V30 31475 C 5429.69 -3.93473 -7.1943 0
M  V30 31476 O 5430.08 -3.02071 -8.21205 0
M  V30 31477 C 5430.57 -3.73047 -5.97036 0
M  V30 31478 C 5429.86 -2.58828 -5.25741 0
M  V30 31479 N 5429.91 -2.68068 -3.77503 0
M  V30 31480 H 5427.07 -5.40332 -6.79951 0
M  V30 31481 H 5426.8 -4.41613 -5.32378 0
M  V30 31482 H 5427.67 -3.26331 -7.47797 0
M  V30 31483 P 5431.63 -2.75334 -8.47391 0
M  V30 31484 O 5431.85 -2.44571 -9.90142 0
M  V30 31485 O 5432.42 -3.87688 -7.92115 0
M  V30 31486 O 5431.88 -1.4459 -7.59357 0
M  V30 31487 C 5430.94 -0.347608 -7.69215 0
M  V30 31488 C 5431.67 0.96767 -7.52806 0
M  V30 31489 O 5431.88 1.21036 -6.1011 0
M  V30 31490 C 5433.07 1.04544 -8.13308 0
M  V30 31491 O 5433.46 2.38311 -8.41922 0
M  V30 31492 C 5433.95 0.491279 -7.02284 0
M  V30 31493 C 5433.24 0.996264 -5.77469 0
M  V30 31494 N 5433.29 0.0501916 -4.62973 0
M  V30 31495 H 5430.45 -0.374722 -8.67691 0
M  V30 31496 H 5430.18 -0.443485 -6.90277 0
M  V30 31497 H 5431.05 1.75537 -7.96793 0
M  V30 31498 P 5435.01 2.75334 -8.47391 0
M  V30 31499 O 5435.23 3.84128 -9.44797 0
M  V30 31500 O 5435.8 1.51947 -8.68712 0
M  V30 31501 O 5435.26 3.29363 -6.99321 0
M  V30 31502 C 5434.32 4.24011 -6.4274 0
M  V30 31503 C 5435.05 5.20775 -5.52155 0
M  V30 31504 O 5435.26 4.56534 -4.22446 0
M  V30 31505 C 5436.45 5.62629 -5.96531 0
M  V30 31506 O 5436.84 6.87667 -5.41053 0
M  V30 31507 C 5437.33 4.52537 -5.39283 0
M  V30 31508 C 5436.62 4.20027 -4.08623 0
M  V30 31509 N 5436.67 2.76189 -3.71603 0
M  V30 31510 H 5433.83 4.797 -7.24003 0
M  V30 31511 H 5433.56 3.69856 -5.84513 0
M  V30 31512 H 5434.43 6.10356 -5.41441 0
M  V30 31513 P 5438.39 7.20834 -5.23717 0
M  V30 31514 O 5438.61 8.66104 -5.38572 0
M  V30 31515 O 5439.18 6.33544 -6.1349 0
M  V30 31516 O 5438.64 6.7751 -3.72168 0
M  V30 31517 C 5437.7 7.20825 -2.7076 0
M  V30 31518 C 5438.43 7.45864 -1.40599 0
M  V30 31519 O 5438.64 6.17651 -0.734225 0
M  V30 31520 C 5439.83 8.05808 -1.51899 0
M  V30 31521 O 5440.22 8.74358 -0.335205 0
M  V30 31522 C 5440.71 6.83093 -1.70294 0
M  V30 31523 C 5440 5.79992 -0.836974 0
M  V30 31524 N 5440.05 4.41864 -1.38293 0
M  V30 31525 H 5437.21 8.13644 -3.0377 0
M  V30 31526 H 5436.94 6.42788 -2.55485 0
M  V30 31527 H 5437.81 8.12039 -0.792769 0
M  V30 31528 P 5441.77 8.91 -2.55805e-10 0
M  V30 31529 O 5441.99 10.1726 0.733694 0
M  V30 31530 O 5442.56 8.73148 -1.23936 0
M  V30 31531 O 5442.02 7.66872 0.971405 0
M  V30 31532 C 5441.08 7.42309 2.04641 0
M  V30 31533 C 5441.81 6.86059 3.24661 0
M  V30 31534 O 5442.02 5.42847 3.03646 0
M  V30 31535 C 5443.21 7.41196 3.50753 0
M  V30 31536 O 5443.6 7.27073 4.86816 0
M  V30 31537 C 5444.09 6.5273 2.63741 0
M  V30 31538 C 5443.38 5.1842 2.73198 0
M  V30 31539 N 5443.43 4.38762 1.4784 0
M  V30 31540 H 5440.59 8.36803 2.32493 0
M  V30 31541 H 5440.32 6.70197 1.71129 0
M  V30 31542 H 5441.19 7.03551 4.13168 0
M  V30 31543 P 5445.15 7.20834 5.23717 0
M  V30 31544 O 5445.37 7.79853 6.57286 0
M  V30 31545 O 5445.94 7.79239 4.12957 0
M  V30 31546 O 5445.4 5.63315 5.29344 0
M  V30 31547 C 5444.46 4.80255 6.01876 0
M  V30 31548 C 5445.19 3.64202 6.65911 0
M  V30 31549 O 5445.4 2.60694 5.64732 0
M  V30 31550 C 5446.59 3.93473 7.1943 0
M  V30 31551 O 5446.98 3.02071 8.21205 0
M  V30 31552 C 5447.47 3.73047 5.97036 0
M  V30 31553 C 5446.76 2.58828 5.25741 0
M  V30 31554 N 5446.81 2.68068 3.77503 0
M  V30 31555 H 5443.97 5.40332 6.79951 0
M  V30 31556 H 5443.7 4.41613 5.32378 0
M  V30 31557 H 5444.57 3.26331 7.47797 0
M  V30 31558 P 5448.53 2.75334 8.47391 0
M  V30 31559 O 5448.75 2.44619 9.90336 0
M  V30 31560 O 5449.32 3.87776 7.92294 0
M  V30 31561 O 5448.78 1.4459 7.59357 0
M  V30 31562 C 5447.84 0.347653 7.69315 0
M  V30 31563 C 5448.57 -0.96767 7.52806 0
M  V30 31564 O 5448.78 -1.21055 6.10208 0
M  V30 31565 C 5449.97 -1.04557 8.13408 0
M  V30 31566 O 5450.36 -2.38311 8.41922 0
M  V30 31567 C 5450.85 -0.491279 7.02284 0
M  V30 31568 C 5450.14 -0.996264 5.77469 0
M  V30 31569 N 5450.19 -0.0501916 4.62973 0
M  V30 31570 C 5450.11 1.31969 4.65661 0
M  V30 31571 N 5450.18 1.86649 3.48119 0
M  V30 31572 C 5450.33 0.792089 2.62406 0
M  V30 31573 C 5450.46 0.705684 1.2207 0
M  V30 31574 N 5450.47 1.76207 0.413762 0
M  V30 31575 N 5450.58 -0.518981 0.685754 0
M  V30 31576 C 5450.57 -1.57595 1.49174 0
M  V30 31577 N 5450.45 -1.62909 2.80066 0
M  V30 31578 C 5450.33 -0.388195 3.3073 0
M  V30 31579 H 5447.35 0.374765 8.67791 0
M  V30 31580 H 5447.08 0.443613 6.90476 0
M  V30 31581 H 5447.95 -1.75559 7.96891 0
M  V30 31582 H 5450.6 -1.94563 5.46818 0
M  V30 31583 H 5450.88 0.608651 7.04676 0
M  V30 31584 H 5451.87 -0.889796 7.09039 0
M  V30 31585 H 5450.04 -0.433128 9.04664 0
M  V30 31586 H 5450 1.89246 5.57664 0
M  V30 31587 H 5450.38 2.71005 0.804694 0
M  V30 31588 H 5450.57 1.63189 -0.603768 0
M  V30 31589 H 5450.67 -2.53475 0.997614 0
M  V30 31590 P 5451.91 -2.75334 8.47391 0
M  V30 31591 O 5452.13 -3.84204 9.44982 0
M  V30 31592 O 5452.7 -1.51982 8.68909 0
M  V30 31593 O 5452.16 -3.29363 6.99321 0
M  V30 31594 C 5451.22 -4.24066 6.42823 0
M  V30 31595 C 5451.95 -5.20775 5.52155 0
M  V30 31596 O 5452.16 -4.56607 4.22514 0
M  V30 31597 C 5453.35 -5.62697 5.96604 0
M  V30 31598 O 5453.74 -6.87667 5.41053 0
M  V30 31599 C 5454.23 -4.52537 5.39283 0
M  V30 31600 C 5453.52 -4.20027 4.08623 0
M  V30 31601 N 5453.57 -2.76189 3.71603 0
M  V30 31602 C 5453.49 -1.66944 4.54297 0
M  V30 31603 N 5453.56 -0.536169 3.91344 0
M  V30 31604 C 5453.71 -0.901569 2.58849 0
M  V30 31605 C 5453.84 -0.146599 1.40236 0
M  V30 31606 N 5453.85 1.18234 1.37046 0
M  V30 31607 N 5453.96 -0.822941 0.249738 0
M  V30 31608 C 5453.95 -2.15179 0.280525 0
M  V30 31609 N 5453.83 -2.96414 1.30822 0
M  V30 31610 C 5453.71 -2.25804 2.44748 0
M  V30 31611 H 5450.73 -4.79756 7.24086 0
M  V30 31612 H 5450.46 -3.69963 5.84682 0
M  V30 31613 H 5451.33 -6.10431 5.41508 0
M  V30 31614 H 5453.98 -4.78816 3.28024 0
M  V30 31615 H 5454.26 -3.64957 6.05871 0
M  V30 31616 H 5455.25 -4.88748 5.21323 0
M  V30 31617 H 5453.42 -5.66789 7.0643 0
M  V30 31618 H 5453.38 -1.74684 5.62396 0
M  V30 31619 H 5453.76 1.71949 2.24394 0
M  V30 31620 H 5453.95 1.67511 0.470742 0
M  V30 31621 H 5454.05 -2.63704 -0.6828 0
M  V30 31622 P 5455.29 -7.20834 5.23717 0
M  V30 31623 O 5455.51 -8.66104 5.38572 0
M  V30 31624 O 5456.08 -6.33544 6.1349 0
M  V30 31625 O 5455.54 -6.7751 3.72168 0
M  V30 31626 C 5454.6 -7.20825 2.7076 0
M  V30 31627 C 5455.33 -7.45864 1.40599 0
M  V30 31628 O 5455.54 -6.17651 0.734225 0
M  V30 31629 C 5456.73 -8.05808 1.51899 0
M  V30 31630 O 5457.12 -8.74358 0.335205 0
M  V30 31631 C 5457.61 -6.83093 1.70294 0
M  V30 31632 C 5456.9 -5.79992 0.836974 0
M  V30 31633 N 5456.95 -4.41864 1.38293 0
M  V30 31634 H 5454.11 -8.13644 3.0377 0
M  V30 31635 H 5453.84 -6.42788 2.55485 0
M  V30 31636 H 5454.71 -8.12039 0.792769 0
M  V30 31637 P 5458.67 -8.91 2.56914e-10 0
M  V30 31638 O 5458.89 -10.1726 -0.733694 0
M  V30 31639 O 5459.46 -8.73148 1.23936 0
M  V30 31640 O 5458.92 -7.66872 -0.971405 0
M  V30 31641 C 5457.98 -7.42309 -2.04641 0
M  V30 31642 C 5458.71 -6.86059 -3.24661 0
M  V30 31643 O 5458.92 -5.42847 -3.03646 0
M  V30 31644 C 5460.11 -7.41196 -3.50753 0
M  V30 31645 O 5460.5 -7.27073 -4.86816 0
M  V30 31646 C 5460.99 -6.5273 -2.63741 0
M  V30 31647 C 5460.28 -5.1842 -2.73198 0
M  V30 31648 N 5460.33 -4.38762 -1.4784 0
M  V30 31649 H 5457.49 -8.36803 -2.32493 0
M  V30 31650 H 5457.22 -6.70197 -1.71129 0
M  V30 31651 H 5458.09 -7.03551 -4.13168 0
M  V30 31652 H 5460.37 -6.36132 -5.14416 0
M  V30 31653 H 5464.39 9.0732 2.85239 0
M  V30 31654 O 5464.27 8.67639 2.00036 0
M  V30 31655 P 5462.83 8.7635 1.60911 0
M  V30 31656 O 5462.61 10.1388 1.11561 0
M  V30 31657 O 5462.04 8.36503 2.79617 0
M  V30 31658 O 5462.58 7.71806 0.42951 0
M  V30 31659 C 5463.52 7.67148 -0.673689 0
M  V30 31660 C 5462.79 7.33374 -1.95559 0
M  V30 31661 O 5462.58 5.88721 -2.00726 0
M  V30 31662 C 5461.39 7.92526 -2.10483 0
M  V30 31663 O 5461 8.02971 -3.47653 0
M  V30 31664 C 5460.51 6.89602 -1.41652 0
M  V30 31665 C 5461.22 5.59201 -1.75185 0
M  V30 31666 N 5461.17 4.58301 -0.657969 0
M  V30 31667 H 5464.01 8.65116 -0.777161 0
M  V30 31668 H 5464.28 6.9022 -0.46725 0
M  V30 31669 H 5463.41 7.66548 -2.79458 0
M  V30 31670 H 5460.76 5.16165 -2.65183 0
M  V30 31671 H 5460.48 7.06433 -0.329384 0
M  V30 31672 H 5459.48 6.90926 -1.82021 0
M  V30 31673 H 5461.32 8.90873 -1.62657 0
M  V30 31674 P 5459.45 8.03563 -3.84925 0
M  V30 31675 O 5459.23 8.85821 -5.0569 0
M  V30 31676 O 5458.66 8.41101 -2.65469 0
M  V30 31677 O 5459.2 6.4965 -4.18908 0
M  V30 31678 C 5460.14 5.81037 -5.05421 0
M  V30 31679 C 5459.41 4.78366 -5.89277 0
M  V30 31680 O 5459.2 3.58302 -5.08433 0
M  V30 31681 C 5458.01 5.17448 -6.36119 0
M  V30 31682 O 5457.62 4.45271 -7.53232 0
M  V30 31683 C 5457.13 4.74639 -5.19936 0
M  V30 31684 C 5457.84 3.49432 -4.70418 0
M  V30 31685 N 5457.79 3.32099 -3.22613 0
M  V30 31686 H 5460.63 6.54213 -5.71376 0
M  V30 31687 H 5460.9 5.30936 -4.43503 0
M  V30 31688 H 5460.03 4.55889 -6.76652 0
M  V30 31689 H 5457.38 2.61715 -5.17932 0
M  V30 31690 H 5457.1 5.52155 -4.41878 0
M  V30 31691 H 5456.1 4.51981 -5.53374 0
M  V30 31692 H 5457.94 6.25124 -6.55234 0
M  V30 31693 P 5456.07 4.23843 -7.83734 0
M  V30 31694 O 5455.85 4.19407 -9.29784 0
M  V30 31695 O 5455.28 5.24426 -7.09156 0
M  V30 31696 O 5455.82 2.7935 -7.20758 0
M  V30 31697 C 5456.76 1.72945 -7.50224 0
M  V30 31698 C 5456.03 0.406376 -7.57911 0
M  V30 31699 O 5455.82 -0.0897726 -6.21935 0
M  V30 31700 C 5454.63 0.438983 -8.18724 0
M  V30 31701 O 5454.24 -0.825065 -8.71101 0
M  V30 31702 C 5453.75 0.783689 -6.99524 0
M  V30 31703 C 5454.46 0.0619086 -5.85867 0
M  V30 31704 N 5454.41 0.78573 -4.56183 0
M  V30 31705 C 5454.26 0.0292889 -3.41887 0
M  V30 31706 O 5454.17 -1.18445 -3.4419 0
M  V30 31707 N 5454.22 0.744061 -2.23964 0
M  V30 31708 C 5454.31 2.10932 -2.10362 0
M  V30 31709 O 5454.26 2.64117 -0.98825 0
M  V30 31710 C 5454.46 2.8202 -3.34994 0
M  V30 31711 C 5454.57 4.31095 -3.25037 0
M  V30 31712 C 5454.51 2.15547 -4.52261 0
M  V30 31713 H 5457.25 1.93379 -8.46595 0
M  V30 31714 H 5457.52 1.68132 -6.70852 0
M  V30 31715 H 5456.65 -0.289041 -8.15388 0
M  V30 31716 H 5454 -0.926847 -5.72749 0
M  V30 31717 H 5453.72 1.86973 -6.82036 0
M  V30 31718 H 5452.72 0.403896 -7.13257 0
M  V30 31719 H 5454.56 1.20585 -8.97435 0
M  V30 31720 H 5454.63 2.71231 -5.45042 0
M  V30 31721 H 5453.6 4.76966 -3.49992 0
M  V30 31722 H 5455.34 4.67047 -3.95024 0
M  V30 31723 H 5454.85 4.58996 -2.22312 0
M  V30 31724 H 5454.11 0.214893 -1.39758 0
M  V30 31725 P 5452.69 -1.17771 -8.83182 0
M  V30 31726 O 5452.47 -2.07206 -9.98732 0
M  V30 31727 O 5451.9 0.0743816 -8.81969 0
M  V30 31728 O 5452.44 -1.97652 -7.47304 0
M  V30 31729 C 5453.38 -3.01055 -7.08599 0
M  V30 31730 C 5452.65 -4.12613 -6.37049 0
M  V30 31731 O 5452.44 -3.72827 -4.97879 0
M  V30 31732 C 5451.25 -4.45719 -6.88164 0
M  V30 31733 O 5450.86 -5.7877 -6.5624 0
M  V30 31734 C 5450.37 -3.47768 -6.11991 0
M  V30 31735 C 5451.08 -3.39356 -4.77615 0
M  V30 31736 N 5451.03 -2.04571 -4.15244 0
M  V30 31737 C 5450.88 -1.98587 -2.78314 0
M  V30 31738 O 5450.79 -2.98134 -2.08835 0
M  V30 31739 N 5450.84 -0.714467 -2.24925 0
M  V30 31740 C 5450.93 0.470001 -2.94169 0
M  V30 31741 O 5450.88 1.55587 -2.35195 0
M  V30 31742 C 5451.08 0.312541 -4.36783 0
M  V30 31743 C 5451.19 1.57711 -5.16352 0
M  V30 31744 C 5451.13 -0.914512 -4.92583 0
M  V30 31745 H 5453.87 -3.41169 -7.98575 0
M  V30 31746 H 5454.14 -2.58295 -6.41556 0
M  V30 31747 H 5453.27 -5.02657 -6.42673 0
M  V30 31748 H 5450.62 -4.11637 -4.08885 0
M  V30 31749 H 5450.34 -2.49626 -6.61679 0
M  V30 31750 H 5449.34 -3.86566 -6.00778 0
M  V30 31751 H 5451.18 -4.29943 -7.96918 0
M  V30 31752 H 5451.25 -1.00937 -6.00374 0
M  V30 31753 H 5450.22 1.80153 -5.63503 0
M  V30 31754 H 5451.96 1.4566 -5.94104 0
M  V30 31755 H 5451.47 2.40664 -4.49645 0
M  V30 31756 H 5450.73 -0.647622 -1.25697 0
M  V30 31757 P 5449.31 -6.144 -6.45285 0
M  V30 31758 O 5449.09 -7.54673 -6.86199 0
M  V30 31759 O 5448.52 -5.12391 -7.179 0
M  V30 31760 O 5449.06 -5.99158 -4.88404 0
M  V30 31761 C 5450 -6.60234 -3.96415 0
M  V30 31762 C 5449.27 -7.08259 -2.72856 0
M  V30 31763 O 5449.06 -5.9427 -1.83651 0
M  V30 31764 C 5447.87 -7.64886 -2.9555 0
M  V30 31765 O 5447.48 -8.53963 -1.90717 0
M  V30 31766 C 5446.99 -6.4116 -2.90739 0
M  V30 31767 C 5447.7 -5.55375 -1.86963 0
M  V30 31768 N 5447.65 -4.09664 -2.15742 0
M  V30 31769 H 5450.49 -7.45574 -4.45629 0
M  V30 31770 H 5450.76 -5.86232 -3.67314 0
M  V30 31771 H 5449.89 -7.84412 -2.24479 0
M  V30 31772 P 5445.93 -8.7635 -1.60911 0
M  V30 31773 O 5445.71 -10.1388 -1.11561 0
M  V30 31774 O 5445.14 -8.36503 -2.79617 0
M  V30 31775 O 5445.68 -7.71806 -0.42951 0
M  V30 31776 C 5446.62 -7.67148 0.673689 0
M  V30 31777 C 5445.89 -7.33374 1.95559 0
M  V30 31778 O 5445.68 -5.88721 2.00726 0
M  V30 31779 C 5444.49 -7.92526 2.10483 0
M  V30 31780 O 5444.1 -8.02971 3.47653 0
M  V30 31781 C 5443.61 -6.89602 1.41652 0
M  V30 31782 C 5444.32 -5.59201 1.75185 0
M  V30 31783 N 5444.27 -4.58235 0.662552 0
M  V30 31784 H 5447.11 -8.65116 0.777161 0
M  V30 31785 H 5447.38 -6.90173 0.474152 0
M  V30 31786 H 5446.51 -7.66548 2.79458 0
M  V30 31787 P 5442.55 -8.03563 3.84925 0
M  V30 31788 O 5442.33 -8.85821 5.0569 0
M  V30 31789 O 5441.76 -8.41101 2.65469 0
M  V30 31790 O 5442.3 -6.4965 4.18908 0
M  V30 31791 C 5443.24 -5.81037 5.05421 0
M  V30 31792 C 5442.51 -4.78366 5.89277 0
M  V30 31793 O 5442.3 -3.58302 5.08433 0
M  V30 31794 C 5441.11 -5.17448 6.36119 0
M  V30 31795 O 5440.72 -4.45271 7.53232 0
M  V30 31796 C 5440.23 -4.74639 5.19936 0
M  V30 31797 C 5440.94 -3.49432 4.70418 0
M  V30 31798 N 5440.89 -3.31776 3.22945 0
M  V30 31799 H 5443.73 -6.54213 5.71376 0
M  V30 31800 H 5444 -5.30492 4.44033 0
M  V30 31801 H 5443.13 -4.55889 6.76652 0
M  V30 31802 P 5439.17 -4.23843 7.83734 0
M  V30 31803 O 5438.95 -4.19407 9.29784 0
M  V30 31804 O 5438.38 -5.24426 7.09156 0
M  V30 31805 O 5438.92 -2.7935 7.20758 0
M  V30 31806 C 5439.86 -1.7299 7.50419 0
M  V30 31807 C 5439.13 -0.406376 7.57911 0
M  V30 31808 O 5438.92 0.0897726 6.21935 0
M  V30 31809 C 5437.73 -0.447224 8.1878 0
M  V30 31810 O 5437.34 0.825065 8.71101 0
M  V30 31811 C 5436.85 -0.783801 6.99623 0
M  V30 31812 C 5437.56 -0.0619192 5.85967 0
M  V30 31813 N 5437.51 -0.790462 4.56202 0
M  V30 31814 H 5440.35 -1.93423 8.4679 0
M  V30 31815 H 5440.62 -1.68852 6.70877 0
M  V30 31816 H 5439.75 0.289041 8.15388 0
M  V30 31817 H 5437.1 0.927006 5.72848 0
M  V30 31818 H 5436.82 -1.86973 6.82036 0
M  V30 31819 H 5435.82 -0.403953 7.13357 0
M  V30 31820 H 5437.66 -1.20599 8.97534 0
M  V30 31821 P 5435.79 1.17771 8.83182 0
M  V30 31822 O 5435.57 2.07206 9.98732 0
M  V30 31823 O 5435 -0.0743816 8.81969 0
M  V30 31824 O 5435.54 1.97652 7.47304 0
M  V30 31825 C 5436.48 3.01133 7.08783 0
M  V30 31826 C 5435.75 4.12613 6.37049 0
M  V30 31827 O 5435.54 3.72827 4.97879 0
M  V30 31828 C 5434.35 4.45085 6.88694 0
M  V30 31829 O 5433.96 5.7877 6.5624 0
M  V30 31830 C 5433.47 3.47817 6.12078 0
M  V30 31831 C 5434.18 3.39414 4.77697 0
M  V30 31832 N 5434.13 2.04615 4.15333 0
M  V30 31833 H 5436.97 3.41248 7.98759 0
M  V30 31834 H 5437.24 2.5837 6.41742 0
M  V30 31835 H 5436.37 5.02657 6.42673 0
M  V30 31836 P 5432.41 6.144 6.45285 0
M  V30 31837 O 5432.19 7.54673 6.86199 0
M  V30 31838 O 5431.62 5.12391 7.179 0
M  V30 31839 O 5432.16 5.99158 4.88404 0
M  V30 31840 C 5433.1 6.60234 3.96415 0
M  V30 31841 C 5432.37 7.08259 2.72856 0
M  V30 31842 O 5432.16 5.9427 1.83651 0
M  V30 31843 C 5430.97 7.64886 2.9555 0
M  V30 31844 O 5430.58 8.53963 1.90717 0
M  V30 31845 C 5430.09 6.4116 2.90739 0
M  V30 31846 C 5430.8 5.55375 1.86963 0
M  V30 31847 N 5430.75 4.09448 2.16152 0
M  V30 31848 H 5433.59 7.45574 4.45629 0
M  V30 31849 H 5433.86 5.85864 3.679 0
M  V30 31850 H 5432.99 7.84412 2.24479 0
M  V30 31851 H 5430.34 5.73457 0.888562 0
M  V30 31852 H 5430.06 5.90877 3.88583 0
M  V30 31853 H 5429.06 6.6596 2.58858 0
M  V30 31854 H 5430.9 8.16339 3.92049 0
M  V30 31855 P 5429.03 8.7635 1.60911 0
M  V30 31856 O 5428.81 10.1388 1.11561 0
M  V30 31857 O 5428.24 8.36503 2.79617 0
M  V30 31858 O 5428.78 7.71806 0.42951 0
M  V30 31859 C 5429.72 7.66948 -0.673514 0
M  V30 31860 C 5428.99 7.33374 -1.95559 0
M  V30 31861 O 5428.78 5.88721 -2.00726 0
M  V30 31862 C 5427.59 7.92218 -2.1125 0
M  V30 31863 O 5427.2 8.02971 -3.47653 0
M  V30 31864 C 5426.71 6.89504 -1.41631 0
M  V30 31865 C 5427.42 5.59106 -1.75155 0
M  V30 31866 N 5427.37 4.58136 -0.662409 0
M  V30 31867 C 5427.22 3.26059 -1.02863 0
M  V30 31868 O 5427.13 2.90743 -2.19009 0
M  V30 31869 N 5427.18 2.35995 0.0155585 0
M  V30 31870 C 5427.27 2.65248 1.35603 0
M  V30 31871 O 5427.22 1.75605 2.20651 0
M  V30 31872 C 5427.42 4.05747 1.64698 0
M  V30 31873 C 5427.53 4.42345 3.09553 0
M  V30 31874 C 5427.47 4.96734 0.652411 0
M  V30 31875 H 5430.21 8.64917 -0.776982 0
M  V30 31876 H 5430.48 6.89974 -0.474015 0
M  V30 31877 H 5429.61 7.66548 -2.79458 0
M  V30 31878 H 5426.96 5.16076 -2.65138 0
M  V30 31879 H 5426.68 7.06433 -0.329384 0
M  V30 31880 H 5425.68 6.90829 -1.81996 0
M  V30 31881 H 5427.52 8.90774 -1.62639 0
M  V30 31882 H 5427.59 6.02181 0.895285 0
M  V30 31883 H 5426.56 4.80252 3.45468 0
M  V30 31884 H 5428.3 5.20015 3.22119 0
M  V30 31885 H 5427.81 3.53269 3.67833 0
M  V30 31886 H 5427.07 1.39558 -0.227499 0
M  V30 31887 P 5425.65 8.03563 -3.84925 0
M  V30 31888 O 5425.43 8.85821 -5.0569 0
M  V30 31889 O 5424.86 8.41101 -2.65469 0
M  V30 31890 O 5425.4 6.4965 -4.18908 0
M  V30 31891 C 5426.34 5.81037 -5.05421 0
M  V30 31892 C 5425.61 4.78366 -5.89277 0
M  V30 31893 O 5425.4 3.58302 -5.08433 0
M  V30 31894 C 5424.21 5.17448 -6.36119 0
M  V30 31895 O 5423.82 4.45271 -7.53232 0
M  V30 31896 C 5423.33 4.74639 -5.19936 0
M  V30 31897 C 5424.04 3.49432 -4.70418 0
M  V30 31898 N 5423.99 3.32099 -3.22613 0
M  V30 31899 H 5426.83 6.54213 -5.71376 0
M  V30 31900 H 5427.1 5.30936 -4.43503 0
M  V30 31901 H 5426.23 4.55889 -6.76652 0
M  V30 31902 H 5423.58 2.61715 -5.17932 0
M  V30 31903 H 5423.3 5.52155 -4.41878 0
M  V30 31904 H 5422.3 4.51981 -5.53374 0
M  V30 31905 H 5424.14 6.25124 -6.55234 0
M  V30 31906 P 5422.27 4.23843 -7.83734 0
M  V30 31907 O 5422.05 4.19407 -9.29784 0
M  V30 31908 O 5421.48 5.24426 -7.09156 0
M  V30 31909 O 5422.02 2.7935 -7.20758 0
M  V30 31910 C 5422.96 1.72945 -7.50224 0
M  V30 31911 C 5422.23 0.406376 -7.57911 0
M  V30 31912 O 5422.02 -0.0897726 -6.21935 0
M  V30 31913 C 5420.83 0.438983 -8.18724 0
M  V30 31914 O 5420.44 -0.825065 -8.71101 0
M  V30 31915 C 5419.95 0.783689 -6.99524 0
M  V30 31916 C 5420.66 0.0619086 -5.85867 0
M  V30 31917 N 5420.61 0.78573 -4.56183 0
M  V30 31918 C 5420.46 0.0292889 -3.41887 0
M  V30 31919 O 5420.37 -1.18445 -3.4419 0
M  V30 31920 N 5420.42 0.744061 -2.23964 0
M  V30 31921 C 5420.51 2.10932 -2.10362 0
M  V30 31922 O 5420.46 2.64117 -0.98825 0
M  V30 31923 C 5420.66 2.8202 -3.34994 0
M  V30 31924 C 5420.77 4.31095 -3.25037 0
M  V30 31925 C 5420.71 2.15547 -4.52261 0
M  V30 31926 H 5423.45 1.93379 -8.46595 0
M  V30 31927 H 5423.72 1.68132 -6.70852 0
M  V30 31928 H 5422.85 -0.289041 -8.15388 0
M  V30 31929 H 5420.2 -0.926847 -5.72749 0
M  V30 31930 H 5419.92 1.86973 -6.82036 0
M  V30 31931 H 5418.92 0.403896 -7.13257 0
M  V30 31932 H 5420.76 1.20585 -8.97435 0
M  V30 31933 H 5420.83 2.71231 -5.45042 0
M  V30 31934 H 5419.8 4.76966 -3.49992 0
M  V30 31935 H 5421.54 4.67047 -3.95024 0
M  V30 31936 H 5421.05 4.58996 -2.22312 0
M  V30 31937 H 5420.31 0.214893 -1.39758 0
M  V30 31938 P 5418.89 -1.17771 -8.83182 0
M  V30 31939 O 5418.67 -2.07206 -9.98732 0
M  V30 31940 O 5418.1 0.0743816 -8.81969 0
M  V30 31941 O 5418.64 -1.97652 -7.47304 0
M  V30 31942 C 5419.58 -3.01133 -7.08783 0
M  V30 31943 C 5418.85 -4.12613 -6.37049 0
M  V30 31944 O 5418.64 -3.72827 -4.97879 0
M  V30 31945 C 5417.45 -4.45085 -6.88694 0
M  V30 31946 O 5417.06 -5.7877 -6.5624 0
M  V30 31947 C 5416.57 -3.47817 -6.12078 0
M  V30 31948 C 5417.28 -3.39414 -4.77697 0
M  V30 31949 N 5417.23 -2.04199 -4.15538 0
M  V30 31950 H 5420.07 -3.41248 -7.98759 0
M  V30 31951 H 5420.34 -2.57728 -6.42 0
M  V30 31952 H 5419.47 -5.02657 -6.42673 0
M  V30 31953 H 5416.82 -4.11708 -4.08956 0
M  V30 31954 H 5416.54 -2.49626 -6.61679 0
M  V30 31955 H 5415.54 -3.8662 -6.00862 0
M  V30 31956 H 5417.38 -4.29991 -7.97006 0
M  V30 31957 P 5415.51 -6.144 -6.45285 0
M  V30 31958 O 5415.29 -7.54673 -6.86199 0
M  V30 31959 O 5414.72 -5.12391 -7.179 0
M  V30 31960 O 5415.26 -5.99158 -4.88404 0
M  V30 31961 C 5416.2 -6.60234 -3.96415 0
M  V30 31962 C 5415.47 -7.08259 -2.72856 0
M  V30 31963 O 5415.26 -5.9427 -1.83651 0
M  V30 31964 C 5414.07 -7.64886 -2.9555 0
M  V30 31965 O 5413.68 -8.53963 -1.90717 0
M  V30 31966 C 5413.19 -6.4116 -2.90739 0
M  V30 31967 C 5413.9 -5.55375 -1.86963 0
M  V30 31968 N 5413.85 -4.09664 -2.15742 0
M  V30 31969 H 5416.69 -7.45574 -4.45629 0
M  V30 31970 H 5416.96 -5.86232 -3.67314 0
M  V30 31971 H 5416.09 -7.84412 -2.24479 0
M  V30 31972 P 5412.13 -8.7635 -1.60911 0
M  V30 31973 O 5411.91 -10.1388 -1.11561 0
M  V30 31974 O 5411.34 -8.36503 -2.79617 0
M  V30 31975 O 5411.88 -7.71806 -0.42951 0
M  V30 31976 C 5412.82 -7.66948 0.673514 0
M  V30 31977 C 5412.09 -7.33374 1.95559 0
M  V30 31978 O 5411.88 -5.88721 2.00726 0
M  V30 31979 C 5410.69 -7.92218 2.1125 0
M  V30 31980 O 5410.3 -8.02971 3.47653 0
M  V30 31981 C 5409.81 -6.89504 1.41631 0
M  V30 31982 C 5410.52 -5.59106 1.75155 0
M  V30 31983 N 5410.47 -4.58136 0.662409 0
M  V30 31984 C 5410.32 -3.26059 1.02863 0
M  V30 31985 O 5410.23 -2.90743 2.19009 0
M  V30 31986 N 5410.28 -2.35995 -0.0155585 0
M  V30 31987 C 5410.37 -2.65248 -1.35603 0
M  V30 31988 C 5410.52 -4.05747 -1.64698 0
M  V30 31989 C 5410.57 -4.96734 -0.652411 0
M  V30 31990 H 5413.31 -8.64917 0.776982 0
M  V30 31991 H 5413.58 -6.89974 0.474015 0
M  V30 31992 H 5412.71 -7.66548 2.79458 0
M  V30 31993 H 5410.06 -5.16076 2.65138 0
M  V30 31994 H 5409.78 -7.06433 0.329384 0
M  V30 31995 H 5408.78 -6.90829 1.81996 0
M  V30 31996 H 5410.62 -8.90774 1.62639 0
M  V30 31997 H 5410.69 -6.02181 -0.895285 0
M  V30 31998 P 5408.75 -8.03563 3.84925 0
M  V30 31999 O 5408.53 -8.85821 5.0569 0
M  V30 32000 O 5407.96 -8.41101 2.65469 0
M  V30 32001 O 5408.5 -6.4965 4.18908 0
M  V30 32002 C 5409.44 -5.80886 5.05289 0
M  V30 32003 C 5408.71 -4.78366 5.89277 0
M  V30 32004 O 5408.5 -3.58302 5.08433 0
M  V30 32005 C 5407.31 -5.16748 6.36559 0
M  V30 32006 O 5406.92 -4.45271 7.53232 0
M  V30 32007 C 5406.43 -4.74572 5.19863 0
M  V30 32008 C 5407.14 -3.49373 4.70338 0
M  V30 32009 N 5407.09 -3.31704 3.22876 0
M  V30 32010 C 5406.94 -2.03326 2.74871 0
M  V30 32011 O 5406.85 -1.06486 3.48076 0
M  V30 32012 N 5406.9 -1.91838 1.37456 0
M  V30 32013 C 5406.99 -2.94295 0.462035 0
M  V30 32014 O 5406.94 -2.71763 -0.752928 0
M  V30 32015 C 5407.14 -4.25064 1.05249 0
M  V30 32016 C 5407.25 -5.39815 0.095697 0
M  V30 32017 C 5407.19 -4.40214 2.39192 0
M  V30 32018 H 5409.93 -6.54063 5.71245 0
M  V30 32019 H 5410.2 -5.30339 4.43905 0
M  V30 32020 H 5409.33 -4.55889 6.76652 0
M  V30 32021 H 5406.68 -2.6167 5.17842 0
M  V30 32022 H 5406.4 -5.52155 4.41878 0
M  V30 32023 H 5405.41 -4.51918 5.53297 0
M  V30 32024 H 5407.24 -6.25055 6.55162 0
M  V30 32025 H 5407.31 -5.39798 2.81523 0
M  V30 32026 H 5406.28 -5.91593 0.0279582 0
M  V30 32027 H 5408.02 -6.10038 0.450573 0
M  V30 32028 H 5407.53 -5.02007 -0.89937 0
M  V30 32029 H 5406.79 -0.995326 1.00435 0
M  V30 32030 P 5405.37 -4.23843 7.83734 0
M  V30 32031 O 5405.15 -4.19407 9.29784 0
M  V30 32032 O 5404.58 -5.24426 7.09156 0
M  V30 32033 O 5405.12 -2.7935 7.20758 0
M  V30 32034 C 5406.06 -1.7299 7.50419 0
M  V30 32035 C 5405.33 -0.406376 7.57911 0
M  V30 32036 O 5405.12 0.0897726 6.21935 0
M  V30 32037 C 5403.93 -0.447224 8.1878 0
M  V30 32038 O 5403.54 0.825065 8.71101 0
M  V30 32039 C 5403.05 -0.783801 6.99623 0
M  V30 32040 C 5403.76 -0.0619192 5.85967 0
M  V30 32041 N 5403.71 -0.790462 4.56202 0
M  V30 32042 H 5406.55 -1.93423 8.4679 0
M  V30 32043 H 5406.82 -1.68852 6.70877 0
M  V30 32044 H 5405.95 0.289041 8.15388 0
M  V30 32045 H 5403.3 0.927006 5.72848 0
M  V30 32046 H 5403.02 -1.86973 6.82036 0
M  V30 32047 H 5402.03 -0.403953 7.13357 0
M  V30 32048 H 5403.86 -1.20599 8.97534 0
M  V30 32049 P 5401.99 1.17771 8.83182 0
M  V30 32050 O 5401.77 2.07206 9.98732 0
M  V30 32051 O 5401.2 -0.0743816 8.81969 0
M  V30 32052 O 5401.74 1.97652 7.47304 0
M  V30 32053 C 5402.68 3.01055 7.08599 0
M  V30 32054 C 5401.95 4.12613 6.37049 0
M  V30 32055 O 5401.74 3.72827 4.97879 0
M  V30 32056 C 5400.55 4.45719 6.88164 0
M  V30 32057 O 5400.16 5.7877 6.5624 0
M  V30 32058 C 5399.67 3.47768 6.11991 0
M  V30 32059 C 5400.38 3.39356 4.77615 0
M  V30 32060 N 5400.33 2.04571 4.15244 0
M  V30 32061 C 5400.18 1.98587 2.78314 0
M  V30 32062 O 5400.09 2.98134 2.08835 0
M  V30 32063 N 5400.14 0.714467 2.24925 0
M  V30 32064 C 5400.23 -0.470001 2.94169 0
M  V30 32065 O 5400.18 -1.55587 2.35195 0
M  V30 32066 C 5400.38 -0.312541 4.36783 0
M  V30 32067 C 5400.49 -1.57711 5.16352 0
M  V30 32068 C 5400.43 0.914512 4.92583 0
M  V30 32069 H 5403.17 3.41169 7.98575 0
M  V30 32070 H 5403.44 2.58295 6.41556 0
M  V30 32071 H 5402.57 5.02657 6.42673 0
M  V30 32072 H 5399.92 4.11637 4.08885 0
M  V30 32073 H 5399.64 2.49626 6.61679 0
M  V30 32074 H 5398.65 3.86566 6.00778 0
M  V30 32075 H 5400.48 4.29943 7.96918 0
M  V30 32076 H 5400.55 1.00937 6.00374 0
M  V30 32077 H 5399.52 -1.80153 5.63503 0
M  V30 32078 H 5401.26 -1.4566 5.94104 0
M  V30 32079 H 5400.77 -2.40664 4.49645 0
M  V30 32080 H 5400.03 0.647622 1.25697 0
M  V30 32081 P 5398.61 6.144 6.45285 0
M  V30 32082 O 5398.39 7.54673 6.86199 0
M  V30 32083 O 5397.82 5.12391 7.179 0
M  V30 32084 O 5398.36 5.99158 4.88404 0
M  V30 32085 C 5399.3 6.60234 3.96415 0
M  V30 32086 C 5398.57 7.08259 2.72856 0
M  V30 32087 O 5398.36 5.9427 1.83651 0
M  V30 32088 C 5397.17 7.64886 2.9555 0
M  V30 32089 O 5396.78 8.53963 1.90717 0
M  V30 32090 C 5396.29 6.4116 2.90739 0
M  V30 32091 C 5397 5.55375 1.86963 0
M  V30 32092 N 5396.95 4.09664 2.15742 0
M  V30 32093 H 5399.79 7.45574 4.45629 0
M  V30 32094 H 5400.06 5.86232 3.67314 0
M  V30 32095 H 5399.19 7.84412 2.24479 0
M  V30 32096 P 5395.23 8.7635 1.60911 0
M  V30 32097 O 5395.01 10.1388 1.11561 0
M  V30 32098 O 5394.44 8.36503 2.79617 0
M  V30 32099 O 5394.98 7.71806 0.42951 0
M  V30 32100 C 5395.92 7.67148 -0.673689 0
M  V30 32101 C 5395.19 7.33374 -1.95559 0
M  V30 32102 O 5394.98 5.88721 -2.00726 0
M  V30 32103 C 5393.79 7.92526 -2.10483 0
M  V30 32104 O 5393.4 8.02971 -3.47653 0
M  V30 32105 C 5392.91 6.89602 -1.41652 0
M  V30 32106 C 5393.62 5.59201 -1.75185 0
M  V30 32107 N 5393.57 4.58235 -0.662552 0
M  V30 32108 H 5396.41 8.65116 -0.777161 0
M  V30 32109 H 5396.68 6.90173 -0.474152 0
M  V30 32110 H 5395.81 7.66548 -2.79458 0
M  V30 32111 P 5391.85 8.03563 -3.84925 0
M  V30 32112 O 5391.63 8.85821 -5.0569 0
M  V30 32113 O 5391.06 8.41101 -2.65469 0
M  V30 32114 O 5391.6 6.4965 -4.18908 0
M  V30 32115 C 5392.54 5.81037 -5.05421 0
M  V30 32116 C 5391.81 4.78366 -5.89277 0
M  V30 32117 O 5391.6 3.58302 -5.08433 0
M  V30 32118 C 5390.41 5.17448 -6.36119 0
M  V30 32119 O 5390.02 4.45271 -7.53232 0
M  V30 32120 C 5389.53 4.74639 -5.19936 0
M  V30 32121 C 5390.24 3.49432 -4.70418 0
M  V30 32122 N 5390.19 3.31776 -3.22945 0
M  V30 32123 C 5390.27 4.27147 -2.23315 0
M  V30 32124 N 5390.19 3.78447 -1.02186 0
M  V30 32125 C 5390.05 2.41001 -1.21732 0
M  V30 32126 C 5389.92 1.36111 -0.27694 0
M  V30 32127 O 5389.9 1.42065 0.951767 0
M  V30 32128 N 5389.8 0.113683 -0.912949 0
M  V30 32129 C 5389.8 -0.0846396 -2.27943 0
M  V30 32130 N 5389.67 -1.34737 -2.6916 0
M  V30 32131 N 5389.93 0.902521 -3.16379 0
M  V30 32132 C 5390.05 2.11937 -2.56849 0
M  V30 32133 H 5393.03 6.54213 -5.71376 0
M  V30 32134 H 5393.3 5.30492 -4.44033 0
M  V30 32135 H 5392.43 4.55889 -6.76652 0
M  V30 32136 H 5389.78 2.6176 -5.18021 0
M  V30 32137 H 5389.5 5.52233 -4.41941 0
M  V30 32138 H 5388.51 4.52045 -5.53452 0
M  V30 32139 H 5390.34 6.25193 -6.55307 0
M  V30 32140 H 5390.39 5.3351 -2.43857 0
M  V30 32141 H 5389.71 -0.69331 -0.330371 0
M  V30 32142 H 5389.67 -1.56433 -3.6988 0
M  V30 32143 H 5389.57 -2.10701 -2.00133 0
M  V30 32144 P 5388.47 4.23843 -7.83734 0
M  V30 32145 O 5388.25 4.19407 -9.29784 0
M  V30 32146 O 5387.68 5.24426 -7.09156 0
M  V30 32147 O 5388.22 2.7935 -7.20758 0
M  V30 32148 C 5389.16 1.7299 -7.50419 0
M  V30 32149 C 5388.43 0.406376 -7.57911 0
M  V30 32150 O 5388.22 -0.0897726 -6.21935 0
M  V30 32151 C 5387.03 0.447224 -8.1878 0
M  V30 32152 O 5386.64 -0.825065 -8.71101 0
M  V30 32153 C 5386.15 0.783801 -6.99623 0
M  V30 32154 C 5386.86 0.0619192 -5.85967 0
M  V30 32155 N 5386.81 0.7859 -4.56281 0
M  V30 32156 H 5389.65 1.93423 -8.4679 0
M  V30 32157 H 5389.92 1.68181 -6.71046 0
M  V30 32158 H 5389.05 -0.289041 -8.15388 0
M  V30 32159 P 5385.09 -1.17771 -8.83182 0
M  V30 32160 O 5384.87 -2.07206 -9.98732 0
M  V30 32161 O 5384.3 0.0743816 -8.81969 0
M  V30 32162 O 5384.84 -1.97652 -7.47304 0
M  V30 32163 C 5385.78 -3.01133 -7.08783 0
M  V30 32164 C 5385.05 -4.12613 -6.37049 0
M  V30 32165 O 5384.84 -3.72827 -4.97879 0
M  V30 32166 C 5383.65 -4.45085 -6.88694 0
M  V30 32167 O 5383.26 -5.7877 -6.5624 0
M  V30 32168 C 5382.77 -3.47817 -6.12078 0
M  V30 32169 C 5383.48 -3.39414 -4.77697 0
M  V30 32170 N 5383.43 -2.04199 -4.15538 0
M  V30 32171 H 5386.27 -3.41248 -7.98759 0
M  V30 32172 H 5386.54 -2.57728 -6.42 0
M  V30 32173 H 5385.67 -5.02657 -6.42673 0
M  V30 32174 H 5383.02 -4.11708 -4.08956 0
M  V30 32175 H 5382.74 -2.49626 -6.61679 0
M  V30 32176 H 5381.75 -3.8662 -6.00862 0
M  V30 32177 H 5383.58 -4.29991 -7.97006 0
M  V30 32178 P 5381.71 -6.144 -6.45285 0
M  V30 32179 O 5381.49 -7.54673 -6.86199 0
M  V30 32180 O 5380.92 -5.12391 -7.179 0
M  V30 32181 O 5381.46 -5.99158 -4.88404 0
M  V30 32182 C 5382.4 -6.60234 -3.96415 0
M  V30 32183 C 5381.67 -7.08259 -2.72856 0
M  V30 32184 O 5381.46 -5.9427 -1.83651 0
M  V30 32185 C 5380.27 -7.64886 -2.9555 0
M  V30 32186 O 5379.88 -8.53963 -1.90717 0
M  V30 32187 C 5379.39 -6.4116 -2.90739 0
M  V30 32188 C 5380.1 -5.55375 -1.86963 0
M  V30 32189 N 5380.05 -4.09664 -2.15742 0
M  V30 32190 H 5382.89 -7.45574 -4.45629 0
M  V30 32191 H 5383.16 -5.86232 -3.67314 0
M  V30 32192 H 5382.29 -7.84412 -2.24479 0
M  V30 32193 P 5378.33 -8.7635 -1.60911 0
M  V30 32194 O 5378.11 -10.1388 -1.11561 0
M  V30 32195 O 5377.54 -8.36503 -2.79617 0
M  V30 32196 O 5378.08 -7.71806 -0.42951 0
M  V30 32197 C 5379.02 -7.67148 0.673689 0
M  V30 32198 C 5378.29 -7.33374 1.95559 0
M  V30 32199 O 5378.08 -5.88721 2.00726 0
M  V30 32200 C 5376.89 -7.92526 2.10483 0
M  V30 32201 O 5376.5 -8.02971 3.47653 0
M  V30 32202 C 5376.01 -6.89602 1.41652 0
M  V30 32203 C 5376.72 -5.59201 1.75185 0
M  V30 32204 N 5376.67 -4.58235 0.662552 0
M  V30 32205 H 5379.51 -8.65116 0.777161 0
M  V30 32206 H 5379.78 -6.90173 0.474152 0
M  V30 32207 H 5378.91 -7.66548 2.79458 0
M  V30 32208 P 5374.95 -8.03563 3.84925 0
M  V30 32209 O 5374.73 -8.85821 5.0569 0
M  V30 32210 O 5374.16 -8.41101 2.65469 0
M  V30 32211 O 5374.7 -6.4965 4.18908 0
M  V30 32212 C 5375.64 -5.81037 5.05421 0
M  V30 32213 C 5374.91 -4.78366 5.89277 0
M  V30 32214 O 5374.7 -3.58302 5.08433 0
M  V30 32215 C 5373.51 -5.17448 6.36119 0
M  V30 32216 O 5373.12 -4.45271 7.53232 0
M  V30 32217 C 5372.63 -4.74639 5.19936 0
M  V30 32218 C 5373.34 -3.49432 4.70418 0
M  V30 32219 N 5373.29 -3.31776 3.22945 0
M  V30 32220 H 5376.13 -6.54213 5.71376 0
M  V30 32221 H 5376.4 -5.30492 4.44033 0
M  V30 32222 H 5375.53 -4.55889 6.76652 0
M  V30 32223 P 5371.57 -4.23843 7.83734 0
M  V30 32224 O 5371.35 -4.19407 9.29784 0
M  V30 32225 O 5370.78 -5.24426 7.09156 0
M  V30 32226 O 5371.32 -2.79386 7.20852 0
M  V30 32227 C 5372.26 -1.7299 7.50419 0
M  V30 32228 C 5371.53 -0.41401 7.5797 0
M  V30 32229 O 5371.32 0.089787 6.22035 0
M  V30 32230 C 5370.13 -0.447224 8.1878 0
M  V30 32231 O 5369.74 0.825159 8.71201 0
M  V30 32232 C 5369.25 -0.783801 6.99623 0
M  V30 32233 C 5369.96 -0.0619192 5.85967 0
M  V30 32234 N 5369.91 -0.7859 4.56281 0
M  V30 32235 C 5369.76 -0.0359258 3.39981 0
M  V30 32236 O 5369.67 1.19723 3.49038 0
M  V30 32237 N 5369.71 -0.869151 2.14025 0
M  V30 32238 C 5369.81 -2.01207 2.14363 0
M  V30 32239 N 5369.76 -2.58978 0.954287 0
M  V30 32240 C 5369.96 -2.80817 3.32215 0
M  V30 32241 C 5370.01 -2.13785 4.50884 0
M  V30 32242 H 5372.75 -1.93401 8.46693 0
M  V30 32243 H 5373.02 -1.68181 6.71046 0
M  V30 32244 H 5372.15 0.289076 8.15488 0
M  V30 32245 H 5369.5 0.927166 5.72947 0
M  V30 32246 H 5369.22 -1.87 6.82132 0
M  V30 32247 H 5368.23 -0.404009 7.13457 0
M  V30 32248 H 5370.06 -1.20599 8.97534 0
M  V30 32249 H 5370.13 -2.70295 5.43162 0
M  V30 32250 H 5370.03 -3.89465 3.27406 0
M  V30 32251 H 5369.64 -2.01616 0.107046 0
M  V30 32252 H 5369.84 -3.61403 0.873101 0
M  V30 32253 P 5368.19 1.17771 8.83182 0
M  V30 32254 O 5367.97 2.07206 9.98732 0
M  V30 32255 O 5367.4 -0.0743816 8.81969 0
M  V30 32256 O 5367.94 1.97652 7.47304 0
M  V30 32257 C 5368.88 3.01133 7.08783 0
M  V30 32258 C 5368.15 4.12613 6.37049 0
M  V30 32259 O 5367.94 3.72827 4.97879 0
M  V30 32260 C 5366.75 4.45085 6.88694 0
M  V30 32261 O 5366.36 5.7877 6.5624 0
M  V30 32262 C 5365.87 3.47817 6.12078 0
M  V30 32263 C 5366.58 3.39414 4.77697 0
M  V30 32264 N 5366.53 2.04615 4.15333 0
M  V30 32265 H 5369.37 3.41248 7.98759 0
M  V30 32266 H 5369.64 2.5837 6.41742 0
M  V30 32267 H 5368.77 5.02657 6.42673 0
M  V30 32268 P 5364.81 6.144 6.45285 0
M  V30 32269 O 5364.59 7.54673 6.86199 0
M  V30 32270 O 5364.02 5.12391 7.179 0
M  V30 32271 O 5364.56 5.99158 4.88404 0
M  V30 32272 C 5365.5 6.60062 3.96313 0
M  V30 32273 C 5364.77 7.08259 2.72856 0
M  V30 32274 O 5364.56 5.9427 1.83651 0
M  V30 32275 C 5363.37 7.65087 2.94749 0
M  V30 32276 O 5362.98 8.53963 1.90717 0
M  V30 32277 C 5362.49 6.41069 2.90698 0
M  V30 32278 C 5363.2 5.5528 1.86931 0
M  V30 32279 N 5363.15 4.09575 2.15696 0
M  V30 32280 C 5363 3.24249 1.08435 0
M  V30 32281 O 5362.91 3.63946 -0.0628747 0
M  V30 32282 N 5362.96 1.90009 1.39973 0
M  V30 32283 C 5363.05 1.34884 2.65614 0
M  V30 32284 O 5363 0.123716 2.81728 0
M  V30 32285 C 5363.2 2.3145 3.71736 0
M  V30 32286 C 5363.31 1.75913 5.10438 0
M  V30 32287 C 5363.25 3.63518 3.44754 0
M  V30 32288 H 5365.99 7.45402 4.45526 0
M  V30 32289 H 5366.26 5.86062 3.67208 0
M  V30 32290 H 5365.39 7.84412 2.24479 0
M  V30 32291 H 5362.74 5.73358 0.888409 0
M  V30 32292 H 5362.46 5.90877 3.88583 0
M  V30 32293 H 5361.47 6.65867 2.58821 0
M  V30 32294 H 5363.3 8.16248 3.92006 0
M  V30 32295 H 5363.37 4.34551 4.26383 0
M  V30 32296 H 5362.34 1.85471 5.61775 0
M  V30 32297 H 5364.08 2.31364 5.66257 0
M  V30 32298 H 5363.59 0.695936 5.05229 0
M  V30 32299 H 5362.85 1.26277 0.63625 0
M  V30 32300 P 5361.43 8.7635 1.60911 0
M  V30 32301 O 5361.21 10.1388 1.11561 0
M  V30 32302 O 5360.64 8.36503 2.79617 0
M  V30 32303 O 5361.18 7.71806 0.42951 0
M  V30 32304 C 5362.12 7.67148 -0.673689 0
M  V30 32305 C 5361.39 7.33374 -1.95559 0
M  V30 32306 O 5361.18 5.88721 -2.00726 0
M  V30 32307 C 5359.99 7.92526 -2.10483 0
M  V30 32308 O 5359.6 8.02971 -3.47653 0
M  V30 32309 C 5359.11 6.89602 -1.41652 0
M  V30 32310 C 5359.82 5.59201 -1.75185 0
M  V30 32311 N 5359.77 4.58301 -0.657969 0
M  V30 32312 H 5362.61 8.65116 -0.777161 0
M  V30 32313 H 5362.88 6.9022 -0.46725 0
M  V30 32314 H 5362.01 7.66548 -2.79458 0
M  V30 32315 H 5359.36 5.16165 -2.65183 0
M  V30 32316 H 5359.08 7.06433 -0.329384 0
M  V30 32317 H 5358.09 6.90926 -1.82021 0
M  V30 32318 H 5359.92 8.90873 -1.62657 0
M  V30 32319 P 5358.05 8.03563 -3.84925 0
M  V30 32320 O 5357.83 8.85821 -5.0569 0
M  V30 32321 O 5357.26 8.41101 -2.65469 0
M  V30 32322 O 5357.8 6.4965 -4.18908 0
M  V30 32323 C 5358.74 5.80886 -5.05289 0
M  V30 32324 C 5358.01 4.78366 -5.89277 0
M  V30 32325 O 5357.8 3.58302 -5.08433 0
M  V30 32326 C 5356.61 5.16748 -6.36559 0
M  V30 32327 O 5356.22 4.45271 -7.53232 0
M  V30 32328 C 5355.73 4.74572 -5.19863 0
M  V30 32329 C 5356.44 3.49373 -4.70338 0
M  V30 32330 N 5356.39 3.31704 -3.22876 0
M  V30 32331 C 5356.24 2.03326 -2.74871 0
M  V30 32332 O 5356.15 1.06486 -3.48076 0
M  V30 32333 N 5356.2 1.91838 -1.37456 0
M  V30 32334 C 5356.29 2.94295 -0.462035 0
M  V30 32335 O 5356.24 2.71763 0.752928 0
M  V30 32336 C 5356.44 4.25064 -1.05249 0
M  V30 32337 C 5356.55 5.39815 -0.095697 0
M  V30 32338 C 5356.49 4.40214 -2.39192 0
M  V30 32339 H 5359.23 6.54063 -5.71245 0
M  V30 32340 H 5359.5 5.30339 -4.43905 0
M  V30 32341 H 5358.63 4.55889 -6.76652 0
M  V30 32342 H 5355.98 2.6167 -5.17842 0
M  V30 32343 H 5355.7 5.52155 -4.41878 0
M  V30 32344 H 5354.71 4.51918 -5.53297 0
M  V30 32345 H 5356.54 6.25055 -6.55162 0
M  V30 32346 H 5356.61 5.39798 -2.81523 0
M  V30 32347 H 5355.58 5.91593 -0.0279582 0
M  V30 32348 H 5357.32 6.10038 -0.450573 0
M  V30 32349 H 5356.83 5.02007 0.89937 0
M  V30 32350 H 5356.09 0.995326 -1.00435 0
M  V30 32351 P 5354.67 4.23843 -7.83734 0
M  V30 32352 O 5354.45 4.19407 -9.29784 0
M  V30 32353 O 5353.88 5.24426 -7.09156 0
M  V30 32354 O 5354.42 2.7935 -7.20758 0
M  V30 32355 C 5355.36 1.7299 -7.50419 0
M  V30 32356 C 5354.63 0.406376 -7.57911 0
M  V30 32357 O 5354.42 -0.0897726 -6.21935 0
M  V30 32358 C 5353.23 0.447224 -8.1878 0
M  V30 32359 O 5352.84 -0.825065 -8.71101 0
M  V30 32360 C 5352.35 0.783801 -6.99623 0
M  V30 32361 C 5353.06 0.0619192 -5.85967 0
M  V30 32362 N 5353.01 0.7859 -4.56281 0
M  V30 32363 H 5355.85 1.93423 -8.4679 0
M  V30 32364 H 5356.12 1.68181 -6.71046 0
M  V30 32365 H 5355.25 -0.289041 -8.15388 0
M  V30 32366 P 5351.29 -1.17771 -8.83182 0
M  V30 32367 O 5351.07 -2.07206 -9.98732 0
M  V30 32368 O 5350.5 0.0743816 -8.81969 0
M  V30 32369 O 5351.04 -1.97652 -7.47304 0
M  V30 32370 C 5351.98 -3.01133 -7.08783 0
M  V30 32371 C 5351.25 -4.12613 -6.37049 0
M  V30 32372 O 5351.04 -3.72827 -4.97879 0
M  V30 32373 C 5349.85 -4.45085 -6.88694 0
M  V30 32374 O 5349.46 -5.7877 -6.5624 0
M  V30 32375 C 5348.97 -3.47817 -6.12078 0
M  V30 32376 C 5349.68 -3.39414 -4.77697 0
M  V30 32377 N 5349.63 -2.04615 -4.15333 0
M  V30 32378 H 5352.47 -3.41248 -7.98759 0
M  V30 32379 H 5352.74 -2.5837 -6.41742 0
M  V30 32380 H 5351.87 -5.02657 -6.42673 0
M  V30 32381 P 5347.91 -6.144 -6.45285 0
M  V30 32382 O 5347.69 -7.54673 -6.86199 0
M  V30 32383 O 5347.12 -5.12391 -7.179 0
M  V30 32384 O 5347.66 -5.99158 -4.88404 0
M  V30 32385 C 5348.6 -6.60234 -3.96415 0
M  V30 32386 C 5347.87 -7.08259 -2.72856 0
M  V30 32387 O 5347.66 -5.9427 -1.83651 0
M  V30 32388 C 5346.47 -7.64886 -2.9555 0
M  V30 32389 O 5346.08 -8.53963 -1.90717 0
M  V30 32390 C 5345.59 -6.4116 -2.90739 0
M  V30 32391 C 5346.3 -5.55375 -1.86963 0
M  V30 32392 N 5346.25 -4.09664 -2.15742 0
M  V30 32393 H 5349.09 -7.45574 -4.45629 0
M  V30 32394 H 5349.36 -5.86232 -3.67314 0
M  V30 32395 H 5348.49 -7.84412 -2.24479 0
M  V30 32396 P 5344.53 -8.7635 -1.60911 0
M  V30 32397 O 5344.31 -10.1388 -1.11561 0
M  V30 32398 O 5343.74 -8.36503 -2.79617 0
M  V30 32399 O 5344.28 -7.71806 -0.42951 0
M  V30 32400 C 5345.22 -7.67148 0.673689 0
M  V30 32401 C 5344.49 -7.33374 1.95559 0
M  V30 32402 O 5344.28 -5.88721 2.00726 0
M  V30 32403 C 5343.09 -7.92526 2.10483 0
M  V30 32404 O 5342.7 -8.02971 3.47653 0
M  V30 32405 C 5342.21 -6.89602 1.41652 0
M  V30 32406 C 5342.92 -5.59201 1.75185 0
M  V30 32407 N 5342.87 -4.58235 0.662552 0
M  V30 32408 H 5345.71 -8.65116 0.777161 0
M  V30 32409 H 5345.98 -6.90173 0.474152 0
M  V30 32410 H 5345.11 -7.66548 2.79458 0
M  V30 32411 P 5341.15 -8.03563 3.84925 0
M  V30 32412 O 5340.93 -8.85821 5.0569 0
M  V30 32413 O 5340.36 -8.41101 2.65469 0
M  V30 32414 O 5340.9 -6.4965 4.18908 0
M  V30 32415 C 5341.84 -5.81037 5.05421 0
M  V30 32416 C 5341.11 -4.78366 5.89277 0
M  V30 32417 O 5340.9 -3.58302 5.08433 0
M  V30 32418 C 5339.71 -5.17448 6.36119 0
M  V30 32419 O 5339.32 -4.45271 7.53232 0
M  V30 32420 C 5338.83 -4.74639 5.19936 0
M  V30 32421 C 5339.54 -3.49432 4.70418 0
M  V30 32422 N 5339.49 -3.31776 3.22945 0
M  V30 32423 H 5342.33 -6.54213 5.71376 0
M  V30 32424 H 5342.6 -5.30492 4.44033 0
M  V30 32425 H 5341.73 -4.55889 6.76652 0
M  V30 32426 P 5337.77 -4.23843 7.83734 0
M  V30 32427 O 5337.55 -4.19407 9.29784 0
M  V30 32428 O 5336.98 -5.24426 7.09156 0
M  V30 32429 O 5337.52 -2.7935 7.20758 0
M  V30 32430 C 5338.46 -1.72945 7.50224 0
M  V30 32431 C 5337.73 -0.406376 7.57911 0
M  V30 32432 O 5337.52 0.0897726 6.21935 0
M  V30 32433 C 5336.33 -0.438983 8.18724 0
M  V30 32434 O 5335.94 0.825065 8.71101 0
M  V30 32435 C 5335.45 -0.783689 6.99524 0
M  V30 32436 C 5336.16 -0.0619086 5.85867 0
M  V30 32437 N 5336.11 -0.78573 4.56183 0
M  V30 32438 C 5335.96 -0.0292889 3.41887 0
M  V30 32439 O 5335.87 1.18445 3.4419 0
M  V30 32440 N 5335.92 -0.744061 2.23964 0
M  V30 32441 C 5336.01 -2.10932 2.10362 0
M  V30 32442 O 5335.96 -2.64117 0.98825 0
M  V30 32443 C 5336.16 -2.8202 3.34994 0
M  V30 32444 C 5336.27 -4.31095 3.25037 0
M  V30 32445 C 5336.21 -2.15547 4.52261 0
M  V30 32446 H 5338.95 -1.93379 8.46595 0
M  V30 32447 H 5339.22 -1.68132 6.70852 0
M  V30 32448 H 5338.35 0.289041 8.15388 0
M  V30 32449 H 5335.7 0.926847 5.72749 0
M  V30 32450 H 5335.42 -1.86973 6.82036 0
M  V30 32451 H 5334.43 -0.403896 7.13257 0
M  V30 32452 H 5336.26 -1.20585 8.97435 0
M  V30 32453 H 5336.33 -2.71231 5.45042 0
M  V30 32454 H 5335.3 -4.76966 3.49992 0
M  V30 32455 H 5337.04 -4.67047 3.95024 0
M  V30 32456 H 5336.55 -4.58996 2.22312 0
M  V30 32457 H 5335.81 -0.214893 1.39758 0
M  V30 32458 P 5334.39 1.17771 8.83182 0
M  V30 32459 O 5334.17 2.07206 9.98732 0
M  V30 32460 O 5333.6 -0.0743816 8.81969 0
M  V30 32461 O 5334.14 1.97652 7.47304 0
M  V30 32462 C 5335.08 3.01133 7.08783 0
M  V30 32463 C 5334.35 4.12613 6.37049 0
M  V30 32464 O 5334.14 3.72827 4.97879 0
M  V30 32465 C 5332.95 4.45085 6.88694 0
M  V30 32466 O 5332.56 5.7877 6.5624 0
M  V30 32467 C 5332.07 3.47817 6.12078 0
M  V30 32468 C 5332.78 3.39414 4.77697 0
M  V30 32469 N 5332.73 2.04615 4.15333 0
M  V30 32470 H 5335.57 3.41248 7.98759 0
M  V30 32471 H 5335.84 2.5837 6.41742 0
M  V30 32472 H 5334.97 5.02657 6.42673 0
M  V30 32473 P 5331.01 6.144 6.45285 0
M  V30 32474 O 5330.79 7.54673 6.86199 0
M  V30 32475 O 5330.22 5.12391 7.179 0
M  V30 32476 O 5330.76 5.99236 4.88467 0
M  V30 32477 C 5331.7 6.60234 3.96415 0
M  V30 32478 C 5330.97 7.08079 2.736 0
M  V30 32479 O 5330.76 5.94365 1.8368 0
M  V30 32480 C 5329.57 7.64886 2.9555 0
M  V30 32481 O 5329.18 8.5406 1.90739 0
M  V30 32482 C 5328.69 6.4116 2.90739 0
M  V30 32483 C 5329.4 5.55375 1.86963 0
M  V30 32484 N 5329.35 4.09664 2.15742 0
M  V30 32485 C 5329.2 3.22231 1.08477 0
M  V30 32486 O 5329.11 3.68951 -0.0600489 0
M  V30 32487 N 5329.15 1.76692 1.48799 0
M  V30 32488 C 5329.25 1.41695 2.57602 0
M  V30 32489 N 5329.2 0.107296 2.75791 0
M  V30 32490 C 5329.4 2.29178 3.69733 0
M  V30 32491 C 5329.45 3.62753 3.42653 0
M  V30 32492 H 5332.19 7.45488 4.45578 0
M  V30 32493 H 5332.46 5.86232 3.67314 0
M  V30 32494 H 5331.59 7.84508 2.24507 0
M  V30 32495 H 5328.94 5.73556 0.888715 0
M  V30 32496 H 5328.66 5.9096 3.88638 0
M  V30 32497 H 5327.67 6.66053 2.58894 0
M  V30 32498 H 5329.5 8.16339 3.92049 0
M  V30 32499 H 5329.57 4.33052 4.24913 0
M  V30 32500 H 5329.47 1.9103 4.71577 0
M  V30 32501 H 5329.08 -0.521221 1.95056 0
M  V30 32502 H 5329.28 -0.286429 3.70695 0
M  V30 32503 P 5327.63 8.7635 1.60911 0
M  V30 32504 O 5327.41 10.1388 1.11561 0
M  V30 32505 O 5326.84 8.36503 2.79617 0
M  V30 32506 O 5327.38 7.71806 0.42951 0
M  V30 32507 C 5328.32 7.67148 -0.673689 0
M  V30 32508 C 5327.59 7.33374 -1.95559 0
M  V30 32509 O 5327.38 5.88721 -2.00726 0
M  V30 32510 C 5326.19 7.92526 -2.10483 0
M  V30 32511 O 5325.8 8.02971 -3.47653 0
M  V30 32512 C 5325.31 6.89602 -1.41652 0
M  V30 32513 C 5326.02 5.59201 -1.75185 0
M  V30 32514 N 5325.97 4.58235 -0.662552 0
M  V30 32515 H 5328.81 8.65116 -0.777161 0
M  V30 32516 H 5329.08 6.90173 -0.474152 0
M  V30 32517 H 5328.21 7.66548 -2.79458 0
M  V30 32518 P 5324.25 8.03563 -3.84925 0
M  V30 32519 O 5324.03 8.85821 -5.0569 0
M  V30 32520 O 5323.46 8.41101 -2.65469 0
M  V30 32521 O 5324 6.4965 -4.18908 0
M  V30 32522 C 5324.94 5.81037 -5.05421 0
M  V30 32523 C 5324.21 4.78366 -5.89277 0
M  V30 32524 O 5324 3.58302 -5.08433 0
M  V30 32525 C 5322.81 5.17448 -6.36119 0
M  V30 32526 O 5322.42 4.45271 -7.53232 0
M  V30 32527 C 5321.93 4.74639 -5.19936 0
M  V30 32528 C 5322.64 3.49432 -4.70418 0
M  V30 32529 N 5322.59 3.31776 -3.22945 0
M  V30 32530 H 5325.43 6.54213 -5.71376 0
M  V30 32531 H 5325.7 5.30492 -4.44033 0
M  V30 32532 H 5324.83 4.55889 -6.76652 0
M  V30 32533 P 5320.87 4.23843 -7.83734 0
M  V30 32534 O 5320.65 4.19407 -9.29784 0
M  V30 32535 O 5320.08 5.24426 -7.09156 0
M  V30 32536 O 5320.62 2.7935 -7.20758 0
M  V30 32537 C 5321.56 1.72945 -7.50224 0
M  V30 32538 C 5320.83 0.406376 -7.57911 0
M  V30 32539 O 5320.62 -0.0897726 -6.21935 0
M  V30 32540 C 5319.43 0.438983 -8.18724 0
M  V30 32541 O 5319.04 -0.825065 -8.71101 0
M  V30 32542 C 5318.55 0.783689 -6.99524 0
M  V30 32543 C 5319.26 0.0619086 -5.85867 0
M  V30 32544 N 5319.21 0.78573 -4.56183 0
M  V30 32545 C 5319.06 0.0292889 -3.41887 0
M  V30 32546 O 5318.97 -1.18445 -3.4419 0
M  V30 32547 N 5319.02 0.744061 -2.23964 0
M  V30 32548 C 5319.11 2.10932 -2.10362 0
M  V30 32549 C 5319.26 2.8202 -3.34994 0
M  V30 32550 C 5319.31 2.15547 -4.52261 0
M  V30 32551 H 5322.05 1.93379 -8.46595 0
M  V30 32552 H 5322.32 1.68132 -6.70852 0
M  V30 32553 H 5321.45 -0.289041 -8.15388 0
M  V30 32554 H 5318.8 -0.926847 -5.72749 0
M  V30 32555 H 5318.52 1.86973 -6.82036 0
M  V30 32556 H 5317.53 0.403896 -7.13257 0
M  V30 32557 H 5319.36 1.20585 -8.97435 0
M  V30 32558 H 5319.43 2.71231 -5.45042 0
M  V30 32559 P 5317.49 -1.17771 -8.83182 0
M  V30 32560 O 5317.27 -2.07206 -9.98732 0
M  V30 32561 O 5316.7 0.0743816 -8.81969 0
M  V30 32562 O 5317.24 -1.97652 -7.47304 0
M  V30 32563 C 5318.18 -3.01133 -7.08783 0
M  V30 32564 C 5317.45 -4.12613 -6.37049 0
M  V30 32565 O 5317.24 -3.72827 -4.97879 0
M  V30 32566 C 5316.05 -4.45085 -6.88694 0
M  V30 32567 O 5315.66 -5.7877 -6.5624 0
M  V30 32568 C 5315.17 -3.47817 -6.12078 0
M  V30 32569 C 5315.88 -3.39414 -4.77697 0
M  V30 32570 N 5315.83 -2.04615 -4.15333 0
M  V30 32571 H 5318.67 -3.41248 -7.98759 0
M  V30 32572 H 5318.94 -2.5837 -6.41742 0
M  V30 32573 H 5318.07 -5.02657 -6.42673 0
M  V30 32574 P 5314.11 -6.144 -6.45285 0
M  V30 32575 O 5313.89 -7.54673 -6.86199 0
M  V30 32576 O 5313.32 -5.12391 -7.179 0
M  V30 32577 O 5313.86 -5.99158 -4.88404 0
M  V30 32578 C 5314.8 -6.60234 -3.96415 0
M  V30 32579 C 5314.07 -7.08259 -2.72856 0
M  V30 32580 O 5313.86 -5.9427 -1.83651 0
M  V30 32581 C 5312.67 -7.64886 -2.9555 0
M  V30 32582 O 5312.28 -8.53963 -1.90717 0
M  V30 32583 C 5311.79 -6.4116 -2.90739 0
M  V30 32584 C 5312.5 -5.55375 -1.86963 0
M  V30 32585 N 5312.45 -4.09448 -2.16152 0
M  V30 32586 H 5315.29 -7.45574 -4.45629 0
M  V30 32587 H 5315.56 -5.85864 -3.679 0
M  V30 32588 H 5314.69 -7.84412 -2.24479 0
M  V30 32589 H 5312.04 -5.73457 -0.888562 0
M  V30 32590 H 5311.76 -5.90877 -3.88583 0
M  V30 32591 H 5310.77 -6.6596 -2.58858 0
M  V30 32592 H 5312.6 -8.16339 -3.92049 0
M  V30 32593 P 5310.73 -8.7635 -1.60911 0
M  V30 32594 O 5310.51 -10.1388 -1.11561 0
M  V30 32595 O 5309.94 -8.36503 -2.79617 0
M  V30 32596 O 5310.48 -7.71806 -0.42951 0
M  V30 32597 C 5311.42 -7.67148 0.673689 0
M  V30 32598 C 5310.69 -7.33374 1.95559 0
M  V30 32599 O 5310.48 -5.88721 2.00726 0
M  V30 32600 C 5309.29 -7.92526 2.10483 0
M  V30 32601 O 5308.9 -8.02971 3.47653 0
M  V30 32602 C 5308.41 -6.89602 1.41652 0
M  V30 32603 C 5309.12 -5.59201 1.75185 0
M  V30 32604 N 5309.07 -4.58301 0.657969 0
M  V30 32605 H 5311.91 -8.65116 0.777161 0
M  V30 32606 H 5312.18 -6.9022 0.46725 0
M  V30 32607 H 5311.31 -7.66548 2.79458 0
M  V30 32608 H 5308.66 -5.16165 2.65183 0
M  V30 32609 H 5308.38 -7.06433 0.329384 0
M  V30 32610 H 5307.39 -6.90926 1.82021 0
M  V30 32611 H 5309.22 -8.90873 1.62657 0
M  V30 32612 P 5307.35 -8.03563 3.84925 0
M  V30 32613 O 5307.13 -8.85821 5.0569 0
M  V30 32614 O 5306.56 -8.41101 2.65469 0
M  V30 32615 O 5307.1 -6.4965 4.18908 0
M  V30 32616 C 5308.04 -5.81037 5.05421 0
M  V30 32617 C 5307.31 -4.78366 5.89277 0
M  V30 32618 O 5307.1 -3.58302 5.08433 0
M  V30 32619 C 5305.91 -5.17448 6.36119 0
M  V30 32620 O 5305.52 -4.45271 7.53232 0
M  V30 32621 C 5305.03 -4.74639 5.19936 0
M  V30 32622 C 5305.74 -3.49432 4.70418 0
M  V30 32623 N 5305.69 -3.31776 3.22945 0
M  V30 32624 H 5308.53 -6.54213 5.71376 0
M  V30 32625 H 5308.8 -5.30492 4.44033 0
M  V30 32626 H 5307.93 -4.55889 6.76652 0
M  V30 32627 P 5303.97 -4.23843 7.83734 0
M  V30 32628 O 5303.75 -4.19407 9.29784 0
M  V30 32629 O 5303.18 -5.24426 7.09156 0
M  V30 32630 O 5303.72 -2.7935 7.20758 0
M  V30 32631 C 5304.66 -1.7299 7.50419 0
M  V30 32632 C 5303.93 -0.406376 7.57911 0
M  V30 32633 O 5303.72 0.0897726 6.21935 0
M  V30 32634 C 5302.53 -0.447224 8.1878 0
M  V30 32635 O 5302.14 0.825065 8.71101 0
M  V30 32636 C 5301.65 -0.783801 6.99623 0
M  V30 32637 C 5302.36 -0.0619192 5.85967 0
M  V30 32638 N 5302.31 -0.7859 4.56281 0
M  V30 32639 H 5305.15 -1.93423 8.4679 0
M  V30 32640 H 5305.42 -1.68181 6.71046 0
M  V30 32641 H 5304.55 0.289041 8.15388 0
M  V30 32642 P 5300.59 1.17771 8.83182 0
M  V30 32643 O 5300.37 2.07206 9.98732 0
M  V30 32644 O 5299.8 -0.0743816 8.81969 0
M  V30 32645 O 5300.34 1.97652 7.47304 0
M  V30 32646 C 5301.28 3.01133 7.08783 0
M  V30 32647 C 5300.55 4.12613 6.37049 0
M  V30 32648 O 5300.34 3.72827 4.97879 0
M  V30 32649 C 5299.15 4.45085 6.88694 0
M  V30 32650 O 5298.76 5.7877 6.5624 0
M  V30 32651 C 5298.27 3.47817 6.12078 0
M  V30 32652 C 5298.98 3.39414 4.77697 0
M  V30 32653 N 5298.93 2.04615 4.15333 0
M  V30 32654 H 5301.77 3.41248 7.98759 0
M  V30 32655 H 5302.04 2.5837 6.41742 0
M  V30 32656 H 5301.17 5.02657 6.42673 0
M  V30 32657 P 5297.21 6.144 6.45285 0
M  V30 32658 O 5296.99 7.54673 6.86199 0
M  V30 32659 O 5296.42 5.12391 7.179 0
M  V30 32660 O 5296.96 5.99236 4.88467 0
M  V30 32661 C 5297.9 6.60234 3.96415 0
M  V30 32662 C 5297.17 7.08079 2.736 0
M  V30 32663 O 5296.96 5.94365 1.8368 0
M  V30 32664 C 5295.77 7.64886 2.9555 0
M  V30 32665 O 5295.38 8.5406 1.90739 0
M  V30 32666 C 5294.89 6.4116 2.90739 0
M  V30 32667 C 5295.6 5.55375 1.86963 0
M  V30 32668 N 5295.55 4.09664 2.15742 0
M  V30 32669 C 5295.4 3.22231 1.08477 0
M  V30 32670 O 5295.31 3.68951 -0.0600489 0
M  V30 32671 N 5295.35 1.76692 1.48799 0
M  V30 32672 C 5295.45 1.41695 2.57602 0
M  V30 32673 N 5295.4 0.107296 2.75791 0
M  V30 32674 C 5295.6 2.29178 3.69733 0
M  V30 32675 C 5295.65 3.62753 3.42653 0
M  V30 32676 H 5298.39 7.45488 4.45578 0
M  V30 32677 H 5298.66 5.86232 3.67314 0
M  V30 32678 H 5297.79 7.84508 2.24507 0
M  V30 32679 H 5295.14 5.73556 0.888715 0
M  V30 32680 H 5294.86 5.9096 3.88638 0
M  V30 32681 H 5293.87 6.66053 2.58894 0
M  V30 32682 H 5295.7 8.16339 3.92049 0
M  V30 32683 H 5295.77 4.33052 4.24913 0
M  V30 32684 H 5295.67 1.9103 4.71577 0
M  V30 32685 H 5295.28 -0.521221 1.95056 0
M  V30 32686 H 5295.48 -0.286429 3.70695 0
M  V30 32687 P 5293.83 8.7635 1.60911 0
M  V30 32688 O 5293.61 10.1388 1.11561 0
M  V30 32689 O 5293.04 8.36503 2.79617 0
M  V30 32690 O 5293.58 7.71806 0.42951 0
M  V30 32691 C 5294.52 7.67148 -0.673689 0
M  V30 32692 C 5293.79 7.33374 -1.95559 0
M  V30 32693 O 5293.58 5.88721 -2.00726 0
M  V30 32694 C 5292.39 7.92526 -2.10483 0
M  V30 32695 O 5292 8.02971 -3.47653 0
M  V30 32696 C 5291.51 6.89602 -1.41652 0
M  V30 32697 C 5292.22 5.59201 -1.75185 0
M  V30 32698 N 5292.17 4.58235 -0.662552 0
M  V30 32699 H 5295.01 8.65116 -0.777161 0
M  V30 32700 H 5295.28 6.90173 -0.474152 0
M  V30 32701 H 5294.41 7.66548 -2.79458 0
M  V30 32702 P 5290.45 8.03563 -3.84925 0
M  V30 32703 O 5290.23 8.85821 -5.0569 0
M  V30 32704 O 5289.66 8.41101 -2.65469 0
M  V30 32705 O 5290.2 6.4965 -4.18908 0
M  V30 32706 C 5291.14 5.81037 -5.05421 0
M  V30 32707 C 5290.41 4.78366 -5.89277 0
M  V30 32708 O 5290.2 3.58302 -5.08433 0
M  V30 32709 C 5289.01 5.17448 -6.36119 0
M  V30 32710 O 5288.62 4.45271 -7.53232 0
M  V30 32711 C 5288.13 4.74639 -5.19936 0
M  V30 32712 C 5288.84 3.49432 -4.70418 0
M  V30 32713 N 5288.79 3.31776 -3.22945 0
M  V30 32714 H 5291.63 6.54213 -5.71376 0
M  V30 32715 H 5291.9 5.30492 -4.44033 0
M  V30 32716 H 5291.03 4.55889 -6.76652 0
M  V30 32717 P 5287.07 4.23843 -7.83734 0
M  V30 32718 O 5286.85 4.19407 -9.29784 0
M  V30 32719 O 5286.28 5.24426 -7.09156 0
M  V30 32720 O 5286.82 2.7935 -7.20758 0
M  V30 32721 C 5287.76 1.72945 -7.50224 0
M  V30 32722 C 5287.03 0.406376 -7.57911 0
M  V30 32723 O 5286.82 -0.0897726 -6.21935 0
M  V30 32724 C 5285.63 0.438983 -8.18724 0
M  V30 32725 O 5285.24 -0.825065 -8.71101 0
M  V30 32726 C 5284.75 0.783689 -6.99524 0
M  V30 32727 C 5285.46 0.0619086 -5.85867 0
M  V30 32728 N 5285.41 0.78573 -4.56183 0
M  V30 32729 C 5285.26 0.0292889 -3.41887 0
M  V30 32730 O 5285.17 -1.18445 -3.4419 0
M  V30 32731 N 5285.22 0.744061 -2.23964 0
M  V30 32732 C 5285.31 2.10932 -2.10362 0
M  V30 32733 C 5285.46 2.8202 -3.34994 0
M  V30 32734 C 5285.51 2.15547 -4.52261 0
M  V30 32735 H 5288.25 1.93379 -8.46595 0
M  V30 32736 H 5288.52 1.68132 -6.70852 0
M  V30 32737 H 5287.65 -0.289041 -8.15388 0
M  V30 32738 H 5285 -0.926847 -5.72749 0
M  V30 32739 H 5284.72 1.86973 -6.82036 0
M  V30 32740 H 5283.73 0.403896 -7.13257 0
M  V30 32741 H 5285.56 1.20585 -8.97435 0
M  V30 32742 H 5285.63 2.71231 -5.45042 0
M  V30 32743 P 5283.69 -1.17771 -8.83182 0
M  V30 32744 O 5283.47 -2.07206 -9.98732 0
M  V30 32745 O 5282.9 0.0743816 -8.81969 0
M  V30 32746 O 5283.44 -1.97652 -7.47304 0
M  V30 32747 C 5284.38 -3.01133 -7.08783 0
M  V30 32748 C 5283.65 -4.12613 -6.37049 0
M  V30 32749 O 5283.44 -3.72827 -4.97879 0
M  V30 32750 C 5282.25 -4.45085 -6.88694 0
M  V30 32751 O 5281.86 -5.7877 -6.5624 0
M  V30 32752 C 5281.37 -3.47817 -6.12078 0
M  V30 32753 C 5282.08 -3.39414 -4.77697 0
M  V30 32754 N 5282.03 -2.04615 -4.15333 0
M  V30 32755 C 5282.11 -0.803897 -4.75249 0
M  V30 32756 N 5282.03 0.197615 -3.91502 0
M  V30 32757 C 5281.89 -0.413002 -2.66823 0
M  V30 32758 C 5281.76 0.157221 -1.38007 0
M  V30 32759 N 5281.64 -0.833136 -0.390236 0
M  V30 32760 C 5281.64 -2.19402 -0.623885 0
M  V30 32761 N 5281.51 -2.97622 0.449677 0
M  V30 32762 N 5281.77 -2.73005 -1.83601 0
M  V30 32763 C 5281.89 -1.78786 -2.80935 0
M  V30 32764 H 5284.87 -3.41248 -7.98759 0
M  V30 32765 H 5285.14 -2.5837 -6.41742 0
M  V30 32766 H 5284.27 -5.02657 -6.42673 0
M  V30 32767 P 5280.31 -6.144 -6.45285 0
M  V30 32768 O 5280.09 -7.54673 -6.86199 0
M  V30 32769 O 5279.52 -5.12391 -7.179 0
M  V30 32770 O 5280.06 -5.99158 -4.88404 0
M  V30 32771 C 5281 -6.60234 -3.96415 0
M  V30 32772 C 5280.27 -7.08259 -2.72856 0
M  V30 32773 O 5280.06 -5.9427 -1.83651 0
M  V30 32774 C 5278.87 -7.64886 -2.9555 0
M  V30 32775 O 5278.48 -8.53963 -1.90717 0
M  V30 32776 C 5277.99 -6.4116 -2.90739 0
M  V30 32777 C 5278.7 -5.55375 -1.86963 0
M  V30 32778 N 5278.65 -4.09448 -2.16152 0
M  V30 32779 C 5278.73 -3.46824 -3.37593 0
M  V30 32780 N 5278.66 -2.17422 -3.29777 0
M  V30 32781 C 5278.51 -1.93065 -1.94427 0
M  V30 32782 C 5278.38 -0.738053 -1.20141 0
M  V30 32783 N 5278.37 0.474256 -1.74676 0
M  V30 32784 N 5278.26 -0.850049 0.13045 0
M  V30 32785 C 5278.27 -2.06169 0.676992 0
M  V30 32786 N 5278.39 -3.23842 0.101312 0
M  V30 32787 C 5278.51 -3.09402 -1.23122 0
M  V30 32788 H 5281.49 -7.45574 -4.45629 0
M  V30 32789 H 5281.76 -5.85864 -3.679 0
M  V30 32790 H 5280.89 -7.84412 -2.24479 0
M  V30 32791 H 5278.24 -5.73457 -0.888562 0
M  V30 32792 H 5277.96 -5.90877 -3.88583 0
M  V30 32793 H 5276.97 -6.6596 -2.58858 0
M  V30 32794 H 5278.8 -8.16339 -3.92049 0
M  V30 32795 H 5278.84 -4.00505 -4.3174 0
M  V30 32796 H 5278.46 0.581337 -2.76658 0
M  V30 32797 H 5278.27 1.30811 -1.14888 0
M  V30 32798 H 5278.16 -2.08295 1.75542 0
M  V30 32799 P 5276.93 -8.7635 -1.60911 0
M  V30 32800 O 5276.71 -10.1388 -1.11561 0
M  V30 32801 O 5276.14 -8.36503 -2.79617 0
M  V30 32802 O 5276.68 -7.71806 -0.42951 0
M  V30 32803 C 5277.62 -7.67148 0.673689 0
M  V30 32804 C 5276.89 -7.33374 1.95559 0
M  V30 32805 O 5276.68 -5.88721 2.00726 0
M  V30 32806 C 5275.49 -7.92526 2.10483 0
M  V30 32807 O 5275.1 -8.02971 3.47653 0
M  V30 32808 C 5274.61 -6.89602 1.41652 0
M  V30 32809 C 5275.32 -5.59201 1.75185 0
M  V30 32810 N 5275.27 -4.58301 0.657969 0
M  V30 32811 H 5278.11 -8.65116 0.777161 0
M  V30 32812 H 5278.38 -6.9022 0.46725 0
M  V30 32813 H 5277.51 -7.66548 2.79458 0
M  V30 32814 H 5274.86 -5.16165 2.65183 0
M  V30 32815 H 5274.58 -7.06433 0.329384 0
M  V30 32816 H 5273.59 -6.90926 1.82021 0
M  V30 32817 H 5275.42 -8.90873 1.62657 0
M  V30 32818 P 5273.55 -8.03563 3.84925 0
M  V30 32819 O 5273.33 -8.85821 5.0569 0
M  V30 32820 O 5272.76 -8.41101 2.65469 0
M  V30 32821 O 5273.3 -6.4965 4.18908 0
M  V30 32822 C 5274.24 -5.81037 5.05421 0
M  V30 32823 C 5273.51 -4.78366 5.89277 0
M  V30 32824 O 5273.3 -3.58302 5.08433 0
M  V30 32825 C 5272.11 -5.17448 6.36119 0
M  V30 32826 O 5271.72 -4.45271 7.53232 0
M  V30 32827 C 5271.23 -4.74639 5.19936 0
M  V30 32828 C 5271.94 -3.49432 4.70418 0
M  V30 32829 N 5271.89 -3.31776 3.22945 0
M  V30 32830 H 5274.73 -6.54213 5.71376 0
M  V30 32831 H 5275 -5.30492 4.44033 0
M  V30 32832 H 5274.13 -4.55889 6.76652 0
M  V30 32833 P 5270.17 -4.23843 7.83734 0
M  V30 32834 O 5269.95 -4.19407 9.29784 0
M  V30 32835 O 5269.38 -5.24426 7.09156 0
M  V30 32836 O 5269.92 -2.7935 7.20758 0
M  V30 32837 C 5270.86 -1.7299 7.50419 0
M  V30 32838 C 5270.13 -0.406376 7.57911 0
M  V30 32839 O 5269.92 0.0897726 6.21935 0
M  V30 32840 C 5268.73 -0.447224 8.1878 0
M  V30 32841 O 5268.34 0.825065 8.71101 0
M  V30 32842 C 5267.85 -0.783801 6.99623 0
M  V30 32843 C 5268.56 -0.0619192 5.85967 0
M  V30 32844 N 5268.51 -0.7859 4.56281 0
M  V30 32845 H 5271.35 -1.93423 8.4679 0
M  V30 32846 H 5271.62 -1.68181 6.71046 0
M  V30 32847 H 5270.75 0.289041 8.15388 0
M  V30 32848 P 5266.79 1.17771 8.83182 0
M  V30 32849 O 5266.57 2.07206 9.98732 0
M  V30 32850 O 5266 -0.0743816 8.81969 0
M  V30 32851 O 5266.54 1.97678 7.474 0
M  V30 32852 C 5267.48 3.01133 7.08783 0
M  V30 32853 C 5266.75 4.1203 6.37546 0
M  V30 32854 O 5266.54 3.72887 4.9796 0
M  V30 32855 C 5265.35 4.45085 6.88694 0
M  V30 32856 O 5264.96 5.78836 6.56315 0
M  V30 32857 C 5264.47 3.47817 6.12078 0
M  V30 32858 C 5265.18 3.39414 4.77697 0
M  V30 32859 N 5265.13 2.04615 4.15333 0
M  V30 32860 C 5264.98 1.96929 2.77162 0
M  V30 32861 O 5264.89 3.02017 2.12006 0
M  V30 32862 N 5264.93 0.55485 2.24237 0
M  V30 32863 C 5265.03 -0.367808 2.9169 0
M  V30 32864 N 5264.98 -1.53426 2.29427 0
M  V30 32865 C 5265.18 -0.319148 4.33828 0
M  V30 32866 C 5265.23 0.920672 4.90433 0
M  V30 32867 H 5267.97 3.41209 7.98667 0
M  V30 32868 H 5268.24 2.5837 6.41742 0
M  V30 32869 H 5267.37 5.02718 6.42752 0
M  V30 32870 H 5264.72 4.11779 4.09026 0
M  V30 32871 H 5264.44 2.49661 6.61772 0
M  V30 32872 H 5263.45 3.86674 6.00946 0
M  V30 32873 H 5265.28 4.29991 7.97006 0
M  V30 32874 H 5265.35 1.00589 5.98303 0
M  V30 32875 H 5265.25 -1.22639 4.93799 0
M  V30 32876 H 5264.86 -1.56819 1.27167 0
M  V30 32877 H 5265.06 -2.41062 2.83063 0
M  V30 32878 P 5263.41 6.144 6.45285 0
M  V30 32879 O 5263.19 7.54673 6.86199 0
M  V30 32880 O 5262.62 5.12391 7.179 0
M  V30 32881 O 5263.16 5.99158 4.88404 0
M  V30 32882 C 5264.1 6.60234 3.96415 0
M  V30 32883 C 5263.37 7.08259 2.72856 0
M  V30 32884 O 5263.16 5.9427 1.83651 0
M  V30 32885 C 5261.97 7.64886 2.9555 0
M  V30 32886 O 5261.58 8.53963 1.90717 0
M  V30 32887 C 5261.09 6.4116 2.90739 0
M  V30 32888 C 5261.8 5.55375 1.86963 0
M  V30 32889 N 5261.75 4.09664 2.15742 0
M  V30 32890 H 5264.59 7.45574 4.45629 0
M  V30 32891 H 5264.86 5.86232 3.67314 0
M  V30 32892 H 5263.99 7.84412 2.24479 0
M  V30 32893 P 5260.03 8.7635 1.60911 0
M  V30 32894 O 5259.81 10.1388 1.11561 0
M  V30 32895 O 5259.24 8.36503 2.79617 0
M  V30 32896 O 5259.78 7.71806 0.42951 0
M  V30 32897 C 5260.72 7.67148 -0.673689 0
M  V30 32898 C 5259.99 7.33374 -1.95559 0
M  V30 32899 O 5259.78 5.88721 -2.00726 0
M  V30 32900 C 5258.59 7.92526 -2.10483 0
M  V30 32901 O 5258.2 8.02971 -3.47653 0
M  V30 32902 C 5257.71 6.89602 -1.41652 0
M  V30 32903 C 5258.42 5.59201 -1.75185 0
M  V30 32904 N 5258.37 4.58301 -0.657969 0
M  V30 32905 H 5261.21 8.65116 -0.777161 0
M  V30 32906 H 5261.48 6.9022 -0.46725 0
M  V30 32907 H 5260.61 7.66548 -2.79458 0
M  V30 32908 H 5257.96 5.16165 -2.65183 0
M  V30 32909 H 5257.68 7.06433 -0.329384 0
M  V30 32910 H 5256.69 6.90926 -1.82021 0
M  V30 32911 H 5258.52 8.90873 -1.62657 0
M  V30 32912 P 5256.65 8.03563 -3.84925 0
M  V30 32913 O 5256.43 8.85821 -5.0569 0
M  V30 32914 O 5255.86 8.41101 -2.65469 0
M  V30 32915 O 5256.4 6.4965 -4.18908 0
M  V30 32916 C 5257.34 5.80886 -5.05289 0
M  V30 32917 C 5256.61 4.78366 -5.89277 0
M  V30 32918 O 5256.4 3.58302 -5.08433 0
M  V30 32919 C 5255.21 5.16748 -6.36559 0
M  V30 32920 O 5254.82 4.45271 -7.53232 0
M  V30 32921 C 5254.33 4.74572 -5.19863 0
M  V30 32922 C 5255.04 3.49373 -4.70338 0
M  V30 32923 N 5254.99 3.31704 -3.22876 0
M  V30 32924 C 5254.84 2.03326 -2.74871 0
M  V30 32925 O 5254.75 1.06486 -3.48076 0
M  V30 32926 N 5254.8 1.91838 -1.37456 0
M  V30 32927 C 5254.89 2.94295 -0.462035 0
M  V30 32928 C 5255.04 4.25064 -1.05249 0
M  V30 32929 C 5255.09 4.40214 -2.39192 0
M  V30 32930 H 5257.83 6.54063 -5.71245 0
M  V30 32931 H 5258.1 5.30339 -4.43905 0
M  V30 32932 H 5257.23 4.55889 -6.76652 0
M  V30 32933 H 5254.58 2.6167 -5.17842 0
M  V30 32934 H 5254.3 5.52155 -4.41878 0
M  V30 32935 H 5253.31 4.51918 -5.53297 0
M  V30 32936 H 5255.14 6.25055 -6.55162 0
M  V30 32937 H 5255.21 5.39798 -2.81523 0
M  V30 32938 P 5253.27 4.23843 -7.83734 0
M  V30 32939 O 5253.05 4.19407 -9.29784 0
M  V30 32940 O 5252.48 5.24426 -7.09156 0
M  V30 32941 O 5253.02 2.7935 -7.20758 0
M  V30 32942 C 5253.96 1.72945 -7.50224 0
M  V30 32943 C 5253.23 0.406376 -7.57911 0
M  V30 32944 O 5253.02 -0.0897726 -6.21935 0
M  V30 32945 C 5251.83 0.438983 -8.18724 0
M  V30 32946 O 5251.44 -0.825065 -8.71101 0
M  V30 32947 C 5250.95 0.783689 -6.99524 0
M  V30 32948 C 5251.66 0.0619086 -5.85867 0
M  V30 32949 N 5251.61 0.78573 -4.56183 0
M  V30 32950 C 5251.46 0.0292889 -3.41887 0
M  V30 32951 O 5251.37 -1.18445 -3.4419 0
M  V30 32952 N 5251.42 0.744061 -2.23964 0
M  V30 32953 C 5251.51 2.10932 -2.10362 0
M  V30 32954 O 5251.46 2.64117 -0.98825 0
M  V30 32955 C 5251.66 2.8202 -3.34994 0
M  V30 32956 C 5251.77 4.31095 -3.25037 0
M  V30 32957 C 5251.71 2.15547 -4.52261 0
M  V30 32958 H 5254.45 1.93379 -8.46595 0
M  V30 32959 H 5254.72 1.68132 -6.70852 0
M  V30 32960 H 5253.85 -0.289041 -8.15388 0
M  V30 32961 H 5251.2 -0.926847 -5.72749 0
M  V30 32962 H 5250.92 1.86973 -6.82036 0
M  V30 32963 H 5249.93 0.403896 -7.13257 0
M  V30 32964 H 5251.76 1.20585 -8.97435 0
M  V30 32965 H 5251.83 2.71231 -5.45042 0
M  V30 32966 H 5250.8 4.76966 -3.49992 0
M  V30 32967 H 5252.54 4.67047 -3.95024 0
M  V30 32968 H 5252.05 4.58996 -2.22312 0
M  V30 32969 H 5251.31 0.214893 -1.39758 0
M  V30 32970 P 5249.89 -1.17771 -8.83182 0
M  V30 32971 O 5249.67 -2.07206 -9.98732 0
M  V30 32972 O 5249.1 0.0743816 -8.81969 0
M  V30 32973 O 5249.64 -1.97652 -7.47304 0
M  V30 32974 C 5250.58 -3.01133 -7.08783 0
M  V30 32975 C 5249.85 -4.12613 -6.37049 0
M  V30 32976 O 5249.64 -3.72827 -4.97879 0
M  V30 32977 C 5248.45 -4.45085 -6.88694 0
M  V30 32978 O 5248.06 -5.7877 -6.5624 0
M  V30 32979 C 5247.57 -3.47817 -6.12078 0
M  V30 32980 C 5248.28 -3.39414 -4.77697 0
M  V30 32981 N 5248.23 -2.04615 -4.15333 0
M  V30 32982 C 5248.31 -0.803897 -4.75249 0
M  V30 32983 N 5248.23 0.197615 -3.91502 0
M  V30 32984 C 5248.09 -0.413002 -2.66823 0
M  V30 32985 C 5247.96 0.157221 -1.38007 0
M  V30 32986 O 5247.94 1.34419 -1.057 0
M  V30 32987 N 5247.84 -0.833136 -0.390236 0
M  V30 32988 C 5247.84 -2.19402 -0.623885 0
M  V30 32989 N 5247.71 -2.97622 0.449677 0
M  V30 32990 N 5247.97 -2.73005 -1.83601 0
M  V30 32991 C 5248.09 -1.78786 -2.80935 0
M  V30 32992 H 5251.07 -3.41248 -7.98759 0
M  V30 32993 H 5251.34 -2.5837 -6.41742 0
M  V30 32994 H 5250.47 -5.02657 -6.42673 0
M  V30 32995 H 5247.82 -4.11779 -4.09026 0
M  V30 32996 H 5247.54 -2.49661 -6.61772 0
M  V30 32997 H 5246.55 -3.86674 -6.00946 0
M  V30 32998 H 5248.38 -4.30038 -7.97094 0
M  V30 32999 H 5248.43 -0.670579 -5.82754 0
M  V30 33000 H 5247.75 -0.528446 0.557287 0
M  V30 33001 H 5247.71 -4.00117 0.344773 0
M  V30 33002 H 5247.61 -2.55448 1.38544 0
M  V30 33003 P 5246.51 -6.144 -6.45285 0
M  V30 33004 O 5246.29 -7.54673 -6.86199 0
M  V30 33005 O 5245.72 -5.12391 -7.179 0
M  V30 33006 O 5246.26 -5.99158 -4.88404 0
M  V30 33007 C 5247.2 -6.60234 -3.96415 0
M  V30 33008 C 5246.47 -7.08259 -2.72856 0
M  V30 33009 O 5246.26 -5.9427 -1.83651 0
M  V30 33010 C 5245.07 -7.64886 -2.9555 0
M  V30 33011 O 5244.68 -8.53963 -1.90717 0
M  V30 33012 C 5244.19 -6.4116 -2.90739 0
M  V30 33013 C 5244.9 -5.55375 -1.86963 0
M  V30 33014 N 5244.85 -4.09664 -2.15742 0
M  V30 33015 H 5247.69 -7.45574 -4.45629 0
M  V30 33016 H 5247.96 -5.86232 -3.67314 0
M  V30 33017 H 5247.09 -7.84412 -2.24479 0
M  V30 33018 P 5243.13 -8.7635 -1.60911 0
M  V30 33019 O 5242.91 -10.1388 -1.11561 0
M  V30 33020 O 5242.34 -8.36503 -2.79617 0
M  V30 33021 O 5242.88 -7.71806 -0.42951 0
M  V30 33022 C 5243.82 -7.66948 0.673514 0
M  V30 33023 C 5243.09 -7.33374 1.95559 0
M  V30 33024 O 5242.88 -5.88721 2.00726 0
M  V30 33025 C 5241.69 -7.92218 2.1125 0
M  V30 33026 O 5241.3 -8.02971 3.47653 0
M  V30 33027 C 5240.81 -6.89504 1.41631 0
M  V30 33028 C 5241.52 -5.59106 1.75155 0
M  V30 33029 N 5241.47 -4.58136 0.662409 0
M  V30 33030 C 5241.32 -3.26059 1.02863 0
M  V30 33031 O 5241.23 -2.90743 2.19009 0
M  V30 33032 N 5241.28 -2.35995 -0.0155585 0
M  V30 33033 C 5241.37 -2.65248 -1.35603 0
M  V30 33034 C 5241.52 -4.05747 -1.64698 0
M  V30 33035 C 5241.57 -4.96734 -0.652411 0
M  V30 33036 H 5244.31 -8.64917 0.776982 0
M  V30 33037 H 5244.58 -6.89974 0.474015 0
M  V30 33038 H 5243.71 -7.66548 2.79458 0
M  V30 33039 H 5241.06 -5.16076 2.65138 0
M  V30 33040 H 5240.78 -7.06433 0.329384 0
M  V30 33041 H 5239.79 -6.90829 1.81996 0
M  V30 33042 H 5241.62 -8.90774 1.62639 0
M  V30 33043 H 5241.69 -6.02181 -0.895285 0
M  V30 33044 P 5239.75 -8.03563 3.84925 0
M  V30 33045 O 5239.53 -8.85821 5.0569 0
M  V30 33046 O 5238.96 -8.41101 2.65469 0
M  V30 33047 O 5239.5 -6.4965 4.18908 0
M  V30 33048 C 5240.44 -5.81037 5.05421 0
M  V30 33049 C 5239.71 -4.78366 5.89277 0
M  V30 33050 O 5239.5 -3.58302 5.08433 0
M  V30 33051 C 5238.31 -5.17448 6.36119 0
M  V30 33052 O 5237.92 -4.45271 7.53232 0
M  V30 33053 C 5237.43 -4.74639 5.19936 0
M  V30 33054 C 5238.14 -3.49432 4.70418 0
M  V30 33055 N 5238.09 -3.31776 3.22945 0
M  V30 33056 H 5240.93 -6.54213 5.71376 0
M  V30 33057 H 5241.2 -5.30492 4.44033 0
M  V30 33058 H 5240.33 -4.55889 6.76652 0
M  V30 33059 P 5236.37 -4.23843 7.83734 0
M  V30 33060 O 5236.15 -4.19407 9.29784 0
M  V30 33061 O 5235.58 -5.24426 7.09156 0
M  V30 33062 O 5236.12 -2.7935 7.20758 0
M  V30 33063 C 5237.06 -1.7299 7.50419 0
M  V30 33064 C 5236.33 -0.406376 7.57911 0
M  V30 33065 O 5236.12 0.0897726 6.21935 0
M  V30 33066 C 5234.93 -0.447224 8.1878 0
M  V30 33067 O 5234.54 0.825065 8.71101 0
M  V30 33068 C 5234.05 -0.783801 6.99623 0
M  V30 33069 C 5234.76 -0.0619192 5.85967 0
M  V30 33070 N 5234.71 -0.790462 4.56202 0
M  V30 33071 H 5237.55 -1.93423 8.4679 0
M  V30 33072 H 5237.82 -1.68852 6.70877 0
M  V30 33073 H 5236.95 0.289041 8.15388 0
M  V30 33074 H 5234.3 0.927006 5.72848 0
M  V30 33075 H 5234.02 -1.86973 6.82036 0
M  V30 33076 H 5233.03 -0.403953 7.13357 0
M  V30 33077 H 5234.86 -1.20599 8.97534 0
M  V30 33078 P 5232.99 1.17771 8.83182 0
M  V30 33079 O 5232.77 2.07206 9.98732 0
M  V30 33080 O 5232.2 -0.0743816 8.81969 0
M  V30 33081 O 5232.74 1.97652 7.47304 0
M  V30 33082 C 5233.68 3.01133 7.08783 0
M  V30 33083 C 5232.95 4.12613 6.37049 0
M  V30 33084 O 5232.74 3.72827 4.97879 0
M  V30 33085 C 5231.55 4.45085 6.88694 0
M  V30 33086 O 5231.16 5.7877 6.5624 0
M  V30 33087 C 5230.67 3.47817 6.12078 0
M  V30 33088 C 5231.38 3.39414 4.77697 0
M  V30 33089 N 5231.33 2.04615 4.15333 0
M  V30 33090 H 5234.17 3.41248 7.98759 0
M  V30 33091 H 5234.44 2.5837 6.41742 0
M  V30 33092 H 5233.57 5.02657 6.42673 0
M  V30 33093 P 5229.61 6.144 6.45285 0
M  V30 33094 O 5229.39 7.54673 6.86199 0
M  V30 33095 O 5228.82 5.12391 7.179 0
M  V30 33096 O 5229.36 5.99158 4.88404 0
M  V30 33097 C 5230.3 6.60234 3.96415 0
M  V30 33098 C 5229.57 7.08259 2.72856 0
M  V30 33099 O 5229.36 5.9427 1.83651 0
M  V30 33100 C 5228.17 7.64886 2.9555 0
M  V30 33101 O 5227.78 8.53963 1.90717 0
M  V30 33102 C 5227.29 6.4116 2.90739 0
M  V30 33103 C 5228 5.55375 1.86963 0
M  V30 33104 N 5227.95 4.09664 2.15742 0
M  V30 33105 H 5230.79 7.45574 4.45629 0
M  V30 33106 H 5231.06 5.86232 3.67314 0
M  V30 33107 H 5230.19 7.84412 2.24479 0
M  V30 33108 P 5226.23 8.7635 1.60911 0
M  V30 33109 O 5226.01 10.1388 1.11561 0
M  V30 33110 O 5225.44 8.36503 2.79617 0
M  V30 33111 O 5225.98 7.71806 0.42951 0
M  V30 33112 C 5226.92 7.66948 -0.673514 0
M  V30 33113 C 5226.19 7.33374 -1.95559 0
M  V30 33114 O 5225.98 5.88721 -2.00726 0
M  V30 33115 C 5224.79 7.92218 -2.1125 0
M  V30 33116 O 5224.4 8.02971 -3.47653 0
M  V30 33117 C 5223.91 6.89504 -1.41631 0
M  V30 33118 C 5224.62 5.59106 -1.75155 0
M  V30 33119 N 5224.57 4.58136 -0.662409 0
M  V30 33120 C 5224.42 3.26059 -1.02863 0
M  V30 33121 O 5224.33 2.90743 -2.19009 0
M  V30 33122 N 5224.38 2.35995 0.0155585 0
M  V30 33123 C 5224.47 2.65248 1.35603 0
M  V30 33124 C 5224.62 4.05747 1.64698 0
M  V30 33125 C 5224.67 4.96734 0.652411 0
M  V30 33126 H 5227.41 8.64917 -0.776982 0
M  V30 33127 H 5227.68 6.89974 -0.474015 0
M  V30 33128 H 5226.81 7.66548 -2.79458 0
M  V30 33129 H 5224.16 5.16076 -2.65138 0
M  V30 33130 H 5223.88 7.06433 -0.329384 0
M  V30 33131 H 5222.89 6.90829 -1.81996 0
M  V30 33132 H 5224.72 8.90774 -1.62639 0
M  V30 33133 H 5224.79 6.02181 0.895285 0
M  V30 33134 P 5222.85 8.03563 -3.84925 0
M  V30 33135 O 5222.63 8.85821 -5.0569 0
M  V30 33136 O 5222.06 8.41101 -2.65469 0
M  V30 33137 O 5222.6 6.4965 -4.18908 0
M  V30 33138 C 5223.54 5.81037 -5.05421 0
M  V30 33139 C 5222.81 4.78366 -5.89277 0
M  V30 33140 O 5222.6 3.58302 -5.08433 0
M  V30 33141 C 5221.41 5.17448 -6.36119 0
M  V30 33142 O 5221.02 4.45271 -7.53232 0
M  V30 33143 C 5220.53 4.74639 -5.19936 0
M  V30 33144 C 5221.24 3.49432 -4.70418 0
M  V30 33145 N 5221.19 3.31776 -3.22945 0
M  V30 33146 H 5224.03 6.54213 -5.71376 0
M  V30 33147 H 5224.3 5.30492 -4.44033 0
M  V30 33148 H 5223.43 4.55889 -6.76652 0
M  V30 33149 P 5219.47 4.23843 -7.83734 0
M  V30 33150 O 5219.25 4.19407 -9.29784 0
M  V30 33151 O 5218.68 5.24426 -7.09156 0
M  V30 33152 O 5219.22 2.7935 -7.20758 0
M  V30 33153 C 5220.16 1.7299 -7.50419 0
M  V30 33154 C 5219.43 0.406376 -7.57911 0
M  V30 33155 O 5219.22 -0.0897726 -6.21935 0
M  V30 33156 C 5218.03 0.447224 -8.1878 0
M  V30 33157 O 5217.64 -0.825065 -8.71101 0
M  V30 33158 C 5217.15 0.783801 -6.99623 0
M  V30 33159 C 5217.86 0.0619192 -5.85967 0
M  V30 33160 N 5217.81 0.7859 -4.56281 0
M  V30 33161 H 5220.65 1.93423 -8.4679 0
M  V30 33162 H 5220.92 1.68181 -6.71046 0
M  V30 33163 H 5220.05 -0.289041 -8.15388 0
M  V30 33164 P 5216.09 -1.17771 -8.83182 0
M  V30 33165 O 5215.87 -2.07206 -9.98732 0
M  V30 33166 O 5215.3 0.0743816 -8.81969 0
M  V30 33167 O 5215.84 -1.97652 -7.47304 0
M  V30 33168 C 5216.78 -3.01133 -7.08783 0
M  V30 33169 C 5216.05 -4.12613 -6.37049 0
M  V30 33170 O 5215.84 -3.72827 -4.97879 0
M  V30 33171 C 5214.65 -4.45085 -6.88694 0
M  V30 33172 O 5214.26 -5.7877 -6.5624 0
M  V30 33173 C 5213.77 -3.47817 -6.12078 0
M  V30 33174 C 5214.48 -3.39414 -4.77697 0
M  V30 33175 N 5214.43 -2.04615 -4.15333 0
M  V30 33176 H 5217.27 -3.41248 -7.98759 0
M  V30 33177 H 5217.54 -2.5837 -6.41742 0
M  V30 33178 H 5216.67 -5.02657 -6.42673 0
M  V30 33179 P 5212.71 -6.144 -6.45285 0
M  V30 33180 O 5212.49 -7.54673 -6.86199 0
M  V30 33181 O 5211.92 -5.12391 -7.179 0
M  V30 33182 O 5212.46 -5.99158 -4.88404 0
M  V30 33183 C 5213.4 -6.60234 -3.96415 0
M  V30 33184 C 5212.67 -7.08259 -2.72856 0
M  V30 33185 O 5212.46 -5.9427 -1.83651 0
M  V30 33186 C 5211.27 -7.64886 -2.9555 0
M  V30 33187 O 5210.88 -8.53963 -1.90717 0
M  V30 33188 C 5210.39 -6.4116 -2.90739 0
M  V30 33189 C 5211.1 -5.55375 -1.86963 0
M  V30 33190 N 5211.05 -4.09664 -2.15742 0
M  V30 33191 H 5213.89 -7.45574 -4.45629 0
M  V30 33192 H 5214.16 -5.86232 -3.67314 0
M  V30 33193 H 5213.29 -7.84412 -2.24479 0
M  V30 33194 P 5209.33 -8.7635 -1.60911 0
M  V30 33195 O 5209.11 -10.1388 -1.11561 0
M  V30 33196 O 5208.54 -8.36503 -2.79617 0
M  V30 33197 O 5209.08 -7.71806 -0.42951 0
M  V30 33198 C 5210.02 -7.67148 0.673689 0
M  V30 33199 C 5209.29 -7.33374 1.95559 0
M  V30 33200 O 5209.08 -5.88721 2.00726 0
M  V30 33201 C 5207.89 -7.92526 2.10483 0
M  V30 33202 O 5207.5 -8.02971 3.47653 0
M  V30 33203 C 5207.01 -6.89602 1.41652 0
M  V30 33204 C 5207.72 -5.59201 1.75185 0
M  V30 33205 N 5207.67 -4.58235 0.662552 0
M  V30 33206 H 5210.51 -8.65116 0.777161 0
M  V30 33207 H 5210.78 -6.90173 0.474152 0
M  V30 33208 H 5209.91 -7.66548 2.79458 0
M  V30 33209 P 5205.95 -8.03563 3.84925 0
M  V30 33210 O 5205.73 -8.85821 5.0569 0
M  V30 33211 O 5205.16 -8.41101 2.65469 0
M  V30 33212 O 5205.7 -6.4965 4.18908 0
M  V30 33213 C 5206.64 -5.81037 5.05421 0
M  V30 33214 C 5205.91 -4.78366 5.89277 0
M  V30 33215 O 5205.7 -3.58302 5.08433 0
M  V30 33216 C 5204.51 -5.17448 6.36119 0
M  V30 33217 O 5204.12 -4.45271 7.53232 0
M  V30 33218 C 5203.63 -4.74639 5.19936 0
M  V30 33219 C 5204.34 -3.49432 4.70418 0
M  V30 33220 N 5204.29 -3.31776 3.22945 0
M  V30 33221 H 5207.13 -6.54213 5.71376 0
M  V30 33222 H 5207.4 -5.30492 4.44033 0
M  V30 33223 H 5206.53 -4.55889 6.76652 0
M  V30 33224 P 5202.57 -4.23843 7.83734 0
M  V30 33225 O 5202.35 -4.19407 9.29784 0
M  V30 33226 O 5201.78 -5.24426 7.09156 0
M  V30 33227 O 5202.32 -2.7935 7.20758 0
M  V30 33228 C 5203.26 -1.7299 7.50419 0
M  V30 33229 C 5202.53 -0.406376 7.57911 0
M  V30 33230 O 5202.32 0.0897726 6.21935 0
M  V30 33231 C 5201.13 -0.447224 8.1878 0
M  V30 33232 O 5200.74 0.825065 8.71101 0
M  V30 33233 C 5200.25 -0.783801 6.99623 0
M  V30 33234 C 5200.96 -0.0619192 5.85967 0
M  V30 33235 N 5200.91 -0.7859 4.56281 0
M  V30 33236 H 5203.75 -1.93423 8.4679 0
M  V30 33237 H 5204.02 -1.68181 6.71046 0
M  V30 33238 H 5203.15 0.289041 8.15388 0
M  V30 33239 P 5199.19 1.17771 8.83182 0
M  V30 33240 O 5198.97 2.07206 9.98732 0
M  V30 33241 O 5198.4 -0.0743816 8.81969 0
M  V30 33242 O 5198.94 1.97652 7.47304 0
M  V30 33243 C 5199.88 3.01055 7.08599 0
M  V30 33244 C 5199.15 4.12613 6.37049 0
M  V30 33245 O 5198.94 3.72827 4.97879 0
M  V30 33246 C 5197.75 4.45719 6.88164 0
M  V30 33247 O 5197.36 5.7877 6.5624 0
M  V30 33248 C 5196.87 3.47768 6.11991 0
M  V30 33249 C 5197.58 3.39356 4.77615 0
M  V30 33250 N 5197.53 2.04571 4.15244 0
M  V30 33251 C 5197.38 1.98587 2.78314 0
M  V30 33252 O 5197.29 2.98134 2.08835 0
M  V30 33253 N 5197.34 0.714467 2.24925 0
M  V30 33254 C 5197.43 -0.470001 2.94169 0
M  V30 33255 C 5197.58 -0.312541 4.36783 0
M  V30 33256 C 5197.63 0.914512 4.92583 0
M  V30 33257 H 5200.37 3.41169 7.98575 0
M  V30 33258 H 5200.64 2.58295 6.41556 0
M  V30 33259 H 5199.77 5.02657 6.42673 0
M  V30 33260 H 5197.12 4.11637 4.08885 0
M  V30 33261 H 5196.84 2.49626 6.61679 0
M  V30 33262 H 5195.85 3.86566 6.00778 0
M  V30 33263 H 5197.68 4.29943 7.96918 0
M  V30 33264 H 5197.75 1.00937 6.00374 0
M  V30 33265 P 5195.81 6.144 6.45285 0
M  V30 33266 O 5195.59 7.54673 6.86199 0
M  V30 33267 O 5195.02 5.12391 7.179 0
M  V30 33268 O 5195.56 5.99236 4.88467 0
M  V30 33269 C 5196.5 6.60234 3.96415 0
M  V30 33270 C 5195.77 7.08079 2.736 0
M  V30 33271 O 5195.56 5.94365 1.8368 0
M  V30 33272 C 5194.37 7.64886 2.9555 0
M  V30 33273 O 5193.98 8.5406 1.90739 0
M  V30 33274 C 5193.49 6.4116 2.90739 0
M  V30 33275 C 5194.2 5.55375 1.86963 0
M  V30 33276 N 5194.15 4.09664 2.15742 0
M  V30 33277 C 5194 3.22231 1.08477 0
M  V30 33278 O 5193.91 3.68951 -0.0600489 0
M  V30 33279 N 5193.95 1.76692 1.48799 0
M  V30 33280 C 5194.05 1.41695 2.57602 0
M  V30 33281 N 5194 0.107296 2.75791 0
M  V30 33282 C 5194.2 2.29178 3.69733 0
M  V30 33283 C 5194.25 3.62753 3.42653 0
M  V30 33284 H 5196.99 7.45488 4.45578 0
M  V30 33285 H 5197.26 5.86232 3.67314 0
M  V30 33286 H 5196.39 7.84508 2.24507 0
M  V30 33287 H 5193.74 5.73556 0.888715 0
M  V30 33288 H 5193.46 5.9096 3.88638 0
M  V30 33289 H 5192.47 6.66053 2.58894 0
M  V30 33290 H 5194.3 8.16339 3.92049 0
M  V30 33291 H 5194.37 4.33052 4.24913 0
M  V30 33292 H 5194.27 1.9103 4.71577 0
M  V30 33293 H 5193.88 -0.521221 1.95056 0
M  V30 33294 H 5194.08 -0.286429 3.70695 0
M  V30 33295 P 5192.43 8.7635 1.60911 0
M  V30 33296 O 5192.21 10.1388 1.11561 0
M  V30 33297 O 5191.64 8.36503 2.79617 0
M  V30 33298 O 5192.18 7.71806 0.42951 0
M  V30 33299 C 5193.12 7.67148 -0.673689 0
M  V30 33300 C 5192.39 7.33374 -1.95559 0
M  V30 33301 O 5192.18 5.88721 -2.00726 0
M  V30 33302 C 5190.99 7.92526 -2.10483 0
M  V30 33303 O 5190.6 8.02971 -3.47653 0
M  V30 33304 C 5190.11 6.89602 -1.41652 0
M  V30 33305 C 5190.82 5.59201 -1.75185 0
M  V30 33306 N 5190.77 4.58235 -0.662552 0
M  V30 33307 H 5193.61 8.65116 -0.777161 0
M  V30 33308 H 5193.88 6.90173 -0.474152 0
M  V30 33309 H 5193.01 7.66548 -2.79458 0
M  V30 33310 P 5189.05 8.03563 -3.84925 0
M  V30 33311 O 5188.83 8.85821 -5.0569 0
M  V30 33312 O 5188.26 8.41101 -2.65469 0
M  V30 33313 O 5188.8 6.4965 -4.18908 0
M  V30 33314 C 5189.74 5.81037 -5.05421 0
M  V30 33315 C 5189.01 4.78366 -5.89277 0
M  V30 33316 O 5188.8 3.58302 -5.08433 0
M  V30 33317 C 5187.61 5.17448 -6.36119 0
M  V30 33318 O 5187.22 4.45271 -7.53232 0
M  V30 33319 C 5186.73 4.74639 -5.19936 0
M  V30 33320 C 5187.44 3.49432 -4.70418 0
M  V30 33321 N 5187.39 3.32099 -3.22613 0
M  V30 33322 H 5190.23 6.54213 -5.71376 0
M  V30 33323 H 5190.5 5.30936 -4.43503 0
M  V30 33324 H 5189.63 4.55889 -6.76652 0
M  V30 33325 H 5186.98 2.61715 -5.17932 0
M  V30 33326 H 5186.7 5.52155 -4.41878 0
M  V30 33327 H 5185.71 4.51981 -5.53374 0
M  V30 33328 H 5187.54 6.25124 -6.55234 0
M  V30 33329 P 5185.67 4.23843 -7.83734 0
M  V30 33330 O 5185.45 4.19407 -9.29784 0
M  V30 33331 O 5184.88 5.24426 -7.09156 0
M  V30 33332 O 5185.42 2.79386 -7.20852 0
M  V30 33333 C 5186.36 1.7299 -7.50419 0
M  V30 33334 C 5185.63 0.41401 -7.5797 0
M  V30 33335 O 5185.42 -0.089787 -6.22035 0
M  V30 33336 C 5184.23 0.447224 -8.1878 0
M  V30 33337 O 5183.84 -0.825159 -8.71201 0
M  V30 33338 C 5183.35 0.783801 -6.99623 0
M  V30 33339 C 5184.06 0.0619192 -5.85967 0
M  V30 33340 N 5184.01 0.7859 -4.56281 0
M  V30 33341 C 5183.86 0.0359258 -3.39981 0
M  V30 33342 O 5183.77 -1.19723 -3.49038 0
M  V30 33343 N 5183.81 0.869151 -2.14025 0
M  V30 33344 C 5183.91 2.01207 -2.14363 0
M  V30 33345 N 5183.86 2.58978 -0.954287 0
M  V30 33346 C 5184.06 2.80817 -3.32215 0
M  V30 33347 C 5184.11 2.13785 -4.50884 0
M  V30 33348 H 5186.85 1.93401 -8.46693 0
M  V30 33349 H 5187.12 1.68181 -6.71046 0
M  V30 33350 H 5186.25 -0.289076 -8.15488 0
M  V30 33351 H 5183.6 -0.927166 -5.72947 0
M  V30 33352 H 5183.32 1.87 -6.82132 0
M  V30 33353 H 5182.33 0.404009 -7.13457 0
M  V30 33354 H 5184.16 1.20599 -8.97534 0
M  V30 33355 H 5184.23 2.70295 -5.43162 0
M  V30 33356 H 5184.13 3.89465 -3.27406 0
M  V30 33357 H 5183.74 2.01616 -0.107046 0
M  V30 33358 H 5183.94 3.61403 -0.873101 0
M  V30 33359 P 5182.29 -1.17771 -8.83182 0
M  V30 33360 O 5182.07 -2.07206 -9.98732 0
M  V30 33361 O 5181.5 0.0743816 -8.81969 0
M  V30 33362 O 5182.04 -1.97652 -7.47304 0
M  V30 33363 C 5182.98 -3.01133 -7.08783 0
M  V30 33364 C 5182.25 -4.12613 -6.37049 0
M  V30 33365 O 5182.04 -3.72827 -4.97879 0
M  V30 33366 C 5180.85 -4.45085 -6.88694 0
M  V30 33367 O 5180.46 -5.7877 -6.5624 0
M  V30 33368 C 5179.97 -3.47817 -6.12078 0
M  V30 33369 C 5180.68 -3.39414 -4.77697 0
M  V30 33370 N 5180.63 -2.04615 -4.15333 0
M  V30 33371 H 5183.47 -3.41248 -7.98759 0
M  V30 33372 H 5183.74 -2.5837 -6.41742 0
M  V30 33373 H 5182.87 -5.02657 -6.42673 0
M  V30 33374 P 5178.91 -6.144 -6.45285 0
M  V30 33375 O 5178.69 -7.54673 -6.86199 0
M  V30 33376 O 5178.12 -5.12391 -7.179 0
M  V30 33377 O 5178.66 -5.99158 -4.88404 0
M  V30 33378 C 5179.6 -6.60234 -3.96415 0
M  V30 33379 C 5178.87 -7.08259 -2.72856 0
M  V30 33380 O 5178.66 -5.9427 -1.83651 0
M  V30 33381 C 5177.47 -7.64886 -2.9555 0
M  V30 33382 O 5177.08 -8.53963 -1.90717 0
M  V30 33383 C 5176.59 -6.4116 -2.90739 0
M  V30 33384 C 5177.3 -5.55375 -1.86963 0
M  V30 33385 N 5177.25 -4.09664 -2.15742 0
M  V30 33386 H 5180.09 -7.45574 -4.45629 0
M  V30 33387 H 5180.36 -5.86232 -3.67314 0
M  V30 33388 H 5179.49 -7.84412 -2.24479 0
M  V30 33389 P 5175.53 -8.7635 -1.60911 0
M  V30 33390 O 5175.31 -10.1388 -1.11561 0
M  V30 33391 O 5174.74 -8.36503 -2.79617 0
M  V30 33392 O 5175.28 -7.71806 -0.42951 0
M  V30 33393 C 5176.22 -7.67148 0.673689 0
M  V30 33394 C 5175.49 -7.33374 1.95559 0
M  V30 33395 O 5175.28 -5.88721 2.00726 0
M  V30 33396 C 5174.09 -7.92526 2.10483 0
M  V30 33397 O 5173.7 -8.02971 3.47653 0
M  V30 33398 C 5173.21 -6.89602 1.41652 0
M  V30 33399 C 5173.92 -5.59201 1.75185 0
M  V30 33400 N 5173.87 -4.58235 0.662552 0
M  V30 33401 H 5176.71 -8.65116 0.777161 0
M  V30 33402 H 5176.98 -6.90173 0.474152 0
M  V30 33403 H 5176.11 -7.66548 2.79458 0
M  V30 33404 P 5172.15 -8.03563 3.84925 0
M  V30 33405 O 5171.93 -8.85821 5.0569 0
M  V30 33406 O 5171.36 -8.41101 2.65469 0
M  V30 33407 O 5171.9 -6.4965 4.18908 0
M  V30 33408 C 5172.84 -5.81037 5.05421 0
M  V30 33409 C 5172.11 -4.78366 5.89277 0
M  V30 33410 O 5171.9 -3.58302 5.08433 0
M  V30 33411 C 5170.71 -5.17448 6.36119 0
M  V30 33412 O 5170.32 -4.45271 7.53232 0
M  V30 33413 C 5169.83 -4.74639 5.19936 0
M  V30 33414 C 5170.54 -3.49432 4.70418 0
M  V30 33415 N 5170.49 -3.31776 3.22945 0
M  V30 33416 H 5173.33 -6.54213 5.71376 0
M  V30 33417 H 5173.6 -5.30492 4.44033 0
M  V30 33418 H 5172.73 -4.55889 6.76652 0
M  V30 33419 P 5168.77 -4.23843 7.83734 0
M  V30 33420 O 5168.55 -4.19407 9.29784 0
M  V30 33421 O 5167.98 -5.24426 7.09156 0
M  V30 33422 O 5168.52 -2.7935 7.20758 0
M  V30 33423 C 5169.46 -1.7299 7.50419 0
M  V30 33424 C 5168.73 -0.406376 7.57911 0
M  V30 33425 O 5168.52 0.0897726 6.21935 0
M  V30 33426 C 5167.33 -0.447224 8.1878 0
M  V30 33427 O 5166.94 0.825065 8.71101 0
M  V30 33428 C 5166.45 -0.783801 6.99623 0
M  V30 33429 C 5167.16 -0.0619192 5.85967 0
M  V30 33430 N 5167.11 -0.7859 4.56281 0
M  V30 33431 H 5169.95 -1.93423 8.4679 0
M  V30 33432 H 5170.22 -1.68181 6.71046 0
M  V30 33433 H 5169.35 0.289041 8.15388 0
M  V30 33434 P 5165.39 1.17771 8.83182 0
M  V30 33435 O 5165.17 2.07206 9.98732 0
M  V30 33436 O 5164.6 -0.0743816 8.81969 0
M  V30 33437 O 5165.14 1.97652 7.47304 0
M  V30 33438 C 5166.08 3.01133 7.08783 0
M  V30 33439 C 5165.35 4.12613 6.37049 0
M  V30 33440 O 5165.14 3.72827 4.97879 0
M  V30 33441 C 5163.95 4.45085 6.88694 0
M  V30 33442 O 5163.56 5.7877 6.5624 0
M  V30 33443 C 5163.07 3.47817 6.12078 0
M  V30 33444 C 5163.78 3.39414 4.77697 0
M  V30 33445 N 5163.73 2.04199 4.15538 0
M  V30 33446 C 5163.81 0.821545 4.76977 0
M  V30 33447 N 5163.74 -0.1794 3.94592 0
M  V30 33448 C 5163.59 0.419121 2.70776 0
M  V30 33449 C 5163.46 -0.109072 1.40577 0
M  V30 33450 N 5163.45 -1.4104 1.1344 0
M  V30 33451 N 5163.34 0.764381 0.39411 0
M  V30 33452 C 5163.35 2.06587 0.664135 0
M  V30 33453 N 5163.47 2.67948 1.82153 0
M  V30 33454 C 5163.59 1.77942 2.8147 0
M  V30 33455 H 5166.57 3.41248 7.98759 0
M  V30 33456 H 5166.84 2.57728 6.42 0
M  V30 33457 H 5165.97 5.02657 6.42673 0
M  V30 33458 H 5163.32 4.11708 4.08956 0
M  V30 33459 H 5163.04 2.49626 6.61679 0
M  V30 33460 H 5162.05 3.8662 6.00862 0
M  V30 33461 H 5163.88 4.29991 7.97006 0
M  V30 33462 H 5163.92 0.702451 5.84696 0
M  V30 33463 H 5163.54 -2.09647 1.89651 0
M  V30 33464 H 5163.35 -1.73358 0.160575 0
M  V30 33465 H 5163.24 2.71695 -0.195838 0
M  V30 33466 P 5162.01 6.144 6.45285 0
M  V30 33467 O 5161.79 7.54673 6.86199 0
M  V30 33468 O 5161.22 5.12391 7.179 0
M  V30 33469 O 5161.76 5.99158 4.88404 0
M  V30 33470 C 5162.7 6.60234 3.96415 0
M  V30 33471 C 5161.97 7.08259 2.72856 0
M  V30 33472 O 5161.76 5.9427 1.83651 0
M  V30 33473 C 5160.57 7.64886 2.9555 0
M  V30 33474 O 5160.18 8.53963 1.90717 0
M  V30 33475 C 5159.69 6.4116 2.90739 0
M  V30 33476 C 5160.4 5.55375 1.86963 0
M  V30 33477 N 5160.35 4.09664 2.15742 0
M  V30 33478 H 5163.19 7.45574 4.45629 0
M  V30 33479 H 5163.46 5.86232 3.67314 0
M  V30 33480 H 5162.59 7.84412 2.24479 0
M  V30 33481 P 5158.63 8.7635 1.60911 0
M  V30 33482 O 5158.41 10.1388 1.11561 0
M  V30 33483 O 5157.84 8.36503 2.79617 0
M  V30 33484 O 5158.38 7.71806 0.42951 0
M  V30 33485 C 5159.32 7.67148 -0.673689 0
M  V30 33486 C 5158.59 7.33374 -1.95559 0
M  V30 33487 O 5158.38 5.88721 -2.00726 0
M  V30 33488 C 5157.19 7.92526 -2.10483 0
M  V30 33489 O 5156.8 8.02971 -3.47653 0
M  V30 33490 C 5156.31 6.89602 -1.41652 0
M  V30 33491 C 5157.02 5.59201 -1.75185 0
M  V30 33492 N 5156.97 4.58301 -0.657969 0
M  V30 33493 C 5157.05 4.79019 0.692603 0
M  V30 33494 N 5156.98 3.69736 1.38998 0
M  V30 33495 C 5156.83 2.70474 0.438135 0
M  V30 33496 C 5156.7 1.30327 0.538142 0
M  V30 33497 N 5156.69 0.64304 1.69192 0
M  V30 33498 N 5156.58 0.611027 -0.605183 0
M  V30 33499 C 5156.59 1.27002 -1.75953 0
M  V30 33500 N 5156.71 2.56038 -1.98546 0
M  V30 33501 C 5156.83 3.22681 -0.822541 0
M  V30 33502 H 5159.81 8.65116 -0.777161 0
M  V30 33503 H 5160.08 6.9022 -0.46725 0
M  V30 33504 H 5159.21 7.66548 -2.79458 0
M  V30 33505 H 5156.56 5.16165 -2.65183 0
M  V30 33506 H 5156.28 7.06433 -0.329384 0
M  V30 33507 H 5155.29 6.90926 -1.82021 0
M  V30 33508 H 5157.12 8.90873 -1.62657 0
M  V30 33509 H 5157.16 5.77785 1.13874 0
M  V30 33510 H 5156.78 1.15585 2.57991 0
M  V30 33511 H 5156.59 -0.382989 1.69835 0
M  V30 33512 H 5156.48 0.653331 -2.64449 0
M  V30 33513 P 5155.25 8.03563 -3.84925 0
M  V30 33514 O 5155.03 8.85821 -5.0569 0
M  V30 33515 O 5154.46 8.41101 -2.65469 0
M  V30 33516 O 5155 6.4965 -4.18908 0
M  V30 33517 C 5155.94 5.81037 -5.05421 0
M  V30 33518 C 5155.21 4.78366 -5.89277 0
M  V30 33519 O 5155 3.58302 -5.08433 0
M  V30 33520 C 5153.81 5.17448 -6.36119 0
M  V30 33521 O 5153.42 4.45271 -7.53232 0
M  V30 33522 C 5152.93 4.74639 -5.19936 0
M  V30 33523 C 5153.64 3.49432 -4.70418 0
M  V30 33524 N 5153.59 3.32099 -3.22613 0
M  V30 33525 C 5153.67 4.28245 -2.25527 0
M  V30 33526 N 5153.6 3.80823 -1.04874 0
M  V30 33527 C 5153.45 2.44571 -1.23535 0
M  V30 33528 C 5153.32 1.37068 -0.330675 0
M  V30 33529 N 5153.31 1.51472 0.990824 0
M  V30 33530 N 5153.2 0.138614 -0.848756 0
M  V30 33531 C 5153.21 -0.00675923 -2.16999 0
M  V30 33532 N 5153.33 0.904372 -3.11122 0
M  V30 33533 C 5153.45 2.12707 -2.56212 0
M  V30 33534 H 5156.43 6.54213 -5.71376 0
M  V30 33535 H 5156.7 5.30936 -4.43503 0
M  V30 33536 H 5155.83 4.55889 -6.76652 0
M  V30 33537 H 5153.18 2.61715 -5.17932 0
M  V30 33538 H 5152.9 5.52155 -4.41878 0
M  V30 33539 H 5151.91 4.51981 -5.53374 0
M  V30 33540 H 5153.74 6.25124 -6.55234 0
M  V30 33541 H 5153.78 5.34372 -2.47488 0
M  V30 33542 H 5153.4 2.45153 1.4078 0
M  V30 33543 H 5153.21 0.688422 1.59911 0
M  V30 33544 H 5153.1 -1.02584 -2.52346 0
M  V30 33545 P 5151.87 4.23843 -7.83734 0
M  V30 33546 O 5151.65 4.19407 -9.29784 0
M  V30 33547 O 5151.08 5.24426 -7.09156 0
M  V30 33548 O 5151.62 2.7935 -7.20758 0
M  V30 33549 C 5152.56 1.7299 -7.50419 0
M  V30 33550 C 5151.83 0.406376 -7.57911 0
M  V30 33551 O 5151.62 -0.0897726 -6.21935 0
M  V30 33552 C 5150.43 0.447224 -8.1878 0
M  V30 33553 O 5150.04 -0.825065 -8.71101 0
M  V30 33554 C 5149.55 0.783801 -6.99623 0
M  V30 33555 C 5150.26 0.0619192 -5.85967 0
M  V30 33556 N 5150.21 0.790462 -4.56202 0
M  V30 33557 H 5153.05 1.93423 -8.4679 0
M  V30 33558 H 5153.32 1.68852 -6.70877 0
M  V30 33559 H 5152.45 -0.289041 -8.15388 0
M  V30 33560 H 5149.8 -0.927006 -5.72848 0
M  V30 33561 H 5149.52 1.86973 -6.82036 0
M  V30 33562 H 5148.53 0.403953 -7.13357 0
M  V30 33563 H 5150.36 1.20599 -8.97534 0
M  V30 33564 P 5148.49 -1.17771 -8.83182 0
M  V30 33565 O 5148.27 -2.07206 -9.98732 0
M  V30 33566 O 5147.7 0.0743816 -8.81969 0
M  V30 33567 O 5148.24 -1.97652 -7.47304 0
M  V30 33568 C 5149.18 -3.01133 -7.08783 0
M  V30 33569 C 5148.45 -4.12613 -6.37049 0
M  V30 33570 O 5148.24 -3.72827 -4.97879 0
M  V30 33571 C 5147.05 -4.45085 -6.88694 0
M  V30 33572 O 5146.66 -5.7877 -6.5624 0
M  V30 33573 C 5146.17 -3.47817 -6.12078 0
M  V30 33574 C 5146.88 -3.39414 -4.77697 0
M  V30 33575 N 5146.83 -2.04615 -4.15333 0
M  V30 33576 H 5149.67 -3.41248 -7.98759 0
M  V30 33577 H 5149.94 -2.5837 -6.41742 0
M  V30 33578 H 5149.07 -5.02657 -6.42673 0
M  V30 33579 P 5145.11 -6.144 -6.45285 0
M  V30 33580 O 5144.89 -7.54673 -6.86199 0
M  V30 33581 O 5144.32 -5.12391 -7.179 0
M  V30 33582 O 5144.86 -5.99158 -4.88404 0
M  V30 33583 C 5145.8 -6.60234 -3.96415 0
M  V30 33584 C 5145.07 -7.08259 -2.72856 0
M  V30 33585 O 5144.86 -5.9427 -1.83651 0
M  V30 33586 C 5143.67 -7.64886 -2.9555 0
M  V30 33587 O 5143.28 -8.53963 -1.90717 0
M  V30 33588 C 5142.79 -6.4116 -2.90739 0
M  V30 33589 C 5143.5 -5.55375 -1.86963 0
M  V30 33590 N 5143.45 -4.09664 -2.15742 0
M  V30 33591 H 5146.29 -7.45574 -4.45629 0
M  V30 33592 H 5146.56 -5.86232 -3.67314 0
M  V30 33593 H 5145.69 -7.84412 -2.24479 0
M  V30 33594 P 5141.73 -8.7635 -1.60911 0
M  V30 33595 O 5141.51 -10.1388 -1.11561 0
M  V30 33596 O 5140.94 -8.36503 -2.79617 0
M  V30 33597 O 5141.48 -7.71906 -0.429565 0
M  V30 33598 C 5142.42 -7.67148 0.673689 0
M  V30 33599 C 5141.69 -7.33666 1.94851 0
M  V30 33600 O 5141.48 -5.88816 2.00759 0
M  V30 33601 C 5140.29 -7.92526 2.10483 0
M  V30 33602 O 5139.9 -8.03063 3.47693 0
M  V30 33603 C 5139.41 -6.89602 1.41652 0
M  V30 33604 C 5140.12 -5.59201 1.75185 0
M  V30 33605 N 5140.07 -4.58235 0.662552 0
M  V30 33606 C 5139.92 -3.24451 1.01643 0
M  V30 33607 O 5139.83 -2.94958 2.21722 0
M  V30 33608 N 5139.87 -2.30408 -0.165238 0
M  V30 33609 C 5139.97 -2.66048 -1.25118 0
M  V30 33610 N 5139.92 -1.70787 -2.16813 0
M  V30 33611 C 5140.12 -4.02732 -1.64413 0
M  V30 33612 C 5140.17 -4.9488 -0.63991 0
M  V30 33613 H 5142.91 -8.65017 0.777072 0
M  V30 33614 H 5143.18 -6.90173 0.474152 0
M  V30 33615 H 5142.31 -7.66642 2.79492 0
M  V30 33616 H 5139.66 -5.16254 2.65229 0
M  V30 33617 H 5139.38 -7.06532 0.329431 0
M  V30 33618 H 5138.39 -6.91023 1.82047 0
M  V30 33619 H 5140.22 -8.90873 1.62657 0
M  V30 33620 H 5140.29 -6.00104 -0.892197 0
M  V30 33621 H 5140.19 -4.31733 -2.69229 0
M  V30 33622 H 5139.8 -0.724835 -1.8844 0
M  V30 33623 H 5140 -1.94716 -3.16734 0
M  V30 33624 P 5138.35 -8.03563 3.84925 0
M  V30 33625 O 5138.13 -8.85821 5.0569 0
M  V30 33626 O 5137.56 -8.41101 2.65469 0
M  V30 33627 O 5138.1 -6.4965 4.18908 0
M  V30 33628 C 5139.04 -5.81037 5.05421 0
M  V30 33629 C 5138.31 -4.78366 5.89277 0
M  V30 33630 O 5138.1 -3.58302 5.08433 0
M  V30 33631 C 5136.91 -5.17448 6.36119 0
M  V30 33632 O 5136.52 -4.45271 7.53232 0
M  V30 33633 C 5136.03 -4.74639 5.19936 0
M  V30 33634 C 5136.74 -3.49432 4.70418 0
M  V30 33635 N 5136.69 -3.32099 3.22613 0
M  V30 33636 H 5139.53 -6.54213 5.71376 0
M  V30 33637 H 5139.8 -5.30936 4.43503 0
M  V30 33638 H 5138.93 -4.55889 6.76652 0
M  V30 33639 H 5136.28 -2.61715 5.17932 0
M  V30 33640 H 5136 -5.52155 4.41878 0
M  V30 33641 H 5135.01 -4.51981 5.53374 0
M  V30 33642 H 5136.84 -6.25124 6.55234 0
M  V30 33643 P 5134.97 -4.23843 7.83734 0
M  V30 33644 O 5134.75 -4.19407 9.29784 0
M  V30 33645 O 5134.18 -5.24426 7.09156 0
M  V30 33646 O 5134.72 -2.7935 7.20758 0
M  V30 33647 C 5135.66 -1.7299 7.50419 0
M  V30 33648 C 5134.93 -0.406376 7.57911 0
M  V30 33649 O 5134.72 0.0897726 6.21935 0
M  V30 33650 C 5133.53 -0.447224 8.1878 0
M  V30 33651 O 5133.14 0.825065 8.71101 0
M  V30 33652 C 5132.65 -0.783801 6.99623 0
M  V30 33653 C 5133.36 -0.0619192 5.85967 0
M  V30 33654 N 5133.31 -0.7859 4.56281 0
M  V30 33655 H 5136.15 -1.93423 8.4679 0
M  V30 33656 H 5136.42 -1.68181 6.71046 0
M  V30 33657 H 5135.55 0.289041 8.15388 0
M  V30 33658 P 5131.59 1.17771 8.83182 0
M  V30 33659 O 5131.37 2.07206 9.98732 0
M  V30 33660 O 5130.8 -0.0743816 8.81969 0
M  V30 33661 O 5131.34 1.97652 7.47304 0
M  V30 33662 C 5132.28 3.01133 7.08783 0
M  V30 33663 C 5131.55 4.12613 6.37049 0
M  V30 33664 O 5131.34 3.72827 4.97879 0
M  V30 33665 C 5130.15 4.45085 6.88694 0
M  V30 33666 O 5129.76 5.7877 6.5624 0
M  V30 33667 C 5129.27 3.47817 6.12078 0
M  V30 33668 C 5129.98 3.39414 4.77697 0
M  V30 33669 N 5129.93 2.04615 4.15333 0
M  V30 33670 H 5132.77 3.41248 7.98759 0
M  V30 33671 H 5133.04 2.5837 6.41742 0
M  V30 33672 H 5132.17 5.02657 6.42673 0
M  V30 33673 P 5128.21 6.144 6.45285 0
M  V30 33674 O 5127.99 7.54673 6.86199 0
M  V30 33675 O 5127.42 5.12391 7.179 0
M  V30 33676 O 5127.96 5.99158 4.88404 0
M  V30 33677 C 5128.9 6.60234 3.96415 0
M  V30 33678 C 5128.17 7.08259 2.72856 0
M  V30 33679 O 5127.96 5.9427 1.83651 0
M  V30 33680 C 5126.77 7.64886 2.9555 0
M  V30 33681 O 5126.38 8.53963 1.90717 0
M  V30 33682 C 5125.89 6.4116 2.90739 0
M  V30 33683 C 5126.6 5.55375 1.86963 0
M  V30 33684 N 5126.55 4.09664 2.15742 0
M  V30 33685 H 5129.39 7.45574 4.45629 0
M  V30 33686 H 5129.66 5.86232 3.67314 0
M  V30 33687 H 5128.79 7.84412 2.24479 0
M  V30 33688 P 5124.83 8.7635 1.60911 0
M  V30 33689 O 5124.61 10.1388 1.11561 0
M  V30 33690 O 5124.04 8.36503 2.79617 0
M  V30 33691 O 5124.58 7.71806 0.42951 0
M  V30 33692 C 5125.52 7.66948 -0.673514 0
M  V30 33693 C 5124.79 7.33374 -1.95559 0
M  V30 33694 O 5124.58 5.88721 -2.00726 0
M  V30 33695 C 5123.39 7.92218 -2.1125 0
M  V30 33696 O 5123 8.02971 -3.47653 0
M  V30 33697 C 5122.51 6.89504 -1.41631 0
M  V30 33698 C 5123.22 5.59106 -1.75155 0
M  V30 33699 N 5123.17 4.58136 -0.662409 0
M  V30 33700 C 5123.02 3.26059 -1.02863 0
M  V30 33701 O 5122.93 2.90743 -2.19009 0
M  V30 33702 N 5122.98 2.35995 0.0155585 0
M  V30 33703 C 5123.07 2.65248 1.35603 0
M  V30 33704 C 5123.22 4.05747 1.64698 0
M  V30 33705 C 5123.27 4.96734 0.652411 0
M  V30 33706 H 5126.01 8.64917 -0.776982 0
M  V30 33707 H 5126.28 6.89974 -0.474015 0
M  V30 33708 H 5125.41 7.66548 -2.79458 0
M  V30 33709 H 5122.76 5.16076 -2.65138 0
M  V30 33710 H 5122.48 7.06433 -0.329384 0
M  V30 33711 H 5121.49 6.90829 -1.81996 0
M  V30 33712 H 5123.32 8.90774 -1.62639 0
M  V30 33713 H 5123.39 6.02181 0.895285 0
M  V30 33714 P 5121.45 8.03563 -3.84925 0
M  V30 33715 O 5121.23 8.85821 -5.0569 0
M  V30 33716 O 5120.66 8.41101 -2.65469 0
M  V30 33717 O 5121.2 6.49734 -4.18962 0
M  V30 33718 C 5122.14 5.81037 -5.05421 0
M  V30 33719 C 5121.41 4.79018 -5.88876 0
M  V30 33720 O 5121.2 3.58359 -5.08515 0
M  V30 33721 C 5120.01 5.17448 -6.36119 0
M  V30 33722 O 5119.62 4.45322 -7.53318 0
M  V30 33723 C 5119.13 4.74639 -5.19936 0
M  V30 33724 C 5119.84 3.49432 -4.70418 0
M  V30 33725 N 5119.79 3.31776 -3.22945 0
M  V30 33726 C 5119.64 2.02742 -2.72939 0
M  V30 33727 O 5119.55 1.08301 -3.52749 0
M  V30 33728 N 5119.59 1.96117 -1.22063 0
M  V30 33729 C 5119.69 2.8878 -0.551566 0
M  V30 33730 N 5119.64 2.65609 0.750198 0
M  V30 33731 C 5119.84 4.22457 -1.03707 0
M  V30 33732 C 5119.89 4.37979 -2.39113 0
M  V30 33733 H 5122.63 6.54138 -5.7131 0
M  V30 33734 H 5122.9 5.30492 -4.44033 0
M  V30 33735 H 5122.03 4.55945 -6.76735 0
M  V30 33736 H 5119.38 2.6176 -5.18021 0
M  V30 33737 H 5119.1 5.52233 -4.41941 0
M  V30 33738 H 5118.11 4.52045 -5.53452 0
M  V30 33739 H 5119.94 6.25124 -6.55234 0
M  V30 33740 H 5120.01 5.37936 -2.80552 0
M  V30 33741 H 5119.91 5.07528 -0.359553 0
M  V30 33742 H 5119.52 1.69403 1.09847 0
M  V30 33743 H 5119.72 3.43701 1.41792 0
M  V30 33744 P 5118.07 4.23843 -7.83734 0
M  V30 33745 O 5117.85 4.19407 -9.29784 0
M  V30 33746 O 5117.28 5.24426 -7.09156 0
M  V30 33747 O 5117.82 2.7935 -7.20758 0
M  V30 33748 C 5118.76 1.7299 -7.50419 0
M  V30 33749 C 5118.03 0.406376 -7.57911 0
M  V30 33750 O 5117.82 -0.0897726 -6.21935 0
M  V30 33751 C 5116.63 0.447224 -8.1878 0
M  V30 33752 O 5116.24 -0.825065 -8.71101 0
M  V30 33753 C 5115.75 0.783801 -6.99623 0
M  V30 33754 C 5116.46 0.0619192 -5.85967 0
M  V30 33755 N 5116.41 0.7859 -4.56281 0
M  V30 33756 C 5116.49 2.14308 -4.31736 0
M  V30 33757 N 5116.41 2.46106 -3.05116 0
M  V30 33758 C 5116.27 1.23422 -2.4014 0
M  V30 33759 C 5116.14 0.938381 -1.02409 0
M  V30 33760 N 5116.02 -0.444647 -0.805413 0
M  V30 33761 C 5116.02 -1.40829 -1.79435 0
M  V30 33762 N 5115.89 -2.67213 -1.38558 0
M  V30 33763 N 5116.15 -1.12947 -3.09005 0
M  V30 33764 C 5116.27 0.204887 -3.32369 0
M  V30 33765 H 5119.25 1.93423 -8.4679 0
M  V30 33766 H 5119.52 1.68181 -6.71046 0
M  V30 33767 H 5118.65 -0.289041 -8.15388 0
M  V30 33768 P 5114.69 -1.17771 -8.83182 0
M  V30 33769 O 5114.47 -2.07206 -9.98732 0
M  V30 33770 O 5113.9 0.0743816 -8.81969 0
M  V30 33771 O 5114.44 -1.97652 -7.47304 0
M  V30 33772 C 5115.38 -3.01133 -7.08783 0
M  V30 33773 C 5114.65 -4.12613 -6.37049 0
M  V30 33774 O 5114.44 -3.72827 -4.97879 0
M  V30 33775 C 5113.25 -4.45085 -6.88694 0
M  V30 33776 O 5112.86 -5.7877 -6.5624 0
M  V30 33777 C 5112.37 -3.47817 -6.12078 0
M  V30 33778 C 5113.08 -3.39414 -4.77697 0
M  V30 33779 N 5113.03 -2.04615 -4.15333 0
M  V30 33780 H 5115.87 -3.41248 -7.98759 0
M  V30 33781 H 5116.14 -2.5837 -6.41742 0
M  V30 33782 H 5115.27 -5.02657 -6.42673 0
M  V30 33783 P 5111.31 -6.144 -6.45285 0
M  V30 33784 O 5111.09 -7.54673 -6.86199 0
M  V30 33785 O 5110.52 -5.12391 -7.179 0
M  V30 33786 O 5111.06 -5.99236 -4.88467 0
M  V30 33787 C 5112 -6.60234 -3.96415 0
M  V30 33788 C 5111.27 -7.08079 -2.736 0
M  V30 33789 O 5111.06 -5.94365 -1.8368 0
M  V30 33790 C 5109.87 -7.64886 -2.9555 0
M  V30 33791 O 5109.48 -8.5406 -1.90739 0
M  V30 33792 C 5108.99 -6.4116 -2.90739 0
M  V30 33793 C 5109.7 -5.55375 -1.86963 0
M  V30 33794 N 5109.65 -4.09664 -2.15742 0
M  V30 33795 C 5109.5 -3.22231 -1.08477 0
M  V30 33796 O 5109.41 -3.68951 0.0600489 0
M  V30 33797 N 5109.45 -1.76692 -1.48799 0
M  V30 33798 C 5109.55 -1.41695 -2.57602 0
M  V30 33799 N 5109.5 -0.107296 -2.75791 0
M  V30 33800 C 5109.7 -2.29178 -3.69733 0
M  V30 33801 C 5109.75 -3.62753 -3.42653 0
M  V30 33802 H 5112.49 -7.45488 -4.45578 0
M  V30 33803 H 5112.76 -5.86232 -3.67314 0
M  V30 33804 H 5111.89 -7.84508 -2.24507 0
M  V30 33805 H 5109.24 -5.73556 -0.888715 0
M  V30 33806 H 5108.96 -5.9096 -3.88638 0
M  V30 33807 H 5107.97 -6.66053 -2.58894 0
M  V30 33808 H 5109.8 -8.16339 -3.92049 0
M  V30 33809 H 5109.87 -4.33052 -4.24913 0
M  V30 33810 H 5109.77 -1.9103 -4.71577 0
M  V30 33811 H 5109.38 0.521221 -1.95056 0
M  V30 33812 H 5109.58 0.286429 -3.70695 0
M  V30 33813 P 5107.93 -8.7635 -1.60911 0
M  V30 33814 O 5107.71 -10.1388 -1.11561 0
M  V30 33815 O 5107.14 -8.36503 -2.79617 0
M  V30 33816 O 5107.68 -7.71806 -0.42951 0
M  V30 33817 C 5108.62 -7.66948 0.673514 0
M  V30 33818 C 5107.89 -7.33374 1.95559 0
M  V30 33819 O 5107.68 -5.88721 2.00726 0
M  V30 33820 C 5106.49 -7.92218 2.1125 0
M  V30 33821 O 5106.1 -8.02971 3.47653 0
M  V30 33822 C 5105.61 -6.89504 1.41631 0
M  V30 33823 C 5106.32 -5.59106 1.75155 0
M  V30 33824 N 5106.27 -4.58136 0.662409 0
M  V30 33825 C 5106.12 -3.26059 1.02863 0
M  V30 33826 O 5106.03 -2.90743 2.19009 0
M  V30 33827 N 5106.08 -2.35995 -0.0155585 0
M  V30 33828 C 5106.17 -2.65248 -1.35603 0
M  V30 33829 O 5106.12 -1.75605 -2.20651 0
M  V30 33830 C 5106.32 -4.05747 -1.64698 0
M  V30 33831 C 5106.43 -4.42345 -3.09553 0
M  V30 33832 C 5106.37 -4.96734 -0.652411 0
M  V30 33833 H 5109.11 -8.64917 0.776982 0
M  V30 33834 H 5109.38 -6.89974 0.474015 0
M  V30 33835 H 5108.51 -7.66548 2.79458 0
M  V30 33836 H 5105.86 -5.16076 2.65138 0
M  V30 33837 H 5105.58 -7.06433 0.329384 0
M  V30 33838 H 5104.59 -6.90829 1.81996 0
M  V30 33839 H 5106.42 -8.90774 1.62639 0
M  V30 33840 H 5106.49 -6.02181 -0.895285 0
M  V30 33841 H 5105.46 -4.80252 -3.45468 0
M  V30 33842 H 5107.2 -5.20015 -3.22119 0
M  V30 33843 H 5106.71 -3.53269 -3.67833 0
M  V30 33844 H 5105.97 -1.39558 0.227499 0
M  V30 33845 P 5104.55 -8.03563 3.84925 0
M  V30 33846 O 5104.33 -8.85821 5.0569 0
M  V30 33847 O 5103.76 -8.41101 2.65469 0
M  V30 33848 O 5104.3 -6.4965 4.18908 0
M  V30 33849 C 5105.24 -5.81037 5.05421 0
M  V30 33850 C 5104.51 -4.78366 5.89277 0
M  V30 33851 O 5104.3 -3.58302 5.08433 0
M  V30 33852 C 5103.11 -5.17448 6.36119 0
M  V30 33853 O 5102.72 -4.45271 7.53232 0
M  V30 33854 C 5102.23 -4.74639 5.19936 0
M  V30 33855 C 5102.94 -3.49432 4.70418 0
M  V30 33856 N 5102.89 -3.31776 3.22945 0
M  V30 33857 H 5105.73 -6.54213 5.71376 0
M  V30 33858 H 5106 -5.30492 4.44033 0
M  V30 33859 H 5105.13 -4.55889 6.76652 0
M  V30 33860 P 5101.17 -4.23843 7.83734 0
M  V30 33861 O 5100.95 -4.19407 9.29784 0
M  V30 33862 O 5100.38 -5.24426 7.09156 0
M  V30 33863 O 5100.92 -2.7935 7.20758 0
M  V30 33864 C 5101.86 -1.7299 7.50419 0
M  V30 33865 C 5101.13 -0.406376 7.57911 0
M  V30 33866 O 5100.92 0.0897726 6.21935 0
M  V30 33867 C 5099.73 -0.447224 8.1878 0
M  V30 33868 O 5099.34 0.825065 8.71101 0
M  V30 33869 C 5098.85 -0.783801 6.99623 0
M  V30 33870 C 5099.56 -0.0619192 5.85967 0
M  V30 33871 N 5099.51 -0.7859 4.56281 0
M  V30 33872 H 5102.35 -1.93423 8.4679 0
M  V30 33873 H 5102.62 -1.68181 6.71046 0
M  V30 33874 H 5101.75 0.289041 8.15388 0
M  V30 33875 P 5097.79 1.17771 8.83182 0
M  V30 33876 O 5097.57 2.07206 9.98732 0
M  V30 33877 O 5097 -0.0743816 8.81969 0
M  V30 33878 O 5097.54 1.97652 7.47304 0
M  V30 33879 C 5098.48 3.01133 7.08783 0
M  V30 33880 C 5097.75 4.12613 6.37049 0
M  V30 33881 O 5097.54 3.72827 4.97879 0
M  V30 33882 C 5096.35 4.45085 6.88694 0
M  V30 33883 O 5095.96 5.7877 6.5624 0
M  V30 33884 C 5095.47 3.47817 6.12078 0
M  V30 33885 C 5096.18 3.39414 4.77697 0
M  V30 33886 N 5096.13 2.04615 4.15333 0
M  V30 33887 H 5098.97 3.41248 7.98759 0
M  V30 33888 H 5099.24 2.5837 6.41742 0
M  V30 33889 H 5098.37 5.02657 6.42673 0
M  V30 33890 P 5094.41 6.144 6.45285 0
M  V30 33891 O 5094.19 7.54673 6.86199 0
M  V30 33892 O 5093.62 5.12391 7.179 0
M  V30 33893 O 5094.16 5.99158 4.88404 0
M  V30 33894 C 5095.1 6.60234 3.96415 0
M  V30 33895 C 5094.37 7.08259 2.72856 0
M  V30 33896 O 5094.16 5.9427 1.83651 0
M  V30 33897 C 5092.97 7.64886 2.9555 0
M  V30 33898 O 5092.58 8.53963 1.90717 0
M  V30 33899 C 5092.09 6.4116 2.90739 0
M  V30 33900 C 5092.8 5.55375 1.86963 0
M  V30 33901 N 5092.75 4.09664 2.15742 0
M  V30 33902 H 5095.59 7.45574 4.45629 0
M  V30 33903 H 5095.86 5.86232 3.67314 0
M  V30 33904 H 5094.99 7.84412 2.24479 0
M  V30 33905 P 5091.03 8.7635 1.60911 0
M  V30 33906 O 5090.81 10.1388 1.11561 0
M  V30 33907 O 5090.24 8.36503 2.79617 0
M  V30 33908 O 5090.78 7.71806 0.42951 0
M  V30 33909 C 5091.72 7.66948 -0.673514 0
M  V30 33910 C 5090.99 7.33374 -1.95559 0
M  V30 33911 O 5090.78 5.88721 -2.00726 0
M  V30 33912 C 5089.59 7.92218 -2.1125 0
M  V30 33913 O 5089.2 8.02971 -3.47653 0
M  V30 33914 C 5088.71 6.89504 -1.41631 0
M  V30 33915 C 5089.42 5.59106 -1.75155 0
M  V30 33916 N 5089.37 4.58136 -0.662409 0
M  V30 33917 C 5089.22 3.26059 -1.02863 0
M  V30 33918 O 5089.13 2.90743 -2.19009 0
M  V30 33919 N 5089.18 2.35995 0.0155585 0
M  V30 33920 C 5089.27 2.65248 1.35603 0
M  V30 33921 C 5089.42 4.05747 1.64698 0
M  V30 33922 C 5089.47 4.96734 0.652411 0
M  V30 33923 H 5092.21 8.64917 -0.776982 0
M  V30 33924 H 5092.48 6.89974 -0.474015 0
M  V30 33925 H 5091.61 7.66548 -2.79458 0
M  V30 33926 H 5088.96 5.16076 -2.65138 0
M  V30 33927 H 5088.68 7.06433 -0.329384 0
M  V30 33928 H 5087.69 6.90829 -1.81996 0
M  V30 33929 H 5089.52 8.90774 -1.62639 0
M  V30 33930 H 5089.59 6.02181 0.895285 0
M  V30 33931 P 5087.65 8.03563 -3.84925 0
M  V30 33932 O 5087.43 8.85821 -5.0569 0
M  V30 33933 O 5086.86 8.41101 -2.65469 0
M  V30 33934 O 5087.4 6.4965 -4.18908 0
M  V30 33935 C 5088.34 5.81037 -5.05421 0
M  V30 33936 C 5087.61 4.78366 -5.89277 0
M  V30 33937 O 5087.4 3.58302 -5.08433 0
M  V30 33938 C 5086.21 5.17448 -6.36119 0
M  V30 33939 O 5085.82 4.45271 -7.53232 0
M  V30 33940 C 5085.33 4.74639 -5.19936 0
M  V30 33941 C 5086.04 3.49432 -4.70418 0
M  V30 33942 N 5085.99 3.31776 -3.22945 0
M  V30 33943 H 5088.83 6.54213 -5.71376 0
M  V30 33944 H 5089.1 5.30492 -4.44033 0
M  V30 33945 H 5088.23 4.55889 -6.76652 0
M  V30 33946 P 5084.27 4.23843 -7.83734 0
M  V30 33947 O 5084.05 4.19407 -9.29784 0
M  V30 33948 O 5083.48 5.24426 -7.09156 0
M  V30 33949 O 5084.02 2.79386 -7.20852 0
M  V30 33950 C 5084.96 1.7299 -7.50419 0
M  V30 33951 C 5084.23 0.41401 -7.5797 0
M  V30 33952 O 5084.02 -0.089787 -6.22035 0
M  V30 33953 C 5082.83 0.447224 -8.1878 0
M  V30 33954 O 5082.44 -0.825159 -8.71201 0
M  V30 33955 C 5081.95 0.783801 -6.99623 0
M  V30 33956 C 5082.66 0.0619192 -5.85967 0
M  V30 33957 N 5082.61 0.7859 -4.56281 0
M  V30 33958 C 5082.46 0.0359258 -3.39981 0
M  V30 33959 O 5082.37 -1.19723 -3.49038 0
M  V30 33960 N 5082.41 0.869151 -2.14025 0
M  V30 33961 C 5082.51 2.01207 -2.14363 0
M  V30 33962 N 5082.46 2.58978 -0.954287 0
M  V30 33963 C 5082.66 2.80817 -3.32215 0
M  V30 33964 C 5082.71 2.13785 -4.50884 0
M  V30 33965 H 5085.45 1.93401 -8.46693 0
M  V30 33966 H 5085.72 1.68181 -6.71046 0
M  V30 33967 H 5084.85 -0.289076 -8.15488 0
M  V30 33968 H 5082.2 -0.927166 -5.72947 0
M  V30 33969 H 5081.92 1.87 -6.82132 0
M  V30 33970 H 5080.93 0.404009 -7.13457 0
M  V30 33971 H 5082.76 1.20599 -8.97534 0
M  V30 33972 H 5082.83 2.70295 -5.43162 0
M  V30 33973 H 5082.73 3.89465 -3.27406 0
M  V30 33974 H 5082.34 2.01616 -0.107046 0
M  V30 33975 H 5082.54 3.61403 -0.873101 0
M  V30 33976 P 5080.89 -1.17771 -8.83182 0
M  V30 33977 O 5080.67 -2.07206 -9.98732 0
M  V30 33978 O 5080.1 0.0743816 -8.81969 0
M  V30 33979 O 5080.64 -1.97652 -7.47304 0
M  V30 33980 C 5081.58 -3.01133 -7.08783 0
M  V30 33981 C 5080.85 -4.12613 -6.37049 0
M  V30 33982 O 5080.64 -3.72827 -4.97879 0
M  V30 33983 C 5079.45 -4.45085 -6.88694 0
M  V30 33984 O 5079.06 -5.7877 -6.5624 0
M  V30 33985 C 5078.57 -3.47817 -6.12078 0
M  V30 33986 C 5079.28 -3.39414 -4.77697 0
M  V30 33987 N 5079.23 -2.04199 -4.15538 0
M  V30 33988 C 5079.31 -0.821545 -4.76977 0
M  V30 33989 N 5079.24 0.1794 -3.94592 0
M  V30 33990 C 5079.09 -0.419121 -2.70776 0
M  V30 33991 C 5078.96 0.109072 -1.40577 0
M  V30 33992 N 5078.95 1.4104 -1.1344 0
M  V30 33993 N 5078.84 -0.764381 -0.39411 0
M  V30 33994 C 5078.85 -2.06587 -0.664135 0
M  V30 33995 N 5078.97 -2.67948 -1.82153 0
M  V30 33996 C 5079.09 -1.77942 -2.8147 0
M  V30 33997 H 5082.07 -3.41248 -7.98759 0
M  V30 33998 H 5082.34 -2.57728 -6.42 0
M  V30 33999 H 5081.47 -5.02657 -6.42673 0
M  V30 34000 H 5078.82 -4.11708 -4.08956 0
M  V30 34001 H 5078.54 -2.49626 -6.61679 0
M  V30 34002 H 5077.55 -3.8662 -6.00862 0
M  V30 34003 H 5079.38 -4.29991 -7.97006 0
M  V30 34004 H 5079.42 -0.702451 -5.84696 0
M  V30 34005 H 5079.04 2.09647 -1.89651 0
M  V30 34006 H 5078.85 1.73358 -0.160575 0
M  V30 34007 H 5078.74 -2.71695 0.195838 0
M  V30 34008 P 5077.51 -6.144 -6.45285 0
M  V30 34009 O 5077.29 -7.54673 -6.86199 0
M  V30 34010 O 5076.72 -5.12391 -7.179 0
M  V30 34011 O 5077.26 -5.99158 -4.88404 0
M  V30 34012 C 5078.2 -6.60234 -3.96415 0
M  V30 34013 C 5077.47 -7.08259 -2.72856 0
M  V30 34014 O 5077.26 -5.9427 -1.83651 0
M  V30 34015 C 5076.07 -7.64886 -2.9555 0
M  V30 34016 O 5075.68 -8.53963 -1.90717 0
M  V30 34017 C 5075.19 -6.4116 -2.90739 0
M  V30 34018 C 5075.9 -5.55375 -1.86963 0
M  V30 34019 N 5075.85 -4.09664 -2.15742 0
M  V30 34020 H 5078.69 -7.45574 -4.45629 0
M  V30 34021 H 5078.96 -5.86232 -3.67314 0
M  V30 34022 H 5078.09 -7.84412 -2.24479 0
M  V30 34023 P 5074.13 -8.7635 -1.60911 0
M  V30 34024 O 5073.91 -10.1388 -1.11561 0
M  V30 34025 O 5073.34 -8.36503 -2.79617 0
M  V30 34026 O 5073.88 -7.71806 -0.42951 0
M  V30 34027 C 5074.82 -7.67148 0.673689 0
M  V30 34028 C 5074.09 -7.33374 1.95559 0
M  V30 34029 O 5073.88 -5.88721 2.00726 0
M  V30 34030 C 5072.69 -7.92526 2.10483 0
M  V30 34031 O 5072.3 -8.02971 3.47653 0
M  V30 34032 C 5071.81 -6.89602 1.41652 0
M  V30 34033 C 5072.52 -5.59201 1.75185 0
M  V30 34034 N 5072.47 -4.58235 0.662552 0
M  V30 34035 H 5075.31 -8.65116 0.777161 0
M  V30 34036 H 5075.58 -6.90173 0.474152 0
M  V30 34037 H 5074.71 -7.66548 2.79458 0
M  V30 34038 P 5070.75 -8.03563 3.84925 0
M  V30 34039 O 5070.53 -8.85821 5.0569 0
M  V30 34040 O 5069.96 -8.41101 2.65469 0
M  V30 34041 O 5070.5 -6.4965 4.18908 0
M  V30 34042 C 5071.44 -5.81037 5.05421 0
M  V30 34043 C 5070.71 -4.78366 5.89277 0
M  V30 34044 O 5070.5 -3.58302 5.08433 0
M  V30 34045 C 5069.31 -5.17448 6.36119 0
M  V30 34046 O 5068.92 -4.45271 7.53232 0
M  V30 34047 C 5068.43 -4.74639 5.19936 0
M  V30 34048 C 5069.14 -3.49432 4.70418 0
M  V30 34049 N 5069.09 -3.31776 3.22945 0
M  V30 34050 H 5071.93 -6.54213 5.71376 0
M  V30 34051 H 5072.2 -5.30492 4.44033 0
M  V30 34052 H 5071.33 -4.55889 6.76652 0
M  V30 34053 P 5067.37 -4.23843 7.83734 0
M  V30 34054 O 5067.15 -4.19407 9.29784 0
M  V30 34055 O 5066.58 -5.24426 7.09156 0
M  V30 34056 O 5067.12 -2.7935 7.20758 0
M  V30 34057 C 5068.06 -1.7299 7.50419 0
M  V30 34058 C 5067.33 -0.406376 7.57911 0
M  V30 34059 O 5067.12 0.0897726 6.21935 0
M  V30 34060 C 5065.93 -0.447224 8.1878 0
M  V30 34061 O 5065.54 0.825065 8.71101 0
M  V30 34062 C 5065.05 -0.783801 6.99623 0
M  V30 34063 C 5065.76 -0.0619192 5.85967 0
M  V30 34064 N 5065.71 -0.7859 4.56281 0
M  V30 34065 C 5065.79 -2.14308 4.31736 0
M  V30 34066 N 5065.71 -2.46106 3.05116 0
M  V30 34067 C 5065.57 -1.23422 2.4014 0
M  V30 34068 C 5065.44 -0.938381 1.02409 0
M  V30 34069 O 5065.42 -1.70876 0.0650402 0
M  V30 34070 N 5065.32 0.444647 0.805413 0
M  V30 34071 C 5065.32 1.40829 1.79435 0
M  V30 34072 N 5065.19 2.67213 1.38558 0
M  V30 34073 N 5065.45 1.12947 3.09005 0
M  V30 34074 C 5065.57 -0.204887 3.32369 0
M  V30 34075 H 5068.55 -1.93423 8.4679 0
M  V30 34076 H 5068.82 -1.68181 6.71046 0
M  V30 34077 H 5067.95 0.289041 8.15388 0
M  V30 34078 H 5065.3 0.927166 5.72947 0
M  V30 34079 H 5065.02 -1.87 6.82132 0
M  V30 34080 H 5064.03 -0.404009 7.13457 0
M  V30 34081 H 5065.86 -1.20612 8.97633 0
M  V30 34082 H 5065.91 -2.88284 5.10874 0
M  V30 34083 H 5065.23 0.755087 -0.140242 0
M  V30 34084 H 5065.19 3.43967 2.0729 0
M  V30 34085 H 5065.09 2.88096 0.380644 0
M  V30 34086 P 5063.99 1.17771 8.83182 0
M  V30 34087 O 5063.77 2.07206 9.98732 0
M  V30 34088 O 5063.2 -0.0743816 8.81969 0
M  V30 34089 O 5063.74 1.97652 7.47304 0
M  V30 34090 C 5064.68 3.01133 7.08783 0
M  V30 34091 C 5063.95 4.12613 6.37049 0
M  V30 34092 O 5063.74 3.72827 4.97879 0
M  V30 34093 C 5062.55 4.45085 6.88694 0
M  V30 34094 O 5062.16 5.7877 6.5624 0
M  V30 34095 C 5061.67 3.47817 6.12078 0
M  V30 34096 C 5062.38 3.39414 4.77697 0
M  V30 34097 N 5062.33 2.04615 4.15333 0
M  V30 34098 H 5065.17 3.41248 7.98759 0
M  V30 34099 H 5065.44 2.5837 6.41742 0
M  V30 34100 H 5064.57 5.02657 6.42673 0
M  V30 34101 P 5060.61 6.144 6.45285 0
M  V30 34102 O 5060.39 7.54673 6.86199 0
M  V30 34103 O 5059.82 5.12391 7.179 0
M  V30 34104 O 5060.36 5.99158 4.88404 0
M  V30 34105 C 5061.3 6.60234 3.96415 0
M  V30 34106 C 5060.57 7.08259 2.72856 0
M  V30 34107 O 5060.36 5.9427 1.83651 0
M  V30 34108 C 5059.17 7.64886 2.9555 0
M  V30 34109 O 5058.78 8.53963 1.90717 0
M  V30 34110 C 5058.29 6.4116 2.90739 0
M  V30 34111 C 5059 5.55375 1.86963 0
M  V30 34112 N 5058.95 4.09664 2.15742 0
M  V30 34113 H 5061.79 7.45574 4.45629 0
M  V30 34114 H 5062.06 5.86232 3.67314 0
M  V30 34115 H 5061.19 7.84412 2.24479 0
M  V30 34116 P 5057.23 8.7635 1.60911 0
M  V30 34117 O 5057.01 10.1388 1.11561 0
M  V30 34118 O 5056.44 8.36503 2.79617 0
M  V30 34119 O 5056.98 7.71806 0.42951 0
M  V30 34120 C 5057.92 7.67148 -0.673689 0
M  V30 34121 C 5057.19 7.33374 -1.95559 0
M  V30 34122 O 5056.98 5.88721 -2.00726 0
M  V30 34123 C 5055.79 7.92526 -2.10483 0
M  V30 34124 O 5055.4 8.02971 -3.47653 0
M  V30 34125 C 5054.91 6.89602 -1.41652 0
M  V30 34126 C 5055.62 5.59201 -1.75185 0
M  V30 34127 N 5055.57 4.58235 -0.662552 0
M  V30 34128 H 5058.41 8.65116 -0.777161 0
M  V30 34129 H 5058.68 6.90173 -0.474152 0
M  V30 34130 H 5057.81 7.66548 -2.79458 0
M  V30 34131 P 5053.85 8.03563 -3.84925 0
M  V30 34132 O 5053.63 8.85821 -5.0569 0
M  V30 34133 O 5053.06 8.41101 -2.65469 0
M  V30 34134 O 5053.6 6.4965 -4.18908 0
M  V30 34135 C 5054.54 5.81037 -5.05421 0
M  V30 34136 C 5053.81 4.78366 -5.89277 0
M  V30 34137 O 5053.6 3.58302 -5.08433 0
M  V30 34138 C 5052.41 5.17448 -6.36119 0
M  V30 34139 O 5052.02 4.45271 -7.53232 0
M  V30 34140 C 5051.53 4.74639 -5.19936 0
M  V30 34141 C 5052.24 3.49432 -4.70418 0
M  V30 34142 N 5052.19 3.31776 -3.22945 0
M  V30 34143 H 5055.03 6.54213 -5.71376 0
M  V30 34144 H 5055.3 5.30492 -4.44033 0
M  V30 34145 H 5054.43 4.55889 -6.76652 0
M  V30 34146 P 5050.47 4.23843 -7.83734 0
M  V30 34147 O 5050.25 4.19407 -9.29784 0
M  V30 34148 O 5049.68 5.24426 -7.09156 0
M  V30 34149 O 5050.22 2.7935 -7.20758 0
M  V30 34150 C 5051.16 1.7299 -7.50419 0
M  V30 34151 C 5050.43 0.406376 -7.57911 0
M  V30 34152 O 5050.22 -0.0897726 -6.21935 0
M  V30 34153 C 5049.03 0.447224 -8.1878 0
M  V30 34154 O 5048.64 -0.825065 -8.71101 0
M  V30 34155 C 5048.15 0.783801 -6.99623 0
M  V30 34156 C 5048.86 0.0619192 -5.85967 0
M  V30 34157 N 5048.81 0.790462 -4.56202 0
M  V30 34158 C 5048.89 2.13895 -4.34171 0
M  V30 34159 N 5048.82 2.46449 -3.08687 0
M  V30 34160 C 5048.67 1.2525 -2.43697 0
M  V30 34161 C 5048.54 0.914535 -1.07318 0
M  V30 34162 N 5048.53 1.80782 -0.0887348 0
M  V30 34163 N 5048.42 -0.386745 -0.768133 0
M  V30 34164 C 5048.43 -1.28096 -1.75159 0
M  V30 34165 N 5048.55 -1.09708 -3.04861 0
M  V30 34166 C 5048.67 0.214857 -3.32306 0
M  V30 34167 H 5051.65 1.93423 -8.4679 0
M  V30 34168 H 5051.92 1.68852 -6.70877 0
M  V30 34169 H 5051.05 -0.289041 -8.15388 0
M  V30 34170 H 5048.4 -0.927006 -5.72848 0
M  V30 34171 H 5048.12 1.86973 -6.82036 0
M  V30 34172 H 5047.13 0.403953 -7.13357 0
M  V30 34173 H 5048.96 1.20599 -8.97534 0
M  V30 34174 H 5049 2.86846 -5.14318 0
M  V30 34175 H 5048.62 2.81082 -0.302037 0
M  V30 34176 H 5048.43 1.49688 0.889064 0
M  V30 34177 H 5048.32 -2.31317 -1.43855 0
M  V30 34178 P 5047.09 -1.17771 -8.83182 0
M  V30 34179 O 5046.87 -2.07206 -9.98732 0
M  V30 34180 O 5046.3 0.0743816 -8.81969 0
M  V30 34181 O 5046.84 -1.97652 -7.47304 0
M  V30 34182 C 5047.78 -3.01133 -7.08783 0
M  V30 34183 C 5047.05 -4.12613 -6.37049 0
M  V30 34184 O 5046.84 -3.72827 -4.97879 0
M  V30 34185 C 5045.65 -4.45085 -6.88694 0
M  V30 34186 O 5045.26 -5.7877 -6.5624 0
M  V30 34187 C 5044.77 -3.47817 -6.12078 0
M  V30 34188 C 5045.48 -3.39414 -4.77697 0
M  V30 34189 N 5045.43 -2.04615 -4.15333 0
M  V30 34190 H 5048.27 -3.41248 -7.98759 0
M  V30 34191 H 5048.54 -2.5837 -6.41742 0
M  V30 34192 H 5047.67 -5.02657 -6.42673 0
M  V30 34193 P 5043.71 -6.144 -6.45285 0
M  V30 34194 O 5043.49 -7.54673 -6.86199 0
M  V30 34195 O 5042.92 -5.12391 -7.179 0
M  V30 34196 O 5043.46 -5.99158 -4.88404 0
M  V30 34197 C 5044.4 -6.60234 -3.96415 0
M  V30 34198 C 5043.67 -7.08259 -2.72856 0
M  V30 34199 O 5043.46 -5.9427 -1.83651 0
M  V30 34200 C 5042.27 -7.64886 -2.9555 0
M  V30 34201 O 5041.88 -8.53963 -1.90717 0
M  V30 34202 C 5041.39 -6.4116 -2.90739 0
M  V30 34203 C 5042.1 -5.55375 -1.86963 0
M  V30 34204 N 5042.05 -4.09664 -2.15742 0
M  V30 34205 H 5044.89 -7.45574 -4.45629 0
M  V30 34206 H 5045.16 -5.86232 -3.67314 0
M  V30 34207 H 5044.29 -7.84412 -2.24479 0
M  V30 34208 P 5040.33 -8.7635 -1.60911 0
M  V30 34209 O 5040.11 -10.1388 -1.11561 0
M  V30 34210 O 5039.54 -8.36503 -2.79617 0
M  V30 34211 O 5040.08 -7.71806 -0.42951 0
M  V30 34212 C 5041.02 -7.67148 0.673689 0
M  V30 34213 C 5040.29 -7.33374 1.95559 0
M  V30 34214 O 5040.08 -5.88721 2.00726 0
M  V30 34215 C 5038.89 -7.92526 2.10483 0
M  V30 34216 O 5038.5 -8.02971 3.47653 0
M  V30 34217 C 5038.01 -6.89602 1.41652 0
M  V30 34218 C 5038.72 -5.59201 1.75185 0
M  V30 34219 N 5038.67 -4.58235 0.662552 0
M  V30 34220 H 5041.51 -8.65116 0.777161 0
M  V30 34221 H 5041.78 -6.90173 0.474152 0
M  V30 34222 H 5040.91 -7.66548 2.79458 0
M  V30 34223 P 5036.95 -8.03563 3.84925 0
M  V30 34224 O 5036.73 -8.85821 5.0569 0
M  V30 34225 O 5036.16 -8.41101 2.65469 0
M  V30 34226 O 5036.7 -6.4965 4.18908 0
M  V30 34227 C 5037.64 -5.80886 5.05289 0
M  V30 34228 C 5036.91 -4.78366 5.89277 0
M  V30 34229 O 5036.7 -3.58302 5.08433 0
M  V30 34230 C 5035.51 -5.16748 6.36559 0
M  V30 34231 O 5035.12 -4.45271 7.53232 0
M  V30 34232 C 5034.63 -4.74572 5.19863 0
M  V30 34233 C 5035.34 -3.49373 4.70338 0
M  V30 34234 N 5035.29 -3.31704 3.22876 0
M  V30 34235 C 5035.14 -2.03326 2.74871 0
M  V30 34236 O 5035.05 -1.06486 3.48076 0
M  V30 34237 N 5035.1 -1.91838 1.37456 0
M  V30 34238 C 5035.19 -2.94295 0.462035 0
M  V30 34239 C 5035.34 -4.25064 1.05249 0
M  V30 34240 C 5035.39 -4.40214 2.39192 0
M  V30 34241 H 5038.13 -6.54063 5.71245 0
M  V30 34242 H 5038.4 -5.30339 4.43905 0
M  V30 34243 H 5037.53 -4.55889 6.76652 0
M  V30 34244 H 5034.88 -2.6167 5.17842 0
M  V30 34245 H 5034.6 -5.52155 4.41878 0
M  V30 34246 H 5033.61 -4.51918 5.53297 0
M  V30 34247 H 5035.44 -6.25055 6.55162 0
M  V30 34248 H 5035.51 -5.39798 2.81523 0
M  V30 34249 P 5033.57 -4.23843 7.83734 0
M  V30 34250 O 5033.35 -4.19407 9.29784 0
M  V30 34251 O 5032.78 -5.24426 7.09156 0
M  V30 34252 O 5033.32 -2.7935 7.20758 0
M  V30 34253 C 5034.26 -1.72945 7.50224 0
M  V30 34254 C 5033.53 -0.406376 7.57911 0
M  V30 34255 O 5033.32 0.0897726 6.21935 0
M  V30 34256 C 5032.13 -0.438983 8.18724 0
M  V30 34257 O 5031.74 0.825065 8.71101 0
M  V30 34258 C 5031.25 -0.783689 6.99524 0
M  V30 34259 C 5031.96 -0.0619086 5.85867 0
M  V30 34260 N 5031.91 -0.78573 4.56183 0
M  V30 34261 C 5031.76 -0.0292889 3.41887 0
M  V30 34262 O 5031.67 1.18445 3.4419 0
M  V30 34263 N 5031.72 -0.744061 2.23964 0
M  V30 34264 C 5031.81 -2.10932 2.10362 0
M  V30 34265 O 5031.76 -2.64117 0.98825 0
M  V30 34266 C 5031.96 -2.8202 3.34994 0
M  V30 34267 C 5032.07 -4.31095 3.25037 0
M  V30 34268 C 5032.01 -2.15547 4.52261 0
M  V30 34269 H 5034.75 -1.93379 8.46595 0
M  V30 34270 H 5035.02 -1.68132 6.70852 0
M  V30 34271 H 5034.15 0.289041 8.15388 0
M  V30 34272 H 5031.5 0.926847 5.72749 0
M  V30 34273 H 5031.22 -1.86973 6.82036 0
M  V30 34274 H 5030.23 -0.403896 7.13257 0
M  V30 34275 H 5032.06 -1.20585 8.97435 0
M  V30 34276 H 5032.13 -2.71231 5.45042 0
M  V30 34277 H 5031.1 -4.76966 3.49992 0
M  V30 34278 H 5032.84 -4.67047 3.95024 0
M  V30 34279 H 5032.35 -4.58996 2.22312 0
M  V30 34280 H 5031.62 -0.214893 1.39758 0
M  V30 34281 P 5030.19 1.17771 8.83182 0
M  V30 34282 O 5029.97 2.07206 9.98732 0
M  V30 34283 O 5029.4 -0.0743816 8.81969 0
M  V30 34284 O 5029.94 1.97652 7.47304 0
M  V30 34285 C 5030.88 3.01055 7.08599 0
M  V30 34286 C 5030.15 4.12613 6.37049 0
M  V30 34287 O 5029.94 3.72827 4.97879 0
M  V30 34288 C 5028.75 4.45719 6.88164 0
M  V30 34289 O 5028.36 5.7877 6.5624 0
M  V30 34290 C 5027.87 3.47768 6.11991 0
M  V30 34291 C 5028.58 3.39356 4.77615 0
M  V30 34292 N 5028.53 2.04571 4.15244 0
M  V30 34293 C 5028.38 1.98587 2.78314 0
M  V30 34294 O 5028.29 2.98134 2.08835 0
M  V30 34295 N 5028.34 0.714467 2.24925 0
M  V30 34296 C 5028.43 -0.470001 2.94169 0
M  V30 34297 O 5028.38 -1.55587 2.35195 0
M  V30 34298 C 5028.58 -0.312541 4.36783 0
M  V30 34299 C 5028.69 -1.57711 5.16352 0
M  V30 34300 C 5028.63 0.914512 4.92583 0
M  V30 34301 H 5031.37 3.41169 7.98575 0
M  V30 34302 H 5031.64 2.58295 6.41556 0
M  V30 34303 H 5030.77 5.02657 6.42673 0
M  V30 34304 H 5028.12 4.11637 4.08885 0
M  V30 34305 H 5027.84 2.49626 6.61679 0
M  V30 34306 H 5026.85 3.86566 6.00778 0
M  V30 34307 H 5028.68 4.29943 7.96918 0
M  V30 34308 H 5028.75 1.00937 6.00374 0
M  V30 34309 H 5027.72 -1.80153 5.63503 0
M  V30 34310 H 5029.46 -1.4566 5.94104 0
M  V30 34311 H 5028.97 -2.40664 4.49645 0
M  V30 34312 H 5028.24 0.647622 1.25697 0
M  V30 34313 P 5026.81 6.144 6.45285 0
M  V30 34314 O 5026.59 7.54673 6.86199 0
M  V30 34315 O 5026.02 5.12391 7.179 0
M  V30 34316 O 5026.56 5.99158 4.88404 0
M  V30 34317 C 5027.5 6.60234 3.96415 0
M  V30 34318 C 5026.77 7.08259 2.72856 0
M  V30 34319 O 5026.56 5.9427 1.83651 0
M  V30 34320 C 5025.37 7.64886 2.9555 0
M  V30 34321 O 5024.98 8.53963 1.90717 0
M  V30 34322 C 5024.49 6.4116 2.90739 0
M  V30 34323 C 5025.2 5.55375 1.86963 0
M  V30 34324 N 5025.15 4.09664 2.15742 0
M  V30 34325 H 5027.99 7.45574 4.45629 0
M  V30 34326 H 5028.26 5.86232 3.67314 0
M  V30 34327 H 5027.39 7.84412 2.24479 0
M  V30 34328 P 5023.43 8.7635 1.60911 0
M  V30 34329 O 5023.21 10.1388 1.11561 0
M  V30 34330 O 5022.64 8.36503 2.79617 0
M  V30 34331 O 5023.18 7.71806 0.42951 0
M  V30 34332 C 5024.12 7.67148 -0.673689 0
M  V30 34333 C 5023.39 7.33374 -1.95559 0
M  V30 34334 O 5023.18 5.88721 -2.00726 0
M  V30 34335 C 5021.99 7.92526 -2.10483 0
M  V30 34336 O 5021.6 8.02971 -3.47653 0
M  V30 34337 C 5021.11 6.89602 -1.41652 0
M  V30 34338 C 5021.82 5.59201 -1.75185 0
M  V30 34339 N 5021.77 4.58301 -0.657969 0
M  V30 34340 H 5024.61 8.65116 -0.777161 0
M  V30 34341 H 5024.88 6.9022 -0.46725 0
M  V30 34342 H 5024.01 7.66548 -2.79458 0
M  V30 34343 H 5021.36 5.16165 -2.65183 0
M  V30 34344 H 5021.08 7.06433 -0.329384 0
M  V30 34345 H 5020.09 6.90926 -1.82021 0
M  V30 34346 H 5021.92 8.90873 -1.62657 0
M  V30 34347 P 5020.05 8.03563 -3.84925 0
M  V30 34348 O 5019.83 8.85821 -5.0569 0
M  V30 34349 O 5019.26 8.41101 -2.65469 0
M  V30 34350 O 5019.8 6.4965 -4.18908 0
M  V30 34351 C 5020.74 5.81037 -5.05421 0
M  V30 34352 C 5020.01 4.78366 -5.89277 0
M  V30 34353 O 5019.8 3.58302 -5.08433 0
M  V30 34354 C 5018.61 5.17448 -6.36119 0
M  V30 34355 O 5018.22 4.45271 -7.53232 0
M  V30 34356 C 5017.73 4.74639 -5.19936 0
M  V30 34357 C 5018.44 3.49432 -4.70418 0
M  V30 34358 N 5018.39 3.31776 -3.22945 0
M  V30 34359 C 5018.47 4.27147 -2.23315 0
M  V30 34360 N 5018.39 3.78447 -1.02186 0
M  V30 34361 C 5018.25 2.41001 -1.21732 0
M  V30 34362 C 5018.12 1.36111 -0.27694 0
M  V30 34363 O 5018.1 1.42065 0.951767 0
M  V30 34364 N 5018 0.113683 -0.912949 0
M  V30 34365 C 5018 -0.0846396 -2.27943 0
M  V30 34366 N 5017.87 -1.34737 -2.6916 0
M  V30 34367 N 5018.13 0.902521 -3.16379 0
M  V30 34368 C 5018.25 2.11937 -2.56849 0
M  V30 34369 H 5021.23 6.54213 -5.71376 0
M  V30 34370 H 5021.5 5.30492 -4.44033 0
M  V30 34371 H 5020.63 4.55889 -6.76652 0
M  V30 34372 H 5017.98 2.6176 -5.18021 0
M  V30 34373 H 5017.7 5.52233 -4.41941 0
M  V30 34374 H 5016.71 4.52045 -5.53452 0
M  V30 34375 H 5018.54 6.25193 -6.55307 0
M  V30 34376 H 5018.59 5.3351 -2.43857 0
M  V30 34377 H 5017.91 -0.69331 -0.330371 0
M  V30 34378 H 5017.87 -1.56433 -3.6988 0
M  V30 34379 H 5017.77 -2.10701 -2.00133 0
M  V30 34380 P 5016.67 4.23843 -7.83734 0
M  V30 34381 O 5016.45 4.19407 -9.29784 0
M  V30 34382 O 5015.88 5.24426 -7.09156 0
M  V30 34383 O 5016.42 2.7935 -7.20758 0
M  V30 34384 C 5017.36 1.72945 -7.50224 0
M  V30 34385 C 5016.63 0.406376 -7.57911 0
M  V30 34386 O 5016.42 -0.0897726 -6.21935 0
M  V30 34387 C 5015.23 0.438983 -8.18724 0
M  V30 34388 O 5014.84 -0.825065 -8.71101 0
M  V30 34389 C 5014.35 0.783689 -6.99524 0
M  V30 34390 C 5015.06 0.0619086 -5.85867 0
M  V30 34391 N 5015.01 0.78573 -4.56183 0
M  V30 34392 C 5014.86 0.0292889 -3.41887 0
M  V30 34393 O 5014.77 -1.18445 -3.4419 0
M  V30 34394 N 5014.82 0.744061 -2.23964 0
M  V30 34395 C 5014.91 2.10932 -2.10362 0
M  V30 34396 O 5014.86 2.64117 -0.98825 0
M  V30 34397 C 5015.06 2.8202 -3.34994 0
M  V30 34398 C 5015.17 4.31095 -3.25037 0
M  V30 34399 C 5015.11 2.15547 -4.52261 0
M  V30 34400 H 5017.85 1.93379 -8.46595 0
M  V30 34401 H 5018.12 1.68132 -6.70852 0
M  V30 34402 H 5017.25 -0.289041 -8.15388 0
M  V30 34403 H 5014.6 -0.926847 -5.72749 0
M  V30 34404 H 5014.32 1.86973 -6.82036 0
M  V30 34405 H 5013.33 0.403896 -7.13257 0
M  V30 34406 H 5015.16 1.20585 -8.97435 0
M  V30 34407 H 5015.23 2.71231 -5.45042 0
M  V30 34408 H 5014.2 4.76966 -3.49992 0
M  V30 34409 H 5015.94 4.67047 -3.95024 0
M  V30 34410 H 5015.45 4.58996 -2.22312 0
M  V30 34411 H 5014.72 0.214893 -1.39758 0
M  V30 34412 P 5013.29 -1.17771 -8.83182 0
M  V30 34413 O 5013.07 -2.07206 -9.98732 0
M  V30 34414 O 5012.5 0.0743816 -8.81969 0
M  V30 34415 O 5013.04 -1.97652 -7.47304 0
M  V30 34416 C 5013.98 -3.01133 -7.08783 0
M  V30 34417 C 5013.25 -4.12613 -6.37049 0
M  V30 34418 O 5013.04 -3.72827 -4.97879 0
M  V30 34419 C 5011.85 -4.45085 -6.88694 0
M  V30 34420 O 5011.46 -5.7877 -6.5624 0
M  V30 34421 C 5010.97 -3.47817 -6.12078 0
M  V30 34422 C 5011.68 -3.39414 -4.77697 0
M  V30 34423 N 5011.63 -2.04199 -4.15538 0
M  V30 34424 H 5014.47 -3.41248 -7.98759 0
M  V30 34425 H 5014.74 -2.57728 -6.42 0
M  V30 34426 H 5013.87 -5.02657 -6.42673 0
M  V30 34427 H 5011.22 -4.11708 -4.08956 0
M  V30 34428 H 5010.94 -2.49626 -6.61679 0
M  V30 34429 H 5009.95 -3.8662 -6.00862 0
M  V30 34430 H 5011.78 -4.29991 -7.97006 0
M  V30 34431 P 5009.91 -6.144 -6.45285 0
M  V30 34432 O 5009.69 -7.54673 -6.86199 0
M  V30 34433 O 5009.12 -5.12391 -7.179 0
M  V30 34434 O 5009.66 -5.99236 -4.88467 0
M  V30 34435 C 5010.6 -6.60234 -3.96415 0
M  V30 34436 C 5009.87 -7.08079 -2.736 0
M  V30 34437 O 5009.66 -5.94365 -1.8368 0
M  V30 34438 C 5008.47 -7.64886 -2.9555 0
M  V30 34439 O 5008.08 -8.5406 -1.90739 0
M  V30 34440 C 5007.59 -6.4116 -2.90739 0
M  V30 34441 C 5008.3 -5.55375 -1.86963 0
M  V30 34442 N 5008.25 -4.09664 -2.15742 0
M  V30 34443 C 5008.1 -3.22231 -1.08477 0
M  V30 34444 O 5008.01 -3.68951 0.0600489 0
M  V30 34445 N 5008.05 -1.76692 -1.48799 0
M  V30 34446 C 5008.15 -1.41695 -2.57602 0
M  V30 34447 N 5008.1 -0.107296 -2.75791 0
M  V30 34448 C 5008.3 -2.29178 -3.69733 0
M  V30 34449 C 5008.35 -3.62753 -3.42653 0
M  V30 34450 H 5011.09 -7.45488 -4.45578 0
M  V30 34451 H 5011.36 -5.86232 -3.67314 0
M  V30 34452 H 5010.49 -7.84508 -2.24507 0
M  V30 34453 H 5007.84 -5.73556 -0.888715 0
M  V30 34454 H 5007.56 -5.9096 -3.88638 0
M  V30 34455 H 5006.57 -6.66053 -2.58894 0
M  V30 34456 H 5008.4 -8.16339 -3.92049 0
M  V30 34457 H 5008.47 -4.33052 -4.24913 0
M  V30 34458 H 5008.37 -1.9103 -4.71577 0
M  V30 34459 H 5007.98 0.521221 -1.95056 0
M  V30 34460 H 5008.18 0.286429 -3.70695 0
M  V30 34461 P 5006.53 -8.7635 -1.60911 0
M  V30 34462 O 5006.31 -10.1388 -1.11561 0
M  V30 34463 O 5005.74 -8.36503 -2.79617 0
M  V30 34464 O 5006.28 -7.71806 -0.42951 0
M  V30 34465 C 5007.22 -7.66948 0.673514 0
M  V30 34466 C 5006.49 -7.33374 1.95559 0
M  V30 34467 O 5006.28 -5.88721 2.00726 0
M  V30 34468 C 5005.09 -7.92218 2.1125 0
M  V30 34469 O 5004.7 -8.02971 3.47653 0
M  V30 34470 C 5004.21 -6.89504 1.41631 0
M  V30 34471 C 5004.92 -5.59106 1.75155 0
M  V30 34472 N 5004.87 -4.58136 0.662409 0
M  V30 34473 C 5004.72 -3.26059 1.02863 0
M  V30 34474 O 5004.63 -2.90743 2.19009 0
M  V30 34475 N 5004.68 -2.35995 -0.0155585 0
M  V30 34476 C 5004.77 -2.65248 -1.35603 0
M  V30 34477 O 5004.72 -1.75605 -2.20651 0
M  V30 34478 C 5004.92 -4.05747 -1.64698 0
M  V30 34479 C 5005.03 -4.42345 -3.09553 0
M  V30 34480 C 5004.97 -4.96734 -0.652411 0
M  V30 34481 H 5007.71 -8.64917 0.776982 0
M  V30 34482 H 5007.98 -6.89974 0.474015 0
M  V30 34483 H 5007.11 -7.66548 2.79458 0
M  V30 34484 H 5004.46 -5.16076 2.65138 0
M  V30 34485 H 5004.18 -7.06433 0.329384 0
M  V30 34486 H 5003.19 -6.90829 1.81996 0
M  V30 34487 H 5005.02 -8.90774 1.62639 0
M  V30 34488 H 5005.09 -6.02181 -0.895285 0
M  V30 34489 H 5004.06 -4.80252 -3.45468 0
M  V30 34490 H 5005.8 -5.20015 -3.22119 0
M  V30 34491 H 5005.31 -3.53269 -3.67833 0
M  V30 34492 H 5004.58 -1.39558 0.227499 0
M  V30 34493 P 5003.15 -8.03563 3.84925 0
M  V30 34494 O 5002.93 -8.85821 5.0569 0
M  V30 34495 O 5002.36 -8.41101 2.65469 0
M  V30 34496 O 5002.9 -6.4965 4.18908 0
M  V30 34497 C 5003.84 -5.81037 5.05421 0
M  V30 34498 C 5003.11 -4.78366 5.89277 0
M  V30 34499 O 5002.9 -3.58302 5.08433 0
M  V30 34500 C 5001.71 -5.17448 6.36119 0
M  V30 34501 O 5001.32 -4.45271 7.53232 0
M  V30 34502 C 5000.83 -4.74639 5.19936 0
M  V30 34503 C 5001.54 -3.49432 4.70418 0
M  V30 34504 N 5001.49 -3.31776 3.22945 0
M  V30 34505 H 5004.33 -6.54213 5.71376 0
M  V30 34506 H 5004.6 -5.30492 4.44033 0
M  V30 34507 H 5003.73 -4.55889 6.76652 0
M  V30 34508 P 4999.77 -4.23843 7.83734 0
M  V30 34509 O 4999.55 -4.19407 9.29784 0
M  V30 34510 O 4998.98 -5.24426 7.09156 0
M  V30 34511 O 4999.52 -2.7935 7.20758 0
M  V30 34512 C 5000.46 -1.7299 7.50419 0
M  V30 34513 C 4999.73 -0.406376 7.57911 0
M  V30 34514 O 4999.52 0.0897726 6.21935 0
M  V30 34515 C 4998.33 -0.447224 8.1878 0
M  V30 34516 O 4997.94 0.825065 8.71101 0
M  V30 34517 C 4997.45 -0.783801 6.99623 0
M  V30 34518 C 4998.16 -0.0619192 5.85967 0
M  V30 34519 N 4998.11 -0.7859 4.56281 0
M  V30 34520 H 5000.95 -1.93423 8.4679 0
M  V30 34521 H 5001.22 -1.68181 6.71046 0
M  V30 34522 H 5000.35 0.289041 8.15388 0
M  V30 34523 P 4996.39 1.17771 8.83182 0
M  V30 34524 O 4996.17 2.07206 9.98732 0
M  V30 34525 O 4995.6 -0.0743816 8.81969 0
M  V30 34526 O 4996.14 1.97652 7.47304 0
M  V30 34527 C 4997.08 3.01133 7.08783 0
M  V30 34528 C 4996.35 4.12613 6.37049 0
M  V30 34529 O 4996.14 3.72827 4.97879 0
M  V30 34530 C 4994.95 4.45085 6.88694 0
M  V30 34531 O 4994.56 5.7877 6.5624 0
M  V30 34532 C 4994.07 3.47817 6.12078 0
M  V30 34533 C 4994.78 3.39414 4.77697 0
M  V30 34534 N 4994.73 2.04615 4.15333 0
M  V30 34535 C 4994.81 0.803897 4.75249 0
M  V30 34536 N 4994.73 -0.197615 3.91502 0
M  V30 34537 C 4994.59 0.413002 2.66823 0
M  V30 34538 C 4994.46 -0.157221 1.38007 0
M  V30 34539 O 4994.44 -1.34419 1.057 0
M  V30 34540 N 4994.34 0.833136 0.390236 0
M  V30 34541 C 4994.34 2.19402 0.623885 0
M  V30 34542 N 4994.21 2.97622 -0.449677 0
M  V30 34543 N 4994.47 2.73005 1.83601 0
M  V30 34544 C 4994.59 1.78786 2.80935 0
M  V30 34545 H 4997.57 3.41248 7.98759 0
M  V30 34546 H 4997.84 2.5837 6.41742 0
M  V30 34547 H 4996.97 5.02657 6.42673 0
M  V30 34548 H 4994.32 4.11779 4.09026 0
M  V30 34549 H 4994.04 2.49661 6.61772 0
M  V30 34550 H 4993.05 3.86674 6.00946 0
M  V30 34551 H 4994.88 4.30038 7.97094 0
M  V30 34552 H 4994.93 0.670579 5.82754 0
M  V30 34553 H 4994.25 0.528446 -0.557287 0
M  V30 34554 H 4994.21 4.00117 -0.344773 0
M  V30 34555 H 4994.11 2.55448 -1.38544 0
M  V30 34556 P 4993.01 6.144 6.45285 0
M  V30 34557 O 4992.79 7.54673 6.86199 0
M  V30 34558 O 4992.22 5.12391 7.179 0
M  V30 34559 O 4992.76 5.99158 4.88404 0
M  V30 34560 C 4993.7 6.60234 3.96415 0
M  V30 34561 C 4992.97 7.08259 2.72856 0
M  V30 34562 O 4992.76 5.9427 1.83651 0
M  V30 34563 C 4991.57 7.64886 2.9555 0
M  V30 34564 O 4991.18 8.53963 1.90717 0
M  V30 34565 C 4990.69 6.4116 2.90739 0
M  V30 34566 C 4991.4 5.55375 1.86963 0
M  V30 34567 N 4991.35 4.09448 2.16152 0
M  V30 34568 H 4994.19 7.45574 4.45629 0
M  V30 34569 H 4994.46 5.85864 3.679 0
M  V30 34570 H 4993.59 7.84412 2.24479 0
M  V30 34571 H 4990.94 5.73457 0.888562 0
M  V30 34572 H 4990.66 5.90877 3.88583 0
M  V30 34573 H 4989.67 6.6596 2.58858 0
M  V30 34574 H 4991.5 8.16339 3.92049 0
M  V30 34575 P 4989.63 8.7635 1.60911 0
M  V30 34576 O 4989.41 10.1388 1.11561 0
M  V30 34577 O 4988.84 8.36503 2.79617 0
M  V30 34578 O 4989.38 7.71806 0.42951 0
M  V30 34579 C 4990.32 7.67148 -0.673689 0
M  V30 34580 C 4989.59 7.33374 -1.95559 0
M  V30 34581 O 4989.38 5.88721 -2.00726 0
M  V30 34582 C 4988.19 7.92526 -2.10483 0
M  V30 34583 O 4987.8 8.02971 -3.47653 0
M  V30 34584 C 4987.31 6.89602 -1.41652 0
M  V30 34585 C 4988.02 5.59201 -1.75185 0
M  V30 34586 N 4987.97 4.58235 -0.662552 0
M  V30 34587 C 4988.05 4.7683 0.704049 0
M  V30 34588 N 4987.97 3.66233 1.39775 0
M  V30 34589 C 4987.83 2.66526 0.431739 0
M  V30 34590 C 4987.7 1.26394 0.575992 0
M  V30 34591 O 4987.68 0.589894 1.60503 0
M  V30 34592 N 4987.58 0.62859 -0.67177 0
M  V30 34593 C 4987.58 1.27134 -1.89385 0
M  V30 34594 N 4987.45 0.492035 -2.96951 0
M  V30 34595 N 4987.71 2.58978 -2.02907 0
M  V30 34596 C 4987.83 3.22433 -0.832218 0
M  V30 34597 H 4990.81 8.65116 -0.777161 0
M  V30 34598 H 4991.08 6.90173 -0.474152 0
M  V30 34599 H 4990.21 7.66548 -2.79458 0
M  V30 34600 H 4987.56 5.16254 -2.65229 0
M  V30 34601 H 4987.28 7.06532 -0.329431 0
M  V30 34602 H 4986.29 6.91023 -1.82047 0
M  V30 34603 H 4988.12 8.90971 -1.62675 0
M  V30 34604 H 4988.17 5.74954 1.16305 0
M  V30 34605 H 4987.49 -0.366713 -0.674793 0
M  V30 34606 H 4987.45 0.908532 -3.91188 0
M  V30 34607 H 4987.35 -0.528253 -2.85758 0
M  V30 34608 P 4986.25 8.03563 -3.84925 0
M  V30 34609 O 4986.03 8.85821 -5.0569 0
M  V30 34610 O 4985.46 8.41101 -2.65469 0
M  V30 34611 O 4986 6.4965 -4.18908 0
M  V30 34612 C 4986.94 5.81037 -5.05421 0
M  V30 34613 C 4986.21 4.78366 -5.89277 0
M  V30 34614 O 4986 3.58302 -5.08433 0
M  V30 34615 C 4984.81 5.17448 -6.36119 0
M  V30 34616 O 4984.42 4.45271 -7.53232 0
M  V30 34617 C 4983.93 4.74639 -5.19936 0
M  V30 34618 C 4984.64 3.49432 -4.70418 0
M  V30 34619 N 4984.59 3.31776 -3.22945 0
M  V30 34620 H 4987.43 6.54213 -5.71376 0
M  V30 34621 H 4987.7 5.30492 -4.44033 0
M  V30 34622 H 4986.83 4.55889 -6.76652 0
M  V30 34623 P 4982.87 4.23843 -7.83734 0
M  V30 34624 O 4982.65 4.19407 -9.29784 0
M  V30 34625 O 4982.08 5.24426 -7.09156 0
M  V30 34626 O 4982.62 2.79386 -7.20852 0
M  V30 34627 C 4983.56 1.7299 -7.50419 0
M  V30 34628 C 4982.83 0.41401 -7.5797 0
M  V30 34629 O 4982.62 -0.089787 -6.22035 0
M  V30 34630 C 4981.43 0.447224 -8.1878 0
M  V30 34631 O 4981.04 -0.825159 -8.71201 0
M  V30 34632 C 4980.55 0.783801 -6.99623 0
M  V30 34633 C 4981.26 0.0619192 -5.85967 0
M  V30 34634 N 4981.21 0.7859 -4.56281 0
M  V30 34635 C 4981.06 0.0359258 -3.39981 0
M  V30 34636 O 4980.97 -1.19723 -3.49038 0
M  V30 34637 N 4981.01 0.869151 -2.14025 0
M  V30 34638 C 4981.11 2.01207 -2.14363 0
M  V30 34639 N 4981.06 2.58978 -0.954287 0
M  V30 34640 C 4981.26 2.80817 -3.32215 0
M  V30 34641 C 4981.31 2.13785 -4.50884 0
M  V30 34642 H 4984.05 1.93401 -8.46693 0
M  V30 34643 H 4984.32 1.68181 -6.71046 0
M  V30 34644 H 4983.45 -0.289076 -8.15488 0
M  V30 34645 H 4980.8 -0.927166 -5.72947 0
M  V30 34646 H 4980.52 1.87 -6.82132 0
M  V30 34647 H 4979.53 0.404009 -7.13457 0
M  V30 34648 H 4981.36 1.20599 -8.97534 0
M  V30 34649 H 4981.43 2.70295 -5.43162 0
M  V30 34650 H 4981.33 3.89465 -3.27406 0
M  V30 34651 H 4980.94 2.01616 -0.107046 0
M  V30 34652 H 4981.14 3.61403 -0.873101 0
M  V30 34653 P 4979.49 -1.17771 -8.83182 0
M  V30 34654 O 4979.27 -2.07206 -9.98732 0
M  V30 34655 O 4978.7 0.0743816 -8.81969 0
M  V30 34656 O 4979.24 -1.97652 -7.47304 0
M  V30 34657 C 4980.18 -3.01055 -7.08599 0
M  V30 34658 C 4979.45 -4.12613 -6.37049 0
M  V30 34659 O 4979.24 -3.72827 -4.97879 0
M  V30 34660 C 4978.05 -4.45719 -6.88164 0
M  V30 34661 O 4977.66 -5.7877 -6.5624 0
M  V30 34662 C 4977.17 -3.47768 -6.11991 0
M  V30 34663 C 4977.88 -3.39356 -4.77615 0
M  V30 34664 N 4977.83 -2.04571 -4.15244 0
M  V30 34665 C 4977.68 -1.98587 -2.78314 0
M  V30 34666 O 4977.59 -2.98134 -2.08835 0
M  V30 34667 N 4977.64 -0.714467 -2.24925 0
M  V30 34668 C 4977.73 0.470001 -2.94169 0
M  V30 34669 C 4977.88 0.312541 -4.36783 0
M  V30 34670 C 4977.93 -0.914512 -4.92583 0
M  V30 34671 H 4980.67 -3.41169 -7.98575 0
M  V30 34672 H 4980.94 -2.58295 -6.41556 0
M  V30 34673 H 4980.07 -5.02657 -6.42673 0
M  V30 34674 H 4977.42 -4.11637 -4.08885 0
M  V30 34675 H 4977.14 -2.49626 -6.61679 0
M  V30 34676 H 4976.15 -3.86566 -6.00778 0
M  V30 34677 H 4977.98 -4.29943 -7.96918 0
M  V30 34678 H 4978.05 -1.00937 -6.00374 0
M  V30 34679 P 4976.11 -6.144 -6.45285 0
M  V30 34680 O 4975.89 -7.54673 -6.86199 0
M  V30 34681 O 4975.32 -5.12391 -7.179 0
M  V30 34682 O 4975.86 -5.99158 -4.88404 0
M  V30 34683 C 4976.8 -6.60234 -3.96415 0
M  V30 34684 C 4976.07 -7.08259 -2.72856 0
M  V30 34685 O 4975.86 -5.9427 -1.83651 0
M  V30 34686 C 4974.67 -7.64886 -2.9555 0
M  V30 34687 O 4974.28 -8.53963 -1.90717 0
M  V30 34688 C 4973.79 -6.4116 -2.90739 0
M  V30 34689 C 4974.5 -5.55375 -1.86963 0
M  V30 34690 N 4974.45 -4.09664 -2.15742 0
M  V30 34691 H 4977.29 -7.45574 -4.45629 0
M  V30 34692 H 4977.56 -5.86232 -3.67314 0
M  V30 34693 H 4976.69 -7.84412 -2.24479 0
M  V30 34694 P 4972.73 -8.7635 -1.60911 0
M  V30 34695 O 4972.51 -10.1388 -1.11561 0
M  V30 34696 O 4971.94 -8.36503 -2.79617 0
M  V30 34697 O 4972.48 -7.71806 -0.42951 0
M  V30 34698 C 4973.42 -7.66948 0.673514 0
M  V30 34699 C 4972.69 -7.33374 1.95559 0
M  V30 34700 O 4972.48 -5.88721 2.00726 0
M  V30 34701 C 4971.29 -7.92218 2.1125 0
M  V30 34702 O 4970.9 -8.02971 3.47653 0
M  V30 34703 C 4970.41 -6.89504 1.41631 0
M  V30 34704 C 4971.12 -5.59106 1.75155 0
M  V30 34705 N 4971.07 -4.58136 0.662409 0
M  V30 34706 C 4970.92 -3.26059 1.02863 0
M  V30 34707 O 4970.83 -2.90743 2.19009 0
M  V30 34708 N 4970.88 -2.35995 -0.0155585 0
M  V30 34709 C 4970.97 -2.65248 -1.35603 0
M  V30 34710 O 4970.92 -1.75605 -2.20651 0
M  V30 34711 C 4971.12 -4.05747 -1.64698 0
M  V30 34712 C 4971.23 -4.42345 -3.09553 0
M  V30 34713 C 4971.17 -4.96734 -0.652411 0
M  V30 34714 H 4973.91 -8.64917 0.776982 0
M  V30 34715 H 4974.18 -6.89974 0.474015 0
M  V30 34716 H 4973.31 -7.66548 2.79458 0
M  V30 34717 H 4970.66 -5.16076 2.65138 0
M  V30 34718 H 4970.38 -7.06433 0.329384 0
M  V30 34719 H 4969.39 -6.90829 1.81996 0
M  V30 34720 H 4971.22 -8.90774 1.62639 0
M  V30 34721 H 4971.29 -6.02181 -0.895285 0
M  V30 34722 H 4970.26 -4.80252 -3.45468 0
M  V30 34723 H 4972 -5.20015 -3.22119 0
M  V30 34724 H 4971.51 -3.53269 -3.67833 0
M  V30 34725 H 4970.78 -1.39558 0.227499 0
M  V30 34726 P 4969.35 -8.03563 3.84925 0
M  V30 34727 O 4969.13 -8.85821 5.0569 0
M  V30 34728 O 4968.56 -8.41101 2.65469 0
M  V30 34729 O 4969.1 -6.49734 4.18962 0
M  V30 34730 C 4970.04 -5.81037 5.05421 0
M  V30 34731 C 4969.31 -4.79018 5.88876 0
M  V30 34732 O 4969.1 -3.58359 5.08515 0
M  V30 34733 C 4967.91 -5.17448 6.36119 0
M  V30 34734 O 4967.52 -4.45322 7.53318 0
M  V30 34735 C 4967.03 -4.74639 5.19936 0
M  V30 34736 C 4967.74 -3.49432 4.70418 0
M  V30 34737 N 4967.69 -3.31776 3.22945 0
M  V30 34738 C 4967.54 -2.02742 2.72939 0
M  V30 34739 O 4967.45 -1.08301 3.52749 0
M  V30 34740 N 4967.49 -1.96117 1.22063 0
M  V30 34741 C 4967.59 -2.8878 0.551566 0
M  V30 34742 N 4967.54 -2.65609 -0.750198 0
M  V30 34743 C 4967.74 -4.22457 1.03707 0
M  V30 34744 C 4967.79 -4.37979 2.39113 0
M  V30 34745 H 4970.53 -6.54138 5.7131 0
M  V30 34746 H 4970.8 -5.30492 4.44033 0
M  V30 34747 H 4969.93 -4.55945 6.76735 0
M  V30 34748 H 4967.28 -2.6176 5.18021 0
M  V30 34749 H 4967 -5.52233 4.41941 0
M  V30 34750 H 4966.01 -4.52045 5.53452 0
M  V30 34751 H 4967.84 -6.25124 6.55234 0
M  V30 34752 H 4967.91 -5.37936 2.80552 0
M  V30 34753 H 4967.81 -5.07528 0.359553 0
M  V30 34754 H 4967.42 -1.69403 -1.09847 0
M  V30 34755 H 4967.62 -3.43701 -1.41792 0
M  V30 34756 P 4965.97 -4.23843 7.83734 0
M  V30 34757 O 4965.75 -4.19407 9.29784 0
M  V30 34758 O 4965.18 -5.24426 7.09156 0
M  V30 34759 O 4965.72 -2.7935 7.20758 0
M  V30 34760 C 4966.66 -1.7299 7.50419 0
M  V30 34761 C 4965.93 -0.406376 7.57911 0
M  V30 34762 O 4965.72 0.0897726 6.21935 0
M  V30 34763 C 4964.53 -0.447224 8.1878 0
M  V30 34764 O 4964.14 0.825065 8.71101 0
M  V30 34765 C 4963.65 -0.783801 6.99623 0
M  V30 34766 C 4964.36 -0.0619192 5.85967 0
M  V30 34767 N 4964.31 -0.790462 4.56202 0
M  V30 34768 H 4967.15 -1.93423 8.4679 0
M  V30 34769 H 4967.42 -1.68852 6.70877 0
M  V30 34770 H 4966.55 0.289041 8.15388 0
M  V30 34771 H 4963.9 0.927006 5.72848 0
M  V30 34772 H 4963.62 -1.86973 6.82036 0
M  V30 34773 H 4962.63 -0.403953 7.13357 0
M  V30 34774 H 4964.46 -1.20599 8.97534 0
M  V30 34775 P 4962.59 1.17771 8.83182 0
M  V30 34776 O 4962.37 2.07206 9.98732 0
M  V30 34777 O 4961.8 -0.0743816 8.81969 0
M  V30 34778 O 4962.34 1.97652 7.47304 0
M  V30 34779 C 4963.28 3.01133 7.08783 0
M  V30 34780 C 4962.55 4.12613 6.37049 0
M  V30 34781 O 4962.34 3.72827 4.97879 0
M  V30 34782 C 4961.15 4.45085 6.88694 0
M  V30 34783 O 4960.76 5.7877 6.5624 0
M  V30 34784 C 4960.27 3.47817 6.12078 0
M  V30 34785 C 4960.98 3.39414 4.77697 0
M  V30 34786 N 4960.93 2.04199 4.15538 0
M  V30 34787 H 4963.77 3.41248 7.98759 0
M  V30 34788 H 4964.04 2.57728 6.42 0
M  V30 34789 H 4963.17 5.02657 6.42673 0
M  V30 34790 H 4960.52 4.11708 4.08956 0
M  V30 34791 H 4960.24 2.49626 6.61679 0
M  V30 34792 H 4959.25 3.8662 6.00862 0
M  V30 34793 H 4961.08 4.29991 7.97006 0
M  V30 34794 P 4959.21 6.144 6.45285 0
M  V30 34795 O 4958.99 7.54673 6.86199 0
M  V30 34796 O 4958.42 5.12391 7.179 0
M  V30 34797 O 4958.96 5.99158 4.88404 0
M  V30 34798 C 4959.9 6.60234 3.96415 0
M  V30 34799 C 4959.17 7.08259 2.72856 0
M  V30 34800 O 4958.96 5.9427 1.83651 0
M  V30 34801 C 4957.77 7.64886 2.9555 0
M  V30 34802 O 4957.38 8.53963 1.90717 0
M  V30 34803 C 4956.89 6.4116 2.90739 0
M  V30 34804 C 4957.6 5.55375 1.86963 0
M  V30 34805 N 4957.55 4.09448 2.16152 0
M  V30 34806 H 4960.39 7.45574 4.45629 0
M  V30 34807 H 4960.66 5.85864 3.679 0
M  V30 34808 H 4959.79 7.84412 2.24479 0
M  V30 34809 H 4957.14 5.73457 0.888562 0
M  V30 34810 H 4956.86 5.90877 3.88583 0
M  V30 34811 H 4955.87 6.6596 2.58858 0
M  V30 34812 H 4957.7 8.16339 3.92049 0
M  V30 34813 P 4955.83 8.7635 1.60911 0
M  V30 34814 O 4955.61 10.1388 1.11561 0
M  V30 34815 O 4955.04 8.36503 2.79617 0
M  V30 34816 O 4955.58 7.71806 0.42951 0
M  V30 34817 C 4956.52 7.66948 -0.673514 0
M  V30 34818 C 4955.79 7.33374 -1.95559 0
M  V30 34819 O 4955.58 5.88721 -2.00726 0
M  V30 34820 C 4954.39 7.92218 -2.1125 0
M  V30 34821 O 4954 8.02971 -3.47653 0
M  V30 34822 C 4953.51 6.89504 -1.41631 0
M  V30 34823 C 4954.22 5.59106 -1.75155 0
M  V30 34824 N 4954.17 4.58136 -0.662409 0
M  V30 34825 C 4954.02 3.26059 -1.02863 0
M  V30 34826 O 4953.93 2.90743 -2.19009 0
M  V30 34827 N 4953.98 2.35995 0.0155585 0
M  V30 34828 C 4954.07 2.65248 1.35603 0
M  V30 34829 C 4954.22 4.05747 1.64698 0
M  V30 34830 C 4954.27 4.96734 0.652411 0
M  V30 34831 H 4957.01 8.64917 -0.776982 0
M  V30 34832 H 4957.28 6.89974 -0.474015 0
M  V30 34833 H 4956.41 7.66548 -2.79458 0
M  V30 34834 H 4953.76 5.16076 -2.65138 0
M  V30 34835 H 4953.48 7.06433 -0.329384 0
M  V30 34836 H 4952.49 6.90829 -1.81996 0
M  V30 34837 H 4954.32 8.90774 -1.62639 0
M  V30 34838 H 4954.39 6.02181 0.895285 0
M  V30 34839 P 4952.45 8.03563 -3.84925 0
M  V30 34840 O 4952.23 8.85821 -5.0569 0
M  V30 34841 O 4951.66 8.41101 -2.65469 0
M  V30 34842 O 4952.2 6.49734 -4.18962 0
M  V30 34843 C 4953.14 5.81037 -5.05421 0
M  V30 34844 C 4952.41 4.79018 -5.88876 0
M  V30 34845 O 4952.2 3.58359 -5.08515 0
M  V30 34846 C 4951.01 5.17448 -6.36119 0
M  V30 34847 O 4950.62 4.45322 -7.53318 0
M  V30 34848 C 4950.13 4.74639 -5.19936 0
M  V30 34849 C 4950.84 3.49432 -4.70418 0
M  V30 34850 N 4950.79 3.31776 -3.22945 0
M  V30 34851 C 4950.64 2.02742 -2.72939 0
M  V30 34852 O 4950.55 1.08301 -3.52749 0
M  V30 34853 N 4950.59 1.96117 -1.22063 0
M  V30 34854 C 4950.69 2.8878 -0.551566 0
M  V30 34855 N 4950.64 2.65609 0.750198 0
M  V30 34856 C 4950.84 4.22457 -1.03707 0
M  V30 34857 C 4950.89 4.37979 -2.39113 0
M  V30 34858 H 4953.63 6.54138 -5.7131 0
M  V30 34859 H 4953.9 5.30492 -4.44033 0
M  V30 34860 H 4953.03 4.55945 -6.76735 0
M  V30 34861 H 4950.38 2.6176 -5.18021 0
M  V30 34862 H 4950.1 5.52233 -4.41941 0
M  V30 34863 H 4949.11 4.52045 -5.53452 0
M  V30 34864 H 4950.94 6.25124 -6.55234 0
M  V30 34865 H 4951.01 5.37936 -2.80552 0
M  V30 34866 H 4950.91 5.07528 -0.359553 0
M  V30 34867 H 4950.52 1.69403 1.09847 0
M  V30 34868 H 4950.72 3.43701 1.41792 0
M  V30 34869 P 4949.07 4.23843 -7.83734 0
M  V30 34870 O 4948.85 4.19407 -9.29784 0
M  V30 34871 O 4948.28 5.24426 -7.09156 0
M  V30 34872 O 4948.82 2.7935 -7.20758 0
M  V30 34873 C 4949.76 1.7299 -7.50419 0
M  V30 34874 C 4949.03 0.406376 -7.57911 0
M  V30 34875 O 4948.82 -0.0897726 -6.21935 0
M  V30 34876 C 4947.63 0.447224 -8.1878 0
M  V30 34877 O 4947.24 -0.825065 -8.71101 0
M  V30 34878 C 4946.75 0.783801 -6.99623 0
M  V30 34879 C 4947.46 0.0619192 -5.85967 0
M  V30 34880 N 4947.41 0.7859 -4.56281 0
M  V30 34881 H 4950.25 1.93423 -8.4679 0
M  V30 34882 H 4950.52 1.68181 -6.71046 0
M  V30 34883 H 4949.65 -0.289041 -8.15388 0
M  V30 34884 P 4945.69 -1.17771 -8.83182 0
M  V30 34885 O 4945.47 -2.07206 -9.98732 0
M  V30 34886 O 4944.9 0.0743816 -8.81969 0
M  V30 34887 O 4945.44 -1.97652 -7.47304 0
M  V30 34888 C 4946.38 -3.01133 -7.08783 0
M  V30 34889 C 4945.65 -4.12613 -6.37049 0
M  V30 34890 O 4945.44 -3.72827 -4.97879 0
M  V30 34891 C 4944.25 -4.45085 -6.88694 0
M  V30 34892 O 4943.86 -5.7877 -6.5624 0
M  V30 34893 C 4943.37 -3.47817 -6.12078 0
M  V30 34894 C 4944.08 -3.39414 -4.77697 0
M  V30 34895 N 4944.03 -2.04199 -4.15538 0
M  V30 34896 H 4946.87 -3.41248 -7.98759 0
M  V30 34897 H 4947.14 -2.57728 -6.42 0
M  V30 34898 H 4946.27 -5.02657 -6.42673 0
M  V30 34899 H 4943.62 -4.11708 -4.08956 0
M  V30 34900 H 4943.34 -2.49626 -6.61679 0
M  V30 34901 H 4942.35 -3.8662 -6.00862 0
M  V30 34902 H 4944.18 -4.29991 -7.97006 0
M  V30 34903 P 4942.31 -6.144 -6.45285 0
M  V30 34904 O 4942.09 -7.54673 -6.86199 0
M  V30 34905 O 4941.52 -5.12391 -7.179 0
M  V30 34906 O 4942.06 -5.99158 -4.88404 0
M  V30 34907 C 4943 -6.60062 -3.96313 0
M  V30 34908 C 4942.27 -7.08259 -2.72856 0
M  V30 34909 O 4942.06 -5.9427 -1.83651 0
M  V30 34910 C 4940.87 -7.65087 -2.94749 0
M  V30 34911 O 4940.48 -8.53963 -1.90717 0
M  V30 34912 C 4939.99 -6.41069 -2.90698 0
M  V30 34913 C 4940.7 -5.5528 -1.86931 0
M  V30 34914 N 4940.65 -4.09575 -2.15696 0
M  V30 34915 C 4940.5 -3.24249 -1.08435 0
M  V30 34916 O 4940.41 -3.63946 0.0628747 0
M  V30 34917 N 4940.46 -1.90009 -1.39973 0
M  V30 34918 C 4940.55 -1.34884 -2.65614 0
M  V30 34919 C 4940.7 -2.3145 -3.71736 0
M  V30 34920 C 4940.75 -3.63518 -3.44754 0
M  V30 34921 H 4943.49 -7.45402 -4.45526 0
M  V30 34922 H 4943.76 -5.86062 -3.67208 0
M  V30 34923 H 4942.89 -7.84412 -2.24479 0
M  V30 34924 H 4940.24 -5.73358 -0.888409 0
M  V30 34925 H 4939.96 -5.90877 -3.88583 0
M  V30 34926 H 4938.97 -6.65867 -2.58821 0
M  V30 34927 H 4940.8 -8.16248 -3.92006 0
M  V30 34928 H 4940.87 -4.34551 -4.26383 0
M  V30 34929 P 4938.93 -8.7635 -1.60911 0
M  V30 34930 O 4938.71 -10.1388 -1.11561 0
M  V30 34931 O 4938.14 -8.36503 -2.79617 0
M  V30 34932 O 4938.68 -7.71806 -0.42951 0
M  V30 34933 C 4939.62 -7.67148 0.673689 0
M  V30 34934 C 4938.89 -7.33374 1.95559 0
M  V30 34935 O 4938.68 -5.88721 2.00726 0
M  V30 34936 C 4937.49 -7.92526 2.10483 0
M  V30 34937 O 4937.1 -8.02971 3.47653 0
M  V30 34938 C 4936.61 -6.89602 1.41652 0
M  V30 34939 C 4937.32 -5.59201 1.75185 0
M  V30 34940 N 4937.27 -4.58301 0.657969 0
M  V30 34941 H 4940.11 -8.65116 0.777161 0
M  V30 34942 H 4940.38 -6.9022 0.46725 0
M  V30 34943 H 4939.51 -7.66548 2.79458 0
M  V30 34944 H 4936.86 -5.16165 2.65183 0
M  V30 34945 H 4936.58 -7.06433 0.329384 0
M  V30 34946 H 4935.59 -6.90926 1.82021 0
M  V30 34947 H 4937.42 -8.90873 1.62657 0
M  V30 34948 P 4935.55 -8.03563 3.84925 0
M  V30 34949 O 4935.33 -8.85821 5.0569 0
M  V30 34950 O 4934.76 -8.41101 2.65469 0
M  V30 34951 O 4935.3 -6.4965 4.18908 0
M  V30 34952 C 4936.24 -5.81037 5.05421 0
M  V30 34953 C 4935.51 -4.78366 5.89277 0
M  V30 34954 O 4935.3 -3.58302 5.08433 0
M  V30 34955 C 4934.11 -5.17448 6.36119 0
M  V30 34956 O 4933.72 -4.45271 7.53232 0
M  V30 34957 C 4933.23 -4.74639 5.19936 0
M  V30 34958 C 4933.94 -3.49432 4.70418 0
M  V30 34959 N 4933.89 -3.31776 3.22945 0
M  V30 34960 H 4936.73 -6.54213 5.71376 0
M  V30 34961 H 4937 -5.30492 4.44033 0
M  V30 34962 H 4936.13 -4.55889 6.76652 0
M  V30 34963 P 4932.17 -4.23843 7.83734 0
M  V30 34964 O 4931.95 -4.19407 9.29784 0
M  V30 34965 O 4931.38 -5.24426 7.09156 0
M  V30 34966 O 4931.92 -2.7935 7.20758 0
M  V30 34967 C 4932.86 -1.7299 7.50419 0
M  V30 34968 C 4932.13 -0.406376 7.57911 0
M  V30 34969 O 4931.92 0.0897726 6.21935 0
M  V30 34970 C 4930.73 -0.447224 8.1878 0
M  V30 34971 O 4930.34 0.825065 8.71101 0
M  V30 34972 C 4929.85 -0.783801 6.99623 0
M  V30 34973 C 4930.56 -0.0619192 5.85967 0
M  V30 34974 N 4930.51 -0.7859 4.56281 0
M  V30 34975 H 4933.35 -1.93423 8.4679 0
M  V30 34976 H 4933.62 -1.68181 6.71046 0
M  V30 34977 H 4932.75 0.289041 8.15388 0
M  V30 34978 P 4928.79 1.17771 8.83182 0
M  V30 34979 O 4928.57 2.07206 9.98732 0
M  V30 34980 O 4928 -0.0743816 8.81969 0
M  V30 34981 O 4928.54 1.97652 7.47304 0
M  V30 34982 C 4929.48 3.01133 7.08783 0
M  V30 34983 C 4928.75 4.12613 6.37049 0
M  V30 34984 O 4928.54 3.72827 4.97879 0
M  V30 34985 C 4927.35 4.45085 6.88694 0
M  V30 34986 O 4926.96 5.7877 6.5624 0
M  V30 34987 C 4926.47 3.47817 6.12078 0
M  V30 34988 C 4927.18 3.39414 4.77697 0
M  V30 34989 N 4927.13 2.04199 4.15538 0
M  V30 34990 C 4927.21 0.821545 4.76977 0
M  V30 34991 N 4927.14 -0.1794 3.94592 0
M  V30 34992 C 4926.99 0.419121 2.70776 0
M  V30 34993 C 4926.86 -0.109072 1.40577 0
M  V30 34994 N 4926.85 -1.4104 1.1344 0
M  V30 34995 N 4926.74 0.764381 0.39411 0
M  V30 34996 C 4926.75 2.06587 0.664135 0
M  V30 34997 N 4926.87 2.67948 1.82153 0
M  V30 34998 C 4926.99 1.77942 2.8147 0
M  V30 34999 H 4929.97 3.41248 7.98759 0
M  V30 35000 H 4930.24 2.57728 6.42 0
M  V30 35001 H 4929.37 5.02657 6.42673 0
M  V30 35002 H 4926.72 4.11708 4.08956 0
M  V30 35003 H 4926.44 2.49626 6.61679 0
M  V30 35004 H 4925.45 3.8662 6.00862 0
M  V30 35005 H 4927.28 4.29991 7.97006 0
M  V30 35006 H 4927.32 0.702451 5.84696 0
M  V30 35007 H 4926.94 -2.09647 1.89651 0
M  V30 35008 H 4926.75 -1.73358 0.160575 0
M  V30 35009 H 4926.64 2.71695 -0.195838 0
M  V30 35010 P 4925.41 6.144 6.45285 0
M  V30 35011 O 4925.19 7.54673 6.86199 0
M  V30 35012 O 4924.62 5.12391 7.179 0
M  V30 35013 O 4925.16 5.99158 4.88404 0
M  V30 35014 C 4926.1 6.60234 3.96415 0
M  V30 35015 C 4925.37 7.08259 2.72856 0
M  V30 35016 O 4925.16 5.9427 1.83651 0
M  V30 35017 C 4923.97 7.64886 2.9555 0
M  V30 35018 O 4923.58 8.53963 1.90717 0
M  V30 35019 C 4923.09 6.4116 2.90739 0
M  V30 35020 C 4923.8 5.55375 1.86963 0
M  V30 35021 N 4923.75 4.09664 2.15742 0
M  V30 35022 C 4923.83 3.44381 3.37233 0
M  V30 35023 N 4923.75 2.14131 3.28347 0
M  V30 35024 C 4923.61 1.90247 1.91588 0
M  V30 35025 C 4923.48 0.683992 1.20892 0
M  V30 35026 N 4923.36 0.903396 -0.173998 0
M  V30 35027 C 4923.36 2.14171 -0.784879 0
M  V30 35028 N 4923.23 2.1435 -2.11317 0
M  V30 35029 N 4923.49 3.28784 -0.119316 0
M  V30 35030 C 4923.61 3.0977 1.22194 0
M  V30 35031 H 4926.59 7.45574 4.45629 0
M  V30 35032 H 4926.86 5.86232 3.67314 0
M  V30 35033 H 4925.99 7.84412 2.24479 0
M  V30 35034 P 4922.03 8.7635 1.60911 0
M  V30 35035 O 4921.81 10.1388 1.11561 0
M  V30 35036 O 4921.24 8.36503 2.79617 0
M  V30 35037 O 4921.78 7.71806 0.42951 0
M  V30 35038 C 4922.72 7.66948 -0.673514 0
M  V30 35039 C 4921.99 7.33374 -1.95559 0
M  V30 35040 O 4921.78 5.88721 -2.00726 0
M  V30 35041 C 4920.59 7.92218 -2.1125 0
M  V30 35042 O 4920.2 8.02971 -3.47653 0
M  V30 35043 C 4919.71 6.89504 -1.41631 0
M  V30 35044 C 4920.42 5.59106 -1.75155 0
M  V30 35045 N 4920.37 4.58136 -0.662409 0
M  V30 35046 C 4920.22 3.26059 -1.02863 0
M  V30 35047 O 4920.13 2.90743 -2.19009 0
M  V30 35048 N 4920.18 2.35995 0.0155585 0
M  V30 35049 C 4920.27 2.65248 1.35603 0
M  V30 35050 C 4920.42 4.05747 1.64698 0
M  V30 35051 C 4920.47 4.96734 0.652411 0
M  V30 35052 H 4923.21 8.64917 -0.776982 0
M  V30 35053 H 4923.48 6.89974 -0.474015 0
M  V30 35054 H 4922.61 7.66548 -2.79458 0
M  V30 35055 H 4919.96 5.16076 -2.65138 0
M  V30 35056 H 4919.68 7.06433 -0.329384 0
M  V30 35057 H 4918.69 6.90829 -1.81996 0
M  V30 35058 H 4920.52 8.90774 -1.62639 0
M  V30 35059 H 4920.59 6.02181 0.895285 0
M  V30 35060 P 4918.65 8.03563 -3.84925 0
M  V30 35061 O 4918.43 8.85821 -5.0569 0
M  V30 35062 O 4917.86 8.41101 -2.65469 0
M  V30 35063 O 4918.4 6.4965 -4.18908 0
M  V30 35064 C 4919.34 5.81037 -5.05421 0
M  V30 35065 C 4918.61 4.78366 -5.89277 0
M  V30 35066 O 4918.4 3.58302 -5.08433 0
M  V30 35067 C 4917.21 5.17448 -6.36119 0
M  V30 35068 O 4916.82 4.45271 -7.53232 0
M  V30 35069 C 4916.33 4.74639 -5.19936 0
M  V30 35070 C 4917.04 3.49432 -4.70418 0
M  V30 35071 N 4916.99 3.31776 -3.22945 0
M  V30 35072 H 4919.83 6.54213 -5.71376 0
M  V30 35073 H 4920.1 5.30492 -4.44033 0
M  V30 35074 H 4919.23 4.55889 -6.76652 0
M  V30 35075 P 4915.27 4.23843 -7.83734 0
M  V30 35076 O 4915.05 4.19407 -9.29784 0
M  V30 35077 O 4914.48 5.24426 -7.09156 0
M  V30 35078 O 4915.02 2.7935 -7.20758 0
M  V30 35079 C 4915.96 1.7299 -7.50419 0
M  V30 35080 C 4915.23 0.406376 -7.57911 0
M  V30 35081 O 4915.02 -0.0897726 -6.21935 0
M  V30 35082 C 4913.83 0.447224 -8.1878 0
M  V30 35083 O 4913.44 -0.825065 -8.71101 0
M  V30 35084 C 4912.95 0.783801 -6.99623 0
M  V30 35085 C 4913.66 0.0619192 -5.85967 0
M  V30 35086 N 4913.61 0.790462 -4.56202 0
M  V30 35087 H 4916.45 1.93423 -8.4679 0
M  V30 35088 H 4916.72 1.68852 -6.70877 0
M  V30 35089 H 4915.85 -0.289041 -8.15388 0
M  V30 35090 H 4913.2 -0.927006 -5.72848 0
M  V30 35091 H 4912.92 1.86973 -6.82036 0
M  V30 35092 H 4911.93 0.403953 -7.13357 0
M  V30 35093 H 4913.76 1.20599 -8.97534 0
M  V30 35094 P 4911.89 -1.17771 -8.83182 0
M  V30 35095 O 4911.67 -2.07206 -9.98732 0
M  V30 35096 O 4911.1 0.0743816 -8.81969 0
M  V30 35097 O 4911.64 -1.97652 -7.47304 0
M  V30 35098 C 4912.58 -3.01055 -7.08599 0
M  V30 35099 C 4911.85 -4.12613 -6.37049 0
M  V30 35100 O 4911.64 -3.72827 -4.97879 0
M  V30 35101 C 4910.45 -4.45719 -6.88164 0
M  V30 35102 O 4910.06 -5.7877 -6.5624 0
M  V30 35103 C 4909.57 -3.47768 -6.11991 0
M  V30 35104 C 4910.28 -3.39356 -4.77615 0
M  V30 35105 N 4910.23 -2.04571 -4.15244 0
M  V30 35106 C 4910.08 -1.98587 -2.78314 0
M  V30 35107 O 4909.99 -2.98134 -2.08835 0
M  V30 35108 N 4910.04 -0.714467 -2.24925 0
M  V30 35109 C 4910.13 0.470001 -2.94169 0
M  V30 35110 C 4910.28 0.312541 -4.36783 0
M  V30 35111 C 4910.33 -0.914512 -4.92583 0
M  V30 35112 H 4913.07 -3.41169 -7.98575 0
M  V30 35113 H 4913.34 -2.58295 -6.41556 0
M  V30 35114 H 4912.47 -5.02657 -6.42673 0
M  V30 35115 H 4909.82 -4.11637 -4.08885 0
M  V30 35116 H 4909.54 -2.49626 -6.61679 0
M  V30 35117 H 4908.55 -3.86566 -6.00778 0
M  V30 35118 H 4910.38 -4.29943 -7.96918 0
M  V30 35119 H 4910.45 -1.00937 -6.00374 0
M  V30 35120 P 4908.51 -6.144 -6.45285 0
M  V30 35121 O 4908.29 -7.54673 -6.86199 0
M  V30 35122 O 4907.72 -5.12391 -7.179 0
M  V30 35123 O 4908.26 -5.99158 -4.88404 0
M  V30 35124 C 4909.2 -6.60062 -3.96313 0
M  V30 35125 C 4908.47 -7.08259 -2.72856 0
M  V30 35126 O 4908.26 -5.9427 -1.83651 0
M  V30 35127 C 4907.07 -7.65087 -2.94749 0
M  V30 35128 O 4906.68 -8.53963 -1.90717 0
M  V30 35129 C 4906.19 -6.41069 -2.90698 0
M  V30 35130 C 4906.9 -5.5528 -1.86931 0
M  V30 35131 N 4906.85 -4.09575 -2.15696 0
M  V30 35132 C 4906.7 -3.24249 -1.08435 0
M  V30 35133 O 4906.61 -3.63946 0.0628747 0
M  V30 35134 N 4906.66 -1.90009 -1.39973 0
M  V30 35135 C 4906.75 -1.34884 -2.65614 0
M  V30 35136 O 4906.7 -0.123716 -2.81728 0
M  V30 35137 C 4906.9 -2.3145 -3.71736 0
M  V30 35138 C 4907.01 -1.75913 -5.10438 0
M  V30 35139 C 4906.95 -3.63518 -3.44754 0
M  V30 35140 H 4909.69 -7.45402 -4.45526 0
M  V30 35141 H 4909.96 -5.86062 -3.67208 0
M  V30 35142 H 4909.09 -7.84412 -2.24479 0
M  V30 35143 H 4906.44 -5.73358 -0.888409 0
M  V30 35144 H 4906.16 -5.90877 -3.88583 0
M  V30 35145 H 4905.17 -6.65867 -2.58821 0
M  V30 35146 H 4907 -8.16248 -3.92006 0
M  V30 35147 H 4907.07 -4.34551 -4.26383 0
M  V30 35148 H 4906.04 -1.85471 -5.61775 0
M  V30 35149 H 4907.78 -2.31364 -5.66257 0
M  V30 35150 H 4907.29 -0.695936 -5.05229 0
M  V30 35151 H 4906.56 -1.26277 -0.63625 0
M  V30 35152 P 4905.13 -8.7635 -1.60911 0
M  V30 35153 O 4904.91 -10.1388 -1.11561 0
M  V30 35154 O 4904.34 -8.36503 -2.79617 0
M  V30 35155 O 4904.88 -7.71806 -0.42951 0
M  V30 35156 C 4905.82 -7.67148 0.673689 0
M  V30 35157 C 4905.09 -7.33374 1.95559 0
M  V30 35158 O 4904.88 -5.88721 2.00726 0
M  V30 35159 C 4903.69 -7.92526 2.10483 0
M  V30 35160 O 4903.3 -8.02971 3.47653 0
M  V30 35161 C 4902.81 -6.89602 1.41652 0
M  V30 35162 C 4903.52 -5.59201 1.75185 0
M  V30 35163 N 4903.47 -4.58235 0.662552 0
M  V30 35164 H 4906.31 -8.65116 0.777161 0
M  V30 35165 H 4906.58 -6.90173 0.474152 0
M  V30 35166 H 4905.71 -7.66548 2.79458 0
M  V30 35167 P 4901.75 -8.03563 3.84925 0
M  V30 35168 O 4901.53 -8.85821 5.0569 0
M  V30 35169 O 4900.96 -8.41101 2.65469 0
M  V30 35170 O 4901.5 -6.4965 4.18908 0
M  V30 35171 C 4902.44 -5.81037 5.05421 0
M  V30 35172 C 4901.71 -4.78366 5.89277 0
M  V30 35173 O 4901.5 -3.58302 5.08433 0
M  V30 35174 C 4900.31 -5.17448 6.36119 0
M  V30 35175 O 4899.92 -4.45271 7.53232 0
M  V30 35176 C 4899.43 -4.74639 5.19936 0
M  V30 35177 C 4900.14 -3.49432 4.70418 0
M  V30 35178 N 4900.09 -3.32099 3.22613 0
M  V30 35179 C 4900.17 -4.28245 2.25527 0
M  V30 35180 N 4900.1 -3.80823 1.04874 0
M  V30 35181 C 4899.95 -2.44571 1.23535 0
M  V30 35182 C 4899.82 -1.37068 0.330675 0
M  V30 35183 N 4899.81 -1.51472 -0.990824 0
M  V30 35184 N 4899.7 -0.138614 0.848756 0
M  V30 35185 C 4899.71 0.00675923 2.16999 0
M  V30 35186 N 4899.83 -0.904372 3.11122 0
M  V30 35187 C 4899.95 -2.12707 2.56212 0
M  V30 35188 H 4902.93 -6.54213 5.71376 0
M  V30 35189 H 4903.2 -5.30936 4.43503 0
M  V30 35190 H 4902.33 -4.55889 6.76652 0
M  V30 35191 H 4899.68 -2.61715 5.17932 0
M  V30 35192 H 4899.4 -5.52155 4.41878 0
M  V30 35193 H 4898.41 -4.51981 5.53374 0
M  V30 35194 H 4900.24 -6.25124 6.55234 0
M  V30 35195 H 4900.28 -5.34372 2.47488 0
M  V30 35196 H 4899.9 -2.45153 -1.4078 0
M  V30 35197 H 4899.71 -0.688422 -1.59911 0
M  V30 35198 H 4899.61 1.02584 2.52346 0
M  V30 35199 P 4898.37 -4.23843 7.83734 0
M  V30 35200 O 4898.15 -4.19407 9.29784 0
M  V30 35201 O 4897.58 -5.24426 7.09156 0
M  V30 35202 O 4898.12 -2.79386 7.20852 0
M  V30 35203 C 4899.06 -1.7299 7.50419 0
M  V30 35204 C 4898.33 -0.41401 7.5797 0
M  V30 35205 O 4898.12 0.089787 6.22035 0
M  V30 35206 C 4896.93 -0.447224 8.1878 0
M  V30 35207 O 4896.54 0.825159 8.71201 0
M  V30 35208 C 4896.05 -0.783801 6.99623 0
M  V30 35209 C 4896.76 -0.0619192 5.85967 0
M  V30 35210 N 4896.71 -0.7859 4.56281 0
M  V30 35211 C 4896.56 -0.0359258 3.39981 0
M  V30 35212 O 4896.47 1.19723 3.49038 0
M  V30 35213 N 4896.51 -0.869151 2.14025 0
M  V30 35214 C 4896.61 -2.01207 2.14363 0
M  V30 35215 N 4896.56 -2.58978 0.954287 0
M  V30 35216 C 4896.76 -2.80817 3.32215 0
M  V30 35217 C 4896.81 -2.13785 4.50884 0
M  V30 35218 H 4899.55 -1.93401 8.46693 0
M  V30 35219 H 4899.82 -1.68181 6.71046 0
M  V30 35220 H 4898.95 0.289076 8.15488 0
M  V30 35221 H 4896.3 0.927166 5.72947 0
M  V30 35222 H 4896.02 -1.87 6.82132 0
M  V30 35223 H 4895.03 -0.404009 7.13457 0
M  V30 35224 H 4896.86 -1.20599 8.97534 0
M  V30 35225 H 4896.93 -2.70295 5.43162 0
M  V30 35226 H 4896.83 -3.89465 3.27406 0
M  V30 35227 H 4896.44 -2.01616 0.107046 0
M  V30 35228 H 4896.64 -3.61403 0.873101 0
M  V30 35229 P 4894.99 1.17771 8.83182 0
M  V30 35230 O 4894.77 2.07206 9.98732 0
M  V30 35231 O 4894.2 -0.0743816 8.81969 0
M  V30 35232 O 4894.74 1.97652 7.47304 0
M  V30 35233 C 4895.68 3.01133 7.08783 0
M  V30 35234 C 4894.95 4.12613 6.37049 0
M  V30 35235 O 4894.74 3.72827 4.97879 0
M  V30 35236 C 4893.55 4.45085 6.88694 0
M  V30 35237 O 4893.16 5.7877 6.5624 0
M  V30 35238 C 4892.67 3.47817 6.12078 0
M  V30 35239 C 4893.38 3.39414 4.77697 0
M  V30 35240 N 4893.33 2.04199 4.15538 0
M  V30 35241 H 4896.17 3.41248 7.98759 0
M  V30 35242 H 4896.44 2.57728 6.42 0
M  V30 35243 H 4895.57 5.02657 6.42673 0
M  V30 35244 H 4892.92 4.11708 4.08956 0
M  V30 35245 H 4892.64 2.49626 6.61679 0
M  V30 35246 H 4891.65 3.8662 6.00862 0
M  V30 35247 H 4893.48 4.29991 7.97006 0
M  V30 35248 P 4891.61 6.144 6.45285 0
M  V30 35249 O 4891.39 7.54673 6.86199 0
M  V30 35250 O 4890.82 5.12391 7.179 0
M  V30 35251 O 4891.36 5.99158 4.88404 0
M  V30 35252 C 4892.3 6.60234 3.96415 0
M  V30 35253 C 4891.57 7.08259 2.72856 0
M  V30 35254 O 4891.36 5.9427 1.83651 0
M  V30 35255 C 4890.17 7.64886 2.9555 0
M  V30 35256 O 4889.78 8.53963 1.90717 0
M  V30 35257 C 4889.29 6.4116 2.90739 0
M  V30 35258 C 4890 5.55375 1.86963 0
M  V30 35259 N 4889.95 4.09448 2.16152 0
M  V30 35260 H 4892.79 7.45574 4.45629 0
M  V30 35261 H 4893.06 5.85864 3.679 0
M  V30 35262 H 4892.19 7.84412 2.24479 0
M  V30 35263 H 4889.54 5.73457 0.888562 0
M  V30 35264 H 4889.26 5.90877 3.88583 0
M  V30 35265 H 4888.27 6.6596 2.58858 0
M  V30 35266 H 4890.1 8.16339 3.92049 0
M  V30 35267 P 4888.23 8.7635 1.60911 0
M  V30 35268 O 4888.01 10.1388 1.11561 0
M  V30 35269 O 4887.44 8.36503 2.79617 0
M  V30 35270 O 4887.98 7.71806 0.42951 0
M  V30 35271 C 4888.92 7.67148 -0.673689 0
M  V30 35272 C 4888.19 7.33374 -1.95559 0
M  V30 35273 O 4887.98 5.88721 -2.00726 0
M  V30 35274 C 4886.79 7.92526 -2.10483 0
M  V30 35275 O 4886.4 8.02971 -3.47653 0
M  V30 35276 C 4885.91 6.89602 -1.41652 0
M  V30 35277 C 4886.62 5.59201 -1.75185 0
M  V30 35278 N 4886.57 4.58235 -0.662552 0
M  V30 35279 H 4889.41 8.65116 -0.777161 0
M  V30 35280 H 4889.68 6.90173 -0.474152 0
M  V30 35281 H 4888.81 7.66548 -2.79458 0
M  V30 35282 P 4884.85 8.03563 -3.84925 0
M  V30 35283 O 4884.63 8.85821 -5.0569 0
M  V30 35284 O 4884.06 8.41101 -2.65469 0
M  V30 35285 O 4884.6 6.4965 -4.18908 0
M  V30 35286 C 4885.54 5.80886 -5.05289 0
M  V30 35287 C 4884.81 4.78366 -5.89277 0
M  V30 35288 O 4884.6 3.58302 -5.08433 0
M  V30 35289 C 4883.41 5.16748 -6.36559 0
M  V30 35290 O 4883.02 4.45271 -7.53232 0
M  V30 35291 C 4882.53 4.74572 -5.19863 0
M  V30 35292 C 4883.24 3.49373 -4.70338 0
M  V30 35293 N 4883.19 3.31704 -3.22876 0
M  V30 35294 C 4883.04 2.03326 -2.74871 0
M  V30 35295 O 4882.95 1.06486 -3.48076 0
M  V30 35296 N 4883 1.91838 -1.37456 0
M  V30 35297 C 4883.09 2.94295 -0.462035 0
M  V30 35298 C 4883.24 4.25064 -1.05249 0
M  V30 35299 C 4883.29 4.40214 -2.39192 0
M  V30 35300 H 4886.03 6.54063 -5.71245 0
M  V30 35301 H 4886.3 5.30339 -4.43905 0
M  V30 35302 H 4885.43 4.55889 -6.76652 0
M  V30 35303 H 4882.78 2.6167 -5.17842 0
M  V30 35304 H 4882.5 5.52155 -4.41878 0
M  V30 35305 H 4881.51 4.51918 -5.53297 0
M  V30 35306 H 4883.34 6.25055 -6.55162 0
M  V30 35307 H 4883.41 5.39798 -2.81523 0
M  V30 35308 P 4881.47 4.23843 -7.83734 0
M  V30 35309 O 4881.25 4.19407 -9.29784 0
M  V30 35310 O 4880.68 5.24426 -7.09156 0
M  V30 35311 O 4881.22 2.7935 -7.20758 0
M  V30 35312 C 4882.16 1.7299 -7.50419 0
M  V30 35313 C 4881.43 0.406376 -7.57911 0
M  V30 35314 O 4881.22 -0.0897726 -6.21935 0
M  V30 35315 C 4880.03 0.447224 -8.1878 0
M  V30 35316 O 4879.64 -0.825065 -8.71101 0
M  V30 35317 C 4879.15 0.783801 -6.99623 0
M  V30 35318 C 4879.86 0.0619192 -5.85967 0
M  V30 35319 N 4879.81 0.7859 -4.56281 0
M  V30 35320 H 4882.65 1.93423 -8.4679 0
M  V30 35321 H 4882.92 1.68181 -6.71046 0
M  V30 35322 H 4882.05 -0.289041 -8.15388 0
M  V30 35323 P 4878.09 -1.17771 -8.83182 0
M  V30 35324 O 4877.87 -2.07206 -9.98732 0
M  V30 35325 O 4877.3 0.0743816 -8.81969 0
M  V30 35326 O 4877.84 -1.97652 -7.47304 0
M  V30 35327 C 4878.78 -3.01133 -7.08783 0
M  V30 35328 C 4878.05 -4.12613 -6.37049 0
M  V30 35329 O 4877.84 -3.72827 -4.97879 0
M  V30 35330 C 4876.65 -4.45085 -6.88694 0
M  V30 35331 O 4876.26 -5.7877 -6.5624 0
M  V30 35332 C 4875.77 -3.47817 -6.12078 0
M  V30 35333 C 4876.48 -3.39414 -4.77697 0
M  V30 35334 N 4876.43 -2.04615 -4.15333 0
M  V30 35335 H 4879.27 -3.41248 -7.98759 0
M  V30 35336 H 4879.54 -2.5837 -6.41742 0
M  V30 35337 H 4878.67 -5.02657 -6.42673 0
M  V30 35338 P 4874.71 -6.144 -6.45285 0
M  V30 35339 O 4874.49 -7.54673 -6.86199 0
M  V30 35340 O 4873.92 -5.12391 -7.179 0
M  V30 35341 O 4874.46 -5.99158 -4.88404 0
M  V30 35342 C 4875.4 -6.60234 -3.96415 0
M  V30 35343 C 4874.67 -7.08259 -2.72856 0
M  V30 35344 O 4874.46 -5.9427 -1.83651 0
M  V30 35345 C 4873.27 -7.64886 -2.9555 0
M  V30 35346 O 4872.88 -8.53963 -1.90717 0
M  V30 35347 C 4872.39 -6.4116 -2.90739 0
M  V30 35348 C 4873.1 -5.55375 -1.86963 0
M  V30 35349 N 4873.05 -4.09664 -2.15742 0
M  V30 35350 H 4875.89 -7.45574 -4.45629 0
M  V30 35351 H 4876.16 -5.86232 -3.67314 0
M  V30 35352 H 4875.29 -7.84412 -2.24479 0
M  V30 35353 P 4871.33 -8.7635 -1.60911 0
M  V30 35354 O 4871.11 -10.1388 -1.11561 0
M  V30 35355 O 4870.54 -8.36503 -2.79617 0
M  V30 35356 O 4871.08 -7.71806 -0.42951 0
M  V30 35357 C 4872.02 -7.67148 0.673689 0
M  V30 35358 C 4871.29 -7.33374 1.95559 0
M  V30 35359 O 4871.08 -5.88721 2.00726 0
M  V30 35360 C 4869.89 -7.92526 2.10483 0
M  V30 35361 O 4869.5 -8.02971 3.47653 0
M  V30 35362 C 4869.01 -6.89602 1.41652 0
M  V30 35363 C 4869.72 -5.59201 1.75185 0
M  V30 35364 N 4869.67 -4.58235 0.662552 0
M  V30 35365 H 4872.51 -8.65116 0.777161 0
M  V30 35366 H 4872.78 -6.90173 0.474152 0
M  V30 35367 H 4871.91 -7.66548 2.79458 0
M  V30 35368 P 4867.95 -8.03563 3.84925 0
M  V30 35369 O 4867.73 -8.85821 5.0569 0
M  V30 35370 O 4867.16 -8.41101 2.65469 0
M  V30 35371 O 4867.7 -6.4965 4.18908 0
M  V30 35372 C 4868.64 -5.81037 5.05421 0
M  V30 35373 C 4867.91 -4.78366 5.89277 0
M  V30 35374 O 4867.7 -3.58302 5.08433 0
M  V30 35375 C 4866.51 -5.17448 6.36119 0
M  V30 35376 O 4866.12 -4.45271 7.53232 0
M  V30 35377 C 4865.63 -4.74639 5.19936 0
M  V30 35378 C 4866.34 -3.49432 4.70418 0
M  V30 35379 N 4866.29 -3.31776 3.22945 0
M  V30 35380 H 4869.13 -6.54213 5.71376 0
M  V30 35381 H 4869.4 -5.30492 4.44033 0
M  V30 35382 H 4868.53 -4.55889 6.76652 0
M  V30 35383 P 4864.57 -4.23843 7.83734 0
M  V30 35384 O 4864.35 -4.19407 9.29784 0
M  V30 35385 O 4863.78 -5.24426 7.09156 0
M  V30 35386 O 4864.32 -2.7935 7.20758 0
M  V30 35387 C 4865.26 -1.7299 7.50419 0
M  V30 35388 C 4864.53 -0.406376 7.57911 0
M  V30 35389 O 4864.32 0.0897726 6.21935 0
M  V30 35390 C 4863.13 -0.447224 8.1878 0
M  V30 35391 O 4862.74 0.825065 8.71101 0
M  V30 35392 C 4862.25 -0.783801 6.99623 0
M  V30 35393 C 4862.96 -0.0619192 5.85967 0
M  V30 35394 N 4862.91 -0.7859 4.56281 0
M  V30 35395 H 4865.75 -1.93423 8.4679 0
M  V30 35396 H 4866.02 -1.68181 6.71046 0
M  V30 35397 H 4865.15 0.289041 8.15388 0
M  V30 35398 P 4861.19 1.17771 8.83182 0
M  V30 35399 O 4860.97 2.07206 9.98732 0
M  V30 35400 O 4860.4 -0.0743816 8.81969 0
M  V30 35401 O 4860.94 1.97652 7.47304 0
M  V30 35402 C 4861.88 3.01133 7.08783 0
M  V30 35403 C 4861.15 4.12613 6.37049 0
M  V30 35404 O 4860.94 3.72827 4.97879 0
M  V30 35405 C 4859.75 4.45085 6.88694 0
M  V30 35406 O 4859.36 5.7877 6.5624 0
M  V30 35407 C 4858.87 3.47817 6.12078 0
M  V30 35408 C 4859.58 3.39414 4.77697 0
M  V30 35409 N 4859.53 2.04199 4.15538 0
M  V30 35410 H 4862.37 3.41248 7.98759 0
M  V30 35411 H 4862.64 2.57728 6.42 0
M  V30 35412 H 4861.77 5.02657 6.42673 0
M  V30 35413 H 4859.12 4.11708 4.08956 0
M  V30 35414 H 4858.84 2.49626 6.61679 0
M  V30 35415 H 4857.85 3.8662 6.00862 0
M  V30 35416 H 4859.68 4.29991 7.97006 0
M  V30 35417 P 4857.81 6.144 6.45285 0
M  V30 35418 O 4857.59 7.54673 6.86199 0
M  V30 35419 O 4857.02 5.12391 7.179 0
M  V30 35420 O 4857.56 5.99158 4.88404 0
M  V30 35421 C 4858.5 6.60062 3.96313 0
M  V30 35422 C 4857.77 7.08259 2.72856 0
M  V30 35423 O 4857.56 5.9427 1.83651 0
M  V30 35424 C 4856.37 7.65087 2.94749 0
M  V30 35425 O 4855.98 8.53963 1.90717 0
M  V30 35426 C 4855.49 6.41069 2.90698 0
M  V30 35427 C 4856.2 5.5528 1.86931 0
M  V30 35428 N 4856.15 4.09575 2.15696 0
M  V30 35429 C 4856 3.24249 1.08435 0
M  V30 35430 O 4855.91 3.63946 -0.0628747 0
M  V30 35431 N 4855.96 1.90009 1.39973 0
M  V30 35432 C 4856.05 1.34884 2.65614 0
M  V30 35433 C 4856.2 2.3145 3.71736 0
M  V30 35434 C 4856.25 3.63518 3.44754 0
M  V30 35435 H 4858.99 7.45402 4.45526 0
M  V30 35436 H 4859.26 5.86062 3.67208 0
M  V30 35437 H 4858.39 7.84412 2.24479 0
M  V30 35438 H 4855.74 5.73358 0.888409 0
M  V30 35439 H 4855.46 5.90877 3.88583 0
M  V30 35440 H 4854.47 6.65867 2.58821 0
M  V30 35441 H 4856.3 8.16248 3.92006 0
M  V30 35442 H 4856.37 4.34551 4.26383 0
M  V30 35443 P 4854.43 8.7635 1.60911 0
M  V30 35444 O 4854.21 10.1388 1.11561 0
M  V30 35445 O 4853.64 8.36503 2.79617 0
M  V30 35446 O 4854.18 7.71806 0.42951 0
M  V30 35447 C 4855.12 7.67148 -0.673689 0
M  V30 35448 C 4854.39 7.33374 -1.95559 0
M  V30 35449 O 4854.18 5.88721 -2.00726 0
M  V30 35450 C 4852.99 7.92526 -2.10483 0
M  V30 35451 O 4852.6 8.02971 -3.47653 0
M  V30 35452 C 4852.11 6.89602 -1.41652 0
M  V30 35453 C 4852.82 5.59201 -1.75185 0
M  V30 35454 N 4852.77 4.58235 -0.662552 0
M  V30 35455 H 4855.61 8.65116 -0.777161 0
M  V30 35456 H 4855.88 6.90173 -0.474152 0
M  V30 35457 H 4855.01 7.66548 -2.79458 0
M  V30 35458 P 4851.05 8.03563 -3.84925 0
M  V30 35459 O 4850.83 8.85821 -5.0569 0
M  V30 35460 O 4850.26 8.41101 -2.65469 0
M  V30 35461 O 4850.8 6.4965 -4.18908 0
M  V30 35462 C 4851.74 5.81037 -5.05421 0
M  V30 35463 C 4851.01 4.78366 -5.89277 0
M  V30 35464 O 4850.8 3.58302 -5.08433 0
M  V30 35465 C 4849.61 5.17448 -6.36119 0
M  V30 35466 O 4849.22 4.45271 -7.53232 0
M  V30 35467 C 4848.73 4.74639 -5.19936 0
M  V30 35468 C 4849.44 3.49432 -4.70418 0
M  V30 35469 N 4849.39 3.32099 -3.22613 0
M  V30 35470 H 4852.23 6.54213 -5.71376 0
M  V30 35471 H 4852.5 5.30936 -4.43503 0
M  V30 35472 H 4851.63 4.55889 -6.76652 0
M  V30 35473 H 4848.98 2.61715 -5.17932 0
M  V30 35474 H 4848.7 5.52155 -4.41878 0
M  V30 35475 H 4847.71 4.51981 -5.53374 0
M  V30 35476 H 4849.54 6.25124 -6.55234 0
M  V30 35477 P 4847.67 4.23843 -7.83734 0
M  V30 35478 O 4847.45 4.19407 -9.29784 0
M  V30 35479 O 4846.88 5.24426 -7.09156 0
M  V30 35480 O 4847.42 2.7935 -7.20758 0
M  V30 35481 C 4848.36 1.7299 -7.50419 0
M  V30 35482 C 4847.63 0.406376 -7.57911 0
M  V30 35483 O 4847.42 -0.0897726 -6.21935 0
M  V30 35484 C 4846.23 0.447224 -8.1878 0
M  V30 35485 O 4845.84 -0.825065 -8.71101 0
M  V30 35486 C 4845.35 0.783801 -6.99623 0
M  V30 35487 C 4846.06 0.0619192 -5.85967 0
M  V30 35488 N 4846.01 0.790462 -4.56202 0
M  V30 35489 H 4848.85 1.93423 -8.4679 0
M  V30 35490 H 4849.12 1.68852 -6.70877 0
M  V30 35491 H 4848.25 -0.289041 -8.15388 0
M  V30 35492 H 4845.6 -0.927006 -5.72848 0
M  V30 35493 H 4845.32 1.86973 -6.82036 0
M  V30 35494 H 4844.33 0.403953 -7.13357 0
M  V30 35495 H 4846.16 1.20599 -8.97534 0
M  V30 35496 P 4844.29 -1.17771 -8.83182 0
M  V30 35497 O 4844.07 -2.07206 -9.98732 0
M  V30 35498 O 4843.5 0.0743816 -8.81969 0
M  V30 35499 O 4844.04 -1.97678 -7.474 0
M  V30 35500 C 4844.98 -3.01133 -7.08783 0
M  V30 35501 C 4844.25 -4.1203 -6.37546 0
M  V30 35502 O 4844.04 -3.72887 -4.9796 0
M  V30 35503 C 4842.85 -4.45085 -6.88694 0
M  V30 35504 O 4842.46 -5.78836 -6.56315 0
M  V30 35505 C 4841.97 -3.47817 -6.12078 0
M  V30 35506 C 4842.68 -3.39414 -4.77697 0
M  V30 35507 N 4842.63 -2.04615 -4.15333 0
M  V30 35508 C 4842.48 -1.96929 -2.77162 0
M  V30 35509 O 4842.39 -3.02017 -2.12006 0
M  V30 35510 N 4842.43 -0.55485 -2.24237 0
M  V30 35511 C 4842.53 0.367808 -2.9169 0
M  V30 35512 N 4842.48 1.53426 -2.29427 0
M  V30 35513 C 4842.68 0.319148 -4.33828 0
M  V30 35514 C 4842.73 -0.920672 -4.90433 0
M  V30 35515 H 4845.47 -3.41209 -7.98667 0
M  V30 35516 H 4845.74 -2.5837 -6.41742 0
M  V30 35517 H 4844.87 -5.02718 -6.42752 0
M  V30 35518 H 4842.22 -4.11779 -4.09026 0
M  V30 35519 H 4841.94 -2.49661 -6.61772 0
M  V30 35520 H 4840.95 -3.86674 -6.00946 0
M  V30 35521 H 4842.78 -4.29991 -7.97006 0
M  V30 35522 H 4842.85 -1.00589 -5.98303 0
M  V30 35523 H 4842.75 1.22639 -4.93799 0
M  V30 35524 H 4842.36 1.56819 -1.27167 0
M  V30 35525 H 4842.56 2.41062 -2.83063 0
M  V30 35526 P 4840.91 -6.144 -6.45285 0
M  V30 35527 O 4840.69 -7.54673 -6.86199 0
M  V30 35528 O 4840.12 -5.12391 -7.179 0
M  V30 35529 O 4840.66 -5.99158 -4.88404 0
M  V30 35530 C 4841.6 -6.60234 -3.96415 0
M  V30 35531 C 4840.87 -7.08259 -2.72856 0
M  V30 35532 O 4840.66 -5.9427 -1.83651 0
M  V30 35533 C 4839.47 -7.64886 -2.9555 0
M  V30 35534 O 4839.08 -8.53963 -1.90717 0
M  V30 35535 C 4838.59 -6.4116 -2.90739 0
M  V30 35536 C 4839.3 -5.55375 -1.86963 0
M  V30 35537 N 4839.25 -4.09664 -2.15742 0
M  V30 35538 H 4842.09 -7.45574 -4.45629 0
M  V30 35539 H 4842.36 -5.86232 -3.67314 0
M  V30 35540 H 4841.49 -7.84412 -2.24479 0
M  V30 35541 P 4837.53 -8.7635 -1.60911 0
M  V30 35542 O 4837.31 -10.1388 -1.11561 0
M  V30 35543 O 4836.74 -8.36503 -2.79617 0
M  V30 35544 O 4837.28 -7.71806 -0.42951 0
M  V30 35545 C 4838.22 -7.66948 0.673514 0
M  V30 35546 C 4837.49 -7.33374 1.95559 0
M  V30 35547 O 4837.28 -5.88721 2.00726 0
M  V30 35548 C 4836.09 -7.92218 2.1125 0
M  V30 35549 O 4835.7 -8.02971 3.47653 0
M  V30 35550 C 4835.21 -6.89504 1.41631 0
M  V30 35551 C 4835.92 -5.59106 1.75155 0
M  V30 35552 N 4835.87 -4.58136 0.662409 0
M  V30 35553 C 4835.72 -3.26059 1.02863 0
M  V30 35554 O 4835.63 -2.90743 2.19009 0
M  V30 35555 N 4835.68 -2.35995 -0.0155585 0
M  V30 35556 C 4835.77 -2.65248 -1.35603 0
M  V30 35557 O 4835.72 -1.75605 -2.20651 0
M  V30 35558 C 4835.92 -4.05747 -1.64698 0
M  V30 35559 C 4836.03 -4.42345 -3.09553 0
M  V30 35560 C 4835.97 -4.96734 -0.652411 0
M  V30 35561 H 4838.71 -8.64917 0.776982 0
M  V30 35562 H 4838.98 -6.89974 0.474015 0
M  V30 35563 H 4838.11 -7.66548 2.79458 0
M  V30 35564 H 4835.46 -5.16076 2.65138 0
M  V30 35565 H 4835.18 -7.06433 0.329384 0
M  V30 35566 H 4834.19 -6.90829 1.81996 0
M  V30 35567 H 4836.02 -8.90774 1.62639 0
M  V30 35568 H 4836.09 -6.02181 -0.895285 0
M  V30 35569 H 4835.06 -4.80252 -3.45468 0
M  V30 35570 H 4836.8 -5.20015 -3.22119 0
M  V30 35571 H 4836.31 -3.53269 -3.67833 0
M  V30 35572 H 4835.58 -1.39558 0.227499 0
M  V30 35573 P 4834.15 -8.03563 3.84925 0
M  V30 35574 O 4833.93 -8.85821 5.0569 0
M  V30 35575 O 4833.36 -8.41101 2.65469 0
M  V30 35576 O 4833.9 -6.4965 4.18908 0
M  V30 35577 C 4834.84 -5.81037 5.05421 0
M  V30 35578 C 4834.11 -4.78366 5.89277 0
M  V30 35579 O 4833.9 -3.58302 5.08433 0
M  V30 35580 C 4832.71 -5.17448 6.36119 0
M  V30 35581 O 4832.32 -4.45271 7.53232 0
M  V30 35582 C 4831.83 -4.74639 5.19936 0
M  V30 35583 C 4832.54 -3.49432 4.70418 0
M  V30 35584 N 4832.49 -3.31776 3.22945 0
M  V30 35585 H 4835.33 -6.54213 5.71376 0
M  V30 35586 H 4835.6 -5.30492 4.44033 0
M  V30 35587 H 4834.73 -4.55889 6.76652 0
M  V30 35588 P 4830.77 -4.23843 7.83734 0
M  V30 35589 O 4830.55 -4.19407 9.29784 0
M  V30 35590 O 4829.98 -5.24426 7.09156 0
M  V30 35591 O 4830.52 -2.7935 7.20758 0
M  V30 35592 C 4831.46 -1.7299 7.50419 0
M  V30 35593 C 4830.73 -0.406376 7.57911 0
M  V30 35594 O 4830.52 0.0897726 6.21935 0
M  V30 35595 C 4829.33 -0.447224 8.1878 0
M  V30 35596 O 4828.94 0.825065 8.71101 0
M  V30 35597 C 4828.45 -0.783801 6.99623 0
M  V30 35598 C 4829.16 -0.0619192 5.85967 0
M  V30 35599 N 4829.11 -0.7859 4.56281 0
M  V30 35600 H 4831.95 -1.93423 8.4679 0
M  V30 35601 H 4832.22 -1.68181 6.71046 0
M  V30 35602 H 4831.35 0.289041 8.15388 0
M  V30 35603 P 4827.39 1.17771 8.83182 0
M  V30 35604 O 4827.17 2.07206 9.98732 0
M  V30 35605 O 4826.6 -0.0743816 8.81969 0
M  V30 35606 O 4827.14 1.97652 7.47304 0
M  V30 35607 C 4828.08 3.01133 7.08783 0
M  V30 35608 C 4827.35 4.12613 6.37049 0
M  V30 35609 O 4827.14 3.72827 4.97879 0
M  V30 35610 C 4825.95 4.45085 6.88694 0
M  V30 35611 O 4825.56 5.7877 6.5624 0
M  V30 35612 C 4825.07 3.47817 6.12078 0
M  V30 35613 C 4825.78 3.39414 4.77697 0
M  V30 35614 N 4825.73 2.04615 4.15333 0
M  V30 35615 H 4828.57 3.41248 7.98759 0
M  V30 35616 H 4828.84 2.5837 6.41742 0
M  V30 35617 H 4827.97 5.02657 6.42673 0
M  V30 35618 P 4824.01 6.144 6.45285 0
M  V30 35619 O 4823.79 7.54673 6.86199 0
M  V30 35620 O 4823.22 5.12391 7.179 0
M  V30 35621 O 4823.76 5.99158 4.88404 0
M  V30 35622 C 4824.7 6.60234 3.96415 0
M  V30 35623 C 4823.97 7.08259 2.72856 0
M  V30 35624 O 4823.76 5.9427 1.83651 0
M  V30 35625 C 4822.57 7.64886 2.9555 0
M  V30 35626 O 4822.18 8.53963 1.90717 0
M  V30 35627 C 4821.69 6.4116 2.90739 0
M  V30 35628 C 4822.4 5.55375 1.86963 0
M  V30 35629 N 4822.35 4.09664 2.15742 0
M  V30 35630 H 4825.19 7.45574 4.45629 0
M  V30 35631 H 4825.46 5.86232 3.67314 0
M  V30 35632 H 4824.59 7.84412 2.24479 0
M  V30 35633 P 4820.63 8.7635 1.60911 0
M  V30 35634 O 4820.41 10.1388 1.11561 0
M  V30 35635 O 4819.84 8.36503 2.79617 0
M  V30 35636 O 4820.38 7.71806 0.42951 0
M  V30 35637 C 4821.32 7.66948 -0.673514 0
M  V30 35638 C 4820.59 7.33374 -1.95559 0
M  V30 35639 O 4820.38 5.88721 -2.00726 0
M  V30 35640 C 4819.19 7.92218 -2.1125 0
M  V30 35641 O 4818.8 8.02971 -3.47653 0
M  V30 35642 C 4818.31 6.89504 -1.41631 0
M  V30 35643 C 4819.02 5.59106 -1.75155 0
M  V30 35644 N 4818.97 4.58136 -0.662409 0
M  V30 35645 C 4818.82 3.26059 -1.02863 0
M  V30 35646 O 4818.73 2.90743 -2.19009 0
M  V30 35647 N 4818.78 2.35995 0.0155585 0
M  V30 35648 C 4818.87 2.65248 1.35603 0
M  V30 35649 C 4819.02 4.05747 1.64698 0
M  V30 35650 C 4819.07 4.96734 0.652411 0
M  V30 35651 H 4821.81 8.64917 -0.776982 0
M  V30 35652 H 4822.08 6.89974 -0.474015 0
M  V30 35653 H 4821.21 7.66548 -2.79458 0
M  V30 35654 H 4818.56 5.16076 -2.65138 0
M  V30 35655 H 4818.28 7.06433 -0.329384 0
M  V30 35656 H 4817.29 6.90829 -1.81996 0
M  V30 35657 H 4819.12 8.90774 -1.62639 0
M  V30 35658 H 4819.19 6.02181 0.895285 0
M  V30 35659 P 4817.25 8.03563 -3.84925 0
M  V30 35660 O 4817.03 8.85821 -5.0569 0
M  V30 35661 O 4816.46 8.41101 -2.65469 0
M  V30 35662 O 4817 6.4965 -4.18908 0
M  V30 35663 C 4817.94 5.81037 -5.05421 0
M  V30 35664 C 4817.21 4.78366 -5.89277 0
M  V30 35665 O 4817 3.58302 -5.08433 0
M  V30 35666 C 4815.81 5.17448 -6.36119 0
M  V30 35667 O 4815.42 4.45271 -7.53232 0
M  V30 35668 C 4814.93 4.74639 -5.19936 0
M  V30 35669 C 4815.64 3.49432 -4.70418 0
M  V30 35670 N 4815.59 3.31776 -3.22945 0
M  V30 35671 H 4818.43 6.54213 -5.71376 0
M  V30 35672 H 4818.7 5.30492 -4.44033 0
M  V30 35673 H 4817.83 4.55889 -6.76652 0
M  V30 35674 P 4813.87 4.23843 -7.83734 0
M  V30 35675 O 4813.65 4.19407 -9.29784 0
M  V30 35676 O 4813.08 5.24426 -7.09156 0
M  V30 35677 O 4813.62 2.7935 -7.20758 0
M  V30 35678 C 4814.56 1.72945 -7.50224 0
M  V30 35679 C 4813.83 0.406376 -7.57911 0
M  V30 35680 O 4813.62 -0.0897726 -6.21935 0
M  V30 35681 C 4812.43 0.438983 -8.18724 0
M  V30 35682 O 4812.04 -0.825065 -8.71101 0
M  V30 35683 C 4811.55 0.783689 -6.99524 0
M  V30 35684 C 4812.26 0.0619086 -5.85867 0
M  V30 35685 N 4812.21 0.78573 -4.56183 0
M  V30 35686 C 4812.06 0.0292889 -3.41887 0
M  V30 35687 O 4811.97 -1.18445 -3.4419 0
M  V30 35688 N 4812.02 0.744061 -2.23964 0
M  V30 35689 C 4812.11 2.10932 -2.10362 0
M  V30 35690 C 4812.26 2.8202 -3.34994 0
M  V30 35691 C 4812.31 2.15547 -4.52261 0
M  V30 35692 H 4815.05 1.93379 -8.46595 0
M  V30 35693 H 4815.32 1.68132 -6.70852 0
M  V30 35694 H 4814.45 -0.289041 -8.15388 0
M  V30 35695 H 4811.8 -0.926847 -5.72749 0
M  V30 35696 H 4811.52 1.86973 -6.82036 0
M  V30 35697 H 4810.53 0.403896 -7.13257 0
M  V30 35698 H 4812.36 1.20585 -8.97435 0
M  V30 35699 H 4812.43 2.71231 -5.45042 0
M  V30 35700 P 4810.49 -1.17771 -8.83182 0
M  V30 35701 O 4810.27 -2.07206 -9.98732 0
M  V30 35702 O 4809.7 0.0743816 -8.81969 0
M  V30 35703 O 4810.24 -1.97652 -7.47304 0
M  V30 35704 C 4811.18 -3.01055 -7.08599 0
M  V30 35705 C 4810.45 -4.12613 -6.37049 0
M  V30 35706 O 4810.24 -3.72827 -4.97879 0
M  V30 35707 C 4809.05 -4.45719 -6.88164 0
M  V30 35708 O 4808.66 -5.7877 -6.5624 0
M  V30 35709 C 4808.17 -3.47768 -6.11991 0
M  V30 35710 C 4808.88 -3.39356 -4.77615 0
M  V30 35711 N 4808.83 -2.04571 -4.15244 0
M  V30 35712 C 4808.68 -1.98587 -2.78314 0
M  V30 35713 O 4808.59 -2.98134 -2.08835 0
M  V30 35714 N 4808.64 -0.714467 -2.24925 0
M  V30 35715 C 4808.73 0.470001 -2.94169 0
M  V30 35716 O 4808.68 1.55587 -2.35195 0
M  V30 35717 C 4808.88 0.312541 -4.36783 0
M  V30 35718 C 4808.99 1.57711 -5.16352 0
M  V30 35719 C 4808.93 -0.914512 -4.92583 0
M  V30 35720 H 4811.67 -3.41169 -7.98575 0
M  V30 35721 H 4811.94 -2.58295 -6.41556 0
M  V30 35722 H 4811.07 -5.02657 -6.42673 0
M  V30 35723 H 4808.42 -4.11637 -4.08885 0
M  V30 35724 H 4808.14 -2.49626 -6.61679 0
M  V30 35725 H 4807.15 -3.86566 -6.00778 0
M  V30 35726 H 4808.98 -4.29943 -7.96918 0
M  V30 35727 H 4809.05 -1.00937 -6.00374 0
M  V30 35728 H 4808.02 1.80153 -5.63503 0
M  V30 35729 H 4809.76 1.4566 -5.94104 0
M  V30 35730 H 4809.27 2.40664 -4.49645 0
M  V30 35731 H 4808.54 -0.647622 -1.25697 0
M  V30 35732 P 4807.11 -6.144 -6.45285 0
M  V30 35733 O 4806.89 -7.54673 -6.86199 0
M  V30 35734 O 4806.32 -5.12391 -7.179 0
M  V30 35735 O 4806.86 -5.99158 -4.88404 0
M  V30 35736 C 4807.8 -6.60062 -3.96313 0
M  V30 35737 C 4807.07 -7.08259 -2.72856 0
M  V30 35738 O 4806.86 -5.9427 -1.83651 0
M  V30 35739 C 4805.67 -7.65087 -2.94749 0
M  V30 35740 O 4805.28 -8.53963 -1.90717 0
M  V30 35741 C 4804.79 -6.41069 -2.90698 0
M  V30 35742 C 4805.5 -5.5528 -1.86931 0
M  V30 35743 N 4805.45 -4.09575 -2.15696 0
M  V30 35744 C 4805.3 -3.24249 -1.08435 0
M  V30 35745 O 4805.21 -3.63946 0.0628747 0
M  V30 35746 N 4805.26 -1.90009 -1.39973 0
M  V30 35747 C 4805.35 -1.34884 -2.65614 0
M  V30 35748 O 4805.3 -0.123716 -2.81728 0
M  V30 35749 C 4805.5 -2.3145 -3.71736 0
M  V30 35750 C 4805.61 -1.75913 -5.10438 0
M  V30 35751 C 4805.55 -3.63518 -3.44754 0
M  V30 35752 H 4808.29 -7.45402 -4.45526 0
M  V30 35753 H 4808.56 -5.86062 -3.67208 0
M  V30 35754 H 4807.69 -7.84412 -2.24479 0
M  V30 35755 H 4805.04 -5.73358 -0.888409 0
M  V30 35756 H 4804.76 -5.90877 -3.88583 0
M  V30 35757 H 4803.77 -6.65867 -2.58821 0
M  V30 35758 H 4805.6 -8.16248 -3.92006 0
M  V30 35759 H 4805.67 -4.34551 -4.26383 0
M  V30 35760 H 4804.64 -1.85471 -5.61775 0
M  V30 35761 H 4806.38 -2.31364 -5.66257 0
M  V30 35762 H 4805.89 -0.695936 -5.05229 0
M  V30 35763 H 4805.16 -1.26277 -0.63625 0
M  V30 35764 P 4803.73 -8.7635 -1.60911 0
M  V30 35765 O 4803.51 -10.1388 -1.11561 0
M  V30 35766 O 4802.94 -8.36503 -2.79617 0
M  V30 35767 O 4803.48 -7.71806 -0.42951 0
M  V30 35768 C 4804.42 -7.67148 0.673689 0
M  V30 35769 C 4803.69 -7.33374 1.95559 0
M  V30 35770 O 4803.48 -5.88721 2.00726 0
M  V30 35771 C 4802.29 -7.92526 2.10483 0
M  V30 35772 O 4801.9 -8.02971 3.47653 0
M  V30 35773 C 4801.41 -6.89602 1.41652 0
M  V30 35774 C 4802.12 -5.59201 1.75185 0
M  V30 35775 N 4802.07 -4.58235 0.662552 0
M  V30 35776 H 4804.91 -8.65116 0.777161 0
M  V30 35777 H 4805.18 -6.90173 0.474152 0
M  V30 35778 H 4804.31 -7.66548 2.79458 0
M  V30 35779 P 4800.35 -8.03563 3.84925 0
M  V30 35780 O 4800.13 -8.85821 5.0569 0
M  V30 35781 O 4799.56 -8.41101 2.65469 0
M  V30 35782 O 4800.1 -6.4965 4.18908 0
M  V30 35783 C 4801.04 -5.81037 5.05421 0
M  V30 35784 C 4800.31 -4.78366 5.89277 0
M  V30 35785 O 4800.1 -3.58302 5.08433 0
M  V30 35786 C 4798.91 -5.17448 6.36119 0
M  V30 35787 O 4798.52 -4.45271 7.53232 0
M  V30 35788 C 4798.03 -4.74639 5.19936 0
M  V30 35789 C 4798.74 -3.49432 4.70418 0
M  V30 35790 N 4798.69 -3.31776 3.22945 0
M  V30 35791 H 4801.53 -6.54213 5.71376 0
M  V30 35792 H 4801.8 -5.30492 4.44033 0
M  V30 35793 H 4800.93 -4.55889 6.76652 0
M  V30 35794 P 4796.97 -4.23843 7.83734 0
M  V30 35795 O 4796.75 -4.19407 9.29784 0
M  V30 35796 O 4796.18 -5.24426 7.09156 0
M  V30 35797 O 4796.72 -2.7935 7.20758 0
M  V30 35798 C 4797.66 -1.72945 7.50224 0
M  V30 35799 C 4796.93 -0.406376 7.57911 0
M  V30 35800 O 4796.72 0.0897726 6.21935 0
M  V30 35801 C 4795.53 -0.438983 8.18724 0
M  V30 35802 O 4795.14 0.825065 8.71101 0
M  V30 35803 C 4794.65 -0.783689 6.99524 0
M  V30 35804 C 4795.36 -0.0619086 5.85867 0
M  V30 35805 N 4795.31 -0.78573 4.56183 0
M  V30 35806 C 4795.16 -0.0292889 3.41887 0
M  V30 35807 O 4795.07 1.18445 3.4419 0
M  V30 35808 N 4795.12 -0.744061 2.23964 0
M  V30 35809 C 4795.21 -2.10932 2.10362 0
M  V30 35810 O 4795.16 -2.64117 0.98825 0
M  V30 35811 C 4795.36 -2.8202 3.34994 0
M  V30 35812 C 4795.47 -4.31095 3.25037 0
M  V30 35813 C 4795.41 -2.15547 4.52261 0
M  V30 35814 H 4798.15 -1.93379 8.46595 0
M  V30 35815 H 4798.42 -1.68132 6.70852 0
M  V30 35816 H 4797.55 0.289041 8.15388 0
M  V30 35817 H 4794.9 0.926847 5.72749 0
M  V30 35818 H 4794.62 -1.86973 6.82036 0
M  V30 35819 H 4793.63 -0.403896 7.13257 0
M  V30 35820 H 4795.46 -1.20585 8.97435 0
M  V30 35821 H 4795.53 -2.71231 5.45042 0
M  V30 35822 H 4794.5 -4.76966 3.49992 0
M  V30 35823 H 4796.24 -4.67047 3.95024 0
M  V30 35824 H 4795.75 -4.58996 2.22312 0
M  V30 35825 H 4795.02 -0.214893 1.39758 0
M  V30 35826 P 4793.59 1.17771 8.83182 0
M  V30 35827 O 4793.37 2.07206 9.98732 0
M  V30 35828 O 4792.8 -0.0743816 8.81969 0
M  V30 35829 O 4793.34 1.97652 7.47304 0
M  V30 35830 C 4794.28 3.01133 7.08783 0
M  V30 35831 C 4793.55 4.12613 6.37049 0
M  V30 35832 O 4793.34 3.72827 4.97879 0
M  V30 35833 C 4792.15 4.45085 6.88694 0
M  V30 35834 O 4791.76 5.7877 6.5624 0
M  V30 35835 C 4791.27 3.47817 6.12078 0
M  V30 35836 C 4791.98 3.39414 4.77697 0
M  V30 35837 N 4791.93 2.04199 4.15538 0
M  V30 35838 H 4794.77 3.41248 7.98759 0
M  V30 35839 H 4795.04 2.57728 6.42 0
M  V30 35840 H 4794.17 5.02657 6.42673 0
M  V30 35841 H 4791.52 4.11708 4.08956 0
M  V30 35842 H 4791.24 2.49626 6.61679 0
M  V30 35843 H 4790.25 3.8662 6.00862 0
M  V30 35844 H 4792.08 4.29991 7.97006 0
M  V30 35845 P 4790.21 6.144 6.45285 0
M  V30 35846 O 4789.99 7.54673 6.86199 0
M  V30 35847 O 4789.42 5.12391 7.179 0
M  V30 35848 O 4789.96 5.99158 4.88404 0
M  V30 35849 C 4790.9 6.60234 3.96415 0
M  V30 35850 C 4790.17 7.08259 2.72856 0
M  V30 35851 O 4789.96 5.9427 1.83651 0
M  V30 35852 C 4788.77 7.64886 2.9555 0
M  V30 35853 O 4788.38 8.53963 1.90717 0
M  V30 35854 C 4787.89 6.4116 2.90739 0
M  V30 35855 C 4788.6 5.55375 1.86963 0
M  V30 35856 N 4788.55 4.09664 2.15742 0
M  V30 35857 H 4791.39 7.45574 4.45629 0
M  V30 35858 H 4791.66 5.86232 3.67314 0
M  V30 35859 H 4790.79 7.84412 2.24479 0
M  V30 35860 P 4786.83 8.7635 1.60911 0
M  V30 35861 O 4786.61 10.1388 1.11561 0
M  V30 35862 O 4786.04 8.36503 2.79617 0
M  V30 35863 O 4786.58 7.71806 0.42951 0
M  V30 35864 C 4787.52 7.67148 -0.673689 0
M  V30 35865 C 4786.79 7.33374 -1.95559 0
M  V30 35866 O 4786.58 5.88721 -2.00726 0
M  V30 35867 C 4785.39 7.92526 -2.10483 0
M  V30 35868 O 4785 8.02971 -3.47653 0
M  V30 35869 C 4784.51 6.89602 -1.41652 0
M  V30 35870 C 4785.22 5.59201 -1.75185 0
M  V30 35871 N 4785.17 4.58301 -0.657969 0
M  V30 35872 H 4788.01 8.65116 -0.777161 0
M  V30 35873 H 4788.28 6.9022 -0.46725 0
M  V30 35874 H 4787.41 7.66548 -2.79458 0
M  V30 35875 H 4784.76 5.16165 -2.65183 0
M  V30 35876 H 4784.48 7.06433 -0.329384 0
M  V30 35877 H 4783.49 6.90926 -1.82021 0
M  V30 35878 H 4785.32 8.90873 -1.62657 0
M  V30 35879 P 4783.45 8.03563 -3.84925 0
M  V30 35880 O 4783.23 8.85821 -5.0569 0
M  V30 35881 O 4782.66 8.41101 -2.65469 0
M  V30 35882 O 4783.2 6.4965 -4.18908 0
M  V30 35883 C 4784.14 5.81037 -5.05421 0
M  V30 35884 C 4783.41 4.78366 -5.89277 0
M  V30 35885 O 4783.2 3.58302 -5.08433 0
M  V30 35886 C 4782.01 5.17448 -6.36119 0
M  V30 35887 O 4781.62 4.45271 -7.53232 0
M  V30 35888 C 4781.13 4.74639 -5.19936 0
M  V30 35889 C 4781.84 3.49432 -4.70418 0
M  V30 35890 N 4781.79 3.32099 -3.22613 0
M  V30 35891 H 4784.63 6.54213 -5.71376 0
M  V30 35892 H 4784.9 5.30936 -4.43503 0
M  V30 35893 H 4784.03 4.55889 -6.76652 0
M  V30 35894 H 4781.38 2.61715 -5.17932 0
M  V30 35895 H 4781.1 5.52155 -4.41878 0
M  V30 35896 H 4780.11 4.51981 -5.53374 0
M  V30 35897 H 4781.94 6.25124 -6.55234 0
M  V30 35898 P 4780.07 4.23843 -7.83734 0
M  V30 35899 O 4779.85 4.19407 -9.29784 0
M  V30 35900 O 4779.28 5.24426 -7.09156 0
M  V30 35901 O 4779.82 2.7935 -7.20758 0
M  V30 35902 C 4780.76 1.7299 -7.50419 0
M  V30 35903 C 4780.03 0.406376 -7.57911 0
M  V30 35904 O 4779.82 -0.0897726 -6.21935 0
M  V30 35905 C 4778.63 0.447224 -8.1878 0
M  V30 35906 O 4778.24 -0.825065 -8.71101 0
M  V30 35907 C 4777.75 0.783801 -6.99623 0
M  V30 35908 C 4778.46 0.0619192 -5.85967 0
M  V30 35909 N 4778.41 0.7859 -4.56281 0
M  V30 35910 C 4778.49 2.14308 -4.31736 0
M  V30 35911 N 4778.41 2.46106 -3.05116 0
M  V30 35912 C 4778.27 1.23422 -2.4014 0
M  V30 35913 C 4778.14 0.938381 -1.02409 0
M  V30 35914 O 4778.12 1.70876 -0.0650402 0
M  V30 35915 N 4778.02 -0.444647 -0.805413 0
M  V30 35916 C 4778.02 -1.40829 -1.79435 0
M  V30 35917 N 4777.89 -2.67213 -1.38558 0
M  V30 35918 N 4778.15 -1.12947 -3.09005 0
M  V30 35919 C 4778.27 0.204887 -3.32369 0
M  V30 35920 H 4781.25 1.93423 -8.4679 0
M  V30 35921 H 4781.52 1.68181 -6.71046 0
M  V30 35922 H 4780.65 -0.289041 -8.15388 0
M  V30 35923 H 4778 -0.927166 -5.72947 0
M  V30 35924 H 4777.72 1.87 -6.82132 0
M  V30 35925 H 4776.73 0.404009 -7.13457 0
M  V30 35926 H 4778.56 1.20612 -8.97633 0
M  V30 35927 H 4778.61 2.88284 -5.10874 0
M  V30 35928 H 4777.93 -0.755087 0.140242 0
M  V30 35929 H 4777.89 -3.43967 -2.0729 0
M  V30 35930 H 4777.79 -2.88096 -0.380644 0
M  V30 35931 P 4776.69 -1.17771 -8.83182 0
M  V30 35932 O 4776.47 -2.07206 -9.98732 0
M  V30 35933 O 4775.9 0.0743816 -8.81969 0
M  V30 35934 O 4776.44 -1.97652 -7.47304 0
M  V30 35935 C 4777.38 -3.01133 -7.08783 0
M  V30 35936 C 4776.65 -4.12613 -6.37049 0
M  V30 35937 O 4776.44 -3.72827 -4.97879 0
M  V30 35938 C 4775.25 -4.45085 -6.88694 0
M  V30 35939 O 4774.86 -5.7877 -6.5624 0
M  V30 35940 C 4774.37 -3.47817 -6.12078 0
M  V30 35941 C 4775.08 -3.39414 -4.77697 0
M  V30 35942 N 4775.03 -2.04615 -4.15333 0
M  V30 35943 H 4777.87 -3.41248 -7.98759 0
M  V30 35944 H 4778.14 -2.5837 -6.41742 0
M  V30 35945 H 4777.27 -5.02657 -6.42673 0
M  V30 35946 P 4773.31 -6.144 -6.45285 0
M  V30 35947 O 4773.09 -7.54673 -6.86199 0
M  V30 35948 O 4772.52 -5.12391 -7.179 0
M  V30 35949 O 4773.06 -5.99158 -4.88404 0
M  V30 35950 C 4774 -6.60234 -3.96415 0
M  V30 35951 C 4773.27 -7.08259 -2.72856 0
M  V30 35952 O 4773.06 -5.9427 -1.83651 0
M  V30 35953 C 4771.87 -7.64886 -2.9555 0
M  V30 35954 O 4771.48 -8.53963 -1.90717 0
M  V30 35955 C 4770.99 -6.4116 -2.90739 0
M  V30 35956 C 4771.7 -5.55375 -1.86963 0
M  V30 35957 N 4771.65 -4.09664 -2.15742 0
M  V30 35958 H 4774.49 -7.45574 -4.45629 0
M  V30 35959 H 4774.76 -5.86232 -3.67314 0
M  V30 35960 H 4773.89 -7.84412 -2.24479 0
M  V30 35961 P 4769.93 -8.7635 -1.60911 0
M  V30 35962 O 4769.71 -10.1388 -1.11561 0
M  V30 35963 O 4769.14 -8.36503 -2.79617 0
M  V30 35964 O 4769.68 -7.71806 -0.42951 0
M  V30 35965 C 4770.62 -7.67148 0.673689 0
M  V30 35966 C 4769.89 -7.33374 1.95559 0
M  V30 35967 O 4769.68 -5.88721 2.00726 0
M  V30 35968 C 4768.49 -7.92526 2.10483 0
M  V30 35969 O 4768.1 -8.02971 3.47653 0
M  V30 35970 C 4767.61 -6.89602 1.41652 0
M  V30 35971 C 4768.32 -5.59201 1.75185 0
M  V30 35972 N 4768.27 -4.58301 0.657969 0
M  V30 35973 H 4771.11 -8.65116 0.777161 0
M  V30 35974 H 4771.38 -6.9022 0.46725 0
M  V30 35975 H 4770.51 -7.66548 2.79458 0
M  V30 35976 H 4767.86 -5.16165 2.65183 0
M  V30 35977 H 4767.58 -7.06433 0.329384 0
M  V30 35978 H 4766.59 -6.90926 1.82021 0
M  V30 35979 H 4768.42 -8.90873 1.62657 0
M  V30 35980 P 4766.55 -8.03563 3.84925 0
M  V30 35981 O 4766.33 -8.85821 5.0569 0
M  V30 35982 O 4765.76 -8.41101 2.65469 0
M  V30 35983 O 4766.3 -6.4965 4.18908 0
M  V30 35984 C 4767.24 -5.80886 5.05289 0
M  V30 35985 C 4766.51 -4.78366 5.89277 0
M  V30 35986 O 4766.3 -3.58302 5.08433 0
M  V30 35987 C 4765.11 -5.16748 6.36559 0
M  V30 35988 O 4764.72 -4.45271 7.53232 0
M  V30 35989 C 4764.23 -4.74572 5.19863 0
M  V30 35990 C 4764.94 -3.49373 4.70338 0
M  V30 35991 N 4764.89 -3.31704 3.22876 0
M  V30 35992 C 4764.74 -2.03326 2.74871 0
M  V30 35993 O 4764.65 -1.06486 3.48076 0
M  V30 35994 N 4764.7 -1.91838 1.37456 0
M  V30 35995 C 4764.79 -2.94295 0.462035 0
M  V30 35996 C 4764.94 -4.25064 1.05249 0
M  V30 35997 C 4764.99 -4.40214 2.39192 0
M  V30 35998 H 4767.73 -6.54063 5.71245 0
M  V30 35999 H 4768 -5.30339 4.43905 0
M  V30 36000 H 4767.13 -4.55889 6.76652 0
M  V30 36001 H 4764.48 -2.6167 5.17842 0
M  V30 36002 H 4764.2 -5.52155 4.41878 0
M  V30 36003 H 4763.21 -4.51918 5.53297 0
M  V30 36004 H 4765.04 -6.25055 6.55162 0
M  V30 36005 H 4765.11 -5.39798 2.81523 0
M  V30 36006 P 4763.17 -4.23843 7.83734 0
M  V30 36007 O 4762.95 -4.19407 9.29784 0
M  V30 36008 O 4762.38 -5.24426 7.09156 0
M  V30 36009 O 4762.92 -2.7935 7.20758 0
M  V30 36010 C 4763.86 -1.7299 7.50419 0
M  V30 36011 C 4763.13 -0.406376 7.57911 0
M  V30 36012 O 4762.92 0.0897726 6.21935 0
M  V30 36013 C 4761.73 -0.447224 8.1878 0
M  V30 36014 O 4761.34 0.825065 8.71101 0
M  V30 36015 C 4760.85 -0.783801 6.99623 0
M  V30 36016 C 4761.56 -0.0619192 5.85967 0
M  V30 36017 N 4761.51 -0.7859 4.56281 0
M  V30 36018 H 4764.35 -1.93423 8.4679 0
M  V30 36019 H 4764.62 -1.68181 6.71046 0
M  V30 36020 H 4763.75 0.289041 8.15388 0
M  V30 36021 P 4759.79 1.17771 8.83182 0
M  V30 36022 O 4759.57 2.07206 9.98732 0
M  V30 36023 O 4759 -0.0743816 8.81969 0
M  V30 36024 O 4759.54 1.97652 7.47304 0
M  V30 36025 C 4760.48 3.01133 7.08783 0
M  V30 36026 C 4759.75 4.12613 6.37049 0
M  V30 36027 O 4759.54 3.72827 4.97879 0
M  V30 36028 C 4758.35 4.45085 6.88694 0
M  V30 36029 O 4757.96 5.7877 6.5624 0
M  V30 36030 C 4757.47 3.47817 6.12078 0
M  V30 36031 C 4758.18 3.39414 4.77697 0
M  V30 36032 N 4758.13 2.04615 4.15333 0
M  V30 36033 H 4760.97 3.41248 7.98759 0
M  V30 36034 H 4761.24 2.5837 6.41742 0
M  V30 36035 H 4760.37 5.02657 6.42673 0
M  V30 36036 P 4756.41 6.144 6.45285 0
M  V30 36037 O 4756.19 7.54673 6.86199 0
M  V30 36038 O 4755.62 5.12391 7.179 0
M  V30 36039 O 4756.16 5.99158 4.88404 0
M  V30 36040 C 4757.1 6.60234 3.96415 0
M  V30 36041 C 4756.37 7.08259 2.72856 0
M  V30 36042 O 4756.16 5.9427 1.83651 0
M  V30 36043 C 4754.97 7.64886 2.9555 0
M  V30 36044 O 4754.58 8.53963 1.90717 0
M  V30 36045 C 4754.09 6.4116 2.90739 0
M  V30 36046 C 4754.8 5.55375 1.86963 0
M  V30 36047 N 4754.75 4.09664 2.15742 0
M  V30 36048 H 4757.59 7.45574 4.45629 0
M  V30 36049 H 4757.86 5.86232 3.67314 0
M  V30 36050 H 4756.99 7.84412 2.24479 0
M  V30 36051 P 4753.03 8.7635 1.60911 0
M  V30 36052 O 4752.81 10.1388 1.11561 0
M  V30 36053 O 4752.24 8.36503 2.79617 0
M  V30 36054 O 4752.78 7.71806 0.42951 0
M  V30 36055 C 4753.72 7.67148 -0.673689 0
M  V30 36056 C 4752.99 7.33374 -1.95559 0
M  V30 36057 O 4752.78 5.88721 -2.00726 0
M  V30 36058 C 4751.59 7.92526 -2.10483 0
M  V30 36059 O 4751.2 8.02971 -3.47653 0
M  V30 36060 C 4750.71 6.89602 -1.41652 0
M  V30 36061 C 4751.42 5.59201 -1.75185 0
M  V30 36062 N 4751.37 4.58235 -0.662552 0
M  V30 36063 H 4754.21 8.65116 -0.777161 0
M  V30 36064 H 4754.48 6.90173 -0.474152 0
M  V30 36065 H 4753.61 7.66548 -2.79458 0
M  V30 36066 P 4749.65 8.03563 -3.84925 0
M  V30 36067 O 4749.43 8.85821 -5.0569 0
M  V30 36068 O 4748.86 8.41101 -2.65469 0
M  V30 36069 O 4749.4 6.4965 -4.18908 0
M  V30 36070 C 4750.34 5.81037 -5.05421 0
M  V30 36071 C 4749.61 4.78366 -5.89277 0
M  V30 36072 O 4749.4 3.58302 -5.08433 0
M  V30 36073 C 4748.21 5.17448 -6.36119 0
M  V30 36074 O 4747.82 4.45271 -7.53232 0
M  V30 36075 C 4747.33 4.74639 -5.19936 0
M  V30 36076 C 4748.04 3.49432 -4.70418 0
M  V30 36077 N 4747.99 3.31776 -3.22945 0
M  V30 36078 C 4748.07 4.27147 -2.23315 0
M  V30 36079 N 4747.99 3.78447 -1.02186 0
M  V30 36080 C 4747.85 2.41001 -1.21732 0
M  V30 36081 C 4747.72 1.36111 -0.27694 0
M  V30 36082 N 4747.6 0.113683 -0.912949 0
M  V30 36083 C 4747.6 -0.0846396 -2.27943 0
M  V30 36084 N 4747.47 -1.34737 -2.6916 0
M  V30 36085 N 4747.73 0.902521 -3.16379 0
M  V30 36086 C 4747.85 2.11937 -2.56849 0
M  V30 36087 H 4750.83 6.54213 -5.71376 0
M  V30 36088 H 4751.1 5.30492 -4.44033 0
M  V30 36089 H 4750.23 4.55889 -6.76652 0
M  V30 36090 P 4746.27 4.23843 -7.83734 0
M  V30 36091 O 4746.05 4.19407 -9.29784 0
M  V30 36092 O 4745.48 5.24426 -7.09156 0
M  V30 36093 O 4746.02 2.7935 -7.20758 0
M  V30 36094 C 4746.96 1.7299 -7.50419 0
M  V30 36095 C 4746.23 0.406376 -7.57911 0
M  V30 36096 O 4746.02 -0.0897726 -6.21935 0
M  V30 36097 C 4744.83 0.447224 -8.1878 0
M  V30 36098 O 4744.44 -0.825065 -8.71101 0
M  V30 36099 C 4743.95 0.783801 -6.99623 0
M  V30 36100 C 4744.66 0.0619192 -5.85967 0
M  V30 36101 N 4744.61 0.7859 -4.56281 0
M  V30 36102 H 4747.45 1.93423 -8.4679 0
M  V30 36103 H 4747.72 1.68181 -6.71046 0
M  V30 36104 H 4746.85 -0.289041 -8.15388 0
M  V30 36105 P 4742.89 -1.17771 -8.83182 0
M  V30 36106 O 4742.67 -2.07206 -9.98732 0
M  V30 36107 O 4742.1 0.0743816 -8.81969 0
M  V30 36108 O 4742.64 -1.97652 -7.47304 0
M  V30 36109 C 4743.58 -3.01055 -7.08599 0
M  V30 36110 C 4742.85 -4.12613 -6.37049 0
M  V30 36111 O 4742.64 -3.72827 -4.97879 0
M  V30 36112 C 4741.45 -4.45719 -6.88164 0
M  V30 36113 O 4741.06 -5.7877 -6.5624 0
M  V30 36114 C 4740.57 -3.47768 -6.11991 0
M  V30 36115 C 4741.28 -3.39356 -4.77615 0
M  V30 36116 N 4741.23 -2.04571 -4.15244 0
M  V30 36117 C 4741.08 -1.98587 -2.78314 0
M  V30 36118 O 4740.99 -2.98134 -2.08835 0
M  V30 36119 N 4741.04 -0.714467 -2.24925 0
M  V30 36120 C 4741.13 0.470001 -2.94169 0
M  V30 36121 O 4741.08 1.55587 -2.35195 0
M  V30 36122 C 4741.28 0.312541 -4.36783 0
M  V30 36123 C 4741.39 1.57711 -5.16352 0
M  V30 36124 C 4741.33 -0.914512 -4.92583 0
M  V30 36125 H 4744.07 -3.41169 -7.98575 0
M  V30 36126 H 4744.34 -2.58295 -6.41556 0
M  V30 36127 H 4743.47 -5.02657 -6.42673 0
M  V30 36128 H 4740.82 -4.11637 -4.08885 0
M  V30 36129 H 4740.54 -2.49626 -6.61679 0
M  V30 36130 H 4739.55 -3.86566 -6.00778 0
M  V30 36131 H 4741.38 -4.29943 -7.96918 0
M  V30 36132 H 4741.45 -1.00937 -6.00374 0
M  V30 36133 H 4740.42 1.80153 -5.63503 0
M  V30 36134 H 4742.16 1.4566 -5.94104 0
M  V30 36135 H 4741.67 2.40664 -4.49645 0
M  V30 36136 H 4740.94 -0.647622 -1.25697 0
M  V30 36137 P 4739.51 -6.144 -6.45285 0
M  V30 36138 O 4739.29 -7.54673 -6.86199 0
M  V30 36139 O 4738.72 -5.12391 -7.179 0
M  V30 36140 O 4739.26 -5.99236 -4.88467 0
M  V30 36141 C 4740.2 -6.60234 -3.96415 0
M  V30 36142 C 4739.47 -7.08079 -2.736 0
M  V30 36143 O 4739.26 -5.94365 -1.8368 0
M  V30 36144 C 4738.07 -7.64886 -2.9555 0
M  V30 36145 O 4737.68 -8.5406 -1.90739 0
M  V30 36146 C 4737.19 -6.4116 -2.90739 0
M  V30 36147 C 4737.9 -5.55375 -1.86963 0
M  V30 36148 N 4737.85 -4.09664 -2.15742 0
M  V30 36149 C 4737.7 -3.22231 -1.08477 0
M  V30 36150 O 4737.61 -3.68951 0.0600489 0
M  V30 36151 N 4737.65 -1.76692 -1.48799 0
M  V30 36152 C 4737.75 -1.41695 -2.57602 0
M  V30 36153 N 4737.7 -0.107296 -2.75791 0
M  V30 36154 C 4737.9 -2.29178 -3.69733 0
M  V30 36155 C 4737.95 -3.62753 -3.42653 0
M  V30 36156 H 4740.69 -7.45488 -4.45578 0
M  V30 36157 H 4740.96 -5.86232 -3.67314 0
M  V30 36158 H 4740.09 -7.84508 -2.24507 0
M  V30 36159 H 4737.44 -5.73556 -0.888715 0
M  V30 36160 H 4737.16 -5.9096 -3.88638 0
M  V30 36161 H 4736.17 -6.66053 -2.58894 0
M  V30 36162 H 4738 -8.16339 -3.92049 0
M  V30 36163 H 4738.07 -4.33052 -4.24913 0
M  V30 36164 H 4737.97 -1.9103 -4.71577 0
M  V30 36165 H 4737.58 0.521221 -1.95056 0
M  V30 36166 H 4737.78 0.286429 -3.70695 0
M  V30 36167 P 4736.13 -8.7635 -1.60911 0
M  V30 36168 O 4735.91 -10.1388 -1.11561 0
M  V30 36169 O 4735.34 -8.36503 -2.79617 0
M  V30 36170 O 4735.88 -7.71806 -0.42951 0
M  V30 36171 C 4736.82 -7.66948 0.673514 0
M  V30 36172 C 4736.09 -7.33374 1.95559 0
M  V30 36173 O 4735.88 -5.88721 2.00726 0
M  V30 36174 C 4734.69 -7.92218 2.1125 0
M  V30 36175 O 4734.3 -8.02971 3.47653 0
M  V30 36176 C 4733.81 -6.89504 1.41631 0
M  V30 36177 C 4734.52 -5.59106 1.75155 0
M  V30 36178 N 4734.47 -4.58136 0.662409 0
M  V30 36179 C 4734.32 -3.26059 1.02863 0
M  V30 36180 O 4734.23 -2.90743 2.19009 0
M  V30 36181 N 4734.28 -2.35995 -0.0155585 0
M  V30 36182 C 4734.37 -2.65248 -1.35603 0
M  V30 36183 C 4734.52 -4.05747 -1.64698 0
M  V30 36184 C 4734.57 -4.96734 -0.652411 0
M  V30 36185 H 4737.31 -8.64917 0.776982 0
M  V30 36186 H 4737.58 -6.89974 0.474015 0
M  V30 36187 H 4736.72 -7.66548 2.79458 0
M  V30 36188 H 4734.06 -5.16076 2.65138 0
M  V30 36189 H 4733.78 -7.06433 0.329384 0
M  V30 36190 H 4732.79 -6.90829 1.81996 0
M  V30 36191 H 4734.62 -8.90774 1.62639 0
M  V30 36192 H 4734.69 -6.02181 -0.895285 0
M  V30 36193 P 4732.75 -8.03563 3.84925 0
M  V30 36194 O 4732.53 -8.85821 5.0569 0
M  V30 36195 O 4731.96 -8.41101 2.65469 0
M  V30 36196 O 4732.5 -6.4965 4.18908 0
M  V30 36197 C 4733.44 -5.81037 5.05421 0
M  V30 36198 C 4732.71 -4.78366 5.89277 0
M  V30 36199 O 4732.5 -3.58302 5.08433 0
M  V30 36200 C 4731.31 -5.17448 6.36119 0
M  V30 36201 O 4730.92 -4.45271 7.53232 0
M  V30 36202 C 4730.43 -4.74639 5.19936 0
M  V30 36203 C 4731.14 -3.49432 4.70418 0
M  V30 36204 N 4731.09 -3.31776 3.22945 0
M  V30 36205 H 4733.93 -6.54213 5.71376 0
M  V30 36206 H 4734.2 -5.30492 4.44033 0
M  V30 36207 H 4733.34 -4.55889 6.76652 0
M  V30 36208 P 4729.37 -4.23843 7.83734 0
M  V30 36209 O 4729.15 -4.19407 9.29784 0
M  V30 36210 O 4728.58 -5.24426 7.09156 0
M  V30 36211 O 4729.12 -2.7935 7.20758 0
M  V30 36212 C 4730.06 -1.7299 7.50419 0
M  V30 36213 C 4729.33 -0.406376 7.57911 0
M  V30 36214 O 4729.12 0.0897726 6.21935 0
M  V30 36215 C 4727.93 -0.447224 8.1878 0
M  V30 36216 O 4727.54 0.825065 8.71101 0
M  V30 36217 C 4727.05 -0.783801 6.99623 0
M  V30 36218 C 4727.76 -0.0619192 5.85967 0
M  V30 36219 N 4727.71 -0.7859 4.56281 0
M  V30 36220 H 4730.55 -1.93423 8.4679 0
M  V30 36221 H 4730.82 -1.68181 6.71046 0
M  V30 36222 H 4729.96 0.289041 8.15388 0
M  V30 36223 P 4725.99 1.17771 8.83182 0
M  V30 36224 O 4725.77 2.07206 9.98732 0
M  V30 36225 O 4725.2 -0.0743816 8.81969 0
M  V30 36226 O 4725.74 1.97652 7.47304 0
M  V30 36227 C 4726.68 3.01055 7.08599 0
M  V30 36228 C 4725.95 4.12613 6.37049 0
M  V30 36229 O 4725.74 3.72827 4.97879 0
M  V30 36230 C 4724.55 4.45719 6.88164 0
M  V30 36231 O 4724.16 5.7877 6.5624 0
M  V30 36232 C 4723.67 3.47768 6.11991 0
M  V30 36233 C 4724.38 3.39356 4.77615 0
M  V30 36234 N 4724.33 2.04571 4.15244 0
M  V30 36235 C 4724.18 1.98587 2.78314 0
M  V30 36236 O 4724.09 2.98134 2.08835 0
M  V30 36237 N 4724.14 0.714467 2.24925 0
M  V30 36238 C 4724.23 -0.470001 2.94169 0
M  V30 36239 C 4724.38 -0.312541 4.36783 0
M  V30 36240 C 4724.43 0.914512 4.92583 0
M  V30 36241 H 4727.17 3.41169 7.98575 0
M  V30 36242 H 4727.44 2.58295 6.41556 0
M  V30 36243 H 4726.58 5.02657 6.42673 0
M  V30 36244 H 4723.92 4.11637 4.08885 0
M  V30 36245 H 4723.64 2.49626 6.61679 0
M  V30 36246 H 4722.65 3.86566 6.00778 0
M  V30 36247 H 4724.48 4.29943 7.96918 0
M  V30 36248 H 4724.55 1.00937 6.00374 0
M  V30 36249 P 4722.61 6.144 6.45285 0
M  V30 36250 O 4722.39 7.54673 6.86199 0
M  V30 36251 O 4721.82 5.12391 7.179 0
M  V30 36252 O 4722.36 5.99158 4.88404 0
M  V30 36253 C 4723.3 6.60234 3.96415 0
M  V30 36254 C 4722.57 7.08259 2.72856 0
M  V30 36255 O 4722.36 5.9427 1.83651 0
M  V30 36256 C 4721.17 7.64886 2.9555 0
M  V30 36257 O 4720.78 8.53963 1.90717 0
M  V30 36258 C 4720.29 6.4116 2.90739 0
M  V30 36259 C 4721 5.55375 1.86963 0
M  V30 36260 N 4720.95 4.09664 2.15742 0
M  V30 36261 H 4723.79 7.45574 4.45629 0
M  V30 36262 H 4724.06 5.86232 3.67314 0
M  V30 36263 H 4723.2 7.84412 2.24479 0
M  V30 36264 P 4719.23 8.7635 1.60911 0
M  V30 36265 O 4719.01 10.1388 1.11561 0
M  V30 36266 O 4718.44 8.36503 2.79617 0
M  V30 36267 O 4718.98 7.71806 0.42951 0
M  V30 36268 C 4719.92 7.67148 -0.673689 0
M  V30 36269 C 4719.19 7.33374 -1.95559 0
M  V30 36270 O 4718.98 5.88721 -2.00726 0
M  V30 36271 C 4717.79 7.92526 -2.10483 0
M  V30 36272 O 4717.4 8.02971 -3.47653 0
M  V30 36273 C 4716.91 6.89602 -1.41652 0
M  V30 36274 C 4717.62 5.59201 -1.75185 0
M  V30 36275 N 4717.57 4.58235 -0.662552 0
M  V30 36276 H 4720.41 8.65116 -0.777161 0
M  V30 36277 H 4720.68 6.90173 -0.474152 0
M  V30 36278 H 4719.82 7.66548 -2.79458 0
M  V30 36279 P 4715.85 8.03563 -3.84925 0
M  V30 36280 O 4715.63 8.85821 -5.0569 0
M  V30 36281 O 4715.06 8.41101 -2.65469 0
M  V30 36282 O 4715.6 6.4965 -4.18908 0
M  V30 36283 C 4716.54 5.81037 -5.05421 0
M  V30 36284 C 4715.81 4.78366 -5.89277 0
M  V30 36285 O 4715.6 3.58302 -5.08433 0
M  V30 36286 C 4714.41 5.17448 -6.36119 0
M  V30 36287 O 4714.02 4.45271 -7.53232 0
M  V30 36288 C 4713.53 4.74639 -5.19936 0
M  V30 36289 C 4714.24 3.49432 -4.70418 0
M  V30 36290 N 4714.19 3.31776 -3.22945 0
M  V30 36291 H 4717.03 6.54213 -5.71376 0
M  V30 36292 H 4717.3 5.30492 -4.44033 0
M  V30 36293 H 4716.44 4.55889 -6.76652 0
M  V30 36294 P 4712.47 4.23843 -7.83734 0
M  V30 36295 O 4712.25 4.19407 -9.29784 0
M  V30 36296 O 4711.68 5.24426 -7.09156 0
M  V30 36297 O 4712.22 2.7935 -7.20758 0
M  V30 36298 C 4713.16 1.7299 -7.50419 0
M  V30 36299 C 4712.43 0.406376 -7.57911 0
M  V30 36300 O 4712.22 -0.0897726 -6.21935 0
M  V30 36301 C 4711.03 0.447224 -8.1878 0
M  V30 36302 O 4710.64 -0.825065 -8.71101 0
M  V30 36303 C 4710.15 0.783801 -6.99623 0
M  V30 36304 C 4710.86 0.0619192 -5.85967 0
M  V30 36305 N 4710.81 0.790462 -4.56202 0
M  V30 36306 H 4713.65 1.93423 -8.4679 0
M  V30 36307 H 4713.92 1.68852 -6.70877 0
M  V30 36308 H 4713.06 -0.289041 -8.15388 0
M  V30 36309 H 4710.4 -0.927006 -5.72848 0
M  V30 36310 H 4710.12 1.86973 -6.82036 0
M  V30 36311 H 4709.13 0.403953 -7.13357 0
M  V30 36312 H 4710.96 1.20599 -8.97534 0
M  V30 36313 P 4709.09 -1.17771 -8.83182 0
M  V30 36314 O 4708.87 -2.07206 -9.98732 0
M  V30 36315 O 4708.3 0.0743816 -8.81969 0
M  V30 36316 O 4708.84 -1.97652 -7.47304 0
M  V30 36317 C 4709.78 -3.01133 -7.08783 0
M  V30 36318 C 4709.05 -4.12613 -6.37049 0
M  V30 36319 O 4708.84 -3.72827 -4.97879 0
M  V30 36320 C 4707.65 -4.45085 -6.88694 0
M  V30 36321 O 4707.26 -5.7877 -6.5624 0
M  V30 36322 C 4706.77 -3.47817 -6.12078 0
M  V30 36323 C 4707.48 -3.39414 -4.77697 0
M  V30 36324 N 4707.43 -2.04615 -4.15333 0
M  V30 36325 H 4710.27 -3.41248 -7.98759 0
M  V30 36326 H 4710.54 -2.5837 -6.41742 0
M  V30 36327 H 4709.68 -5.02657 -6.42673 0
M  V30 36328 P 4705.71 -6.144 -6.45285 0
M  V30 36329 O 4705.49 -7.54673 -6.86199 0
M  V30 36330 O 4704.92 -5.12391 -7.179 0
M  V30 36331 O 4705.46 -5.99158 -4.88404 0
M  V30 36332 C 4706.4 -6.60234 -3.96415 0
M  V30 36333 C 4705.67 -7.08259 -2.72856 0
M  V30 36334 O 4705.46 -5.9427 -1.83651 0
M  V30 36335 C 4704.27 -7.64886 -2.9555 0
M  V30 36336 O 4703.88 -8.53963 -1.90717 0
M  V30 36337 C 4703.39 -6.4116 -2.90739 0
M  V30 36338 C 4704.1 -5.55375 -1.86963 0
M  V30 36339 N 4704.05 -4.09664 -2.15742 0
M  V30 36340 H 4706.89 -7.45574 -4.45629 0
M  V30 36341 H 4707.16 -5.86232 -3.67314 0
M  V30 36342 H 4706.3 -7.84412 -2.24479 0
M  V30 36343 P 4702.33 -8.7635 -1.60911 0
M  V30 36344 O 4702.11 -10.1388 -1.11561 0
M  V30 36345 O 4701.54 -8.36503 -2.79617 0
M  V30 36346 O 4702.08 -7.71806 -0.42951 0
M  V30 36347 C 4703.02 -7.67148 0.673689 0
M  V30 36348 C 4702.29 -7.33374 1.95559 0
M  V30 36349 O 4702.08 -5.88721 2.00726 0
M  V30 36350 C 4700.89 -7.92526 2.10483 0
M  V30 36351 O 4700.5 -8.02971 3.47653 0
M  V30 36352 C 4700.01 -6.89602 1.41652 0
M  V30 36353 C 4700.72 -5.59201 1.75185 0
M  V30 36354 N 4700.67 -4.58235 0.662552 0
M  V30 36355 H 4703.51 -8.65116 0.777161 0
M  V30 36356 H 4703.78 -6.90173 0.474152 0
M  V30 36357 H 4702.92 -7.66548 2.79458 0
M  V30 36358 P 4698.95 -8.03563 3.84925 0
M  V30 36359 O 4698.73 -8.85821 5.0569 0
M  V30 36360 O 4698.16 -8.41101 2.65469 0
M  V30 36361 O 4698.7 -6.49734 4.18962 0
M  V30 36362 C 4699.64 -5.81037 5.05421 0
M  V30 36363 C 4698.91 -4.79018 5.88876 0
M  V30 36364 O 4698.7 -3.58359 5.08515 0
M  V30 36365 C 4697.51 -5.17448 6.36119 0
M  V30 36366 O 4697.12 -4.45322 7.53318 0
M  V30 36367 C 4696.63 -4.74639 5.19936 0
M  V30 36368 C 4697.34 -3.49432 4.70418 0
M  V30 36369 N 4697.29 -3.31776 3.22945 0
M  V30 36370 C 4697.14 -2.02742 2.72939 0
M  V30 36371 O 4697.05 -1.08301 3.52749 0
M  V30 36372 N 4697.09 -1.96117 1.22063 0
M  V30 36373 C 4697.19 -2.8878 0.551566 0
M  V30 36374 N 4697.14 -2.65609 -0.750198 0
M  V30 36375 C 4697.34 -4.22457 1.03707 0
M  V30 36376 C 4697.39 -4.37979 2.39113 0
M  V30 36377 H 4700.13 -6.54138 5.7131 0
M  V30 36378 H 4700.4 -5.30492 4.44033 0
M  V30 36379 H 4699.54 -4.55945 6.76735 0
M  V30 36380 H 4696.88 -2.6176 5.18021 0
M  V30 36381 H 4696.6 -5.52233 4.41941 0
M  V30 36382 H 4695.61 -4.52045 5.53452 0
M  V30 36383 H 4697.44 -6.25124 6.55234 0
M  V30 36384 H 4697.52 -5.37936 2.80552 0
M  V30 36385 H 4697.41 -5.07528 0.359553 0
M  V30 36386 H 4697.03 -1.69403 -1.09847 0
M  V30 36387 H 4697.22 -3.43701 -1.41792 0
M  V30 36388 P 4695.57 -4.23843 7.83734 0
M  V30 36389 O 4695.35 -4.19407 9.29784 0
M  V30 36390 O 4694.78 -5.24426 7.09156 0
M  V30 36391 O 4695.32 -2.7935 7.20758 0
M  V30 36392 C 4696.26 -1.7299 7.50419 0
M  V30 36393 C 4695.53 -0.406376 7.57911 0
M  V30 36394 O 4695.32 0.0897726 6.21935 0
M  V30 36395 C 4694.13 -0.447224 8.1878 0
M  V30 36396 O 4693.74 0.825065 8.71101 0
M  V30 36397 C 4693.25 -0.783801 6.99623 0
M  V30 36398 C 4693.96 -0.0619192 5.85967 0
M  V30 36399 N 4693.91 -0.7859 4.56281 0
M  V30 36400 H 4696.75 -1.93423 8.4679 0
M  V30 36401 H 4697.02 -1.68181 6.71046 0
M  V30 36402 H 4696.16 0.289041 8.15388 0
M  V30 36403 P 4692.19 1.17771 8.83182 0
M  V30 36404 O 4691.97 2.07206 9.98732 0
M  V30 36405 O 4691.4 -0.0743816 8.81969 0
M  V30 36406 O 4691.94 1.97652 7.47304 0
M  V30 36407 C 4692.88 3.01133 7.08783 0
M  V30 36408 C 4692.15 4.12613 6.37049 0
M  V30 36409 O 4691.94 3.72827 4.97879 0
M  V30 36410 C 4690.75 4.45085 6.88694 0
M  V30 36411 O 4690.36 5.7877 6.5624 0
M  V30 36412 C 4689.87 3.47817 6.12078 0
M  V30 36413 C 4690.58 3.39414 4.77697 0
M  V30 36414 N 4690.53 2.04615 4.15333 0
M  V30 36415 C 4690.61 0.803897 4.75249 0
M  V30 36416 N 4690.53 -0.197615 3.91502 0
M  V30 36417 C 4690.39 0.413002 2.66823 0
M  V30 36418 C 4690.26 -0.157221 1.38007 0
M  V30 36419 N 4690.14 0.833136 0.390236 0
M  V30 36420 C 4690.14 2.19402 0.623885 0
M  V30 36421 N 4690.01 2.97622 -0.449677 0
M  V30 36422 N 4690.27 2.73005 1.83601 0
M  V30 36423 C 4690.39 1.78786 2.80935 0
M  V30 36424 H 4693.37 3.41248 7.98759 0
M  V30 36425 H 4693.64 2.5837 6.41742 0
M  V30 36426 H 4692.78 5.02657 6.42673 0
M  V30 36427 P 4688.81 6.144 6.45285 0
M  V30 36428 O 4688.59 7.54673 6.86199 0
M  V30 36429 O 4688.02 5.12391 7.179 0
M  V30 36430 O 4688.56 5.99158 4.88404 0
M  V30 36431 C 4689.5 6.60234 3.96415 0
M  V30 36432 C 4688.77 7.08259 2.72856 0
M  V30 36433 O 4688.56 5.9427 1.83651 0
M  V30 36434 C 4687.37 7.64886 2.9555 0
M  V30 36435 O 4686.98 8.53963 1.90717 0
M  V30 36436 C 4686.49 6.4116 2.90739 0
M  V30 36437 C 4687.2 5.55375 1.86963 0
M  V30 36438 N 4687.15 4.09448 2.16152 0
M  V30 36439 H 4689.99 7.45574 4.45629 0
M  V30 36440 H 4690.26 5.85864 3.679 0
M  V30 36441 H 4689.4 7.84412 2.24479 0
M  V30 36442 H 4686.74 5.73457 0.888562 0
M  V30 36443 H 4686.46 5.90877 3.88583 0
M  V30 36444 H 4685.47 6.6596 2.58858 0
M  V30 36445 H 4687.3 8.16339 3.92049 0
M  V30 36446 P 4685.43 8.7635 1.60911 0
M  V30 36447 O 4685.21 10.1388 1.11561 0
M  V30 36448 O 4684.64 8.36503 2.79617 0
M  V30 36449 O 4685.18 7.71806 0.42951 0
M  V30 36450 C 4686.12 7.67148 -0.673689 0
M  V30 36451 C 4685.39 7.33374 -1.95559 0
M  V30 36452 O 4685.18 5.88721 -2.00726 0
M  V30 36453 C 4683.99 7.92526 -2.10483 0
M  V30 36454 O 4683.6 8.02971 -3.47653 0
M  V30 36455 C 4683.11 6.89602 -1.41652 0
M  V30 36456 C 4683.82 5.59201 -1.75185 0
M  V30 36457 N 4683.77 4.58235 -0.662552 0
M  V30 36458 H 4686.61 8.65116 -0.777161 0
M  V30 36459 H 4686.88 6.90173 -0.474152 0
M  V30 36460 H 4686.02 7.66548 -2.79458 0
M  V30 36461 P 4682.05 8.03563 -3.84925 0
M  V30 36462 O 4681.83 8.85821 -5.0569 0
M  V30 36463 O 4681.26 8.41101 -2.65469 0
M  V30 36464 O 4681.8 6.4965 -4.18908 0
M  V30 36465 C 4682.74 5.81037 -5.05421 0
M  V30 36466 C 4682.01 4.78366 -5.89277 0
M  V30 36467 O 4681.8 3.58302 -5.08433 0
M  V30 36468 C 4680.61 5.17448 -6.36119 0
M  V30 36469 O 4680.22 4.45271 -7.53232 0
M  V30 36470 C 4679.73 4.74639 -5.19936 0
M  V30 36471 C 4680.44 3.49432 -4.70418 0
M  V30 36472 N 4680.39 3.31776 -3.22945 0
M  V30 36473 H 4683.23 6.54213 -5.71376 0
M  V30 36474 H 4683.5 5.30492 -4.44033 0
M  V30 36475 H 4682.64 4.55889 -6.76652 0
M  V30 36476 P 4678.67 4.23843 -7.83734 0
M  V30 36477 O 4678.45 4.19407 -9.29784 0
M  V30 36478 O 4677.88 5.24426 -7.09156 0
M  V30 36479 O 4678.42 2.7935 -7.20758 0
M  V30 36480 C 4679.36 1.7299 -7.50419 0
M  V30 36481 C 4678.63 0.406376 -7.57911 0
M  V30 36482 O 4678.42 -0.0897726 -6.21935 0
M  V30 36483 C 4677.23 0.447224 -8.1878 0
M  V30 36484 O 4676.84 -0.825065 -8.71101 0
M  V30 36485 C 4676.35 0.783801 -6.99623 0
M  V30 36486 C 4677.06 0.0619192 -5.85967 0
M  V30 36487 N 4677.01 0.7859 -4.56281 0
M  V30 36488 H 4679.85 1.93423 -8.4679 0
M  V30 36489 H 4680.12 1.68181 -6.71046 0
M  V30 36490 H 4679.26 -0.289041 -8.15388 0
M  V30 36491 P 4675.29 -1.17771 -8.83182 0
M  V30 36492 O 4675.07 -2.07206 -9.98732 0
M  V30 36493 O 4674.5 0.0743816 -8.81969 0
M  V30 36494 O 4675.04 -1.97652 -7.47304 0
M  V30 36495 C 4675.98 -3.01055 -7.08599 0
M  V30 36496 C 4675.25 -4.12613 -6.37049 0
M  V30 36497 O 4675.04 -3.72827 -4.97879 0
M  V30 36498 C 4673.85 -4.45719 -6.88164 0
M  V30 36499 O 4673.46 -5.7877 -6.5624 0
M  V30 36500 C 4672.97 -3.47768 -6.11991 0
M  V30 36501 C 4673.68 -3.39356 -4.77615 0
M  V30 36502 N 4673.63 -2.04571 -4.15244 0
M  V30 36503 C 4673.48 -1.98587 -2.78314 0
M  V30 36504 O 4673.39 -2.98134 -2.08835 0
M  V30 36505 N 4673.44 -0.714467 -2.24925 0
M  V30 36506 C 4673.53 0.470001 -2.94169 0
M  V30 36507 O 4673.48 1.55587 -2.35195 0
M  V30 36508 C 4673.68 0.312541 -4.36783 0
M  V30 36509 C 4673.79 1.57711 -5.16352 0
M  V30 36510 C 4673.73 -0.914512 -4.92583 0
M  V30 36511 H 4676.47 -3.41169 -7.98575 0
M  V30 36512 H 4676.74 -2.58295 -6.41556 0
M  V30 36513 H 4675.88 -5.02657 -6.42673 0
M  V30 36514 H 4673.22 -4.11637 -4.08885 0
M  V30 36515 H 4672.94 -2.49626 -6.61679 0
M  V30 36516 H 4671.95 -3.86566 -6.00778 0
M  V30 36517 H 4673.78 -4.29943 -7.96918 0
M  V30 36518 H 4673.85 -1.00937 -6.00374 0
M  V30 36519 H 4672.82 1.80153 -5.63503 0
M  V30 36520 H 4674.56 1.4566 -5.94104 0
M  V30 36521 H 4674.07 2.40664 -4.49645 0
M  V30 36522 H 4673.34 -0.647622 -1.25697 0
M  V30 36523 P 4671.91 -6.144 -6.45285 0
M  V30 36524 O 4671.69 -7.54673 -6.86199 0
M  V30 36525 O 4671.12 -5.12391 -7.179 0
M  V30 36526 O 4671.66 -5.99158 -4.88404 0
M  V30 36527 C 4672.6 -6.60234 -3.96415 0
M  V30 36528 C 4671.87 -7.08259 -2.72856 0
M  V30 36529 O 4671.66 -5.9427 -1.83651 0
M  V30 36530 C 4670.47 -7.64886 -2.9555 0
M  V30 36531 O 4670.08 -8.53963 -1.90717 0
M  V30 36532 C 4669.59 -6.4116 -2.90739 0
M  V30 36533 C 4670.3 -5.55375 -1.86963 0
M  V30 36534 N 4670.25 -4.09448 -2.16152 0
M  V30 36535 H 4673.09 -7.45574 -4.45629 0
M  V30 36536 H 4673.36 -5.85864 -3.679 0
M  V30 36537 H 4672.5 -7.84412 -2.24479 0
M  V30 36538 H 4669.84 -5.73457 -0.888562 0
M  V30 36539 H 4669.56 -5.90877 -3.88583 0
M  V30 36540 H 4668.57 -6.6596 -2.58858 0
M  V30 36541 H 4670.4 -8.16339 -3.92049 0
M  V30 36542 P 4668.53 -8.7635 -1.60911 0
M  V30 36543 O 4668.31 -10.1388 -1.11561 0
M  V30 36544 O 4667.74 -8.36503 -2.79617 0
M  V30 36545 O 4668.28 -7.71806 -0.42951 0
M  V30 36546 C 4669.22 -7.66948 0.673514 0
M  V30 36547 C 4668.49 -7.33374 1.95559 0
M  V30 36548 O 4668.28 -5.88721 2.00726 0
M  V30 36549 C 4667.09 -7.92218 2.1125 0
M  V30 36550 O 4666.7 -8.02971 3.47653 0
M  V30 36551 C 4666.21 -6.89504 1.41631 0
M  V30 36552 C 4666.92 -5.59106 1.75155 0
M  V30 36553 N 4666.87 -4.58136 0.662409 0
M  V30 36554 C 4666.72 -3.26059 1.02863 0
M  V30 36555 O 4666.63 -2.90743 2.19009 0
M  V30 36556 N 4666.68 -2.35995 -0.0155585 0
M  V30 36557 C 4666.77 -2.65248 -1.35603 0
M  V30 36558 O 4666.72 -1.75605 -2.20651 0
M  V30 36559 C 4666.92 -4.05747 -1.64698 0
M  V30 36560 C 4667.03 -4.42345 -3.09553 0
M  V30 36561 C 4666.97 -4.96734 -0.652411 0
M  V30 36562 H 4669.71 -8.64917 0.776982 0
M  V30 36563 H 4669.98 -6.89974 0.474015 0
M  V30 36564 H 4669.12 -7.66548 2.79458 0
M  V30 36565 H 4666.46 -5.16076 2.65138 0
M  V30 36566 H 4666.18 -7.06433 0.329384 0
M  V30 36567 H 4665.19 -6.90829 1.81996 0
M  V30 36568 H 4667.02 -8.90774 1.62639 0
M  V30 36569 H 4667.09 -6.02181 -0.895285 0
M  V30 36570 H 4666.06 -4.80252 -3.45468 0
M  V30 36571 H 4667.8 -5.20015 -3.22119 0
M  V30 36572 H 4667.31 -3.53269 -3.67833 0
M  V30 36573 H 4666.58 -1.39558 0.227499 0
M  V30 36574 P 4665.15 -8.03563 3.84925 0
M  V30 36575 O 4664.93 -8.85821 5.0569 0
M  V30 36576 O 4664.36 -8.41101 2.65469 0
M  V30 36577 O 4664.9 -6.49734 4.18962 0
M  V30 36578 C 4665.84 -5.81037 5.05421 0
M  V30 36579 C 4665.11 -4.79018 5.88876 0
M  V30 36580 O 4664.9 -3.58359 5.08515 0
M  V30 36581 C 4663.71 -5.17448 6.36119 0
M  V30 36582 O 4663.32 -4.45322 7.53318 0
M  V30 36583 C 4662.83 -4.74639 5.19936 0
M  V30 36584 C 4663.54 -3.49432 4.70418 0
M  V30 36585 N 4663.49 -3.31776 3.22945 0
M  V30 36586 C 4663.34 -2.02742 2.72939 0
M  V30 36587 O 4663.25 -1.08301 3.52749 0
M  V30 36588 N 4663.29 -1.96117 1.22063 0
M  V30 36589 C 4663.39 -2.8878 0.551566 0
M  V30 36590 N 4663.34 -2.65609 -0.750198 0
M  V30 36591 C 4663.54 -4.22457 1.03707 0
M  V30 36592 C 4663.59 -4.37979 2.39113 0
M  V30 36593 H 4666.33 -6.54138 5.7131 0
M  V30 36594 H 4666.6 -5.30492 4.44033 0
M  V30 36595 H 4665.74 -4.55945 6.76735 0
M  V30 36596 H 4663.08 -2.6176 5.18021 0
M  V30 36597 H 4662.8 -5.52233 4.41941 0
M  V30 36598 H 4661.81 -4.52045 5.53452 0
M  V30 36599 H 4663.64 -6.25124 6.55234 0
M  V30 36600 H 4663.72 -5.37936 2.80552 0
M  V30 36601 H 4663.61 -5.07528 0.359553 0
M  V30 36602 H 4663.23 -1.69403 -1.09847 0
M  V30 36603 H 4663.42 -3.43701 -1.41792 0
M  V30 36604 P 4661.77 -4.23843 7.83734 0
M  V30 36605 O 4661.55 -4.19407 9.29784 0
M  V30 36606 O 4660.98 -5.24426 7.09156 0
M  V30 36607 O 4661.52 -2.7935 7.20758 0
M  V30 36608 C 4662.46 -1.7299 7.50419 0
M  V30 36609 C 4661.73 -0.406376 7.57911 0
M  V30 36610 O 4661.52 0.0897726 6.21935 0
M  V30 36611 C 4660.33 -0.447224 8.1878 0
M  V30 36612 O 4659.94 0.825065 8.71101 0
M  V30 36613 C 4659.45 -0.783801 6.99623 0
M  V30 36614 C 4660.16 -0.0619192 5.85967 0
M  V30 36615 N 4660.11 -0.7859 4.56281 0
M  V30 36616 H 4662.95 -1.93423 8.4679 0
M  V30 36617 H 4663.22 -1.68181 6.71046 0
M  V30 36618 H 4662.36 0.289041 8.15388 0
M  V30 36619 P 4658.39 1.17771 8.83182 0
M  V30 36620 O 4658.17 2.07206 9.98732 0
M  V30 36621 O 4657.6 -0.0743816 8.81969 0
M  V30 36622 O 4658.14 1.97652 7.47304 0
M  V30 36623 C 4659.08 3.01055 7.08599 0
M  V30 36624 C 4658.35 4.12613 6.37049 0
M  V30 36625 O 4658.14 3.72827 4.97879 0
M  V30 36626 C 4656.95 4.45719 6.88164 0
M  V30 36627 O 4656.56 5.7877 6.5624 0
M  V30 36628 C 4656.07 3.47768 6.11991 0
M  V30 36629 C 4656.78 3.39356 4.77615 0
M  V30 36630 N 4656.73 2.04571 4.15244 0
M  V30 36631 C 4656.58 1.98587 2.78314 0
M  V30 36632 O 4656.49 2.98134 2.08835 0
M  V30 36633 N 4656.54 0.714467 2.24925 0
M  V30 36634 C 4656.63 -0.470001 2.94169 0
M  V30 36635 C 4656.78 -0.312541 4.36783 0
M  V30 36636 C 4656.83 0.914512 4.92583 0
M  V30 36637 H 4659.57 3.41169 7.98575 0
M  V30 36638 H 4659.84 2.58295 6.41556 0
M  V30 36639 H 4658.98 5.02657 6.42673 0
M  V30 36640 H 4656.32 4.11637 4.08885 0
M  V30 36641 H 4656.04 2.49626 6.61679 0
M  V30 36642 H 4655.05 3.86566 6.00778 0
M  V30 36643 H 4656.88 4.29943 7.96918 0
M  V30 36644 H 4656.95 1.00937 6.00374 0
M  V30 36645 P 4655.01 6.144 6.45285 0
M  V30 36646 O 4654.79 7.54673 6.86199 0
M  V30 36647 O 4654.22 5.12391 7.179 0
M  V30 36648 O 4654.76 5.99158 4.88404 0
M  V30 36649 C 4655.7 6.60234 3.96415 0
M  V30 36650 C 4654.97 7.08259 2.72856 0
M  V30 36651 O 4654.76 5.9427 1.83651 0
M  V30 36652 C 4653.57 7.64886 2.9555 0
M  V30 36653 O 4653.18 8.53963 1.90717 0
M  V30 36654 C 4652.69 6.4116 2.90739 0
M  V30 36655 C 4653.4 5.55375 1.86963 0
M  V30 36656 N 4653.35 4.09664 2.15742 0
M  V30 36657 H 4656.19 7.45574 4.45629 0
M  V30 36658 H 4656.46 5.86232 3.67314 0
M  V30 36659 H 4655.6 7.84412 2.24479 0
M  V30 36660 P 4651.63 8.7635 1.60911 0
M  V30 36661 O 4651.41 10.1388 1.11561 0
M  V30 36662 O 4650.84 8.36503 2.79617 0
M  V30 36663 O 4651.38 7.71806 0.42951 0
M  V30 36664 C 4652.32 7.67148 -0.673689 0
M  V30 36665 C 4651.59 7.33374 -1.95559 0
M  V30 36666 O 4651.38 5.88721 -2.00726 0
M  V30 36667 C 4650.19 7.92526 -2.10483 0
M  V30 36668 O 4649.8 8.02971 -3.47653 0
M  V30 36669 C 4649.31 6.89602 -1.41652 0
M  V30 36670 C 4650.02 5.59201 -1.75185 0
M  V30 36671 N 4649.97 4.58235 -0.662552 0
M  V30 36672 H 4652.81 8.65116 -0.777161 0
M  V30 36673 H 4653.08 6.90173 -0.474152 0
M  V30 36674 H 4652.22 7.66548 -2.79458 0
M  V30 36675 P 4648.25 8.03563 -3.84925 0
M  V30 36676 O 4648.03 8.85821 -5.0569 0
M  V30 36677 O 4647.46 8.41101 -2.65469 0
M  V30 36678 O 4648 6.4965 -4.18908 0
M  V30 36679 C 4648.94 5.81037 -5.05421 0
M  V30 36680 C 4648.21 4.78366 -5.89277 0
M  V30 36681 O 4648 3.58302 -5.08433 0
M  V30 36682 C 4646.81 5.17448 -6.36119 0
M  V30 36683 O 4646.42 4.45271 -7.53232 0
M  V30 36684 C 4645.93 4.74639 -5.19936 0
M  V30 36685 C 4646.64 3.49432 -4.70418 0
M  V30 36686 N 4646.59 3.31776 -3.22945 0
M  V30 36687 H 4649.43 6.54213 -5.71376 0
M  V30 36688 H 4649.7 5.30492 -4.44033 0
M  V30 36689 H 4648.84 4.55889 -6.76652 0
M  V30 36690 P 4644.87 4.23843 -7.83734 0
M  V30 36691 O 4644.65 4.19407 -9.29784 0
M  V30 36692 O 4644.08 5.24426 -7.09156 0
M  V30 36693 O 4644.62 2.7935 -7.20758 0
M  V30 36694 C 4645.56 1.7299 -7.50419 0
M  V30 36695 C 4644.83 0.406376 -7.57911 0
M  V30 36696 O 4644.62 -0.0897726 -6.21935 0
M  V30 36697 C 4643.43 0.447224 -8.1878 0
M  V30 36698 O 4643.04 -0.825065 -8.71101 0
M  V30 36699 C 4642.55 0.783801 -6.99623 0
M  V30 36700 C 4643.26 0.0619192 -5.85967 0
M  V30 36701 N 4643.21 0.7859 -4.56281 0
M  V30 36702 H 4646.05 1.93423 -8.4679 0
M  V30 36703 H 4646.32 1.68181 -6.71046 0
M  V30 36704 H 4645.46 -0.289041 -8.15388 0
M  V30 36705 P 4641.49 -1.17771 -8.83182 0
M  V30 36706 O 4641.27 -2.07206 -9.98732 0
M  V30 36707 O 4640.7 0.0743816 -8.81969 0
M  V30 36708 O 4641.24 -1.97652 -7.47304 0
M  V30 36709 C 4642.18 -3.01133 -7.08783 0
M  V30 36710 C 4641.45 -4.12613 -6.37049 0
M  V30 36711 O 4641.24 -3.72827 -4.97879 0
M  V30 36712 C 4640.05 -4.45085 -6.88694 0
M  V30 36713 O 4639.66 -5.7877 -6.5624 0
M  V30 36714 C 4639.17 -3.47817 -6.12078 0
M  V30 36715 C 4639.88 -3.39414 -4.77697 0
M  V30 36716 N 4639.83 -2.04199 -4.15538 0
M  V30 36717 H 4642.67 -3.41248 -7.98759 0
M  V30 36718 H 4642.94 -2.57728 -6.42 0
M  V30 36719 H 4642.08 -5.02657 -6.42673 0
M  V30 36720 H 4639.42 -4.11708 -4.08956 0
M  V30 36721 H 4639.14 -2.49626 -6.61679 0
M  V30 36722 H 4638.15 -3.8662 -6.00862 0
M  V30 36723 H 4639.98 -4.29991 -7.97006 0
M  V30 36724 P 4638.11 -6.144 -6.45285 0
M  V30 36725 O 4637.89 -7.54673 -6.86199 0
M  V30 36726 O 4637.32 -5.12391 -7.179 0
M  V30 36727 O 4637.86 -5.99158 -4.88404 0
M  V30 36728 C 4638.8 -6.60234 -3.96415 0
M  V30 36729 C 4638.07 -7.08259 -2.72856 0
M  V30 36730 O 4637.86 -5.9427 -1.83651 0
M  V30 36731 C 4636.67 -7.64886 -2.9555 0
M  V30 36732 O 4636.28 -8.53963 -1.90717 0
M  V30 36733 C 4635.79 -6.4116 -2.90739 0
M  V30 36734 C 4636.5 -5.55375 -1.86963 0
M  V30 36735 N 4636.45 -4.09448 -2.16152 0
M  V30 36736 H 4639.29 -7.45574 -4.45629 0
M  V30 36737 H 4639.56 -5.85864 -3.679 0
M  V30 36738 H 4638.7 -7.84412 -2.24479 0
M  V30 36739 H 4636.04 -5.73457 -0.888562 0
M  V30 36740 H 4635.76 -5.90877 -3.88583 0
M  V30 36741 H 4634.77 -6.6596 -2.58858 0
M  V30 36742 H 4636.6 -8.16339 -3.92049 0
M  V30 36743 P 4634.73 -8.7635 -1.60911 0
M  V30 36744 O 4634.51 -10.1388 -1.11561 0
M  V30 36745 O 4633.94 -8.36503 -2.79617 0
M  V30 36746 O 4634.48 -7.71806 -0.42951 0
M  V30 36747 C 4635.42 -7.67148 0.673689 0
M  V30 36748 C 4634.69 -7.33374 1.95559 0
M  V30 36749 O 4634.48 -5.88721 2.00726 0
M  V30 36750 C 4633.29 -7.92526 2.10483 0
M  V30 36751 O 4632.9 -8.02971 3.47653 0
M  V30 36752 C 4632.41 -6.89602 1.41652 0
M  V30 36753 C 4633.12 -5.59201 1.75185 0
M  V30 36754 N 4633.07 -4.58235 0.662552 0
M  V30 36755 H 4635.91 -8.65116 0.777161 0
M  V30 36756 H 4636.18 -6.90173 0.474152 0
M  V30 36757 H 4635.32 -7.66548 2.79458 0
M  V30 36758 P 4631.35 -8.03563 3.84925 0
M  V30 36759 O 4631.13 -8.85821 5.0569 0
M  V30 36760 O 4630.56 -8.41101 2.65469 0
M  V30 36761 O 4631.1 -6.4965 4.18908 0
M  V30 36762 C 4632.04 -5.81037 5.05421 0
M  V30 36763 C 4631.31 -4.78366 5.89277 0
M  V30 36764 O 4631.1 -3.58302 5.08433 0
M  V30 36765 C 4629.91 -5.17448 6.36119 0
M  V30 36766 O 4629.52 -4.45271 7.53232 0
M  V30 36767 C 4629.03 -4.74639 5.19936 0
M  V30 36768 C 4629.74 -3.49432 4.70418 0
M  V30 36769 N 4629.69 -3.32099 3.22613 0
M  V30 36770 C 4629.77 -4.28245 2.25527 0
M  V30 36771 N 4629.7 -3.80823 1.04874 0
M  V30 36772 C 4629.55 -2.44571 1.23535 0
M  V30 36773 C 4629.42 -1.37068 0.330675 0
M  V30 36774 N 4629.41 -1.51472 -0.990824 0
M  V30 36775 N 4629.3 -0.138614 0.848756 0
M  V30 36776 C 4629.31 0.00675923 2.16999 0
M  V30 36777 N 4629.43 -0.904372 3.11122 0
M  V30 36778 C 4629.55 -2.12707 2.56212 0
M  V30 36779 H 4632.53 -6.54213 5.71376 0
M  V30 36780 H 4632.8 -5.30936 4.43503 0
M  V30 36781 H 4631.94 -4.55889 6.76652 0
M  V30 36782 H 4629.28 -2.61715 5.17932 0
M  V30 36783 H 4629 -5.52155 4.41878 0
M  V30 36784 H 4628.01 -4.51981 5.53374 0
M  V30 36785 H 4629.84 -6.25124 6.55234 0
M  V30 36786 H 4629.88 -5.34372 2.47488 0
M  V30 36787 H 4629.5 -2.45153 -1.4078 0
M  V30 36788 H 4629.31 -0.688422 -1.59911 0
M  V30 36789 H 4629.21 1.02584 2.52346 0
M  V30 36790 P 4627.97 -4.23843 7.83734 0
M  V30 36791 O 4627.75 -4.19407 9.29784 0
M  V30 36792 O 4627.18 -5.24426 7.09156 0
M  V30 36793 O 4627.72 -2.7935 7.20758 0
M  V30 36794 C 4628.66 -1.7299 7.50419 0
M  V30 36795 C 4627.93 -0.406376 7.57911 0
M  V30 36796 O 4627.72 0.0897726 6.21935 0
M  V30 36797 C 4626.53 -0.447224 8.1878 0
M  V30 36798 O 4626.14 0.825065 8.71101 0
M  V30 36799 C 4625.65 -0.783801 6.99623 0
M  V30 36800 C 4626.36 -0.0619192 5.85967 0
M  V30 36801 N 4626.31 -0.790462 4.56202 0
M  V30 36802 H 4629.15 -1.93423 8.4679 0
M  V30 36803 H 4629.42 -1.68852 6.70877 0
M  V30 36804 H 4628.56 0.289041 8.15388 0
M  V30 36805 H 4625.9 0.927006 5.72848 0
M  V30 36806 H 4625.62 -1.86973 6.82036 0
M  V30 36807 H 4624.63 -0.403953 7.13357 0
M  V30 36808 H 4626.46 -1.20599 8.97534 0
M  V30 36809 P 4624.59 1.17771 8.83182 0
M  V30 36810 O 4624.37 2.07206 9.98732 0
M  V30 36811 O 4623.8 -0.0743816 8.81969 0
M  V30 36812 O 4624.34 1.97652 7.47304 0
M  V30 36813 C 4625.28 3.01055 7.08599 0
M  V30 36814 C 4624.55 4.12613 6.37049 0
M  V30 36815 O 4624.34 3.72827 4.97879 0
M  V30 36816 C 4623.15 4.45719 6.88164 0
M  V30 36817 O 4622.76 5.7877 6.5624 0
M  V30 36818 C 4622.27 3.47768 6.11991 0
M  V30 36819 C 4622.98 3.39356 4.77615 0
M  V30 36820 N 4622.93 2.04571 4.15244 0
M  V30 36821 C 4622.78 1.98587 2.78314 0
M  V30 36822 O 4622.69 2.98134 2.08835 0
M  V30 36823 N 4622.74 0.714467 2.24925 0
M  V30 36824 C 4622.83 -0.470001 2.94169 0
M  V30 36825 C 4622.98 -0.312541 4.36783 0
M  V30 36826 C 4623.03 0.914512 4.92583 0
M  V30 36827 H 4625.77 3.41169 7.98575 0
M  V30 36828 H 4626.04 2.58295 6.41556 0
M  V30 36829 H 4625.18 5.02657 6.42673 0
M  V30 36830 H 4622.52 4.11637 4.08885 0
M  V30 36831 H 4622.24 2.49626 6.61679 0
M  V30 36832 H 4621.25 3.86566 6.00778 0
M  V30 36833 H 4623.08 4.29943 7.96918 0
M  V30 36834 H 4623.15 1.00937 6.00374 0
M  V30 36835 P 4621.21 6.144 6.45285 0
M  V30 36836 O 4620.99 7.54673 6.86199 0
M  V30 36837 O 4620.42 5.12391 7.179 0
M  V30 36838 O 4620.96 5.99158 4.88404 0
M  V30 36839 C 4621.9 6.60234 3.96415 0
M  V30 36840 C 4621.17 7.08259 2.72856 0
M  V30 36841 O 4620.96 5.9427 1.83651 0
M  V30 36842 C 4619.77 7.64886 2.9555 0
M  V30 36843 O 4619.38 8.53963 1.90717 0
M  V30 36844 C 4618.89 6.4116 2.90739 0
M  V30 36845 C 4619.6 5.55375 1.86963 0
M  V30 36846 N 4619.55 4.09664 2.15742 0
M  V30 36847 H 4622.39 7.45574 4.45629 0
M  V30 36848 H 4622.66 5.86232 3.67314 0
M  V30 36849 H 4621.8 7.84412 2.24479 0
M  V30 36850 P 4617.83 8.7635 1.60911 0
M  V30 36851 O 4617.61 10.1388 1.11561 0
M  V30 36852 O 4617.04 8.36503 2.79617 0
M  V30 36853 O 4617.58 7.71806 0.42951 0
M  V30 36854 C 4618.52 7.67148 -0.673689 0
M  V30 36855 C 4617.79 7.33374 -1.95559 0
M  V30 36856 O 4617.58 5.88721 -2.00726 0
M  V30 36857 C 4616.39 7.92526 -2.10483 0
M  V30 36858 O 4616 8.02971 -3.47653 0
M  V30 36859 C 4615.51 6.89602 -1.41652 0
M  V30 36860 C 4616.22 5.59201 -1.75185 0
M  V30 36861 N 4616.17 4.58301 -0.657969 0
M  V30 36862 C 4616.25 4.79019 0.692603 0
M  V30 36863 N 4616.18 3.69736 1.38998 0
M  V30 36864 C 4616.03 2.70474 0.438135 0
M  V30 36865 C 4615.9 1.30327 0.538142 0
M  V30 36866 N 4615.89 0.64304 1.69192 0
M  V30 36867 N 4615.78 0.611027 -0.605183 0
M  V30 36868 C 4615.79 1.27002 -1.75953 0
M  V30 36869 N 4615.91 2.56038 -1.98546 0
M  V30 36870 C 4616.03 3.22681 -0.822541 0
M  V30 36871 H 4619.01 8.65116 -0.777161 0
M  V30 36872 H 4619.28 6.9022 -0.46725 0
M  V30 36873 H 4618.42 7.66548 -2.79458 0
M  V30 36874 H 4615.76 5.16165 -2.65183 0
M  V30 36875 H 4615.48 7.06433 -0.329384 0
M  V30 36876 H 4614.49 6.90926 -1.82021 0
M  V30 36877 H 4616.32 8.90873 -1.62657 0
M  V30 36878 H 4616.36 5.77785 1.13874 0
M  V30 36879 H 4615.98 1.15585 2.57991 0
M  V30 36880 H 4615.79 -0.382989 1.69835 0
M  V30 36881 H 4615.69 0.653331 -2.64449 0
M  V30 36882 P 4614.45 8.03563 -3.84925 0
M  V30 36883 O 4614.23 8.85821 -5.0569 0
M  V30 36884 O 4613.66 8.41101 -2.65469 0
M  V30 36885 O 4614.2 6.4965 -4.18908 0
M  V30 36886 C 4615.14 5.81037 -5.05421 0
M  V30 36887 C 4614.41 4.78366 -5.89277 0
M  V30 36888 O 4614.2 3.58302 -5.08433 0
M  V30 36889 C 4613.01 5.17448 -6.36119 0
M  V30 36890 O 4612.62 4.45271 -7.53232 0
M  V30 36891 C 4612.13 4.74639 -5.19936 0
M  V30 36892 C 4612.84 3.49432 -4.70418 0
M  V30 36893 N 4612.79 3.31776 -3.22945 0
M  V30 36894 H 4615.63 6.54213 -5.71376 0
M  V30 36895 H 4615.9 5.30492 -4.44033 0
M  V30 36896 H 4615.04 4.55889 -6.76652 0
M  V30 36897 P 4611.07 4.23843 -7.83734 0
M  V30 36898 O 4610.85 4.19407 -9.29784 0
M  V30 36899 O 4610.28 5.24426 -7.09156 0
M  V30 36900 O 4610.82 2.7935 -7.20758 0
M  V30 36901 C 4611.76 1.7299 -7.50419 0
M  V30 36902 C 4611.03 0.406376 -7.57911 0
M  V30 36903 O 4610.82 -0.0897726 -6.21935 0
M  V30 36904 C 4609.63 0.447224 -8.1878 0
M  V30 36905 O 4609.24 -0.825065 -8.71101 0
M  V30 36906 C 4608.75 0.783801 -6.99623 0
M  V30 36907 C 4609.46 0.0619192 -5.85967 0
M  V30 36908 N 4609.41 0.790462 -4.56202 0
M  V30 36909 C 4609.49 2.13895 -4.34171 0
M  V30 36910 N 4609.42 2.46449 -3.08687 0
M  V30 36911 C 4609.27 1.2525 -2.43697 0
M  V30 36912 C 4609.14 0.914535 -1.07318 0
M  V30 36913 N 4609.13 1.80782 -0.0887348 0
M  V30 36914 N 4609.02 -0.386745 -0.768133 0
M  V30 36915 C 4609.03 -1.28096 -1.75159 0
M  V30 36916 N 4609.15 -1.09708 -3.04861 0
M  V30 36917 C 4609.27 0.214857 -3.32306 0
M  V30 36918 H 4612.25 1.93423 -8.4679 0
M  V30 36919 H 4612.52 1.68852 -6.70877 0
M  V30 36920 H 4611.66 -0.289041 -8.15388 0
M  V30 36921 H 4609 -0.927006 -5.72848 0
M  V30 36922 H 4608.72 1.86973 -6.82036 0
M  V30 36923 H 4607.73 0.403953 -7.13357 0
M  V30 36924 H 4609.56 1.20599 -8.97534 0
M  V30 36925 H 4609.6 2.86846 -5.14318 0
M  V30 36926 H 4609.22 2.81082 -0.302037 0
M  V30 36927 H 4609.03 1.49688 0.889064 0
M  V30 36928 H 4608.93 -2.31317 -1.43855 0
M  V30 36929 P 4607.69 -1.17771 -8.83182 0
M  V30 36930 O 4607.47 -2.07206 -9.98732 0
M  V30 36931 O 4606.9 0.0743816 -8.81969 0
M  V30 36932 O 4607.44 -1.97652 -7.47304 0
M  V30 36933 C 4608.38 -3.01055 -7.08599 0
M  V30 36934 C 4607.65 -4.12613 -6.37049 0
M  V30 36935 O 4607.44 -3.72827 -4.97879 0
M  V30 36936 C 4606.25 -4.45719 -6.88164 0
M  V30 36937 O 4605.86 -5.7877 -6.5624 0
M  V30 36938 C 4605.37 -3.47768 -6.11991 0
M  V30 36939 C 4606.08 -3.39356 -4.77615 0
M  V30 36940 N 4606.03 -2.04571 -4.15244 0
M  V30 36941 C 4605.88 -1.98587 -2.78314 0
M  V30 36942 O 4605.79 -2.98134 -2.08835 0
M  V30 36943 N 4605.84 -0.714467 -2.24925 0
M  V30 36944 C 4605.93 0.470001 -2.94169 0
M  V30 36945 C 4606.08 0.312541 -4.36783 0
M  V30 36946 C 4606.13 -0.914512 -4.92583 0
M  V30 36947 H 4608.87 -3.41169 -7.98575 0
M  V30 36948 H 4609.14 -2.58295 -6.41556 0
M  V30 36949 H 4608.28 -5.02657 -6.42673 0
M  V30 36950 H 4605.62 -4.11637 -4.08885 0
M  V30 36951 H 4605.34 -2.49626 -6.61679 0
M  V30 36952 H 4604.35 -3.86566 -6.00778 0
M  V30 36953 H 4606.18 -4.29943 -7.96918 0
M  V30 36954 H 4606.25 -1.00937 -6.00374 0
M  V30 36955 P 4604.31 -6.144 -6.45285 0
M  V30 36956 O 4604.09 -7.54673 -6.86199 0
M  V30 36957 O 4603.52 -5.12391 -7.179 0
M  V30 36958 O 4604.06 -5.99158 -4.88404 0
M  V30 36959 C 4605 -6.60234 -3.96415 0
M  V30 36960 C 4604.27 -7.08259 -2.72856 0
M  V30 36961 O 4604.06 -5.9427 -1.83651 0
M  V30 36962 C 4602.87 -7.64886 -2.9555 0
M  V30 36963 O 4602.48 -8.53963 -1.90717 0
M  V30 36964 C 4601.99 -6.4116 -2.90739 0
M  V30 36965 C 4602.7 -5.55375 -1.86963 0
M  V30 36966 N 4602.65 -4.09664 -2.15742 0
M  V30 36967 H 4605.49 -7.45574 -4.45629 0
M  V30 36968 H 4605.76 -5.86232 -3.67314 0
M  V30 36969 H 4604.9 -7.84412 -2.24479 0
M  V30 36970 P 4600.93 -8.7635 -1.60911 0
M  V30 36971 O 4600.71 -10.1388 -1.11561 0
M  V30 36972 O 4600.14 -8.36503 -2.79617 0
M  V30 36973 O 4600.68 -7.71806 -0.42951 0
M  V30 36974 C 4601.62 -7.67148 0.673689 0
M  V30 36975 C 4600.89 -7.33374 1.95559 0
M  V30 36976 O 4600.68 -5.88721 2.00726 0
M  V30 36977 C 4599.49 -7.92526 2.10483 0
M  V30 36978 O 4599.1 -8.02971 3.47653 0
M  V30 36979 C 4598.61 -6.89602 1.41652 0
M  V30 36980 C 4599.32 -5.59201 1.75185 0
M  V30 36981 N 4599.27 -4.58235 0.662552 0
M  V30 36982 H 4602.11 -8.65116 0.777161 0
M  V30 36983 H 4602.38 -6.90173 0.474152 0
M  V30 36984 H 4601.52 -7.66548 2.79458 0
M  V30 36985 P 4597.55 -8.03563 3.84925 0
M  V30 36986 O 4597.33 -8.85821 5.0569 0
M  V30 36987 O 4596.76 -8.41101 2.65469 0
M  V30 36988 O 4597.3 -6.49734 4.18962 0
M  V30 36989 C 4598.24 -5.81037 5.05421 0
M  V30 36990 C 4597.51 -4.79018 5.88876 0
M  V30 36991 O 4597.3 -3.58359 5.08515 0
M  V30 36992 C 4596.11 -5.17448 6.36119 0
M  V30 36993 O 4595.72 -4.45322 7.53318 0
M  V30 36994 C 4595.23 -4.74639 5.19936 0
M  V30 36995 C 4595.94 -3.49432 4.70418 0
M  V30 36996 N 4595.89 -3.31776 3.22945 0
M  V30 36997 C 4595.74 -2.02742 2.72939 0
M  V30 36998 O 4595.65 -1.08301 3.52749 0
M  V30 36999 N 4595.69 -1.96117 1.22063 0
M  V30 37000 C 4595.79 -2.8878 0.551566 0
M  V30 37001 N 4595.74 -2.65609 -0.750198 0
M  V30 37002 C 4595.94 -4.22457 1.03707 0
M  V30 37003 C 4595.99 -4.37979 2.39113 0
M  V30 37004 H 4598.73 -6.54138 5.7131 0
M  V30 37005 H 4599 -5.30492 4.44033 0
M  V30 37006 H 4598.14 -4.55945 6.76735 0
M  V30 37007 H 4595.48 -2.6176 5.18021 0
M  V30 37008 H 4595.2 -5.52233 4.41941 0
M  V30 37009 H 4594.21 -4.52045 5.53452 0
M  V30 37010 H 4596.04 -6.25124 6.55234 0
M  V30 37011 H 4596.12 -5.37936 2.80552 0
M  V30 37012 H 4596.01 -5.07528 0.359553 0
M  V30 37013 H 4595.63 -1.69403 -1.09847 0
M  V30 37014 H 4595.82 -3.43701 -1.41792 0
M  V30 37015 P 4594.17 -4.23843 7.83734 0
M  V30 37016 O 4593.95 -4.19407 9.29784 0
M  V30 37017 O 4593.38 -5.24426 7.09156 0
M  V30 37018 O 4593.92 -2.7935 7.20758 0
M  V30 37019 C 4594.86 -1.7299 7.50419 0
M  V30 37020 C 4594.13 -0.406376 7.57911 0
M  V30 37021 O 4593.92 0.0897726 6.21935 0
M  V30 37022 C 4592.73 -0.447224 8.1878 0
M  V30 37023 O 4592.34 0.825065 8.71101 0
M  V30 37024 C 4591.85 -0.783801 6.99623 0
M  V30 37025 C 4592.56 -0.0619192 5.85967 0
M  V30 37026 N 4592.51 -0.790462 4.56202 0
M  V30 37027 H 4595.35 -1.93423 8.4679 0
M  V30 37028 H 4595.62 -1.68852 6.70877 0
M  V30 37029 H 4594.76 0.289041 8.15388 0
M  V30 37030 H 4592.1 0.927006 5.72848 0
M  V30 37031 H 4591.82 -1.86973 6.82036 0
M  V30 37032 H 4590.83 -0.403953 7.13357 0
M  V30 37033 H 4592.66 -1.20599 8.97534 0
M  V30 37034 P 4590.79 1.17771 8.83182 0
M  V30 37035 O 4590.57 2.07206 9.98732 0
M  V30 37036 O 4590 -0.0743816 8.81969 0
M  V30 37037 O 4590.54 1.97652 7.47304 0
M  V30 37038 C 4591.48 3.01133 7.08783 0
M  V30 37039 C 4590.75 4.12613 6.37049 0
M  V30 37040 O 4590.54 3.72827 4.97879 0
M  V30 37041 C 4589.35 4.45085 6.88694 0
M  V30 37042 O 4588.96 5.7877 6.5624 0
M  V30 37043 C 4588.47 3.47817 6.12078 0
M  V30 37044 C 4589.18 3.39414 4.77697 0
M  V30 37045 N 4589.13 2.04199 4.15538 0
M  V30 37046 H 4591.97 3.41248 7.98759 0
M  V30 37047 H 4592.24 2.57728 6.42 0
M  V30 37048 H 4591.38 5.02657 6.42673 0
M  V30 37049 H 4588.72 4.11708 4.08956 0
M  V30 37050 H 4588.44 2.49626 6.61679 0
M  V30 37051 H 4587.45 3.8662 6.00862 0
M  V30 37052 H 4589.28 4.29991 7.97006 0
M  V30 37053 P 4587.41 6.144 6.45285 0
M  V30 37054 O 4587.19 7.54673 6.86199 0
M  V30 37055 O 4586.62 5.12391 7.179 0
M  V30 37056 O 4587.16 5.99158 4.88404 0
M  V30 37057 C 4588.1 6.60234 3.96415 0
M  V30 37058 C 4587.37 7.08259 2.72856 0
M  V30 37059 O 4587.16 5.9427 1.83651 0
M  V30 37060 C 4585.97 7.64886 2.9555 0
M  V30 37061 O 4585.58 8.53963 1.90717 0
M  V30 37062 C 4585.09 6.4116 2.90739 0
M  V30 37063 C 4585.8 5.55375 1.86963 0
M  V30 37064 N 4585.75 4.09664 2.15742 0
M  V30 37065 H 4588.59 7.45574 4.45629 0
M  V30 37066 H 4588.86 5.86232 3.67314 0
M  V30 37067 H 4588 7.84412 2.24479 0
M  V30 37068 P 4584.03 8.7635 1.60911 0
M  V30 37069 O 4583.81 10.1388 1.11561 0
M  V30 37070 O 4583.24 8.36503 2.79617 0
M  V30 37071 O 4583.78 7.71806 0.42951 0
M  V30 37072 C 4584.72 7.66948 -0.673514 0
M  V30 37073 C 4583.99 7.33374 -1.95559 0
M  V30 37074 O 4583.78 5.88721 -2.00726 0
M  V30 37075 C 4582.59 7.92218 -2.1125 0
M  V30 37076 O 4582.2 8.02971 -3.47653 0
M  V30 37077 C 4581.71 6.89504 -1.41631 0
M  V30 37078 C 4582.42 5.59106 -1.75155 0
M  V30 37079 N 4582.37 4.58136 -0.662409 0
M  V30 37080 C 4582.22 3.26059 -1.02863 0
M  V30 37081 O 4582.13 2.90743 -2.19009 0
M  V30 37082 N 4582.18 2.35995 0.0155585 0
M  V30 37083 C 4582.27 2.65248 1.35603 0
M  V30 37084 C 4582.42 4.05747 1.64698 0
M  V30 37085 C 4582.47 4.96734 0.652411 0
M  V30 37086 H 4585.21 8.64917 -0.776982 0
M  V30 37087 H 4585.48 6.89974 -0.474015 0
M  V30 37088 H 4584.62 7.66548 -2.79458 0
M  V30 37089 H 4581.96 5.16076 -2.65138 0
M  V30 37090 H 4581.68 7.06433 -0.329384 0
M  V30 37091 H 4580.69 6.90829 -1.81996 0
M  V30 37092 H 4582.52 8.90774 -1.62639 0
M  V30 37093 H 4582.59 6.02181 0.895285 0
M  V30 37094 P 4580.65 8.03563 -3.84925 0
M  V30 37095 O 4580.43 8.85821 -5.0569 0
M  V30 37096 O 4579.86 8.41101 -2.65469 0
M  V30 37097 O 4580.4 6.4965 -4.18908 0
M  V30 37098 C 4581.34 5.81037 -5.05421 0
M  V30 37099 C 4580.61 4.78366 -5.89277 0
M  V30 37100 O 4580.4 3.58302 -5.08433 0
M  V30 37101 C 4579.21 5.17448 -6.36119 0
M  V30 37102 O 4578.82 4.45271 -7.53232 0
M  V30 37103 C 4578.33 4.74639 -5.19936 0
M  V30 37104 C 4579.04 3.49432 -4.70418 0
M  V30 37105 N 4578.99 3.32099 -3.22613 0
M  V30 37106 C 4579.07 4.28245 -2.25527 0
M  V30 37107 N 4579 3.80823 -1.04874 0
M  V30 37108 C 4578.85 2.44571 -1.23535 0
M  V30 37109 C 4578.72 1.37068 -0.330675 0
M  V30 37110 N 4578.71 1.51472 0.990824 0
M  V30 37111 N 4578.6 0.138614 -0.848756 0
M  V30 37112 C 4578.61 -0.00675923 -2.16999 0
M  V30 37113 N 4578.73 0.904372 -3.11122 0
M  V30 37114 C 4578.85 2.12707 -2.56212 0
M  V30 37115 H 4581.83 6.54213 -5.71376 0
M  V30 37116 H 4582.1 5.30936 -4.43503 0
M  V30 37117 H 4581.24 4.55889 -6.76652 0
M  V30 37118 H 4578.58 2.61715 -5.17932 0
M  V30 37119 H 4578.3 5.52155 -4.41878 0
M  V30 37120 H 4577.31 4.51981 -5.53374 0
M  V30 37121 H 4579.14 6.25124 -6.55234 0
M  V30 37122 H 4579.18 5.34372 -2.47488 0
M  V30 37123 H 4578.8 2.45153 1.4078 0
M  V30 37124 H 4578.61 0.688422 1.59911 0
M  V30 37125 H 4578.51 -1.02584 -2.52346 0
M  V30 37126 P 4577.27 4.23843 -7.83734 0
M  V30 37127 O 4577.05 4.19407 -9.29784 0
M  V30 37128 O 4576.48 5.24426 -7.09156 0
M  V30 37129 O 4577.02 2.7935 -7.20758 0
M  V30 37130 C 4577.96 1.7299 -7.50419 0
M  V30 37131 C 4577.23 0.406376 -7.57911 0
M  V30 37132 O 4577.02 -0.0897726 -6.21935 0
M  V30 37133 C 4575.83 0.447224 -8.1878 0
M  V30 37134 O 4575.44 -0.825065 -8.71101 0
M  V30 37135 C 4574.95 0.783801 -6.99623 0
M  V30 37136 C 4575.66 0.0619192 -5.85967 0
M  V30 37137 N 4575.61 0.7859 -4.56281 0
M  V30 37138 H 4578.45 1.93423 -8.4679 0
M  V30 37139 H 4578.72 1.68181 -6.71046 0
M  V30 37140 H 4577.86 -0.289041 -8.15388 0
M  V30 37141 P 4573.89 -1.17771 -8.83182 0
M  V30 37142 O 4573.67 -2.07206 -9.98732 0
M  V30 37143 O 4573.1 0.0743816 -8.81969 0
M  V30 37144 O 4573.64 -1.97652 -7.47304 0
M  V30 37145 C 4574.58 -3.01133 -7.08783 0
M  V30 37146 C 4573.85 -4.12613 -6.37049 0
M  V30 37147 O 4573.64 -3.72827 -4.97879 0
M  V30 37148 C 4572.45 -4.45085 -6.88694 0
M  V30 37149 O 4572.06 -5.7877 -6.5624 0
M  V30 37150 C 4571.57 -3.47817 -6.12078 0
M  V30 37151 C 4572.28 -3.39414 -4.77697 0
M  V30 37152 N 4572.23 -2.04615 -4.15333 0
M  V30 37153 H 4575.07 -3.41248 -7.98759 0
M  V30 37154 H 4575.34 -2.5837 -6.41742 0
M  V30 37155 H 4574.48 -5.02657 -6.42673 0
M  V30 37156 P 4570.51 -6.144 -6.45285 0
M  V30 37157 O 4570.29 -7.54673 -6.86199 0
M  V30 37158 O 4569.72 -5.12391 -7.179 0
M  V30 37159 O 4570.26 -5.99158 -4.88404 0
M  V30 37160 C 4571.2 -6.60234 -3.96415 0
M  V30 37161 C 4570.47 -7.08259 -2.72856 0
M  V30 37162 O 4570.26 -5.9427 -1.83651 0
M  V30 37163 C 4569.07 -7.64886 -2.9555 0
M  V30 37164 O 4568.68 -8.53963 -1.90717 0
M  V30 37165 C 4568.19 -6.4116 -2.90739 0
M  V30 37166 C 4568.9 -5.55375 -1.86963 0
M  V30 37167 N 4568.85 -4.09448 -2.16152 0
M  V30 37168 H 4571.69 -7.45574 -4.45629 0
M  V30 37169 H 4571.96 -5.85864 -3.679 0
M  V30 37170 H 4571.1 -7.84412 -2.24479 0
M  V30 37171 H 4568.44 -5.73457 -0.888562 0
M  V30 37172 H 4568.16 -5.90877 -3.88583 0
M  V30 37173 H 4567.17 -6.6596 -2.58858 0
M  V30 37174 H 4569 -8.16339 -3.92049 0
M  V30 37175 P 4567.13 -8.7635 -1.60911 0
M  V30 37176 O 4566.91 -10.1388 -1.11561 0
M  V30 37177 O 4566.34 -8.36503 -2.79617 0
M  V30 37178 O 4566.88 -7.71806 -0.42951 0
M  V30 37179 C 4567.82 -7.67148 0.673689 0
M  V30 37180 C 4567.09 -7.33374 1.95559 0
M  V30 37181 O 4566.88 -5.88721 2.00726 0
M  V30 37182 C 4565.69 -7.92526 2.10483 0
M  V30 37183 O 4565.3 -8.02971 3.47653 0
M  V30 37184 C 4564.81 -6.89602 1.41652 0
M  V30 37185 C 4565.52 -5.59201 1.75185 0
M  V30 37186 N 4565.47 -4.58235 0.662552 0
M  V30 37187 H 4568.31 -8.65116 0.777161 0
M  V30 37188 H 4568.58 -6.90173 0.474152 0
M  V30 37189 H 4567.72 -7.66548 2.79458 0
M  V30 37190 P 4563.75 -8.03563 3.84925 0
M  V30 37191 O 4563.53 -8.85821 5.0569 0
M  V30 37192 O 4562.96 -8.41101 2.65469 0
M  V30 37193 O 4563.5 -6.4965 4.18908 0
M  V30 37194 C 4564.44 -5.81037 5.05421 0
M  V30 37195 C 4563.71 -4.78366 5.89277 0
M  V30 37196 O 4563.5 -3.58302 5.08433 0
M  V30 37197 C 4562.31 -5.17448 6.36119 0
M  V30 37198 O 4561.92 -4.45271 7.53232 0
M  V30 37199 C 4561.43 -4.74639 5.19936 0
M  V30 37200 C 4562.14 -3.49432 4.70418 0
M  V30 37201 N 4562.09 -3.31776 3.22945 0
M  V30 37202 H 4564.93 -6.54213 5.71376 0
M  V30 37203 H 4565.2 -5.30492 4.44033 0
M  V30 37204 H 4564.34 -4.55889 6.76652 0
M  V30 37205 P 4560.37 -4.23843 7.83734 0
M  V30 37206 O 4560.15 -4.19407 9.29784 0
M  V30 37207 O 4559.58 -5.24426 7.09156 0
M  V30 37208 O 4560.12 -2.7935 7.20758 0
M  V30 37209 C 4561.06 -1.7299 7.50419 0
M  V30 37210 C 4560.33 -0.406376 7.57911 0
M  V30 37211 O 4560.12 0.0897726 6.21935 0
M  V30 37212 C 4558.93 -0.447224 8.1878 0
M  V30 37213 O 4558.54 0.825065 8.71101 0
M  V30 37214 C 4558.05 -0.783801 6.99623 0
M  V30 37215 C 4558.76 -0.0619192 5.85967 0
M  V30 37216 N 4558.71 -0.790462 4.56202 0
M  V30 37217 H 4561.55 -1.93423 8.4679 0
M  V30 37218 H 4561.82 -1.68852 6.70877 0
M  V30 37219 H 4560.96 0.289041 8.15388 0
M  V30 37220 H 4558.3 0.927006 5.72848 0
M  V30 37221 H 4558.02 -1.86973 6.82036 0
M  V30 37222 H 4557.03 -0.403953 7.13357 0
M  V30 37223 H 4558.86 -1.20599 8.97534 0
M  V30 37224 P 4556.99 1.17771 8.83182 0
M  V30 37225 O 4556.77 2.07206 9.98732 0
M  V30 37226 O 4556.2 -0.0743816 8.81969 0
M  V30 37227 O 4556.74 1.97652 7.47304 0
M  V30 37228 C 4557.68 3.01133 7.08783 0
M  V30 37229 C 4556.95 4.12613 6.37049 0
M  V30 37230 O 4556.74 3.72827 4.97879 0
M  V30 37231 C 4555.55 4.45085 6.88694 0
M  V30 37232 O 4555.16 5.7877 6.5624 0
M  V30 37233 C 4554.67 3.47817 6.12078 0
M  V30 37234 C 4555.38 3.39414 4.77697 0
M  V30 37235 N 4555.33 2.04199 4.15538 0
M  V30 37236 H 4558.17 3.41248 7.98759 0
M  V30 37237 H 4558.44 2.57728 6.42 0
M  V30 37238 H 4557.58 5.02657 6.42673 0
M  V30 37239 H 4554.92 4.11708 4.08956 0
M  V30 37240 H 4554.64 2.49626 6.61679 0
M  V30 37241 H 4553.65 3.8662 6.00862 0
M  V30 37242 H 4555.48 4.29991 7.97006 0
M  V30 37243 P 4553.61 6.144 6.45285 0
M  V30 37244 O 4553.39 7.54673 6.86199 0
M  V30 37245 O 4552.82 5.12391 7.179 0
M  V30 37246 O 4553.36 5.99158 4.88404 0
M  V30 37247 C 4554.3 6.60234 3.96415 0
M  V30 37248 C 4553.57 7.08259 2.72856 0
M  V30 37249 O 4553.36 5.9427 1.83651 0
M  V30 37250 C 4552.17 7.64886 2.9555 0
M  V30 37251 O 4551.78 8.53963 1.90717 0
M  V30 37252 C 4551.29 6.4116 2.90739 0
M  V30 37253 C 4552 5.55375 1.86963 0
M  V30 37254 N 4551.95 4.09448 2.16152 0
M  V30 37255 H 4554.79 7.45574 4.45629 0
M  V30 37256 H 4555.06 5.85864 3.679 0
M  V30 37257 H 4554.2 7.84412 2.24479 0
M  V30 37258 H 4551.54 5.73457 0.888562 0
M  V30 37259 H 4551.26 5.90877 3.88583 0
M  V30 37260 H 4550.27 6.6596 2.58858 0
M  V30 37261 H 4552.1 8.16339 3.92049 0
M  V30 37262 P 4550.23 8.7635 1.60911 0
M  V30 37263 O 4550.01 10.1388 1.11561 0
M  V30 37264 O 4549.44 8.36503 2.79617 0
M  V30 37265 O 4549.98 7.71806 0.42951 0
M  V30 37266 C 4550.92 7.67148 -0.673689 0
M  V30 37267 C 4550.19 7.33374 -1.95559 0
M  V30 37268 O 4549.98 5.88721 -2.00726 0
M  V30 37269 C 4548.79 7.92526 -2.10483 0
M  V30 37270 O 4548.4 8.02971 -3.47653 0
M  V30 37271 C 4547.91 6.89602 -1.41652 0
M  V30 37272 C 4548.62 5.59201 -1.75185 0
M  V30 37273 N 4548.57 4.58301 -0.657969 0
M  V30 37274 H 4551.41 8.65116 -0.777161 0
M  V30 37275 H 4551.68 6.9022 -0.46725 0
M  V30 37276 H 4550.82 7.66548 -2.79458 0
M  V30 37277 H 4548.16 5.16165 -2.65183 0
M  V30 37278 H 4547.88 7.06433 -0.329384 0
M  V30 37279 H 4546.89 6.90926 -1.82021 0
M  V30 37280 H 4548.72 8.90873 -1.62657 0
M  V30 37281 P 4546.85 8.03563 -3.84925 0
M  V30 37282 O 4546.63 8.85821 -5.0569 0
M  V30 37283 O 4546.06 8.41101 -2.65469 0
M  V30 37284 O 4546.6 6.4965 -4.18908 0
M  V30 37285 C 4547.54 5.81037 -5.05421 0
M  V30 37286 C 4546.81 4.78366 -5.89277 0
M  V30 37287 O 4546.6 3.58302 -5.08433 0
M  V30 37288 C 4545.41 5.17448 -6.36119 0
M  V30 37289 O 4545.02 4.45271 -7.53232 0
M  V30 37290 C 4544.53 4.74639 -5.19936 0
M  V30 37291 C 4545.24 3.49432 -4.70418 0
M  V30 37292 N 4545.19 3.31776 -3.22945 0
M  V30 37293 H 4548.03 6.54213 -5.71376 0
M  V30 37294 H 4548.3 5.30492 -4.44033 0
M  V30 37295 H 4547.44 4.55889 -6.76652 0
M  V30 37296 P 4543.47 4.23843 -7.83734 0
M  V30 37297 O 4543.25 4.19407 -9.29784 0
M  V30 37298 O 4542.68 5.24426 -7.09156 0
M  V30 37299 O 4543.22 2.7935 -7.20758 0
M  V30 37300 C 4544.16 1.7299 -7.50419 0
M  V30 37301 C 4543.43 0.406376 -7.57911 0
M  V30 37302 O 4543.22 -0.0897726 -6.21935 0
M  V30 37303 C 4542.03 0.447224 -8.1878 0
M  V30 37304 O 4541.64 -0.825065 -8.71101 0
M  V30 37305 C 4541.15 0.783801 -6.99623 0
M  V30 37306 C 4541.86 0.0619192 -5.85967 0
M  V30 37307 N 4541.81 0.7859 -4.56281 0
M  V30 37308 H 4544.65 1.93423 -8.4679 0
M  V30 37309 H 4544.92 1.68181 -6.71046 0
M  V30 37310 H 4544.06 -0.289041 -8.15388 0
M  V30 37311 P 4540.09 -1.17771 -8.83182 0
M  V30 37312 O 4539.87 -2.07206 -9.98732 0
M  V30 37313 O 4539.3 0.0743816 -8.81969 0
M  V30 37314 O 4539.84 -1.97652 -7.47304 0
M  V30 37315 C 4540.78 -3.01133 -7.08783 0
M  V30 37316 C 4540.05 -4.12613 -6.37049 0
M  V30 37317 O 4539.84 -3.72827 -4.97879 0
M  V30 37318 C 4538.65 -4.45085 -6.88694 0
M  V30 37319 O 4538.26 -5.7877 -6.5624 0
M  V30 37320 C 4537.77 -3.47817 -6.12078 0
M  V30 37321 C 4538.48 -3.39414 -4.77697 0
M  V30 37322 N 4538.43 -2.04615 -4.15333 0
M  V30 37323 H 4541.27 -3.41248 -7.98759 0
M  V30 37324 H 4541.54 -2.5837 -6.41742 0
M  V30 37325 H 4540.68 -5.02657 -6.42673 0
M  V30 37326 P 4536.71 -6.144 -6.45285 0
M  V30 37327 O 4536.49 -7.54673 -6.86199 0
M  V30 37328 O 4535.92 -5.12391 -7.179 0
M  V30 37329 O 4536.46 -5.99158 -4.88404 0
M  V30 37330 C 4537.4 -6.60234 -3.96415 0
M  V30 37331 C 4536.67 -7.08259 -2.72856 0
M  V30 37332 O 4536.46 -5.9427 -1.83651 0
M  V30 37333 C 4535.27 -7.64886 -2.9555 0
M  V30 37334 O 4534.88 -8.53963 -1.90717 0
M  V30 37335 C 4534.39 -6.4116 -2.90739 0
M  V30 37336 C 4535.1 -5.55375 -1.86963 0
M  V30 37337 N 4535.05 -4.09448 -2.16152 0
M  V30 37338 H 4537.89 -7.45574 -4.45629 0
M  V30 37339 H 4538.16 -5.85864 -3.679 0
M  V30 37340 H 4537.3 -7.84412 -2.24479 0
M  V30 37341 H 4534.64 -5.73457 -0.888562 0
M  V30 37342 H 4534.36 -5.90877 -3.88583 0
M  V30 37343 H 4533.37 -6.6596 -2.58858 0
M  V30 37344 H 4535.2 -8.16339 -3.92049 0
M  V30 37345 P 4533.33 -8.7635 -1.60911 0
M  V30 37346 O 4533.11 -10.1388 -1.11561 0
M  V30 37347 O 4532.54 -8.36503 -2.79617 0
M  V30 37348 O 4533.08 -7.71806 -0.42951 0
M  V30 37349 C 4534.02 -7.67148 0.673689 0
M  V30 37350 C 4533.29 -7.33374 1.95559 0
M  V30 37351 O 4533.08 -5.88721 2.00726 0
M  V30 37352 C 4531.89 -7.92526 2.10483 0
M  V30 37353 O 4531.5 -8.02971 3.47653 0
M  V30 37354 C 4531.01 -6.89602 1.41652 0
M  V30 37355 C 4531.72 -5.59201 1.75185 0
M  V30 37356 N 4531.67 -4.58235 0.662552 0
M  V30 37357 H 4534.51 -8.65116 0.777161 0
M  V30 37358 H 4534.78 -6.90173 0.474152 0
M  V30 37359 H 4533.92 -7.66548 2.79458 0
M  V30 37360 P 4529.95 -8.03563 3.84925 0
M  V30 37361 O 4529.73 -8.85821 5.0569 0
M  V30 37362 O 4529.16 -8.41101 2.65469 0
M  V30 37363 O 4529.7 -6.4965 4.18908 0
M  V30 37364 C 4530.64 -5.81037 5.05421 0
M  V30 37365 C 4529.91 -4.78366 5.89277 0
M  V30 37366 O 4529.7 -3.58302 5.08433 0
M  V30 37367 C 4528.51 -5.17448 6.36119 0
M  V30 37368 O 4528.12 -4.45271 7.53232 0
M  V30 37369 C 4527.63 -4.74639 5.19936 0
M  V30 37370 C 4528.34 -3.49432 4.70418 0
M  V30 37371 N 4528.29 -3.31776 3.22945 0
M  V30 37372 H 4531.13 -6.54213 5.71376 0
M  V30 37373 H 4531.4 -5.30492 4.44033 0
M  V30 37374 H 4530.54 -4.55889 6.76652 0
M  V30 37375 P 4526.57 -4.23843 7.83734 0
M  V30 37376 O 4526.35 -4.19407 9.29784 0
M  V30 37377 O 4525.78 -5.24426 7.09156 0
M  V30 37378 O 4526.32 -2.7935 7.20758 0
M  V30 37379 C 4527.26 -1.7299 7.50419 0
M  V30 37380 C 4526.53 -0.406376 7.57911 0
M  V30 37381 O 4526.32 0.0897726 6.21935 0
M  V30 37382 C 4525.13 -0.447224 8.1878 0
M  V30 37383 O 4524.74 0.825065 8.71101 0
M  V30 37384 C 4524.25 -0.783801 6.99623 0
M  V30 37385 C 4524.96 -0.0619192 5.85967 0
M  V30 37386 N 4524.91 -0.7859 4.56281 0
M  V30 37387 C 4524.99 -2.14308 4.31736 0
M  V30 37388 N 4524.91 -2.46106 3.05116 0
M  V30 37389 C 4524.77 -1.23422 2.4014 0
M  V30 37390 C 4524.64 -0.938381 1.02409 0
M  V30 37391 O 4524.62 -1.70876 0.0650402 0
M  V30 37392 N 4524.52 0.444647 0.805413 0
M  V30 37393 C 4524.52 1.40829 1.79435 0
M  V30 37394 N 4524.39 2.67213 1.38558 0
M  V30 37395 N 4524.65 1.12947 3.09005 0
M  V30 37396 C 4524.77 -0.204887 3.32369 0
M  V30 37397 H 4527.75 -1.93423 8.4679 0
M  V30 37398 H 4528.02 -1.68181 6.71046 0
M  V30 37399 H 4527.16 0.289041 8.15388 0
M  V30 37400 H 4524.5 0.927166 5.72947 0
M  V30 37401 H 4524.22 -1.87 6.82132 0
M  V30 37402 H 4523.23 -0.404009 7.13457 0
M  V30 37403 H 4525.06 -1.20612 8.97633 0
M  V30 37404 H 4525.11 -2.88284 5.10874 0
M  V30 37405 H 4524.43 0.755087 -0.140242 0
M  V30 37406 H 4524.39 3.43967 2.0729 0
M  V30 37407 H 4524.29 2.88096 0.380644 0
M  V30 37408 P 4523.19 1.17771 8.83182 0
M  V30 37409 O 4522.97 2.07206 9.98732 0
M  V30 37410 O 4522.4 -0.0743816 8.81969 0
M  V30 37411 O 4522.94 1.97652 7.47304 0
M  V30 37412 C 4523.88 3.01055 7.08599 0
M  V30 37413 C 4523.15 4.12613 6.37049 0
M  V30 37414 O 4522.94 3.72827 4.97879 0
M  V30 37415 C 4521.75 4.45719 6.88164 0
M  V30 37416 O 4521.36 5.7877 6.5624 0
M  V30 37417 C 4520.87 3.47768 6.11991 0
M  V30 37418 C 4521.58 3.39356 4.77615 0
M  V30 37419 N 4521.53 2.04571 4.15244 0
M  V30 37420 C 4521.38 1.98587 2.78314 0
M  V30 37421 O 4521.29 2.98134 2.08835 0
M  V30 37422 N 4521.34 0.714467 2.24925 0
M  V30 37423 C 4521.43 -0.470001 2.94169 0
M  V30 37424 O 4521.38 -1.55587 2.35195 0
M  V30 37425 C 4521.58 -0.312541 4.36783 0
M  V30 37426 C 4521.69 -1.57711 5.16352 0
M  V30 37427 C 4521.63 0.914512 4.92583 0
M  V30 37428 H 4524.37 3.41169 7.98575 0
M  V30 37429 H 4524.64 2.58295 6.41556 0
M  V30 37430 H 4523.78 5.02657 6.42673 0
M  V30 37431 H 4521.12 4.11637 4.08885 0
M  V30 37432 H 4520.84 2.49626 6.61679 0
M  V30 37433 H 4519.85 3.86566 6.00778 0
M  V30 37434 H 4521.68 4.29943 7.96918 0
M  V30 37435 H 4521.76 1.00937 6.00374 0
M  V30 37436 H 4520.73 -1.80153 5.63503 0
M  V30 37437 H 4522.46 -1.4566 5.94104 0
M  V30 37438 H 4521.97 -2.40664 4.49645 0
M  V30 37439 H 4521.24 0.647622 1.25697 0
M  V30 37440 P 4519.81 6.144 6.45285 0
M  V30 37441 O 4519.59 7.54673 6.86199 0
M  V30 37442 O 4519.02 5.12391 7.179 0
M  V30 37443 O 4519.56 5.99158 4.88404 0
M  V30 37444 C 4520.5 6.60062 3.96313 0
M  V30 37445 C 4519.77 7.08259 2.72856 0
M  V30 37446 O 4519.56 5.9427 1.83651 0
M  V30 37447 C 4518.37 7.65087 2.94749 0
M  V30 37448 O 4517.98 8.53963 1.90717 0
M  V30 37449 C 4517.49 6.41069 2.90698 0
M  V30 37450 C 4518.2 5.5528 1.86931 0
M  V30 37451 N 4518.15 4.09575 2.15696 0
M  V30 37452 C 4518 3.24249 1.08435 0
M  V30 37453 O 4517.91 3.63946 -0.0628747 0
M  V30 37454 N 4517.96 1.90009 1.39973 0
M  V30 37455 C 4518.05 1.34884 2.65614 0
M  V30 37456 C 4518.2 2.3145 3.71736 0
M  V30 37457 C 4518.25 3.63518 3.44754 0
M  V30 37458 H 4520.99 7.45402 4.45526 0
M  V30 37459 H 4521.26 5.86062 3.67208 0
M  V30 37460 H 4520.4 7.84412 2.24479 0
M  V30 37461 H 4517.74 5.73358 0.888409 0
M  V30 37462 H 4517.46 5.90877 3.88583 0
M  V30 37463 H 4516.47 6.65867 2.58821 0
M  V30 37464 H 4518.3 8.16248 3.92006 0
M  V30 37465 H 4518.38 4.34551 4.26383 0
M  V30 37466 P 4516.43 8.7635 1.60911 0
M  V30 37467 O 4516.21 10.1388 1.11561 0
M  V30 37468 O 4515.64 8.36503 2.79617 0
M  V30 37469 O 4516.18 7.71806 0.42951 0
M  V30 37470 C 4517.12 7.67148 -0.673689 0
M  V30 37471 C 4516.39 7.33374 -1.95559 0
M  V30 37472 O 4516.18 5.88721 -2.00726 0
M  V30 37473 C 4514.99 7.92526 -2.10483 0
M  V30 37474 O 4514.6 8.02971 -3.47653 0
M  V30 37475 C 4514.11 6.89602 -1.41652 0
M  V30 37476 C 4514.82 5.59201 -1.75185 0
M  V30 37477 N 4514.77 4.58235 -0.662552 0
M  V30 37478 H 4517.61 8.65116 -0.777161 0
M  V30 37479 H 4517.88 6.90173 -0.474152 0
M  V30 37480 H 4517.02 7.66548 -2.79458 0
M  V30 37481 P 4513.05 8.03563 -3.84925 0
M  V30 37482 O 4512.83 8.85821 -5.0569 0
M  V30 37483 O 4512.26 8.41101 -2.65469 0
M  V30 37484 O 4512.8 6.4965 -4.18908 0
M  V30 37485 C 4513.74 5.80886 -5.05289 0
M  V30 37486 C 4513.01 4.78366 -5.89277 0
M  V30 37487 O 4512.8 3.58302 -5.08433 0
M  V30 37488 C 4511.61 5.16748 -6.36559 0
M  V30 37489 O 4511.22 4.45271 -7.53232 0
M  V30 37490 C 4510.73 4.74572 -5.19863 0
M  V30 37491 C 4511.44 3.49373 -4.70338 0
M  V30 37492 N 4511.39 3.31704 -3.22876 0
M  V30 37493 C 4511.24 2.03326 -2.74871 0
M  V30 37494 O 4511.15 1.06486 -3.48076 0
M  V30 37495 N 4511.2 1.91838 -1.37456 0
M  V30 37496 C 4511.29 2.94295 -0.462035 0
M  V30 37497 O 4511.24 2.71763 0.752928 0
M  V30 37498 C 4511.44 4.25064 -1.05249 0
M  V30 37499 C 4511.55 5.39815 -0.095697 0
M  V30 37500 C 4511.49 4.40214 -2.39192 0
M  V30 37501 H 4514.23 6.54063 -5.71245 0
M  V30 37502 H 4514.5 5.30339 -4.43905 0
M  V30 37503 H 4513.64 4.55889 -6.76652 0
M  V30 37504 H 4510.98 2.6167 -5.17842 0
M  V30 37505 H 4510.7 5.52155 -4.41878 0
M  V30 37506 H 4509.71 4.51918 -5.53297 0
M  V30 37507 H 4511.54 6.25055 -6.55162 0
M  V30 37508 H 4511.62 5.39798 -2.81523 0
M  V30 37509 H 4510.59 5.91593 -0.0279582 0
M  V30 37510 H 4512.32 6.10038 -0.450573 0
M  V30 37511 H 4511.83 5.02007 0.89937 0
M  V30 37512 H 4511.1 0.995326 -1.00435 0
M  V30 37513 P 4509.67 4.23843 -7.83734 0
M  V30 37514 O 4509.45 4.19407 -9.29784 0
M  V30 37515 O 4508.88 5.24426 -7.09156 0
M  V30 37516 O 4509.42 2.7935 -7.20758 0
M  V30 37517 C 4510.36 1.7299 -7.50419 0
M  V30 37518 C 4509.63 0.406376 -7.57911 0
M  V30 37519 O 4509.42 -0.0897726 -6.21935 0
M  V30 37520 C 4508.23 0.447224 -8.1878 0
M  V30 37521 O 4507.84 -0.825065 -8.71101 0
M  V30 37522 C 4507.35 0.783801 -6.99623 0
M  V30 37523 C 4508.06 0.0619192 -5.85967 0
M  V30 37524 N 4508.01 0.7859 -4.56281 0
M  V30 37525 H 4510.85 1.93423 -8.4679 0
M  V30 37526 H 4511.12 1.68181 -6.71046 0
M  V30 37527 H 4510.26 -0.289041 -8.15388 0
M  V30 37528 P 4506.29 -1.17771 -8.83182 0
M  V30 37529 O 4506.07 -2.07206 -9.98732 0
M  V30 37530 O 4505.5 0.0743816 -8.81969 0
M  V30 37531 O 4506.04 -1.97652 -7.47304 0
M  V30 37532 C 4506.98 -3.01133 -7.08783 0
M  V30 37533 C 4506.25 -4.12613 -6.37049 0
M  V30 37534 O 4506.04 -3.72827 -4.97879 0
M  V30 37535 C 4504.85 -4.45085 -6.88694 0
M  V30 37536 O 4504.46 -5.7877 -6.5624 0
M  V30 37537 C 4503.97 -3.47817 -6.12078 0
M  V30 37538 C 4504.68 -3.39414 -4.77697 0
M  V30 37539 N 4504.63 -2.04615 -4.15333 0
M  V30 37540 H 4507.47 -3.41248 -7.98759 0
M  V30 37541 H 4507.74 -2.5837 -6.41742 0
M  V30 37542 H 4506.88 -5.02657 -6.42673 0
M  V30 37543 P 4502.91 -6.144 -6.45285 0
M  V30 37544 O 4502.69 -7.54673 -6.86199 0
M  V30 37545 O 4502.12 -5.12391 -7.179 0
M  V30 37546 O 4502.66 -5.99158 -4.88404 0
M  V30 37547 C 4503.6 -6.60234 -3.96415 0
M  V30 37548 C 4502.87 -7.08259 -2.72856 0
M  V30 37549 O 4502.66 -5.9427 -1.83651 0
M  V30 37550 C 4501.47 -7.64886 -2.9555 0
M  V30 37551 O 4501.08 -8.53963 -1.90717 0
M  V30 37552 C 4500.59 -6.4116 -2.90739 0
M  V30 37553 C 4501.3 -5.55375 -1.86963 0
M  V30 37554 N 4501.25 -4.09664 -2.15742 0
M  V30 37555 H 4504.09 -7.45574 -4.45629 0
M  V30 37556 H 4504.36 -5.86232 -3.67314 0
M  V30 37557 H 4503.5 -7.84412 -2.24479 0
M  V30 37558 P 4499.53 -8.7635 -1.60911 0
M  V30 37559 O 4499.31 -10.1388 -1.11561 0
M  V30 37560 O 4498.74 -8.36503 -2.79617 0
M  V30 37561 O 4499.28 -7.71806 -0.42951 0
M  V30 37562 C 4500.22 -7.67148 0.673689 0
M  V30 37563 C 4499.49 -7.33374 1.95559 0
M  V30 37564 O 4499.28 -5.88721 2.00726 0
M  V30 37565 C 4498.09 -7.92526 2.10483 0
M  V30 37566 O 4497.7 -8.02971 3.47653 0
M  V30 37567 C 4497.21 -6.89602 1.41652 0
M  V30 37568 C 4497.92 -5.59201 1.75185 0
M  V30 37569 N 4497.87 -4.58235 0.662552 0
M  V30 37570 H 4500.71 -8.65116 0.777161 0
M  V30 37571 H 4500.98 -6.90173 0.474152 0
M  V30 37572 H 4500.12 -7.66548 2.79458 0
M  V30 37573 P 4496.15 -8.03563 3.84925 0
M  V30 37574 O 4495.93 -8.85821 5.0569 0
M  V30 37575 O 4495.36 -8.41101 2.65469 0
M  V30 37576 O 4495.9 -6.4965 4.18908 0
M  V30 37577 C 4496.84 -5.81037 5.05421 0
M  V30 37578 C 4496.11 -4.78366 5.89277 0
M  V30 37579 O 4495.9 -3.58302 5.08433 0
M  V30 37580 C 4494.71 -5.17448 6.36119 0
M  V30 37581 O 4494.32 -4.45271 7.53232 0
M  V30 37582 C 4493.83 -4.74639 5.19936 0
M  V30 37583 C 4494.54 -3.49432 4.70418 0
M  V30 37584 N 4494.49 -3.31776 3.22945 0
M  V30 37585 H 4497.33 -6.54213 5.71376 0
M  V30 37586 H 4497.6 -5.30492 4.44033 0
M  V30 37587 H 4496.74 -4.55889 6.76652 0
M  V30 37588 P 4492.77 -4.23843 7.83734 0
M  V30 37589 O 4492.55 -4.19407 9.29784 0
M  V30 37590 O 4491.98 -5.24426 7.09156 0
M  V30 37591 O 4492.52 -2.7935 7.20758 0
M  V30 37592 C 4493.46 -1.7299 7.50419 0
M  V30 37593 C 4492.73 -0.406376 7.57911 0
M  V30 37594 O 4492.52 0.0897726 6.21935 0
M  V30 37595 C 4491.33 -0.447224 8.1878 0
M  V30 37596 O 4490.94 0.825065 8.71101 0
M  V30 37597 C 4490.45 -0.783801 6.99623 0
M  V30 37598 C 4491.16 -0.0619192 5.85967 0
M  V30 37599 N 4491.11 -0.7859 4.56281 0
M  V30 37600 H 4493.95 -1.93423 8.4679 0
M  V30 37601 H 4494.22 -1.68181 6.71046 0
M  V30 37602 H 4493.36 0.289041 8.15388 0
M  V30 37603 P 4489.39 1.17771 8.83182 0
M  V30 37604 O 4489.17 2.07206 9.98732 0
M  V30 37605 O 4488.6 -0.0743816 8.81969 0
M  V30 37606 O 4489.14 1.97652 7.47304 0
M  V30 37607 C 4490.08 3.01133 7.08783 0
M  V30 37608 C 4489.35 4.12613 6.37049 0
M  V30 37609 O 4489.14 3.72827 4.97879 0
M  V30 37610 C 4487.95 4.45085 6.88694 0
M  V30 37611 O 4487.56 5.7877 6.5624 0
M  V30 37612 C 4487.07 3.47817 6.12078 0
M  V30 37613 C 4487.78 3.39414 4.77697 0
M  V30 37614 N 4487.73 2.04615 4.15333 0
M  V30 37615 H 4490.57 3.41248 7.98759 0
M  V30 37616 H 4490.84 2.5837 6.41742 0
M  V30 37617 H 4489.98 5.02657 6.42673 0
M  V30 37618 P 4486.01 6.144 6.45285 0
M  V30 37619 O 4485.79 7.54673 6.86199 0
M  V30 37620 O 4485.22 5.12391 7.179 0
M  V30 37621 O 4485.76 5.99158 4.88404 0
M  V30 37622 C 4486.7 6.60234 3.96415 0
M  V30 37623 C 4485.97 7.08259 2.72856 0
M  V30 37624 O 4485.76 5.9427 1.83651 0
M  V30 37625 C 4484.57 7.64886 2.9555 0
M  V30 37626 O 4484.18 8.53963 1.90717 0
M  V30 37627 C 4483.69 6.4116 2.90739 0
M  V30 37628 C 4484.4 5.55375 1.86963 0
M  V30 37629 N 4484.35 4.09664 2.15742 0
M  V30 37630 H 4487.19 7.45574 4.45629 0
M  V30 37631 H 4487.46 5.86232 3.67314 0
M  V30 37632 H 4486.6 7.84412 2.24479 0
M  V30 37633 P 4482.63 8.7635 1.60911 0
M  V30 37634 O 4482.41 10.1388 1.11561 0
M  V30 37635 O 4481.84 8.36503 2.79617 0
M  V30 37636 O 4482.38 7.71806 0.42951 0
M  V30 37637 C 4483.32 7.67148 -0.673689 0
M  V30 37638 C 4482.59 7.33374 -1.95559 0
M  V30 37639 O 4482.38 5.88721 -2.00726 0
M  V30 37640 C 4481.19 7.92526 -2.10483 0
M  V30 37641 O 4480.8 8.02971 -3.47653 0
M  V30 37642 C 4480.31 6.89602 -1.41652 0
M  V30 37643 C 4481.02 5.59201 -1.75185 0
M  V30 37644 N 4480.97 4.58235 -0.662552 0
M  V30 37645 H 4483.81 8.65116 -0.777161 0
M  V30 37646 H 4484.08 6.90173 -0.474152 0
M  V30 37647 H 4483.22 7.66548 -2.79458 0
M  V30 37648 P 4479.25 8.03563 -3.84925 0
M  V30 37649 O 4479.03 8.85821 -5.0569 0
M  V30 37650 O 4478.46 8.41101 -2.65469 0
M  V30 37651 O 4479 6.4965 -4.18908 0
M  V30 37652 C 4479.94 5.81037 -5.05421 0
M  V30 37653 C 4479.21 4.78366 -5.89277 0
M  V30 37654 O 4479 3.58302 -5.08433 0
M  V30 37655 C 4477.81 5.17448 -6.36119 0
M  V30 37656 O 4477.42 4.45271 -7.53232 0
M  V30 37657 C 4476.93 4.74639 -5.19936 0
M  V30 37658 C 4477.64 3.49432 -4.70418 0
M  V30 37659 N 4477.59 3.31776 -3.22945 0
M  V30 37660 H 4480.43 6.54213 -5.71376 0
M  V30 37661 H 4480.7 5.30492 -4.44033 0
M  V30 37662 H 4479.84 4.55889 -6.76652 0
M  V30 37663 P 4475.87 4.23843 -7.83734 0
M  V30 37664 O 4475.65 4.19407 -9.29784 0
M  V30 37665 O 4475.08 5.24426 -7.09156 0
M  V30 37666 O 4475.62 2.7935 -7.20758 0
M  V30 37667 C 4476.56 1.7299 -7.50419 0
M  V30 37668 C 4475.83 0.406376 -7.57911 0
M  V30 37669 O 4475.62 -0.0897726 -6.21935 0
M  V30 37670 C 4474.43 0.447224 -8.1878 0
M  V30 37671 O 4474.04 -0.825065 -8.71101 0
M  V30 37672 C 4473.55 0.783801 -6.99623 0
M  V30 37673 C 4474.26 0.0619192 -5.85967 0
M  V30 37674 N 4474.21 0.7859 -4.56281 0
M  V30 37675 H 4477.05 1.93423 -8.4679 0
M  V30 37676 H 4477.32 1.68181 -6.71046 0
M  V30 37677 H 4476.46 -0.289041 -8.15388 0
M  V30 37678 P 4472.49 -1.17771 -8.83182 0
M  V30 37679 O 4472.27 -2.07206 -9.98732 0
M  V30 37680 O 4471.7 0.0743816 -8.81969 0
M  V30 37681 O 4472.24 -1.97652 -7.47304 0
M  V30 37682 C 4473.18 -3.01133 -7.08783 0
M  V30 37683 C 4472.45 -4.12613 -6.37049 0
M  V30 37684 O 4472.24 -3.72827 -4.97879 0
M  V30 37685 C 4471.05 -4.45085 -6.88694 0
M  V30 37686 O 4470.66 -5.7877 -6.5624 0
M  V30 37687 C 4470.17 -3.47817 -6.12078 0
M  V30 37688 C 4470.88 -3.39414 -4.77697 0
M  V30 37689 N 4470.83 -2.04199 -4.15538 0
M  V30 37690 H 4473.67 -3.41248 -7.98759 0
M  V30 37691 H 4473.94 -2.57728 -6.42 0
M  V30 37692 H 4473.08 -5.02657 -6.42673 0
M  V30 37693 H 4470.42 -4.11708 -4.08956 0
M  V30 37694 H 4470.14 -2.49626 -6.61679 0
M  V30 37695 H 4469.15 -3.8662 -6.00862 0
M  V30 37696 H 4470.98 -4.29991 -7.97006 0
M  V30 37697 P 4469.11 -6.144 -6.45285 0
M  V30 37698 O 4468.89 -7.54673 -6.86199 0
M  V30 37699 O 4468.32 -5.12391 -7.179 0
M  V30 37700 O 4468.86 -5.99158 -4.88404 0
M  V30 37701 C 4469.8 -6.60234 -3.96415 0
M  V30 37702 C 4469.07 -7.08259 -2.72856 0
M  V30 37703 O 4468.86 -5.9427 -1.83651 0
M  V30 37704 C 4467.67 -7.64886 -2.9555 0
M  V30 37705 O 4467.28 -8.53963 -1.90717 0
M  V30 37706 C 4466.79 -6.4116 -2.90739 0
M  V30 37707 C 4467.5 -5.55375 -1.86963 0
M  V30 37708 N 4467.45 -4.09664 -2.15742 0
M  V30 37709 H 4470.29 -7.45574 -4.45629 0
M  V30 37710 H 4470.56 -5.86232 -3.67314 0
M  V30 37711 H 4469.7 -7.84412 -2.24479 0
M  V30 37712 P 4465.73 -8.7635 -1.60911 0
M  V30 37713 O 4465.51 -10.1388 -1.11561 0
M  V30 37714 O 4464.94 -8.36503 -2.79617 0
M  V30 37715 O 4465.48 -7.71906 -0.429565 0
M  V30 37716 C 4466.42 -7.67148 0.673689 0
M  V30 37717 C 4465.69 -7.33666 1.94851 0
M  V30 37718 O 4465.48 -5.88816 2.00759 0
M  V30 37719 C 4464.29 -7.92526 2.10483 0
M  V30 37720 O 4463.9 -8.03063 3.47693 0
M  V30 37721 C 4463.41 -6.89602 1.41652 0
M  V30 37722 C 4464.12 -5.59201 1.75185 0
M  V30 37723 N 4464.07 -4.58235 0.662552 0
M  V30 37724 C 4463.92 -3.24451 1.01643 0
M  V30 37725 O 4463.83 -2.94958 2.21722 0
M  V30 37726 N 4463.87 -2.30408 -0.165238 0
M  V30 37727 C 4463.97 -2.66048 -1.25118 0
M  V30 37728 N 4463.92 -1.70787 -2.16813 0
M  V30 37729 C 4464.12 -4.02732 -1.64413 0
M  V30 37730 C 4464.17 -4.9488 -0.63991 0
M  V30 37731 H 4466.91 -8.65017 0.777072 0
M  V30 37732 H 4467.18 -6.90173 0.474152 0
M  V30 37733 H 4466.32 -7.66642 2.79492 0
M  V30 37734 H 4463.66 -5.16254 2.65229 0
M  V30 37735 H 4463.38 -7.06532 0.329431 0
M  V30 37736 H 4462.39 -6.91023 1.82047 0
M  V30 37737 H 4464.22 -8.90873 1.62657 0
M  V30 37738 H 4464.3 -6.00104 -0.892197 0
M  V30 37739 H 4464.19 -4.31733 -2.69229 0
M  V30 37740 H 4463.81 -0.724835 -1.8844 0
M  V30 37741 H 4464 -1.94716 -3.16734 0
M  V30 37742 P 4462.35 -8.03563 3.84925 0
M  V30 37743 O 4462.13 -8.85821 5.0569 0
M  V30 37744 O 4461.56 -8.41101 2.65469 0
M  V30 37745 O 4462.1 -6.4965 4.18908 0
M  V30 37746 C 4463.04 -5.81037 5.05421 0
M  V30 37747 C 4462.31 -4.78366 5.89277 0
M  V30 37748 O 4462.1 -3.58302 5.08433 0
M  V30 37749 C 4460.91 -5.17448 6.36119 0
M  V30 37750 O 4460.52 -4.45271 7.53232 0
M  V30 37751 C 4460.03 -4.74639 5.19936 0
M  V30 37752 C 4460.74 -3.49432 4.70418 0
M  V30 37753 N 4460.69 -3.31776 3.22945 0
M  V30 37754 H 4463.53 -6.54213 5.71376 0
M  V30 37755 H 4463.8 -5.30492 4.44033 0
M  V30 37756 H 4462.94 -4.55889 6.76652 0
M  V30 37757 P 4458.97 -4.23843 7.83734 0
M  V30 37758 O 4458.75 -4.19407 9.29784 0
M  V30 37759 O 4458.18 -5.24426 7.09156 0
M  V30 37760 O 4458.72 -2.7935 7.20758 0
M  V30 37761 C 4459.66 -1.72945 7.50224 0
M  V30 37762 C 4458.93 -0.406376 7.57911 0
M  V30 37763 O 4458.72 0.0897726 6.21935 0
M  V30 37764 C 4457.53 -0.438983 8.18724 0
M  V30 37765 O 4457.14 0.825065 8.71101 0
M  V30 37766 C 4456.65 -0.783689 6.99524 0
M  V30 37767 C 4457.36 -0.0619086 5.85867 0
M  V30 37768 N 4457.31 -0.78573 4.56183 0
M  V30 37769 C 4457.16 -0.0292889 3.41887 0
M  V30 37770 O 4457.07 1.18445 3.4419 0
M  V30 37771 N 4457.12 -0.744061 2.23964 0
M  V30 37772 C 4457.21 -2.10932 2.10362 0
M  V30 37773 O 4457.16 -2.64117 0.98825 0
M  V30 37774 C 4457.36 -2.8202 3.34994 0
M  V30 37775 C 4457.47 -4.31095 3.25037 0
M  V30 37776 C 4457.41 -2.15547 4.52261 0
M  V30 37777 H 4460.15 -1.93379 8.46595 0
M  V30 37778 H 4460.42 -1.68132 6.70852 0
M  V30 37779 H 4459.56 0.289041 8.15388 0
M  V30 37780 H 4456.9 0.926847 5.72749 0
M  V30 37781 H 4456.62 -1.86973 6.82036 0
M  V30 37782 H 4455.63 -0.403896 7.13257 0
M  V30 37783 H 4457.46 -1.20585 8.97435 0
M  V30 37784 H 4457.54 -2.71231 5.45042 0
M  V30 37785 H 4456.51 -4.76966 3.49992 0
M  V30 37786 H 4458.24 -4.67047 3.95024 0
M  V30 37787 H 4457.75 -4.58996 2.22312 0
M  V30 37788 H 4457.02 -0.214893 1.39758 0
M  V30 37789 P 4455.59 1.17771 8.83182 0
M  V30 37790 O 4455.37 2.07206 9.98732 0
M  V30 37791 O 4454.8 -0.0743816 8.81969 0
M  V30 37792 O 4455.34 1.97652 7.47304 0
M  V30 37793 C 4456.28 3.01055 7.08599 0
M  V30 37794 C 4455.55 4.12613 6.37049 0
M  V30 37795 O 4455.34 3.72827 4.97879 0
M  V30 37796 C 4454.15 4.45719 6.88164 0
M  V30 37797 O 4453.76 5.7877 6.5624 0
M  V30 37798 C 4453.27 3.47768 6.11991 0
M  V30 37799 C 4453.98 3.39356 4.77615 0
M  V30 37800 N 4453.93 2.04571 4.15244 0
M  V30 37801 C 4453.78 1.98587 2.78314 0
M  V30 37802 O 4453.69 2.98134 2.08835 0
M  V30 37803 N 4453.74 0.714467 2.24925 0
M  V30 37804 C 4453.83 -0.470001 2.94169 0
M  V30 37805 O 4453.78 -1.55587 2.35195 0
M  V30 37806 C 4453.98 -0.312541 4.36783 0
M  V30 37807 C 4454.09 -1.57711 5.16352 0
M  V30 37808 C 4454.03 0.914512 4.92583 0
M  V30 37809 H 4456.77 3.41169 7.98575 0
M  V30 37810 H 4457.04 2.58295 6.41556 0
M  V30 37811 H 4456.18 5.02657 6.42673 0
M  V30 37812 H 4453.52 4.11637 4.08885 0
M  V30 37813 H 4453.24 2.49626 6.61679 0
M  V30 37814 H 4452.25 3.86566 6.00778 0
M  V30 37815 H 4454.08 4.29943 7.96918 0
M  V30 37816 H 4454.16 1.00937 6.00374 0
M  V30 37817 H 4453.13 -1.80153 5.63503 0
M  V30 37818 H 4454.86 -1.4566 5.94104 0
M  V30 37819 H 4454.37 -2.40664 4.49645 0
M  V30 37820 H 4453.64 0.647622 1.25697 0
M  V30 37821 P 4452.21 6.144 6.45285 0
M  V30 37822 O 4451.99 7.54673 6.86199 0
M  V30 37823 O 4451.42 5.12391 7.179 0
M  V30 37824 O 4451.96 5.99158 4.88404 0
M  V30 37825 C 4452.9 6.60062 3.96313 0
M  V30 37826 C 4452.17 7.08259 2.72856 0
M  V30 37827 O 4451.96 5.9427 1.83651 0
M  V30 37828 C 4450.77 7.65087 2.94749 0
M  V30 37829 O 4450.38 8.53963 1.90717 0
M  V30 37830 C 4449.89 6.41069 2.90698 0
M  V30 37831 C 4450.6 5.5528 1.86931 0
M  V30 37832 N 4450.55 4.09575 2.15696 0
M  V30 37833 C 4450.4 3.24249 1.08435 0
M  V30 37834 O 4450.31 3.63946 -0.0628747 0
M  V30 37835 N 4450.36 1.90009 1.39973 0
M  V30 37836 C 4450.45 1.34884 2.65614 0
M  V30 37837 O 4450.4 0.123716 2.81728 0
M  V30 37838 C 4450.6 2.3145 3.71736 0
M  V30 37839 C 4450.71 1.75913 5.10438 0
M  V30 37840 C 4450.65 3.63518 3.44754 0
M  V30 37841 H 4453.39 7.45402 4.45526 0
M  V30 37842 H 4453.66 5.86062 3.67208 0
M  V30 37843 H 4452.8 7.84412 2.24479 0
M  V30 37844 H 4450.14 5.73358 0.888409 0
M  V30 37845 H 4449.86 5.90877 3.88583 0
M  V30 37846 H 4448.87 6.65867 2.58821 0
M  V30 37847 H 4450.7 8.16248 3.92006 0
M  V30 37848 H 4450.78 4.34551 4.26383 0
M  V30 37849 H 4449.75 1.85471 5.61775 0
M  V30 37850 H 4451.48 2.31364 5.66257 0
M  V30 37851 H 4450.99 0.695936 5.05229 0
M  V30 37852 H 4450.26 1.26277 0.63625 0
M  V30 37853 P 4448.83 8.7635 1.60911 0
M  V30 37854 O 4448.61 10.1388 1.11561 0
M  V30 37855 O 4448.04 8.36503 2.79617 0
M  V30 37856 O 4448.58 7.71806 0.42951 0
M  V30 37857 C 4449.52 7.67148 -0.673689 0
M  V30 37858 C 4448.79 7.33374 -1.95559 0
M  V30 37859 O 4448.58 5.88721 -2.00726 0
M  V30 37860 C 4447.39 7.92526 -2.10483 0
M  V30 37861 O 4447 8.02971 -3.47653 0
M  V30 37862 C 4446.51 6.89602 -1.41652 0
M  V30 37863 C 4447.22 5.59201 -1.75185 0
M  V30 37864 N 4447.17 4.58235 -0.662552 0
M  V30 37865 H 4450.01 8.65116 -0.777161 0
M  V30 37866 H 4450.28 6.90173 -0.474152 0
M  V30 37867 H 4449.42 7.66548 -2.79458 0
M  V30 37868 P 4445.45 8.03563 -3.84925 0
M  V30 37869 O 4445.23 8.85821 -5.0569 0
M  V30 37870 O 4444.66 8.41101 -2.65469 0
M  V30 37871 O 4445.2 6.4965 -4.18908 0
M  V30 37872 C 4446.14 5.81037 -5.05421 0
M  V30 37873 C 4445.41 4.78366 -5.89277 0
M  V30 37874 O 4445.2 3.58302 -5.08433 0
M  V30 37875 C 4444.01 5.17448 -6.36119 0
M  V30 37876 O 4443.62 4.45271 -7.53232 0
M  V30 37877 C 4443.13 4.74639 -5.19936 0
M  V30 37878 C 4443.84 3.49432 -4.70418 0
M  V30 37879 N 4443.79 3.31776 -3.22945 0
M  V30 37880 H 4446.63 6.54213 -5.71376 0
M  V30 37881 H 4446.9 5.30492 -4.44033 0
M  V30 37882 H 4446.04 4.55889 -6.76652 0
M  V30 37883 P 4442.07 4.23843 -7.83734 0
M  V30 37884 O 4441.85 4.19407 -9.29784 0
M  V30 37885 O 4441.28 5.24426 -7.09156 0
M  V30 37886 O 4441.82 2.7935 -7.20758 0
M  V30 37887 C 4442.76 1.7299 -7.50419 0
M  V30 37888 C 4442.03 0.406376 -7.57911 0
M  V30 37889 O 4441.82 -0.0897726 -6.21935 0
M  V30 37890 C 4440.63 0.447224 -8.1878 0
M  V30 37891 O 4440.24 -0.825065 -8.71101 0
M  V30 37892 C 4439.75 0.783801 -6.99623 0
M  V30 37893 C 4440.46 0.0619192 -5.85967 0
M  V30 37894 N 4440.41 0.7859 -4.56281 0
M  V30 37895 H 4443.25 1.93423 -8.4679 0
M  V30 37896 H 4443.52 1.68181 -6.71046 0
M  V30 37897 H 4442.66 -0.289041 -8.15388 0
M  V30 37898 P 4438.69 -1.17771 -8.83182 0
M  V30 37899 O 4438.47 -2.07206 -9.98732 0
M  V30 37900 O 4437.9 0.0743816 -8.81969 0
M  V30 37901 O 4438.44 -1.97652 -7.47304 0
M  V30 37902 C 4439.38 -3.01055 -7.08599 0
M  V30 37903 C 4438.65 -4.12613 -6.37049 0
M  V30 37904 O 4438.44 -3.72827 -4.97879 0
M  V30 37905 C 4437.25 -4.45719 -6.88164 0
M  V30 37906 O 4436.86 -5.7877 -6.5624 0
M  V30 37907 C 4436.37 -3.47768 -6.11991 0
M  V30 37908 C 4437.08 -3.39356 -4.77615 0
M  V30 37909 N 4437.03 -2.04571 -4.15244 0
M  V30 37910 C 4436.88 -1.98587 -2.78314 0
M  V30 37911 O 4436.79 -2.98134 -2.08835 0
M  V30 37912 N 4436.84 -0.714467 -2.24925 0
M  V30 37913 C 4436.93 0.470001 -2.94169 0
M  V30 37914 O 4436.88 1.55587 -2.35195 0
M  V30 37915 C 4437.08 0.312541 -4.36783 0
M  V30 37916 C 4437.19 1.57711 -5.16352 0
M  V30 37917 C 4437.13 -0.914512 -4.92583 0
M  V30 37918 H 4439.87 -3.41169 -7.98575 0
M  V30 37919 H 4440.14 -2.58295 -6.41556 0
M  V30 37920 H 4439.28 -5.02657 -6.42673 0
M  V30 37921 H 4436.62 -4.11637 -4.08885 0
M  V30 37922 H 4436.34 -2.49626 -6.61679 0
M  V30 37923 H 4435.35 -3.86566 -6.00778 0
M  V30 37924 H 4437.18 -4.29943 -7.96918 0
M  V30 37925 H 4437.26 -1.00937 -6.00374 0
M  V30 37926 H 4436.23 1.80153 -5.63503 0
M  V30 37927 H 4437.96 1.4566 -5.94104 0
M  V30 37928 H 4437.47 2.40664 -4.49645 0
M  V30 37929 H 4436.74 -0.647622 -1.25697 0
M  V30 37930 P 4435.31 -6.144 -6.45285 0
M  V30 37931 O 4435.09 -7.54673 -6.86199 0
M  V30 37932 O 4434.52 -5.12391 -7.179 0
M  V30 37933 O 4435.06 -5.99158 -4.88404 0
M  V30 37934 C 4436 -6.60062 -3.96313 0
M  V30 37935 C 4435.27 -7.08259 -2.72856 0
M  V30 37936 O 4435.06 -5.9427 -1.83651 0
M  V30 37937 C 4433.87 -7.65087 -2.94749 0
M  V30 37938 O 4433.48 -8.53963 -1.90717 0
M  V30 37939 C 4432.99 -6.41069 -2.90698 0
M  V30 37940 C 4433.7 -5.5528 -1.86931 0
M  V30 37941 N 4433.65 -4.09575 -2.15696 0
M  V30 37942 C 4433.5 -3.24249 -1.08435 0
M  V30 37943 O 4433.41 -3.63946 0.0628747 0
M  V30 37944 N 4433.46 -1.90009 -1.39973 0
M  V30 37945 C 4433.55 -1.34884 -2.65614 0
M  V30 37946 C 4433.7 -2.3145 -3.71736 0
M  V30 37947 C 4433.75 -3.63518 -3.44754 0
M  V30 37948 H 4436.49 -7.45402 -4.45526 0
M  V30 37949 H 4436.76 -5.86062 -3.67208 0
M  V30 37950 H 4435.9 -7.84412 -2.24479 0
M  V30 37951 H 4433.24 -5.73358 -0.888409 0
M  V30 37952 H 4432.96 -5.90877 -3.88583 0
M  V30 37953 H 4431.97 -6.65867 -2.58821 0
M  V30 37954 H 4433.8 -8.16248 -3.92006 0
M  V30 37955 H 4433.88 -4.34551 -4.26383 0
M  V30 37956 P 4431.93 -8.7635 -1.60911 0
M  V30 37957 O 4431.71 -10.1388 -1.11561 0
M  V30 37958 O 4431.14 -8.36503 -2.79617 0
M  V30 37959 O 4431.68 -7.71806 -0.42951 0
M  V30 37960 C 4432.62 -7.66948 0.673514 0
M  V30 37961 C 4431.89 -7.33374 1.95559 0
M  V30 37962 O 4431.68 -5.88721 2.00726 0
M  V30 37963 C 4430.49 -7.92218 2.1125 0
M  V30 37964 O 4430.1 -8.02971 3.47653 0
M  V30 37965 C 4429.61 -6.89504 1.41631 0
M  V30 37966 C 4430.32 -5.59106 1.75155 0
M  V30 37967 N 4430.27 -4.58136 0.662409 0
M  V30 37968 C 4430.12 -3.26059 1.02863 0
M  V30 37969 O 4430.03 -2.90743 2.19009 0
M  V30 37970 N 4430.08 -2.35995 -0.0155585 0
M  V30 37971 C 4430.17 -2.65248 -1.35603 0
M  V30 37972 C 4430.32 -4.05747 -1.64698 0
M  V30 37973 C 4430.37 -4.96734 -0.652411 0
M  V30 37974 H 4433.11 -8.64917 0.776982 0
M  V30 37975 H 4433.38 -6.89974 0.474015 0
M  V30 37976 H 4432.52 -7.66548 2.79458 0
M  V30 37977 H 4429.86 -5.16076 2.65138 0
M  V30 37978 H 4429.58 -7.06433 0.329384 0
M  V30 37979 H 4428.59 -6.90829 1.81996 0
M  V30 37980 H 4430.42 -8.90774 1.62639 0
M  V30 37981 H 4430.5 -6.02181 -0.895285 0
M  V30 37982 P 4428.55 -8.03563 3.84925 0
M  V30 37983 O 4428.33 -8.85821 5.0569 0
M  V30 37984 O 4427.76 -8.41101 2.65469 0
M  V30 37985 O 4428.3 -6.4965 4.18908 0
M  V30 37986 C 4429.24 -5.80886 5.05289 0
M  V30 37987 C 4428.51 -4.78366 5.89277 0
M  V30 37988 O 4428.3 -3.58302 5.08433 0
M  V30 37989 C 4427.11 -5.16748 6.36559 0
M  V30 37990 O 4426.72 -4.45271 7.53232 0
M  V30 37991 C 4426.23 -4.74572 5.19863 0
M  V30 37992 C 4426.94 -3.49373 4.70338 0
M  V30 37993 N 4426.89 -3.31704 3.22876 0
M  V30 37994 C 4426.74 -2.03326 2.74871 0
M  V30 37995 O 4426.65 -1.06486 3.48076 0
M  V30 37996 N 4426.7 -1.91838 1.37456 0
M  V30 37997 C 4426.79 -2.94295 0.462035 0
M  V30 37998 C 4426.94 -4.25064 1.05249 0
M  V30 37999 C 4426.99 -4.40214 2.39192 0
M  V30 38000 H 4429.73 -6.54063 5.71245 0
M  V30 38001 H 4430 -5.30339 4.43905 0
M  V30 38002 H 4429.14 -4.55889 6.76652 0
M  V30 38003 H 4426.48 -2.6167 5.17842 0
M  V30 38004 H 4426.2 -5.52155 4.41878 0
M  V30 38005 H 4425.21 -4.51918 5.53297 0
M  V30 38006 H 4427.04 -6.25055 6.55162 0
M  V30 38007 H 4427.12 -5.39798 2.81523 0
M  V30 38008 P 4425.17 -4.23843 7.83734 0
M  V30 38009 O 4424.95 -4.19407 9.29784 0
M  V30 38010 O 4424.38 -5.24426 7.09156 0
M  V30 38011 O 4424.92 -2.7935 7.20758 0
M  V30 38012 C 4425.86 -1.7299 7.50419 0
M  V30 38013 C 4425.13 -0.406376 7.57911 0
M  V30 38014 O 4424.92 0.0897726 6.21935 0
M  V30 38015 C 4423.73 -0.447224 8.1878 0
M  V30 38016 O 4423.34 0.825065 8.71101 0
M  V30 38017 C 4422.85 -0.783801 6.99623 0
M  V30 38018 C 4423.56 -0.0619192 5.85967 0
M  V30 38019 N 4423.51 -0.790462 4.56202 0
M  V30 38020 C 4423.59 -2.13895 4.34171 0
M  V30 38021 N 4423.52 -2.46449 3.08687 0
M  V30 38022 C 4423.37 -1.2525 2.43697 0
M  V30 38023 C 4423.24 -0.914535 1.07318 0
M  V30 38024 N 4423.23 -1.80782 0.0887348 0
M  V30 38025 N 4423.12 0.386745 0.768133 0
M  V30 38026 C 4423.13 1.28096 1.75159 0
M  V30 38027 N 4423.25 1.09708 3.04861 0
M  V30 38028 C 4423.37 -0.214857 3.32306 0
M  V30 38029 H 4426.35 -1.93423 8.4679 0
M  V30 38030 H 4426.62 -1.68852 6.70877 0
M  V30 38031 H 4425.76 0.289041 8.15388 0
M  V30 38032 H 4423.1 0.927006 5.72848 0
M  V30 38033 H 4422.82 -1.86973 6.82036 0
M  V30 38034 H 4421.83 -0.403953 7.13357 0
M  V30 38035 H 4423.66 -1.20599 8.97534 0
M  V30 38036 H 4423.71 -2.86846 5.14318 0
M  V30 38037 H 4423.32 -2.81082 0.302037 0
M  V30 38038 H 4423.14 -1.49688 -0.889064 0
M  V30 38039 H 4423.03 2.31317 1.43855 0
M  V30 38040 P 4421.79 1.17771 8.83182 0
M  V30 38041 O 4421.57 2.07206 9.98732 0
M  V30 38042 O 4421 -0.0743816 8.81969 0
M  V30 38043 O 4421.54 1.97652 7.47304 0
M  V30 38044 C 4422.48 3.01133 7.08783 0
M  V30 38045 C 4421.75 4.12613 6.37049 0
M  V30 38046 O 4421.54 3.72827 4.97879 0
M  V30 38047 C 4420.35 4.45085 6.88694 0
M  V30 38048 O 4419.96 5.7877 6.5624 0
M  V30 38049 C 4419.47 3.47817 6.12078 0
M  V30 38050 C 4420.18 3.39414 4.77697 0
M  V30 38051 N 4420.13 2.04615 4.15333 0
M  V30 38052 H 4422.97 3.41248 7.98759 0
M  V30 38053 H 4423.24 2.5837 6.41742 0
M  V30 38054 H 4422.38 5.02657 6.42673 0
M  V30 38055 P 4418.41 6.144 6.45285 0
M  V30 38056 O 4418.19 7.54673 6.86199 0
M  V30 38057 O 4417.62 5.12391 7.179 0
M  V30 38058 O 4418.16 5.99158 4.88404 0
M  V30 38059 C 4419.1 6.60062 3.96313 0
M  V30 38060 C 4418.37 7.08259 2.72856 0
M  V30 38061 O 4418.16 5.9427 1.83651 0
M  V30 38062 C 4416.97 7.65087 2.94749 0
M  V30 38063 O 4416.58 8.53963 1.90717 0
M  V30 38064 C 4416.09 6.41069 2.90698 0
M  V30 38065 C 4416.8 5.5528 1.86931 0
M  V30 38066 N 4416.75 4.09575 2.15696 0
M  V30 38067 C 4416.6 3.24249 1.08435 0
M  V30 38068 O 4416.51 3.63946 -0.0628747 0
M  V30 38069 N 4416.56 1.90009 1.39973 0
M  V30 38070 C 4416.65 1.34884 2.65614 0
M  V30 38071 O 4416.6 0.123716 2.81728 0
M  V30 38072 C 4416.8 2.3145 3.71736 0
M  V30 38073 C 4416.91 1.75913 5.10438 0
M  V30 38074 C 4416.85 3.63518 3.44754 0
M  V30 38075 H 4419.59 7.45402 4.45526 0
M  V30 38076 H 4419.86 5.86062 3.67208 0
M  V30 38077 H 4419 7.84412 2.24479 0
M  V30 38078 H 4416.34 5.73358 0.888409 0
M  V30 38079 H 4416.06 5.90877 3.88583 0
M  V30 38080 H 4415.07 6.65867 2.58821 0
M  V30 38081 H 4416.9 8.16248 3.92006 0
M  V30 38082 H 4416.98 4.34551 4.26383 0
M  V30 38083 H 4415.95 1.85471 5.61775 0
M  V30 38084 H 4417.68 2.31364 5.66257 0
M  V30 38085 H 4417.19 0.695936 5.05229 0
M  V30 38086 H 4416.46 1.26277 0.63625 0
M  V30 38087 P 4415.03 8.7635 1.60911 0
M  V30 38088 O 4414.81 10.1388 1.11561 0
M  V30 38089 O 4414.24 8.36503 2.79617 0
M  V30 38090 O 4414.78 7.71806 0.42951 0
M  V30 38091 C 4415.72 7.67148 -0.673689 0
M  V30 38092 C 4414.99 7.33374 -1.95559 0
M  V30 38093 O 4414.78 5.88721 -2.00726 0
M  V30 38094 C 4413.59 7.92526 -2.10483 0
M  V30 38095 O 4413.2 8.02971 -3.47653 0
M  V30 38096 C 4412.71 6.89602 -1.41652 0
M  V30 38097 C 4413.42 5.59201 -1.75185 0
M  V30 38098 N 4413.37 4.58235 -0.662552 0
M  V30 38099 H 4416.21 8.65116 -0.777161 0
M  V30 38100 H 4416.48 6.90173 -0.474152 0
M  V30 38101 H 4415.62 7.66548 -2.79458 0
M  V30 38102 P 4411.65 8.03563 -3.84925 0
M  V30 38103 O 4411.43 8.85821 -5.0569 0
M  V30 38104 O 4410.86 8.41101 -2.65469 0
M  V30 38105 O 4411.4 6.49734 -4.18962 0
M  V30 38106 C 4412.34 5.81037 -5.05421 0
M  V30 38107 C 4411.61 4.79018 -5.88876 0
M  V30 38108 O 4411.4 3.58359 -5.08515 0
M  V30 38109 C 4410.21 5.17448 -6.36119 0
M  V30 38110 O 4409.82 4.45322 -7.53318 0
M  V30 38111 C 4409.33 4.74639 -5.19936 0
M  V30 38112 C 4410.04 3.49432 -4.70418 0
M  V30 38113 N 4409.99 3.31776 -3.22945 0
M  V30 38114 C 4409.84 2.02742 -2.72939 0
M  V30 38115 O 4409.75 1.08301 -3.52749 0
M  V30 38116 N 4409.79 1.96117 -1.22063 0
M  V30 38117 C 4409.89 2.8878 -0.551566 0
M  V30 38118 N 4409.84 2.65609 0.750198 0
M  V30 38119 C 4410.04 4.22457 -1.03707 0
M  V30 38120 C 4410.09 4.37979 -2.39113 0
M  V30 38121 H 4412.83 6.54138 -5.7131 0
M  V30 38122 H 4413.1 5.30492 -4.44033 0
M  V30 38123 H 4412.24 4.55945 -6.76735 0
M  V30 38124 H 4409.58 2.6176 -5.18021 0
M  V30 38125 H 4409.3 5.52233 -4.41941 0
M  V30 38126 H 4408.31 4.52045 -5.53452 0
M  V30 38127 H 4410.14 6.25124 -6.55234 0
M  V30 38128 H 4410.22 5.37936 -2.80552 0
M  V30 38129 H 4410.11 5.07528 -0.359553 0
M  V30 38130 H 4409.73 1.69403 1.09847 0
M  V30 38131 H 4409.92 3.43701 1.41792 0
M  V30 38132 P 4408.27 4.23843 -7.83734 0
M  V30 38133 O 4408.05 4.19407 -9.29784 0
M  V30 38134 O 4407.48 5.24426 -7.09156 0
M  V30 38135 O 4408.02 2.7935 -7.20758 0
M  V30 38136 C 4408.96 1.7299 -7.50419 0
M  V30 38137 C 4408.23 0.406376 -7.57911 0
M  V30 38138 O 4408.02 -0.0897726 -6.21935 0
M  V30 38139 C 4406.83 0.447224 -8.1878 0
M  V30 38140 O 4406.44 -0.825065 -8.71101 0
M  V30 38141 C 4405.95 0.783801 -6.99623 0
M  V30 38142 C 4406.66 0.0619192 -5.85967 0
M  V30 38143 N 4406.61 0.7859 -4.56281 0
M  V30 38144 C 4406.69 2.14308 -4.31736 0
M  V30 38145 N 4406.61 2.46106 -3.05116 0
M  V30 38146 C 4406.47 1.23422 -2.4014 0
M  V30 38147 C 4406.34 0.938381 -1.02409 0
M  V30 38148 N 4406.22 -0.444647 -0.805413 0
M  V30 38149 C 4406.22 -1.40829 -1.79435 0
M  V30 38150 N 4406.09 -2.67213 -1.38558 0
M  V30 38151 N 4406.35 -1.12947 -3.09005 0
M  V30 38152 C 4406.47 0.204887 -3.32369 0
M  V30 38153 H 4409.45 1.93423 -8.4679 0
M  V30 38154 H 4409.72 1.68181 -6.71046 0
M  V30 38155 H 4408.86 -0.289041 -8.15388 0
M  V30 38156 P 4404.89 -1.17771 -8.83182 0
M  V30 38157 O 4404.67 -2.07206 -9.98732 0
M  V30 38158 O 4404.1 0.0743816 -8.81969 0
M  V30 38159 O 4404.64 -1.97652 -7.47304 0
M  V30 38160 C 4405.58 -3.01133 -7.08783 0
M  V30 38161 C 4404.85 -4.12613 -6.37049 0
M  V30 38162 O 4404.64 -3.72827 -4.97879 0
M  V30 38163 C 4403.45 -4.45085 -6.88694 0
M  V30 38164 O 4403.06 -5.7877 -6.5624 0
M  V30 38165 C 4402.57 -3.47817 -6.12078 0
M  V30 38166 C 4403.28 -3.39414 -4.77697 0
M  V30 38167 N 4403.23 -2.04615 -4.15333 0
M  V30 38168 H 4406.07 -3.41248 -7.98759 0
M  V30 38169 H 4406.34 -2.5837 -6.41742 0
M  V30 38170 H 4405.48 -5.02657 -6.42673 0
M  V30 38171 P 4401.51 -6.144 -6.45285 0
M  V30 38172 O 4401.29 -7.54673 -6.86199 0
M  V30 38173 O 4400.72 -5.12391 -7.179 0
M  V30 38174 O 4401.26 -5.99236 -4.88467 0
M  V30 38175 C 4402.2 -6.60234 -3.96415 0
M  V30 38176 C 4401.47 -7.08079 -2.736 0
M  V30 38177 O 4401.26 -5.94365 -1.8368 0
M  V30 38178 C 4400.07 -7.64886 -2.9555 0
M  V30 38179 O 4399.68 -8.5406 -1.90739 0
M  V30 38180 C 4399.19 -6.4116 -2.90739 0
M  V30 38181 C 4399.9 -5.55375 -1.86963 0
M  V30 38182 N 4399.85 -4.09664 -2.15742 0
M  V30 38183 C 4399.7 -3.22231 -1.08477 0
M  V30 38184 O 4399.61 -3.68951 0.0600489 0
M  V30 38185 N 4399.65 -1.76692 -1.48799 0
M  V30 38186 C 4399.75 -1.41695 -2.57602 0
M  V30 38187 N 4399.7 -0.107296 -2.75791 0
M  V30 38188 C 4399.9 -2.29178 -3.69733 0
M  V30 38189 C 4399.95 -3.62753 -3.42653 0
M  V30 38190 H 4402.69 -7.45488 -4.45578 0
M  V30 38191 H 4402.96 -5.86232 -3.67314 0
M  V30 38192 H 4402.1 -7.84508 -2.24507 0
M  V30 38193 H 4399.44 -5.73556 -0.888715 0
M  V30 38194 H 4399.16 -5.9096 -3.88638 0
M  V30 38195 H 4398.17 -6.66053 -2.58894 0
M  V30 38196 H 4400 -8.16339 -3.92049 0
M  V30 38197 H 4400.08 -4.33052 -4.24913 0
M  V30 38198 H 4399.97 -1.9103 -4.71577 0
M  V30 38199 H 4399.59 0.521221 -1.95056 0
M  V30 38200 H 4399.78 0.286429 -3.70695 0
M  V30 38201 P 4398.13 -8.7635 -1.60911 0
M  V30 38202 O 4397.91 -10.1388 -1.11561 0
M  V30 38203 O 4397.34 -8.36503 -2.79617 0
M  V30 38204 O 4397.88 -7.71806 -0.42951 0
M  V30 38205 C 4398.82 -7.66948 0.673514 0
M  V30 38206 C 4398.09 -7.33374 1.95559 0
M  V30 38207 O 4397.88 -5.88721 2.00726 0
M  V30 38208 C 4396.69 -7.92218 2.1125 0
M  V30 38209 O 4396.3 -8.02971 3.47653 0
M  V30 38210 C 4395.81 -6.89504 1.41631 0
M  V30 38211 C 4396.52 -5.59106 1.75155 0
M  V30 38212 N 4396.47 -4.58136 0.662409 0
M  V30 38213 C 4396.32 -3.26059 1.02863 0
M  V30 38214 O 4396.23 -2.90743 2.19009 0
M  V30 38215 N 4396.28 -2.35995 -0.0155585 0
M  V30 38216 C 4396.37 -2.65248 -1.35603 0
M  V30 38217 O 4396.32 -1.75605 -2.20651 0
M  V30 38218 C 4396.52 -4.05747 -1.64698 0
M  V30 38219 C 4396.63 -4.42345 -3.09553 0
M  V30 38220 C 4396.57 -4.96734 -0.652411 0
M  V30 38221 H 4399.32 -8.64917 0.776982 0
M  V30 38222 H 4399.58 -6.89974 0.474015 0
M  V30 38223 H 4398.72 -7.66548 2.79458 0
M  V30 38224 H 4396.06 -5.16076 2.65138 0
M  V30 38225 H 4395.78 -7.06433 0.329384 0
M  V30 38226 H 4394.79 -6.90829 1.81996 0
M  V30 38227 H 4396.63 -8.90774 1.62639 0
M  V30 38228 H 4396.7 -6.02181 -0.895285 0
M  V30 38229 H 4395.67 -4.80252 -3.45468 0
M  V30 38230 H 4397.4 -5.20015 -3.22119 0
M  V30 38231 H 4396.92 -3.53269 -3.67833 0
M  V30 38232 H 4396.18 -1.39558 0.227499 0
M  V30 38233 P 4394.75 -8.03563 3.84925 0
M  V30 38234 O 4394.53 -8.85821 5.0569 0
M  V30 38235 O 4393.96 -8.41101 2.65469 0
M  V30 38236 O 4394.5 -6.4965 4.18908 0
M  V30 38237 C 4395.44 -5.81037 5.05421 0
M  V30 38238 C 4394.71 -4.78366 5.89277 0
M  V30 38239 O 4394.5 -3.58302 5.08433 0
M  V30 38240 C 4393.31 -5.17448 6.36119 0
M  V30 38241 O 4392.92 -4.45271 7.53232 0
M  V30 38242 C 4392.43 -4.74639 5.19936 0
M  V30 38243 C 4393.14 -3.49432 4.70418 0
M  V30 38244 N 4393.09 -3.31776 3.22945 0
M  V30 38245 H 4395.93 -6.54213 5.71376 0
M  V30 38246 H 4396.21 -5.30492 4.44033 0
M  V30 38247 H 4395.34 -4.55889 6.76652 0
M  V30 38248 P 4391.37 -4.23843 7.83734 0
M  V30 38249 O 4391.15 -4.19407 9.29784 0
M  V30 38250 O 4390.58 -5.24426 7.09156 0
M  V30 38251 O 4391.12 -2.7935 7.20758 0
M  V30 38252 C 4392.06 -1.7299 7.50419 0
M  V30 38253 C 4391.33 -0.406376 7.57911 0
M  V30 38254 O 4391.12 0.0897726 6.21935 0
M  V30 38255 C 4389.93 -0.447224 8.1878 0
M  V30 38256 O 4389.54 0.825065 8.71101 0
M  V30 38257 C 4389.05 -0.783801 6.99623 0
M  V30 38258 C 4389.76 -0.0619192 5.85967 0
M  V30 38259 N 4389.71 -0.7859 4.56281 0
M  V30 38260 H 4392.55 -1.93423 8.4679 0
M  V30 38261 H 4392.83 -1.68181 6.71046 0
M  V30 38262 H 4391.96 0.289041 8.15388 0
M  V30 38263 P 4387.99 1.17771 8.83182 0
M  V30 38264 O 4387.77 2.07206 9.98732 0
M  V30 38265 O 4387.2 -0.0743816 8.81969 0
M  V30 38266 O 4387.74 1.97652 7.47304 0
M  V30 38267 C 4388.68 3.01133 7.08783 0
M  V30 38268 C 4387.95 4.12613 6.37049 0
M  V30 38269 O 4387.74 3.72827 4.97879 0
M  V30 38270 C 4386.55 4.45085 6.88694 0
M  V30 38271 O 4386.16 5.7877 6.5624 0
M  V30 38272 C 4385.67 3.47817 6.12078 0
M  V30 38273 C 4386.38 3.39414 4.77697 0
M  V30 38274 N 4386.33 2.04615 4.15333 0
M  V30 38275 H 4389.17 3.41248 7.98759 0
M  V30 38276 H 4389.45 2.5837 6.41742 0
M  V30 38277 H 4388.58 5.02657 6.42673 0
M  V30 38278 P 4384.61 6.144 6.45285 0
M  V30 38279 O 4384.39 7.54673 6.86199 0
M  V30 38280 O 4383.82 5.12391 7.179 0
M  V30 38281 O 4384.36 5.99236 4.88467 0
M  V30 38282 C 4385.3 6.60234 3.96415 0
M  V30 38283 C 4384.57 7.08079 2.736 0
M  V30 38284 O 4384.36 5.94365 1.8368 0
M  V30 38285 C 4383.17 7.64886 2.9555 0
M  V30 38286 O 4382.78 8.5406 1.90739 0
M  V30 38287 C 4382.29 6.4116 2.90739 0
M  V30 38288 C 4383 5.55375 1.86963 0
M  V30 38289 N 4382.95 4.09664 2.15742 0
M  V30 38290 C 4382.8 3.22231 1.08477 0
M  V30 38291 O 4382.71 3.68951 -0.0600489 0
M  V30 38292 N 4382.75 1.76692 1.48799 0
M  V30 38293 C 4382.85 1.41695 2.57602 0
M  V30 38294 N 4382.8 0.107296 2.75791 0
M  V30 38295 C 4383 2.29178 3.69733 0
M  V30 38296 C 4383.05 3.62753 3.42653 0
M  V30 38297 H 4385.79 7.45488 4.45578 0
M  V30 38298 H 4386.06 5.86232 3.67314 0
M  V30 38299 H 4385.2 7.84508 2.24507 0
M  V30 38300 H 4382.54 5.73556 0.888715 0
M  V30 38301 H 4382.26 5.9096 3.88638 0
M  V30 38302 H 4381.27 6.66053 2.58894 0
M  V30 38303 H 4383.11 8.16339 3.92049 0
M  V30 38304 H 4383.18 4.33052 4.24913 0
M  V30 38305 H 4383.08 1.9103 4.71577 0
M  V30 38306 H 4382.69 -0.521221 1.95056 0
M  V30 38307 H 4382.88 -0.286429 3.70695 0
M  V30 38308 P 4381.23 8.7635 1.60911 0
M  V30 38309 O 4381.01 10.1388 1.11561 0
M  V30 38310 O 4380.44 8.36503 2.79617 0
M  V30 38311 O 4380.98 7.71806 0.42951 0
M  V30 38312 C 4381.92 7.67148 -0.673689 0
M  V30 38313 C 4381.19 7.33374 -1.95559 0
M  V30 38314 O 4380.98 5.88721 -2.00726 0
M  V30 38315 C 4379.79 7.92526 -2.10483 0
M  V30 38316 O 4379.4 8.02971 -3.47653 0
M  V30 38317 C 4378.91 6.89602 -1.41652 0
M  V30 38318 C 4379.62 5.59201 -1.75185 0
M  V30 38319 N 4379.57 4.58235 -0.662552 0
M  V30 38320 H 4382.41 8.65116 -0.777161 0
M  V30 38321 H 4382.69 6.90173 -0.474152 0
M  V30 38322 H 4381.82 7.66548 -2.79458 0
M  V30 38323 P 4377.85 8.03563 -3.84925 0
M  V30 38324 O 4377.63 8.85821 -5.0569 0
M  V30 38325 O 4377.06 8.41101 -2.65469 0
M  V30 38326 O 4377.6 6.4965 -4.18908 0
M  V30 38327 C 4378.54 5.81037 -5.05421 0
M  V30 38328 C 4377.81 4.78366 -5.89277 0
M  V30 38329 O 4377.6 3.58302 -5.08433 0
M  V30 38330 C 4376.41 5.17448 -6.36119 0
M  V30 38331 O 4376.02 4.45271 -7.53232 0
M  V30 38332 C 4375.53 4.74639 -5.19936 0
M  V30 38333 C 4376.24 3.49432 -4.70418 0
M  V30 38334 N 4376.19 3.32099 -3.22613 0
M  V30 38335 C 4376.27 4.28245 -2.25527 0
M  V30 38336 N 4376.2 3.80823 -1.04874 0
M  V30 38337 C 4376.05 2.44571 -1.23535 0
M  V30 38338 C 4375.92 1.37068 -0.330675 0
M  V30 38339 N 4375.91 1.51472 0.990824 0
M  V30 38340 N 4375.8 0.138614 -0.848756 0
M  V30 38341 C 4375.81 -0.00675923 -2.16999 0
M  V30 38342 N 4375.93 0.904372 -3.11122 0
M  V30 38343 C 4376.05 2.12707 -2.56212 0
M  V30 38344 H 4379.03 6.54213 -5.71376 0
M  V30 38345 H 4379.31 5.30936 -4.43503 0
M  V30 38346 H 4378.44 4.55889 -6.76652 0
M  V30 38347 H 4375.78 2.61715 -5.17932 0
M  V30 38348 H 4375.5 5.52155 -4.41878 0
M  V30 38349 H 4374.51 4.51981 -5.53374 0
M  V30 38350 H 4376.35 6.25124 -6.55234 0
M  V30 38351 H 4376.39 5.34372 -2.47488 0
M  V30 38352 H 4376.01 2.45153 1.4078 0
M  V30 38353 H 4375.82 0.688422 1.59911 0
M  V30 38354 H 4375.71 -1.02584 -2.52346 0
M  V30 38355 P 4374.47 4.23843 -7.83734 0
M  V30 38356 O 4374.25 4.19407 -9.29784 0
M  V30 38357 O 4373.68 5.24426 -7.09156 0
M  V30 38358 O 4374.22 2.7935 -7.20758 0
M  V30 38359 C 4375.16 1.7299 -7.50419 0
M  V30 38360 C 4374.43 0.406376 -7.57911 0
M  V30 38361 O 4374.22 -0.0897726 -6.21935 0
M  V30 38362 C 4373.03 0.447224 -8.1878 0
M  V30 38363 O 4372.64 -0.825065 -8.71101 0
M  V30 38364 C 4372.15 0.783801 -6.99623 0
M  V30 38365 C 4372.86 0.0619192 -5.85967 0
M  V30 38366 N 4372.81 0.7859 -4.56281 0
M  V30 38367 C 4372.89 2.14308 -4.31736 0
M  V30 38368 N 4372.81 2.46106 -3.05116 0
M  V30 38369 C 4372.67 1.23422 -2.4014 0
M  V30 38370 C 4372.54 0.938381 -1.02409 0
M  V30 38371 O 4372.52 1.70876 -0.0650402 0
M  V30 38372 N 4372.42 -0.444647 -0.805413 0
M  V30 38373 C 4372.42 -1.40829 -1.79435 0
M  V30 38374 N 4372.29 -2.67213 -1.38558 0
M  V30 38375 N 4372.55 -1.12947 -3.09005 0
M  V30 38376 C 4372.67 0.204887 -3.32369 0
M  V30 38377 H 4375.65 1.93423 -8.4679 0
M  V30 38378 H 4375.93 1.68181 -6.71046 0
M  V30 38379 H 4375.06 -0.289041 -8.15388 0
M  V30 38380 H 4372.4 -0.927166 -5.72947 0
M  V30 38381 H 4372.12 1.87 -6.82132 0
M  V30 38382 H 4371.13 0.404009 -7.13457 0
M  V30 38383 H 4372.97 1.20612 -8.97633 0
M  V30 38384 H 4373.01 2.88284 -5.10874 0
M  V30 38385 H 4372.33 -0.755087 0.140242 0
M  V30 38386 H 4372.3 -3.43967 -2.0729 0
M  V30 38387 H 4372.19 -2.88096 -0.380644 0
M  V30 38388 P 4371.09 -1.17771 -8.83182 0
M  V30 38389 O 4370.87 -2.07206 -9.98732 0
M  V30 38390 O 4370.3 0.0743816 -8.81969 0
M  V30 38391 O 4370.84 -1.97652 -7.47304 0
M  V30 38392 C 4371.78 -3.01133 -7.08783 0
M  V30 38393 C 4371.05 -4.12613 -6.37049 0
M  V30 38394 O 4370.84 -3.72827 -4.97879 0
M  V30 38395 C 4369.65 -4.45085 -6.88694 0
M  V30 38396 O 4369.26 -5.7877 -6.5624 0
M  V30 38397 C 4368.77 -3.47817 -6.12078 0
M  V30 38398 C 4369.48 -3.39414 -4.77697 0
M  V30 38399 N 4369.43 -2.04615 -4.15333 0
M  V30 38400 H 4372.27 -3.41248 -7.98759 0
M  V30 38401 H 4372.55 -2.5837 -6.41742 0
M  V30 38402 H 4371.68 -5.02657 -6.42673 0
M  V30 38403 P 4367.71 -6.144 -6.45285 0
M  V30 38404 O 4367.49 -7.54673 -6.86199 0
M  V30 38405 O 4366.92 -5.12391 -7.179 0
M  V30 38406 O 4367.46 -5.99158 -4.88404 0
M  V30 38407 C 4368.4 -6.60234 -3.96415 0
M  V30 38408 C 4367.67 -7.08259 -2.72856 0
M  V30 38409 O 4367.46 -5.9427 -1.83651 0
M  V30 38410 C 4366.27 -7.64886 -2.9555 0
M  V30 38411 O 4365.88 -8.53963 -1.90717 0
M  V30 38412 C 4365.39 -6.4116 -2.90739 0
M  V30 38413 C 4366.1 -5.55375 -1.86963 0
M  V30 38414 N 4366.05 -4.09664 -2.15742 0
M  V30 38415 C 4366.13 -3.44381 -3.37233 0
M  V30 38416 N 4366.05 -2.14131 -3.28347 0
M  V30 38417 C 4365.91 -1.90247 -1.91588 0
M  V30 38418 C 4365.78 -0.683992 -1.20892 0
M  V30 38419 N 4365.66 -0.903396 0.173998 0
M  V30 38420 C 4365.66 -2.14171 0.784879 0
M  V30 38421 N 4365.53 -2.1435 2.11317 0
M  V30 38422 N 4365.79 -3.28784 0.119316 0
M  V30 38423 C 4365.91 -3.0977 -1.22194 0
M  V30 38424 H 4368.89 -7.45574 -4.45629 0
M  V30 38425 H 4369.17 -5.86232 -3.67314 0
M  V30 38426 H 4368.3 -7.84412 -2.24479 0
M  V30 38427 P 4364.33 -8.7635 -1.60911 0
M  V30 38428 O 4364.11 -10.1388 -1.11561 0
M  V30 38429 O 4363.54 -8.36503 -2.79617 0
M  V30 38430 O 4364.08 -7.71906 -0.429565 0
M  V30 38431 C 4365.02 -7.67148 0.673689 0
M  V30 38432 C 4364.29 -7.33666 1.94851 0
M  V30 38433 O 4364.08 -5.88816 2.00759 0
M  V30 38434 C 4362.89 -7.92526 2.10483 0
M  V30 38435 O 4362.5 -8.03063 3.47693 0
M  V30 38436 C 4362.01 -6.89602 1.41652 0
M  V30 38437 C 4362.72 -5.59201 1.75185 0
M  V30 38438 N 4362.67 -4.58235 0.662552 0
M  V30 38439 C 4362.52 -3.24451 1.01643 0
M  V30 38440 O 4362.43 -2.94958 2.21722 0
M  V30 38441 N 4362.47 -2.30408 -0.165238 0
M  V30 38442 C 4362.57 -2.66048 -1.25118 0
M  V30 38443 N 4362.52 -1.70787 -2.16813 0
M  V30 38444 C 4362.72 -4.02732 -1.64413 0
M  V30 38445 C 4362.77 -4.9488 -0.63991 0
M  V30 38446 H 4365.51 -8.65017 0.777072 0
M  V30 38447 H 4365.78 -6.90173 0.474152 0
M  V30 38448 H 4364.92 -7.66642 2.79492 0
M  V30 38449 H 4362.26 -5.16254 2.65229 0
M  V30 38450 H 4361.98 -7.06532 0.329431 0
M  V30 38451 H 4360.99 -6.91023 1.82047 0
M  V30 38452 H 4362.83 -8.90873 1.62657 0
M  V30 38453 H 4362.9 -6.00104 -0.892197 0
M  V30 38454 H 4362.8 -4.31733 -2.69229 0
M  V30 38455 H 4362.41 -0.724835 -1.8844 0
M  V30 38456 H 4362.6 -1.94716 -3.16734 0
M  V30 38457 P 4360.95 -8.03563 3.84925 0
M  V30 38458 O 4360.73 -8.85821 5.0569 0
M  V30 38459 O 4360.16 -8.41101 2.65469 0
M  V30 38460 O 4360.7 -6.4965 4.18908 0
M  V30 38461 C 4361.64 -5.81037 5.05421 0
M  V30 38462 C 4360.91 -4.78366 5.89277 0
M  V30 38463 O 4360.7 -3.58302 5.08433 0
M  V30 38464 C 4359.51 -5.17448 6.36119 0
M  V30 38465 O 4359.12 -4.45271 7.53232 0
M  V30 38466 C 4358.63 -4.74639 5.19936 0
M  V30 38467 C 4359.34 -3.49432 4.70418 0
M  V30 38468 N 4359.29 -3.31776 3.22945 0
M  V30 38469 H 4362.13 -6.54213 5.71376 0
M  V30 38470 H 4362.41 -5.30492 4.44033 0
M  V30 38471 H 4361.54 -4.55889 6.76652 0
M  V30 38472 P 4357.57 -4.23843 7.83734 0
M  V30 38473 O 4357.35 -4.19407 9.29784 0
M  V30 38474 O 4356.78 -5.24426 7.09156 0
M  V30 38475 O 4357.32 -2.7935 7.20758 0
M  V30 38476 C 4358.26 -1.72945 7.50224 0
M  V30 38477 C 4357.53 -0.406376 7.57911 0
M  V30 38478 O 4357.32 0.0897726 6.21935 0
M  V30 38479 C 4356.13 -0.438983 8.18724 0
M  V30 38480 O 4355.74 0.825065 8.71101 0
M  V30 38481 C 4355.25 -0.783689 6.99524 0
M  V30 38482 C 4355.96 -0.0619086 5.85867 0
M  V30 38483 N 4355.91 -0.78573 4.56183 0
M  V30 38484 C 4355.76 -0.0292889 3.41887 0
M  V30 38485 O 4355.67 1.18445 3.4419 0
M  V30 38486 N 4355.72 -0.744061 2.23964 0
M  V30 38487 C 4355.81 -2.10932 2.10362 0
M  V30 38488 C 4355.96 -2.8202 3.34994 0
M  V30 38489 C 4356.01 -2.15547 4.52261 0
M  V30 38490 H 4358.76 -1.93379 8.46595 0
M  V30 38491 H 4359.02 -1.68132 6.70852 0
M  V30 38492 H 4358.16 0.289041 8.15388 0
M  V30 38493 H 4355.5 0.926847 5.72749 0
M  V30 38494 H 4355.22 -1.86973 6.82036 0
M  V30 38495 H 4354.23 -0.403896 7.13257 0
M  V30 38496 H 4356.07 -1.20585 8.97435 0
M  V30 38497 H 4356.14 -2.71231 5.45042 0
M  V30 38498 P 4354.19 1.17771 8.83182 0
M  V30 38499 O 4353.97 2.07206 9.98732 0
M  V30 38500 O 4353.4 -0.0743816 8.81969 0
M  V30 38501 O 4353.94 1.97652 7.47304 0
M  V30 38502 C 4354.88 3.01133 7.08783 0
M  V30 38503 C 4354.15 4.12613 6.37049 0
M  V30 38504 O 4353.94 3.72827 4.97879 0
M  V30 38505 C 4352.75 4.45085 6.88694 0
M  V30 38506 O 4352.36 5.7877 6.5624 0
M  V30 38507 C 4351.87 3.47817 6.12078 0
M  V30 38508 C 4352.58 3.39414 4.77697 0
M  V30 38509 N 4352.53 2.04615 4.15333 0
M  V30 38510 H 4355.37 3.41248 7.98759 0
M  V30 38511 H 4355.65 2.5837 6.41742 0
M  V30 38512 H 4354.78 5.02657 6.42673 0
M  V30 38513 P 4350.81 6.144 6.45285 0
M  V30 38514 O 4350.59 7.54673 6.86199 0
M  V30 38515 O 4350.02 5.12391 7.179 0
M  V30 38516 O 4350.56 5.99158 4.88404 0
M  V30 38517 C 4351.5 6.60234 3.96415 0
M  V30 38518 C 4350.77 7.08259 2.72856 0
M  V30 38519 O 4350.56 5.9427 1.83651 0
M  V30 38520 C 4349.37 7.64886 2.9555 0
M  V30 38521 O 4348.98 8.53963 1.90717 0
M  V30 38522 C 4348.49 6.4116 2.90739 0
M  V30 38523 C 4349.2 5.55375 1.86963 0
M  V30 38524 N 4349.15 4.09664 2.15742 0
M  V30 38525 H 4351.99 7.45574 4.45629 0
M  V30 38526 H 4352.27 5.86232 3.67314 0
M  V30 38527 H 4351.4 7.84412 2.24479 0
M  V30 38528 P 4347.43 8.7635 1.60911 0
M  V30 38529 O 4347.21 10.1388 1.11561 0
M  V30 38530 O 4346.64 8.36503 2.79617 0
M  V30 38531 O 4347.18 7.71806 0.42951 0
M  V30 38532 C 4348.12 7.67148 -0.673689 0
M  V30 38533 C 4347.39 7.33374 -1.95559 0
M  V30 38534 O 4347.18 5.88721 -2.00726 0
M  V30 38535 C 4345.99 7.92526 -2.10483 0
M  V30 38536 O 4345.6 8.02971 -3.47653 0
M  V30 38537 C 4345.11 6.89602 -1.41652 0
M  V30 38538 C 4345.82 5.59201 -1.75185 0
M  V30 38539 N 4345.77 4.58235 -0.662552 0
M  V30 38540 C 4345.85 4.7683 0.704049 0
M  V30 38541 N 4345.77 3.66233 1.39775 0
M  V30 38542 C 4345.63 2.66526 0.431739 0
M  V30 38543 C 4345.5 1.26394 0.575992 0
M  V30 38544 O 4345.48 0.589894 1.60503 0
M  V30 38545 N 4345.38 0.62859 -0.67177 0
M  V30 38546 C 4345.38 1.27134 -1.89385 0
M  V30 38547 N 4345.25 0.492035 -2.96951 0
M  V30 38548 N 4345.51 2.58978 -2.02907 0
M  V30 38549 C 4345.63 3.22433 -0.832218 0
M  V30 38550 H 4348.61 8.65116 -0.777161 0
M  V30 38551 H 4348.89 6.90173 -0.474152 0
M  V30 38552 H 4348.02 7.66548 -2.79458 0
M  V30 38553 H 4345.36 5.16254 -2.65229 0
M  V30 38554 H 4345.08 7.06532 -0.329431 0
M  V30 38555 H 4344.09 6.91023 -1.82047 0
M  V30 38556 H 4345.93 8.90971 -1.62675 0
M  V30 38557 H 4345.97 5.74954 1.16305 0
M  V30 38558 H 4345.29 -0.366713 -0.674793 0
M  V30 38559 H 4345.26 0.908532 -3.91188 0
M  V30 38560 H 4345.15 -0.528253 -2.85758 0
M  V30 38561 P 4344.05 8.03563 -3.84925 0
M  V30 38562 O 4343.83 8.85821 -5.0569 0
M  V30 38563 O 4343.26 8.41101 -2.65469 0
M  V30 38564 O 4343.8 6.4965 -4.18908 0
M  V30 38565 C 4344.74 5.80886 -5.05289 0
M  V30 38566 C 4344.01 4.78366 -5.89277 0
M  V30 38567 O 4343.8 3.58302 -5.08433 0
M  V30 38568 C 4342.61 5.16748 -6.36559 0
M  V30 38569 O 4342.22 4.45271 -7.53232 0
M  V30 38570 C 4341.73 4.74572 -5.19863 0
M  V30 38571 C 4342.44 3.49373 -4.70338 0
M  V30 38572 N 4342.39 3.31704 -3.22876 0
M  V30 38573 C 4342.24 2.03326 -2.74871 0
M  V30 38574 O 4342.15 1.06486 -3.48076 0
M  V30 38575 N 4342.2 1.91838 -1.37456 0
M  V30 38576 C 4342.29 2.94295 -0.462035 0
M  V30 38577 C 4342.44 4.25064 -1.05249 0
M  V30 38578 C 4342.49 4.40214 -2.39192 0
M  V30 38579 H 4345.24 6.54063 -5.71245 0
M  V30 38580 H 4345.5 5.30339 -4.43905 0
M  V30 38581 H 4344.64 4.55889 -6.76652 0
M  V30 38582 H 4341.98 2.6167 -5.17842 0
M  V30 38583 H 4341.7 5.52155 -4.41878 0
M  V30 38584 H 4340.71 4.51918 -5.53297 0
M  V30 38585 H 4342.55 6.25055 -6.55162 0
M  V30 38586 H 4342.62 5.39798 -2.81523 0
M  V30 38587 P 4340.67 4.23843 -7.83734 0
M  V30 38588 O 4340.45 4.19407 -9.29784 0
M  V30 38589 O 4339.88 5.24426 -7.09156 0
M  V30 38590 O 4340.42 2.7935 -7.20758 0
M  V30 38591 C 4341.36 1.7299 -7.50419 0
M  V30 38592 C 4340.63 0.406376 -7.57911 0
M  V30 38593 O 4340.42 -0.0897726 -6.21935 0
M  V30 38594 C 4339.23 0.447224 -8.1878 0
M  V30 38595 O 4338.84 -0.825065 -8.71101 0
M  V30 38596 C 4338.35 0.783801 -6.99623 0
M  V30 38597 C 4339.06 0.0619192 -5.85967 0
M  V30 38598 N 4339.01 0.7859 -4.56281 0
M  V30 38599 H 4341.85 1.93423 -8.4679 0
M  V30 38600 H 4342.13 1.68181 -6.71046 0
M  V30 38601 H 4341.26 -0.289041 -8.15388 0
M  V30 38602 P 4337.29 -1.17771 -8.83182 0
M  V30 38603 O 4337.07 -2.07206 -9.98732 0
M  V30 38604 O 4336.5 0.0743816 -8.81969 0
M  V30 38605 O 4337.04 -1.97652 -7.47304 0
M  V30 38606 C 4337.98 -3.01133 -7.08783 0
M  V30 38607 C 4337.25 -4.12613 -6.37049 0
M  V30 38608 O 4337.04 -3.72827 -4.97879 0
M  V30 38609 C 4335.85 -4.45085 -6.88694 0
M  V30 38610 O 4335.46 -5.7877 -6.5624 0
M  V30 38611 C 4334.97 -3.47817 -6.12078 0
M  V30 38612 C 4335.68 -3.39414 -4.77697 0
M  V30 38613 N 4335.63 -2.04199 -4.15538 0
M  V30 38614 C 4335.71 -0.821545 -4.76977 0
M  V30 38615 N 4335.64 0.1794 -3.94592 0
M  V30 38616 C 4335.49 -0.419121 -2.70776 0
M  V30 38617 C 4335.36 0.109072 -1.40577 0
M  V30 38618 N 4335.35 1.4104 -1.1344 0
M  V30 38619 N 4335.24 -0.764381 -0.39411 0
M  V30 38620 C 4335.25 -2.06587 -0.664135 0
M  V30 38621 N 4335.37 -2.67948 -1.82153 0
M  V30 38622 C 4335.49 -1.77942 -2.8147 0
M  V30 38623 H 4338.47 -3.41248 -7.98759 0
M  V30 38624 H 4338.75 -2.57728 -6.42 0
M  V30 38625 H 4337.88 -5.02657 -6.42673 0
M  V30 38626 H 4335.22 -4.11708 -4.08956 0
M  V30 38627 H 4334.94 -2.49626 -6.61679 0
M  V30 38628 H 4333.95 -3.8662 -6.00862 0
M  V30 38629 H 4335.79 -4.29991 -7.97006 0
M  V30 38630 H 4335.83 -0.702451 -5.84696 0
M  V30 38631 H 4335.45 2.09647 -1.89651 0
M  V30 38632 H 4335.26 1.73358 -0.160575 0
M  V30 38633 H 4335.15 -2.71695 0.195838 0
M  V30 38634 P 4333.91 -6.144 -6.45285 0
M  V30 38635 O 4333.69 -7.54673 -6.86199 0
M  V30 38636 O 4333.12 -5.12391 -7.179 0
M  V30 38637 O 4333.66 -5.99158 -4.88404 0
M  V30 38638 C 4334.6 -6.60234 -3.96415 0
M  V30 38639 C 4333.87 -7.08259 -2.72856 0
M  V30 38640 O 4333.66 -5.9427 -1.83651 0
M  V30 38641 C 4332.47 -7.64886 -2.9555 0
M  V30 38642 O 4332.08 -8.53963 -1.90717 0
M  V30 38643 C 4331.59 -6.4116 -2.90739 0
M  V30 38644 C 4332.3 -5.55375 -1.86963 0
M  V30 38645 N 4332.25 -4.09664 -2.15742 0
M  V30 38646 H 4335.09 -7.45574 -4.45629 0
M  V30 38647 H 4335.37 -5.86232 -3.67314 0
M  V30 38648 H 4334.5 -7.84412 -2.24479 0
M  V30 38649 P 4330.53 -8.7635 -1.60911 0
M  V30 38650 O 4330.31 -10.1388 -1.11561 0
M  V30 38651 O 4329.74 -8.36503 -2.79617 0
M  V30 38652 O 4330.28 -7.71806 -0.42951 0
M  V30 38653 C 4331.22 -7.67148 0.673689 0
M  V30 38654 C 4330.49 -7.33374 1.95559 0
M  V30 38655 O 4330.28 -5.88721 2.00726 0
M  V30 38656 C 4329.09 -7.92526 2.10483 0
M  V30 38657 O 4328.7 -8.02971 3.47653 0
M  V30 38658 C 4328.21 -6.89602 1.41652 0
M  V30 38659 C 4328.92 -5.59201 1.75185 0
M  V30 38660 N 4328.87 -4.58301 0.657969 0
M  V30 38661 H 4331.71 -8.65116 0.777161 0
M  V30 38662 H 4331.99 -6.9022 0.46725 0
M  V30 38663 H 4331.12 -7.66548 2.79458 0
M  V30 38664 H 4328.46 -5.16165 2.65183 0
M  V30 38665 H 4328.18 -7.06433 0.329384 0
M  V30 38666 H 4327.19 -6.90926 1.82021 0
M  V30 38667 H 4329.03 -8.90873 1.62657 0
M  V30 38668 P 4327.15 -8.03563 3.84925 0
M  V30 38669 O 4326.93 -8.85821 5.0569 0
M  V30 38670 O 4326.36 -8.41101 2.65469 0
M  V30 38671 O 4326.9 -6.4965 4.18908 0
M  V30 38672 C 4327.84 -5.81037 5.05421 0
M  V30 38673 C 4327.11 -4.78366 5.89277 0
M  V30 38674 O 4326.9 -3.58302 5.08433 0
M  V30 38675 C 4325.71 -5.17448 6.36119 0
M  V30 38676 O 4325.32 -4.45271 7.53232 0
M  V30 38677 C 4324.83 -4.74639 5.19936 0
M  V30 38678 C 4325.54 -3.49432 4.70418 0
M  V30 38679 N 4325.49 -3.31776 3.22945 0
M  V30 38680 H 4328.33 -6.54213 5.71376 0
M  V30 38681 H 4328.61 -5.30492 4.44033 0
M  V30 38682 H 4327.74 -4.55889 6.76652 0
M  V30 38683 P 4323.77 -4.23843 7.83734 0
M  V30 38684 O 4323.55 -4.19407 9.29784 0
M  V30 38685 O 4322.98 -5.24426 7.09156 0
M  V30 38686 O 4323.52 -2.7935 7.20758 0
M  V30 38687 C 4324.46 -1.7299 7.50419 0
M  V30 38688 C 4323.73 -0.406376 7.57911 0
M  V30 38689 O 4323.52 0.0897726 6.21935 0
M  V30 38690 C 4322.33 -0.447224 8.1878 0
M  V30 38691 O 4321.94 0.825065 8.71101 0
M  V30 38692 C 4321.45 -0.783801 6.99623 0
M  V30 38693 C 4322.16 -0.0619192 5.85967 0
M  V30 38694 N 4322.11 -0.7859 4.56281 0
M  V30 38695 H 4324.95 -1.93423 8.4679 0
M  V30 38696 H 4325.23 -1.68181 6.71046 0
M  V30 38697 H 4324.36 0.289041 8.15388 0
M  V30 38698 P 4320.39 1.17771 8.83182 0
M  V30 38699 O 4320.17 2.07206 9.98732 0
M  V30 38700 O 4319.6 -0.0743816 8.81969 0
M  V30 38701 O 4320.14 1.97652 7.47304 0
M  V30 38702 C 4321.08 3.01133 7.08783 0
M  V30 38703 C 4320.35 4.12613 6.37049 0
M  V30 38704 O 4320.14 3.72827 4.97879 0
M  V30 38705 C 4318.95 4.45085 6.88694 0
M  V30 38706 O 4318.56 5.7877 6.5624 0
M  V30 38707 C 4318.07 3.47817 6.12078 0
M  V30 38708 C 4318.78 3.39414 4.77697 0
M  V30 38709 N 4318.73 2.04615 4.15333 0
M  V30 38710 H 4321.57 3.41248 7.98759 0
M  V30 38711 H 4321.85 2.5837 6.41742 0
M  V30 38712 H 4320.98 5.02657 6.42673 0
M  V30 38713 P 4317.01 6.144 6.45285 0
M  V30 38714 O 4316.79 7.54673 6.86199 0
M  V30 38715 O 4316.22 5.12391 7.179 0
M  V30 38716 O 4316.76 5.99158 4.88404 0
M  V30 38717 C 4317.7 6.60234 3.96415 0
M  V30 38718 C 4316.97 7.08259 2.72856 0
M  V30 38719 O 4316.76 5.9427 1.83651 0
M  V30 38720 C 4315.57 7.64886 2.9555 0
M  V30 38721 O 4315.18 8.53963 1.90717 0
M  V30 38722 C 4314.69 6.4116 2.90739 0
M  V30 38723 C 4315.4 5.55375 1.86963 0
M  V30 38724 N 4315.35 4.09448 2.16152 0
M  V30 38725 H 4318.19 7.45574 4.45629 0
M  V30 38726 H 4318.47 5.85864 3.679 0
M  V30 38727 H 4317.6 7.84412 2.24479 0
M  V30 38728 H 4314.94 5.73457 0.888562 0
M  V30 38729 H 4314.66 5.90877 3.88583 0
M  V30 38730 H 4313.67 6.6596 2.58858 0
M  V30 38731 H 4315.51 8.16339 3.92049 0
M  V30 38732 P 4313.63 8.7635 1.60911 0
M  V30 38733 O 4313.41 10.1388 1.11561 0
M  V30 38734 O 4312.84 8.36503 2.79617 0
M  V30 38735 O 4313.38 7.71806 0.42951 0
M  V30 38736 C 4314.32 7.66948 -0.673514 0
M  V30 38737 C 4313.59 7.33374 -1.95559 0
M  V30 38738 O 4313.38 5.88721 -2.00726 0
M  V30 38739 C 4312.19 7.92218 -2.1125 0
M  V30 38740 O 4311.8 8.02971 -3.47653 0
M  V30 38741 C 4311.31 6.89504 -1.41631 0
M  V30 38742 C 4312.02 5.59106 -1.75155 0
M  V30 38743 N 4311.97 4.58136 -0.662409 0
M  V30 38744 C 4311.82 3.26059 -1.02863 0
M  V30 38745 O 4311.73 2.90743 -2.19009 0
M  V30 38746 N 4311.78 2.35995 0.0155585 0
M  V30 38747 C 4311.87 2.65248 1.35603 0
M  V30 38748 C 4312.02 4.05747 1.64698 0
M  V30 38749 C 4312.07 4.96734 0.652411 0
M  V30 38750 H 4314.82 8.64917 -0.776982 0
M  V30 38751 H 4315.08 6.89974 -0.474015 0
M  V30 38752 H 4314.22 7.66548 -2.79458 0
M  V30 38753 H 4311.56 5.16076 -2.65138 0
M  V30 38754 H 4311.28 7.06433 -0.329384 0
M  V30 38755 H 4310.29 6.90829 -1.81996 0
M  V30 38756 H 4312.13 8.90774 -1.62639 0
M  V30 38757 H 4312.2 6.02181 0.895285 0
M  V30 38758 P 4310.25 8.03563 -3.84925 0
M  V30 38759 O 4310.03 8.85821 -5.0569 0
M  V30 38760 O 4309.46 8.41101 -2.65469 0
M  V30 38761 O 4310 6.4965 -4.18908 0
M  V30 38762 C 4310.94 5.81037 -5.05421 0
M  V30 38763 C 4310.21 4.78366 -5.89277 0
M  V30 38764 O 4310 3.58302 -5.08433 0
M  V30 38765 C 4308.81 5.17448 -6.36119 0
M  V30 38766 O 4308.42 4.45271 -7.53232 0
M  V30 38767 C 4307.93 4.74639 -5.19936 0
M  V30 38768 C 4308.64 3.49432 -4.70418 0
M  V30 38769 N 4308.59 3.32099 -3.22613 0
M  V30 38770 H 4311.43 6.54213 -5.71376 0
M  V30 38771 H 4311.71 5.30936 -4.43503 0
M  V30 38772 H 4310.84 4.55889 -6.76652 0
M  V30 38773 H 4308.18 2.61715 -5.17932 0
M  V30 38774 H 4307.9 5.52155 -4.41878 0
M  V30 38775 H 4306.91 4.51981 -5.53374 0
M  V30 38776 H 4308.75 6.25124 -6.55234 0
M  V30 38777 P 4306.87 4.23843 -7.83734 0
M  V30 38778 O 4306.65 4.19407 -9.29784 0
M  V30 38779 O 4306.08 5.24426 -7.09156 0
M  V30 38780 O 4306.62 2.7935 -7.20758 0
M  V30 38781 C 4307.56 1.7299 -7.50419 0
M  V30 38782 C 4306.83 0.406376 -7.57911 0
M  V30 38783 O 4306.62 -0.0897726 -6.21935 0
M  V30 38784 C 4305.43 0.447224 -8.1878 0
M  V30 38785 O 4305.04 -0.825065 -8.71101 0
M  V30 38786 C 4304.55 0.783801 -6.99623 0
M  V30 38787 C 4305.26 0.0619192 -5.85967 0
M  V30 38788 N 4305.21 0.7859 -4.56281 0
M  V30 38789 H 4308.05 1.93423 -8.4679 0
M  V30 38790 H 4308.33 1.68181 -6.71046 0
M  V30 38791 H 4307.46 -0.289041 -8.15388 0
M  V30 38792 P 4303.49 -1.17771 -8.83182 0
M  V30 38793 O 4303.27 -2.07206 -9.98732 0
M  V30 38794 O 4302.7 0.0743816 -8.81969 0
M  V30 38795 O 4303.24 -1.97652 -7.47304 0
M  V30 38796 C 4304.18 -3.01133 -7.08783 0
M  V30 38797 C 4303.45 -4.12613 -6.37049 0
M  V30 38798 O 4303.24 -3.72827 -4.97879 0
M  V30 38799 C 4302.05 -4.45085 -6.88694 0
M  V30 38800 O 4301.66 -5.7877 -6.5624 0
M  V30 38801 C 4301.17 -3.47817 -6.12078 0
M  V30 38802 C 4301.88 -3.39414 -4.77697 0
M  V30 38803 N 4301.83 -2.04199 -4.15538 0
M  V30 38804 H 4304.67 -3.41248 -7.98759 0
M  V30 38805 H 4304.95 -2.57728 -6.42 0
M  V30 38806 H 4304.08 -5.02657 -6.42673 0
M  V30 38807 H 4301.42 -4.11708 -4.08956 0
M  V30 38808 H 4301.14 -2.49626 -6.61679 0
M  V30 38809 H 4300.15 -3.8662 -6.00862 0
M  V30 38810 H 4301.99 -4.29991 -7.97006 0
M  V30 38811 P 4300.11 -6.144 -6.45285 0
M  V30 38812 O 4299.89 -7.54673 -6.86199 0
M  V30 38813 O 4299.32 -5.12391 -7.179 0
M  V30 38814 O 4299.86 -5.99158 -4.88404 0
M  V30 38815 C 4300.8 -6.60234 -3.96415 0
M  V30 38816 C 4300.07 -7.08259 -2.72856 0
M  V30 38817 O 4299.86 -5.9427 -1.83651 0
M  V30 38818 C 4298.67 -7.64886 -2.9555 0
M  V30 38819 O 4298.28 -8.53963 -1.90717 0
M  V30 38820 C 4297.79 -6.4116 -2.90739 0
M  V30 38821 C 4298.5 -5.55375 -1.86963 0
M  V30 38822 N 4298.45 -4.09664 -2.15742 0
M  V30 38823 H 4301.29 -7.45574 -4.45629 0
M  V30 38824 H 4301.57 -5.86232 -3.67314 0
M  V30 38825 H 4300.7 -7.84412 -2.24479 0
M  V30 38826 P 4296.73 -8.7635 -1.60911 0
M  V30 38827 O 4296.51 -10.1388 -1.11561 0
M  V30 38828 O 4295.94 -8.36503 -2.79617 0
M  V30 38829 O 4296.48 -7.71806 -0.42951 0
M  V30 38830 C 4297.42 -7.67148 0.673689 0
M  V30 38831 C 4296.69 -7.33374 1.95559 0
M  V30 38832 O 4296.48 -5.88721 2.00726 0
M  V30 38833 C 4295.29 -7.92526 2.10483 0
M  V30 38834 O 4294.9 -8.02971 3.47653 0
M  V30 38835 C 4294.41 -6.89602 1.41652 0
M  V30 38836 C 4295.12 -5.59201 1.75185 0
M  V30 38837 N 4295.07 -4.58235 0.662552 0
M  V30 38838 H 4297.91 -8.65116 0.777161 0
M  V30 38839 H 4298.19 -6.90173 0.474152 0
M  V30 38840 H 4297.32 -7.66548 2.79458 0
M  V30 38841 P 4293.35 -8.03563 3.84925 0
M  V30 38842 O 4293.13 -8.85821 5.0569 0
M  V30 38843 O 4292.56 -8.41101 2.65469 0
M  V30 38844 O 4293.1 -6.4965 4.18908 0
M  V30 38845 C 4294.04 -5.81037 5.05421 0
M  V30 38846 C 4293.31 -4.78366 5.89277 0
M  V30 38847 O 4293.1 -3.58302 5.08433 0
M  V30 38848 C 4291.91 -5.17448 6.36119 0
M  V30 38849 O 4291.52 -4.45271 7.53232 0
M  V30 38850 C 4291.03 -4.74639 5.19936 0
M  V30 38851 C 4291.74 -3.49432 4.70418 0
M  V30 38852 N 4291.69 -3.31776 3.22945 0
M  V30 38853 H 4294.53 -6.54213 5.71376 0
M  V30 38854 H 4294.81 -5.30492 4.44033 0
M  V30 38855 H 4293.94 -4.55889 6.76652 0
M  V30 38856 P 4289.97 -4.23843 7.83734 0
M  V30 38857 O 4289.75 -4.19407 9.29784 0
M  V30 38858 O 4289.18 -5.24426 7.09156 0
M  V30 38859 O 4289.72 -2.7935 7.20758 0
M  V30 38860 C 4290.66 -1.72945 7.50224 0
M  V30 38861 C 4289.93 -0.406376 7.57911 0
M  V30 38862 O 4289.72 0.0897726 6.21935 0
M  V30 38863 C 4288.53 -0.438983 8.18724 0
M  V30 38864 O 4288.14 0.825065 8.71101 0
M  V30 38865 C 4287.65 -0.783689 6.99524 0
M  V30 38866 C 4288.36 -0.0619086 5.85867 0
M  V30 38867 N 4288.31 -0.78573 4.56183 0
M  V30 38868 C 4288.16 -0.0292889 3.41887 0
M  V30 38869 O 4288.07 1.18445 3.4419 0
M  V30 38870 N 4288.12 -0.744061 2.23964 0
M  V30 38871 C 4288.21 -2.10932 2.10362 0
M  V30 38872 C 4288.36 -2.8202 3.34994 0
M  V30 38873 C 4288.41 -2.15547 4.52261 0
M  V30 38874 H 4291.16 -1.93379 8.46595 0
M  V30 38875 H 4291.42 -1.68132 6.70852 0
M  V30 38876 H 4290.56 0.289041 8.15388 0
M  V30 38877 H 4287.9 0.926847 5.72749 0
M  V30 38878 H 4287.62 -1.86973 6.82036 0
M  V30 38879 H 4286.63 -0.403896 7.13257 0
M  V30 38880 H 4288.47 -1.20585 8.97435 0
M  V30 38881 H 4288.54 -2.71231 5.45042 0
M  V30 38882 P 4286.59 1.17771 8.83182 0
M  V30 38883 O 4286.37 2.07206 9.98732 0
M  V30 38884 O 4285.8 -0.0743816 8.81969 0
M  V30 38885 O 4286.34 1.97652 7.47304 0
M  V30 38886 C 4287.28 3.01133 7.08783 0
M  V30 38887 C 4286.55 4.12613 6.37049 0
M  V30 38888 O 4286.34 3.72827 4.97879 0
M  V30 38889 C 4285.15 4.45085 6.88694 0
M  V30 38890 O 4284.76 5.7877 6.5624 0
M  V30 38891 C 4284.27 3.47817 6.12078 0
M  V30 38892 C 4284.98 3.39414 4.77697 0
M  V30 38893 N 4284.93 2.04615 4.15333 0
M  V30 38894 H 4287.77 3.41248 7.98759 0
M  V30 38895 H 4288.05 2.5837 6.41742 0
M  V30 38896 H 4287.18 5.02657 6.42673 0
M  V30 38897 P 4283.21 6.144 6.45285 0
M  V30 38898 O 4282.99 7.54673 6.86199 0
M  V30 38899 O 4282.42 5.12391 7.179 0
M  V30 38900 O 4282.96 5.99158 4.88404 0
M  V30 38901 C 4283.9 6.60234 3.96415 0
M  V30 38902 C 4283.17 7.08259 2.72856 0
M  V30 38903 O 4282.96 5.9427 1.83651 0
M  V30 38904 C 4281.77 7.64886 2.9555 0
M  V30 38905 O 4281.38 8.53963 1.90717 0
M  V30 38906 C 4280.89 6.4116 2.90739 0
M  V30 38907 C 4281.6 5.55375 1.86963 0
M  V30 38908 N 4281.55 4.09664 2.15742 0
M  V30 38909 H 4284.39 7.45574 4.45629 0
M  V30 38910 H 4284.67 5.86232 3.67314 0
M  V30 38911 H 4283.8 7.84412 2.24479 0
M  V30 38912 P 4279.83 8.7635 1.60911 0
M  V30 38913 O 4279.61 10.1388 1.11561 0
M  V30 38914 O 4279.04 8.36503 2.79617 0
M  V30 38915 O 4279.58 7.71806 0.42951 0
M  V30 38916 C 4280.52 7.67148 -0.673689 0
M  V30 38917 C 4279.79 7.33374 -1.95559 0
M  V30 38918 O 4279.58 5.88721 -2.00726 0
M  V30 38919 C 4278.39 7.92526 -2.10483 0
M  V30 38920 O 4278 8.02971 -3.47653 0
M  V30 38921 C 4277.51 6.89602 -1.41652 0
M  V30 38922 C 4278.22 5.59201 -1.75185 0
M  V30 38923 N 4278.17 4.58235 -0.662552 0
M  V30 38924 H 4281.01 8.65116 -0.777161 0
M  V30 38925 H 4281.29 6.90173 -0.474152 0
M  V30 38926 H 4280.42 7.66548 -2.79458 0
M  V30 38927 P 4276.45 8.03563 -3.84925 0
M  V30 38928 O 4276.23 8.85821 -5.0569 0
M  V30 38929 O 4275.66 8.41101 -2.65469 0
M  V30 38930 O 4276.2 6.4965 -4.18908 0
M  V30 38931 C 4277.14 5.81037 -5.05421 0
M  V30 38932 C 4276.41 4.78366 -5.89277 0
M  V30 38933 O 4276.2 3.58302 -5.08433 0
M  V30 38934 C 4275.01 5.17448 -6.36119 0
M  V30 38935 O 4274.62 4.45271 -7.53232 0
M  V30 38936 C 4274.13 4.74639 -5.19936 0
M  V30 38937 C 4274.84 3.49432 -4.70418 0
M  V30 38938 N 4274.79 3.31776 -3.22945 0
M  V30 38939 H 4277.63 6.54213 -5.71376 0
M  V30 38940 H 4277.91 5.30492 -4.44033 0
M  V30 38941 H 4277.04 4.55889 -6.76652 0
M  V30 38942 P 4273.07 4.23843 -7.83734 0
M  V30 38943 O 4272.85 4.19407 -9.29784 0
M  V30 38944 O 4272.28 5.24426 -7.09156 0
M  V30 38945 O 4272.82 2.7935 -7.20758 0
M  V30 38946 C 4273.76 1.7299 -7.50419 0
M  V30 38947 C 4273.03 0.406376 -7.57911 0
M  V30 38948 O 4272.82 -0.0897726 -6.21935 0
M  V30 38949 C 4271.63 0.447224 -8.1878 0
M  V30 38950 O 4271.24 -0.825065 -8.71101 0
M  V30 38951 C 4270.75 0.783801 -6.99623 0
M  V30 38952 C 4271.46 0.0619192 -5.85967 0
M  V30 38953 N 4271.41 0.7859 -4.56281 0
M  V30 38954 H 4274.25 1.93423 -8.4679 0
M  V30 38955 H 4274.53 1.68181 -6.71046 0
M  V30 38956 H 4273.66 -0.289041 -8.15388 0
M  V30 38957 P 4269.69 -1.17771 -8.83182 0
M  V30 38958 O 4269.47 -2.07206 -9.98732 0
M  V30 38959 O 4268.9 0.0743816 -8.81969 0
M  V30 38960 O 4269.44 -1.97652 -7.47304 0
M  V30 38961 C 4270.38 -3.01133 -7.08783 0
M  V30 38962 C 4269.65 -4.12613 -6.37049 0
M  V30 38963 O 4269.44 -3.72827 -4.97879 0
M  V30 38964 C 4268.25 -4.45085 -6.88694 0
M  V30 38965 O 4267.86 -5.7877 -6.5624 0
M  V30 38966 C 4267.37 -3.47817 -6.12078 0
M  V30 38967 C 4268.08 -3.39414 -4.77697 0
M  V30 38968 N 4268.03 -2.04615 -4.15333 0
M  V30 38969 H 4270.87 -3.41248 -7.98759 0
M  V30 38970 H 4271.15 -2.5837 -6.41742 0
M  V30 38971 H 4270.28 -5.02657 -6.42673 0
M  V30 38972 P 4266.31 -6.144 -6.45285 0
M  V30 38973 O 4266.09 -7.54673 -6.86199 0
M  V30 38974 O 4265.52 -5.12391 -7.179 0
M  V30 38975 O 4266.06 -5.99158 -4.88404 0
M  V30 38976 C 4267 -6.60234 -3.96415 0
M  V30 38977 C 4266.27 -7.08259 -2.72856 0
M  V30 38978 O 4266.06 -5.9427 -1.83651 0
M  V30 38979 C 4264.87 -7.64886 -2.9555 0
M  V30 38980 O 4264.48 -8.53963 -1.90717 0
M  V30 38981 C 4263.99 -6.4116 -2.90739 0
M  V30 38982 C 4264.7 -5.55375 -1.86963 0
M  V30 38983 N 4264.65 -4.09664 -2.15742 0
M  V30 38984 H 4267.49 -7.45574 -4.45629 0
M  V30 38985 H 4267.77 -5.86232 -3.67314 0
M  V30 38986 H 4266.9 -7.84412 -2.24479 0
M  V30 38987 P 4262.93 -8.7635 -1.60911 0
M  V30 38988 O 4262.71 -10.1388 -1.11561 0
M  V30 38989 O 4262.14 -8.36503 -2.79617 0
M  V30 38990 O 4262.68 -7.71806 -0.42951 0
M  V30 38991 C 4263.62 -7.66948 0.673514 0
M  V30 38992 C 4262.89 -7.33374 1.95559 0
M  V30 38993 O 4262.68 -5.88721 2.00726 0
M  V30 38994 C 4261.49 -7.92218 2.1125 0
M  V30 38995 O 4261.1 -8.02971 3.47653 0
M  V30 38996 C 4260.61 -6.89504 1.41631 0
M  V30 38997 C 4261.32 -5.59106 1.75155 0
M  V30 38998 N 4261.27 -4.58136 0.662409 0
M  V30 38999 C 4261.12 -3.26059 1.02863 0
M  V30 39000 O 4261.03 -2.90743 2.19009 0
M  V30 39001 N 4261.08 -2.35995 -0.0155585 0
M  V30 39002 C 4261.17 -2.65248 -1.35603 0
M  V30 39003 C 4261.32 -4.05747 -1.64698 0
M  V30 39004 C 4261.37 -4.96734 -0.652411 0
M  V30 39005 H 4264.12 -8.64917 0.776982 0
M  V30 39006 H 4264.38 -6.89974 0.474015 0
M  V30 39007 H 4263.52 -7.66548 2.79458 0
M  V30 39008 H 4260.86 -5.16076 2.65138 0
M  V30 39009 H 4260.58 -7.06433 0.329384 0
M  V30 39010 H 4259.59 -6.90829 1.81996 0
M  V30 39011 H 4261.43 -8.90774 1.62639 0
M  V30 39012 H 4261.5 -6.02181 -0.895285 0
M  V30 39013 P 4259.55 -8.03563 3.84925 0
M  V30 39014 O 4259.33 -8.85821 5.0569 0
M  V30 39015 O 4258.76 -8.41101 2.65469 0
M  V30 39016 O 4259.3 -6.4965 4.18908 0
M  V30 39017 C 4260.24 -5.81037 5.05421 0
M  V30 39018 C 4259.51 -4.78366 5.89277 0
M  V30 39019 O 4259.3 -3.58302 5.08433 0
M  V30 39020 C 4258.11 -5.17448 6.36119 0
M  V30 39021 O 4257.72 -4.45271 7.53232 0
M  V30 39022 C 4257.23 -4.74639 5.19936 0
M  V30 39023 C 4257.94 -3.49432 4.70418 0
M  V30 39024 N 4257.89 -3.31776 3.22945 0
M  V30 39025 H 4260.73 -6.54213 5.71376 0
M  V30 39026 H 4261.01 -5.30492 4.44033 0
M  V30 39027 H 4260.14 -4.55889 6.76652 0
M  V30 39028 P 4256.17 -4.23843 7.83734 0
M  V30 39029 O 4255.95 -4.19407 9.29784 0
M  V30 39030 O 4255.38 -5.24426 7.09156 0
M  V30 39031 O 4255.92 -2.7935 7.20758 0
M  V30 39032 C 4256.86 -1.72945 7.50224 0
M  V30 39033 C 4256.13 -0.406376 7.57911 0
M  V30 39034 O 4255.92 0.0897726 6.21935 0
M  V30 39035 C 4254.73 -0.438983 8.18724 0
M  V30 39036 O 4254.34 0.825065 8.71101 0
M  V30 39037 C 4253.85 -0.783689 6.99524 0
M  V30 39038 C 4254.56 -0.0619086 5.85867 0
M  V30 39039 N 4254.51 -0.78573 4.56183 0
M  V30 39040 C 4254.36 -0.0292889 3.41887 0
M  V30 39041 O 4254.27 1.18445 3.4419 0
M  V30 39042 N 4254.32 -0.744061 2.23964 0
M  V30 39043 C 4254.41 -2.10932 2.10362 0
M  V30 39044 C 4254.56 -2.8202 3.34994 0
M  V30 39045 C 4254.61 -2.15547 4.52261 0
M  V30 39046 H 4257.36 -1.93379 8.46595 0
M  V30 39047 H 4257.62 -1.68132 6.70852 0
M  V30 39048 H 4256.76 0.289041 8.15388 0
M  V30 39049 H 4254.1 0.926847 5.72749 0
M  V30 39050 H 4253.82 -1.86973 6.82036 0
M  V30 39051 H 4252.83 -0.403896 7.13257 0
M  V30 39052 H 4254.67 -1.20585 8.97435 0
M  V30 39053 H 4254.74 -2.71231 5.45042 0
M  V30 39054 P 4252.79 1.17771 8.83182 0
M  V30 39055 O 4252.57 2.07206 9.98732 0
M  V30 39056 O 4252 -0.0743816 8.81969 0
M  V30 39057 O 4252.54 1.97652 7.47304 0
M  V30 39058 C 4253.48 3.01133 7.08783 0
M  V30 39059 C 4252.75 4.12613 6.37049 0
M  V30 39060 O 4252.54 3.72827 4.97879 0
M  V30 39061 C 4251.35 4.45085 6.88694 0
M  V30 39062 O 4250.96 5.7877 6.5624 0
M  V30 39063 C 4250.47 3.47817 6.12078 0
M  V30 39064 C 4251.18 3.39414 4.77697 0
M  V30 39065 N 4251.13 2.04615 4.15333 0
M  V30 39066 C 4251.21 0.803897 4.75249 0
M  V30 39067 N 4251.13 -0.197615 3.91502 0
M  V30 39068 C 4250.99 0.413002 2.66823 0
M  V30 39069 C 4250.86 -0.157221 1.38007 0
M  V30 39070 N 4250.74 0.833136 0.390236 0
M  V30 39071 C 4250.74 2.19402 0.623885 0
M  V30 39072 N 4250.61 2.97622 -0.449677 0
M  V30 39073 N 4250.87 2.73005 1.83601 0
M  V30 39074 C 4250.99 1.78786 2.80935 0
M  V30 39075 H 4253.97 3.41248 7.98759 0
M  V30 39076 H 4254.25 2.5837 6.41742 0
M  V30 39077 H 4253.38 5.02657 6.42673 0
M  V30 39078 P 4249.41 6.144 6.45285 0
M  V30 39079 O 4249.19 7.54673 6.86199 0
M  V30 39080 O 4248.62 5.12391 7.179 0
M  V30 39081 O 4249.16 5.99158 4.88404 0
M  V30 39082 C 4250.1 6.60234 3.96415 0
M  V30 39083 C 4249.37 7.08259 2.72856 0
M  V30 39084 O 4249.16 5.9427 1.83651 0
M  V30 39085 C 4247.97 7.64886 2.9555 0
M  V30 39086 O 4247.58 8.53963 1.90717 0
M  V30 39087 C 4247.09 6.4116 2.90739 0
M  V30 39088 C 4247.8 5.55375 1.86963 0
M  V30 39089 N 4247.75 4.09664 2.15742 0
M  V30 39090 C 4247.83 3.44381 3.37233 0
M  V30 39091 N 4247.75 2.14131 3.28347 0
M  V30 39092 C 4247.61 1.90247 1.91588 0
M  V30 39093 C 4247.48 0.683992 1.20892 0
M  V30 39094 N 4247.36 0.903396 -0.173998 0
M  V30 39095 C 4247.36 2.14171 -0.784879 0
M  V30 39096 N 4247.23 2.1435 -2.11317 0
M  V30 39097 N 4247.49 3.28784 -0.119316 0
M  V30 39098 C 4247.61 3.0977 1.22194 0
M  V30 39099 H 4250.59 7.45574 4.45629 0
M  V30 39100 H 4250.87 5.86232 3.67314 0
M  V30 39101 H 4250 7.84412 2.24479 0
M  V30 39102 P 4246.03 8.7635 1.60911 0
M  V30 39103 O 4245.81 10.1388 1.11561 0
M  V30 39104 O 4245.24 8.36503 2.79617 0
M  V30 39105 O 4245.78 7.71806 0.42951 0
M  V30 39106 C 4246.72 7.67148 -0.673689 0
M  V30 39107 C 4245.99 7.33374 -1.95559 0
M  V30 39108 O 4245.78 5.88721 -2.00726 0
M  V30 39109 C 4244.59 7.92526 -2.10483 0
M  V30 39110 O 4244.2 8.02971 -3.47653 0
M  V30 39111 C 4243.71 6.89602 -1.41652 0
M  V30 39112 C 4244.42 5.59201 -1.75185 0
M  V30 39113 N 4244.37 4.58301 -0.657969 0
M  V30 39114 H 4247.21 8.65116 -0.777161 0
M  V30 39115 H 4247.49 6.9022 -0.46725 0
M  V30 39116 H 4246.62 7.66548 -2.79458 0
M  V30 39117 H 4243.96 5.16165 -2.65183 0
M  V30 39118 H 4243.68 7.06433 -0.329384 0
M  V30 39119 H 4242.69 6.90926 -1.82021 0
M  V30 39120 H 4244.53 8.90873 -1.62657 0
M  V30 39121 P 4242.65 8.03563 -3.84925 0
M  V30 39122 O 4242.43 8.85821 -5.0569 0
M  V30 39123 O 4241.86 8.41101 -2.65469 0
M  V30 39124 O 4242.4 6.4965 -4.18908 0
M  V30 39125 C 4243.34 5.81037 -5.05421 0
M  V30 39126 C 4242.61 4.78366 -5.89277 0
M  V30 39127 O 4242.4 3.58302 -5.08433 0
M  V30 39128 C 4241.21 5.17448 -6.36119 0
M  V30 39129 O 4240.82 4.45271 -7.53232 0
M  V30 39130 C 4240.33 4.74639 -5.19936 0
M  V30 39131 C 4241.04 3.49432 -4.70418 0
M  V30 39132 N 4240.99 3.31776 -3.22945 0
M  V30 39133 C 4241.07 4.27147 -2.23315 0
M  V30 39134 N 4240.99 3.78447 -1.02186 0
M  V30 39135 C 4240.85 2.41001 -1.21732 0
M  V30 39136 C 4240.72 1.36111 -0.27694 0
M  V30 39137 O 4240.7 1.42065 0.951767 0
M  V30 39138 N 4240.6 0.113683 -0.912949 0
M  V30 39139 C 4240.6 -0.0846396 -2.27943 0
M  V30 39140 N 4240.47 -1.34737 -2.6916 0
M  V30 39141 N 4240.73 0.902521 -3.16379 0
M  V30 39142 C 4240.85 2.11937 -2.56849 0
M  V30 39143 H 4243.83 6.54213 -5.71376 0
M  V30 39144 H 4244.11 5.30492 -4.44033 0
M  V30 39145 H 4243.24 4.55889 -6.76652 0
M  V30 39146 H 4240.58 2.6176 -5.18021 0
M  V30 39147 H 4240.3 5.52233 -4.41941 0
M  V30 39148 H 4239.31 4.52045 -5.53452 0
M  V30 39149 H 4241.15 6.25193 -6.55307 0
M  V30 39150 H 4241.19 5.3351 -2.43857 0
M  V30 39151 H 4240.51 -0.69331 -0.330371 0
M  V30 39152 H 4240.48 -1.56433 -3.6988 0
M  V30 39153 H 4240.37 -2.10701 -2.00133 0
M  V30 39154 P 4239.27 4.23843 -7.83734 0
M  V30 39155 O 4239.05 4.19407 -9.29784 0
M  V30 39156 O 4238.48 5.24426 -7.09156 0
M  V30 39157 O 4239.02 2.7935 -7.20758 0
M  V30 39158 C 4239.96 1.7299 -7.50419 0
M  V30 39159 C 4239.23 0.406376 -7.57911 0
M  V30 39160 O 4239.02 -0.0897726 -6.21935 0
M  V30 39161 C 4237.83 0.447224 -8.1878 0
M  V30 39162 O 4237.44 -0.825065 -8.71101 0
M  V30 39163 C 4236.95 0.783801 -6.99623 0
M  V30 39164 C 4237.66 0.0619192 -5.85967 0
M  V30 39165 N 4237.61 0.7859 -4.56281 0
M  V30 39166 C 4237.69 2.14308 -4.31736 0
M  V30 39167 N 4237.61 2.46106 -3.05116 0
M  V30 39168 C 4237.47 1.23422 -2.4014 0
M  V30 39169 C 4237.34 0.938381 -1.02409 0
M  V30 39170 N 4237.22 -0.444647 -0.805413 0
M  V30 39171 C 4237.22 -1.40829 -1.79435 0
M  V30 39172 N 4237.09 -2.67213 -1.38558 0
M  V30 39173 N 4237.35 -1.12947 -3.09005 0
M  V30 39174 C 4237.47 0.204887 -3.32369 0
M  V30 39175 H 4240.45 1.93423 -8.4679 0
M  V30 39176 H 4240.73 1.68181 -6.71046 0
M  V30 39177 H 4239.86 -0.289041 -8.15388 0
M  V30 39178 P 4235.89 -1.17771 -8.83182 0
M  V30 39179 O 4235.67 -2.07206 -9.98732 0
M  V30 39180 O 4235.1 0.0743816 -8.81969 0
M  V30 39181 O 4235.64 -1.97652 -7.47304 0
M  V30 39182 C 4236.58 -3.01133 -7.08783 0
M  V30 39183 C 4235.85 -4.12613 -6.37049 0
M  V30 39184 O 4235.64 -3.72827 -4.97879 0
M  V30 39185 C 4234.45 -4.45085 -6.88694 0
M  V30 39186 O 4234.06 -5.7877 -6.5624 0
M  V30 39187 C 4233.57 -3.47817 -6.12078 0
M  V30 39188 C 4234.28 -3.39414 -4.77697 0
M  V30 39189 N 4234.23 -2.04199 -4.15538 0
M  V30 39190 H 4237.07 -3.41248 -7.98759 0
M  V30 39191 H 4237.35 -2.57728 -6.42 0
M  V30 39192 H 4236.48 -5.02657 -6.42673 0
M  V30 39193 H 4233.82 -4.11708 -4.08956 0
M  V30 39194 H 4233.54 -2.49626 -6.61679 0
M  V30 39195 H 4232.55 -3.8662 -6.00862 0
M  V30 39196 H 4234.39 -4.29991 -7.97006 0
M  V30 39197 P 4232.51 -6.144 -6.45285 0
M  V30 39198 O 4232.29 -7.54673 -6.86199 0
M  V30 39199 O 4231.72 -5.12391 -7.179 0
M  V30 39200 O 4232.26 -5.99158 -4.88404 0
M  V30 39201 C 4233.2 -6.60234 -3.96415 0
M  V30 39202 C 4232.47 -7.08259 -2.72856 0
M  V30 39203 O 4232.26 -5.9427 -1.83651 0
M  V30 39204 C 4231.07 -7.64886 -2.9555 0
M  V30 39205 O 4230.68 -8.53963 -1.90717 0
M  V30 39206 C 4230.19 -6.4116 -2.90739 0
M  V30 39207 C 4230.9 -5.55375 -1.86963 0
M  V30 39208 N 4230.85 -4.09664 -2.15742 0
M  V30 39209 H 4233.69 -7.45574 -4.45629 0
M  V30 39210 H 4233.97 -5.86232 -3.67314 0
M  V30 39211 H 4233.1 -7.84412 -2.24479 0
M  V30 39212 P 4229.14 -8.7635 -1.60911 0
M  V30 39213 O 4228.92 -10.1388 -1.11561 0
M  V30 39214 O 4228.35 -8.36503 -2.79617 0
M  V30 39215 O 4228.89 -7.71806 -0.42951 0
M  V30 39216 C 4229.83 -7.67148 0.673689 0
M  V30 39217 C 4229.1 -7.33374 1.95559 0
M  V30 39218 O 4228.89 -5.88721 2.00726 0
M  V30 39219 C 4227.7 -7.92526 2.10483 0
M  V30 39220 O 4227.31 -8.02971 3.47653 0
M  V30 39221 C 4226.82 -6.89602 1.41652 0
M  V30 39222 C 4227.53 -5.59201 1.75185 0
M  V30 39223 N 4227.48 -4.58235 0.662552 0
M  V30 39224 H 4230.31 -8.65116 0.777161 0
M  V30 39225 H 4230.59 -6.90173 0.474152 0
M  V30 39226 H 4229.72 -7.66548 2.79458 0
M  V30 39227 P 4225.76 -8.03563 3.84925 0
M  V30 39228 O 4225.54 -8.85821 5.0569 0
M  V30 39229 O 4224.97 -8.41101 2.65469 0
M  V30 39230 O 4225.51 -6.4965 4.18908 0
M  V30 39231 C 4226.45 -5.81037 5.05421 0
M  V30 39232 C 4225.72 -4.78366 5.89277 0
M  V30 39233 O 4225.51 -3.58302 5.08433 0
M  V30 39234 C 4224.32 -5.17448 6.36119 0
M  V30 39235 O 4223.93 -4.45271 7.53232 0
M  V30 39236 C 4223.44 -4.74639 5.19936 0
M  V30 39237 C 4224.15 -3.49432 4.70418 0
M  V30 39238 N 4224.1 -3.32099 3.22613 0
M  V30 39239 H 4226.93 -6.54213 5.71376 0
M  V30 39240 H 4227.21 -5.30936 4.43503 0
M  V30 39241 H 4226.34 -4.55889 6.76652 0
M  V30 39242 H 4223.68 -2.61715 5.17932 0
M  V30 39243 H 4223.4 -5.52155 4.41878 0
M  V30 39244 H 4222.41 -4.51981 5.53374 0
M  V30 39245 H 4224.25 -6.25124 6.55234 0
M  V30 39246 P 4222.38 -4.23843 7.83734 0
M  V30 39247 O 4222.16 -4.19407 9.29784 0
M  V30 39248 O 4221.59 -5.24426 7.09156 0
M  V30 39249 O 4222.13 -2.7935 7.20758 0
M  V30 39250 C 4223.07 -1.7299 7.50419 0
M  V30 39251 C 4222.34 -0.406376 7.57911 0
M  V30 39252 O 4222.13 0.0897726 6.21935 0
M  V30 39253 C 4220.94 -0.447224 8.1878 0
M  V30 39254 O 4220.55 0.825065 8.71101 0
M  V30 39255 C 4220.06 -0.783801 6.99623 0
M  V30 39256 C 4220.77 -0.0619192 5.85967 0
M  V30 39257 N 4220.72 -0.7859 4.56281 0
M  V30 39258 H 4223.55 -1.93423 8.4679 0
M  V30 39259 H 4223.83 -1.68181 6.71046 0
M  V30 39260 H 4222.96 0.289041 8.15388 0
M  V30 39261 P 4219 1.17771 8.83182 0
M  V30 39262 O 4218.78 2.07206 9.98732 0
M  V30 39263 O 4218.21 -0.0743816 8.81969 0
M  V30 39264 O 4218.75 1.97652 7.47304 0
M  V30 39265 C 4219.69 3.01133 7.08783 0
M  V30 39266 C 4218.96 4.12613 6.37049 0
M  V30 39267 O 4218.75 3.72827 4.97879 0
M  V30 39268 C 4217.56 4.45085 6.88694 0
M  V30 39269 O 4217.17 5.7877 6.5624 0
M  V30 39270 C 4216.68 3.47817 6.12078 0
M  V30 39271 C 4217.39 3.39414 4.77697 0
M  V30 39272 N 4217.34 2.04615 4.15333 0
M  V30 39273 H 4220.17 3.41248 7.98759 0
M  V30 39274 H 4220.45 2.5837 6.41742 0
M  V30 39275 H 4219.58 5.02657 6.42673 0
M  V30 39276 P 4215.62 6.144 6.45285 0
M  V30 39277 O 4215.4 7.54673 6.86199 0
M  V30 39278 O 4214.83 5.12391 7.179 0
M  V30 39279 O 4215.37 5.99158 4.88404 0
M  V30 39280 C 4216.31 6.60234 3.96415 0
M  V30 39281 C 4215.58 7.08259 2.72856 0
M  V30 39282 O 4215.37 5.9427 1.83651 0
M  V30 39283 C 4214.18 7.64886 2.9555 0
M  V30 39284 O 4213.79 8.53963 1.90717 0
M  V30 39285 C 4213.3 6.4116 2.90739 0
M  V30 39286 C 4214.01 5.55375 1.86963 0
M  V30 39287 N 4213.96 4.09664 2.15742 0
M  V30 39288 H 4216.79 7.45574 4.45629 0
M  V30 39289 H 4217.07 5.86232 3.67314 0
M  V30 39290 H 4216.2 7.84412 2.24479 0
M  V30 39291 P 4212.24 8.7635 1.60911 0
M  V30 39292 O 4212.02 10.1388 1.11561 0
M  V30 39293 O 4211.45 8.36503 2.79617 0
M  V30 39294 O 4211.99 7.71806 0.42951 0
M  V30 39295 C 4212.93 7.67148 -0.673689 0
M  V30 39296 C 4212.2 7.33374 -1.95559 0
M  V30 39297 O 4211.99 5.88721 -2.00726 0
M  V30 39298 C 4210.8 7.92526 -2.10483 0
M  V30 39299 O 4210.41 8.02971 -3.47653 0
M  V30 39300 C 4209.92 6.89602 -1.41652 0
M  V30 39301 C 4210.63 5.59201 -1.75185 0
M  V30 39302 N 4210.58 4.58301 -0.657969 0
M  V30 39303 H 4213.41 8.65116 -0.777161 0
M  V30 39304 H 4213.69 6.9022 -0.46725 0
M  V30 39305 H 4212.82 7.66548 -2.79458 0
M  V30 39306 H 4210.16 5.16165 -2.65183 0
M  V30 39307 H 4209.88 7.06433 -0.329384 0
M  V30 39308 H 4208.89 6.90926 -1.82021 0
M  V30 39309 H 4210.73 8.90873 -1.62657 0
M  V30 39310 P 4208.86 8.03563 -3.84925 0
M  V30 39311 O 4208.64 8.85821 -5.0569 0
M  V30 39312 O 4208.07 8.41101 -2.65469 0
M  V30 39313 O 4208.61 6.4965 -4.18908 0
M  V30 39314 C 4209.55 5.81037 -5.05421 0
M  V30 39315 C 4208.82 4.78366 -5.89277 0
M  V30 39316 O 4208.61 3.58302 -5.08433 0
M  V30 39317 C 4207.42 5.17448 -6.36119 0
M  V30 39318 O 4207.03 4.45271 -7.53232 0
M  V30 39319 C 4206.54 4.74639 -5.19936 0
M  V30 39320 C 4207.25 3.49432 -4.70418 0
M  V30 39321 N 4207.2 3.31776 -3.22945 0
M  V30 39322 H 4210.03 6.54213 -5.71376 0
M  V30 39323 H 4210.31 5.30492 -4.44033 0
M  V30 39324 H 4209.44 4.55889 -6.76652 0
M  V30 39325 P 4205.48 4.23843 -7.83734 0
M  V30 39326 O 4205.26 4.19407 -9.29784 0
M  V30 39327 O 4204.69 5.24426 -7.09156 0
M  V30 39328 O 4205.23 2.7935 -7.20758 0
M  V30 39329 C 4206.17 1.7299 -7.50419 0
M  V30 39330 C 4205.44 0.406376 -7.57911 0
M  V30 39331 O 4205.23 -0.0897726 -6.21935 0
M  V30 39332 C 4204.04 0.447224 -8.1878 0
M  V30 39333 O 4203.65 -0.825065 -8.71101 0
M  V30 39334 C 4203.16 0.783801 -6.99623 0
M  V30 39335 C 4203.87 0.0619192 -5.85967 0
M  V30 39336 N 4203.82 0.790462 -4.56202 0
M  V30 39337 H 4206.65 1.93423 -8.4679 0
M  V30 39338 H 4206.93 1.68852 -6.70877 0
M  V30 39339 H 4206.06 -0.289041 -8.15388 0
M  V30 39340 H 4203.4 -0.927006 -5.72848 0
M  V30 39341 H 4203.12 1.86973 -6.82036 0
M  V30 39342 H 4202.13 0.403953 -7.13357 0
M  V30 39343 H 4203.97 1.20599 -8.97534 0
M  V30 39344 P 4202.1 -1.17771 -8.83182 0
M  V30 39345 O 4201.88 -2.07206 -9.98732 0
M  V30 39346 O 4201.31 0.0743816 -8.81969 0
M  V30 39347 O 4201.85 -1.97652 -7.47304 0
M  V30 39348 C 4202.79 -3.01133 -7.08783 0
M  V30 39349 C 4202.06 -4.12613 -6.37049 0
M  V30 39350 O 4201.85 -3.72827 -4.97879 0
M  V30 39351 C 4200.66 -4.45085 -6.88694 0
M  V30 39352 O 4200.27 -5.7877 -6.5624 0
M  V30 39353 C 4199.78 -3.47817 -6.12078 0
M  V30 39354 C 4200.49 -3.39414 -4.77697 0
M  V30 39355 N 4200.44 -2.04615 -4.15333 0
M  V30 39356 H 4203.27 -3.41248 -7.98759 0
M  V30 39357 H 4203.55 -2.5837 -6.41742 0
M  V30 39358 H 4202.68 -5.02657 -6.42673 0
M  V30 39359 P 4198.72 -6.144 -6.45285 0
M  V30 39360 O 4198.5 -7.54673 -6.86199 0
M  V30 39361 O 4197.93 -5.12391 -7.179 0
M  V30 39362 O 4198.47 -5.99158 -4.88404 0
M  V30 39363 C 4199.41 -6.60234 -3.96415 0
M  V30 39364 C 4198.68 -7.08259 -2.72856 0
M  V30 39365 O 4198.47 -5.9427 -1.83651 0
M  V30 39366 C 4197.28 -7.64886 -2.9555 0
M  V30 39367 O 4196.89 -8.53963 -1.90717 0
M  V30 39368 C 4196.4 -6.4116 -2.90739 0
M  V30 39369 C 4197.11 -5.55375 -1.86963 0
M  V30 39370 N 4197.06 -4.09448 -2.16152 0
M  V30 39371 H 4199.89 -7.45574 -4.45629 0
M  V30 39372 H 4200.17 -5.85864 -3.679 0
M  V30 39373 H 4199.3 -7.84412 -2.24479 0
M  V30 39374 H 4196.64 -5.73457 -0.888562 0
M  V30 39375 H 4196.36 -5.90877 -3.88583 0
M  V30 39376 H 4195.37 -6.6596 -2.58858 0
M  V30 39377 H 4197.21 -8.16339 -3.92049 0
M  V30 39378 P 4195.34 -8.7635 -1.60911 0
M  V30 39379 O 4195.12 -10.1388 -1.11561 0
M  V30 39380 O 4194.55 -8.36503 -2.79617 0
M  V30 39381 O 4195.09 -7.71806 -0.42951 0
M  V30 39382 C 4196.03 -7.67148 0.673689 0
M  V30 39383 C 4195.3 -7.33374 1.95559 0
M  V30 39384 O 4195.09 -5.88721 2.00726 0
M  V30 39385 C 4193.9 -7.92526 2.10483 0
M  V30 39386 O 4193.51 -8.02971 3.47653 0
M  V30 39387 C 4193.02 -6.89602 1.41652 0
M  V30 39388 C 4193.73 -5.59201 1.75185 0
M  V30 39389 N 4193.68 -4.58301 0.657969 0
M  V30 39390 H 4196.51 -8.65116 0.777161 0
M  V30 39391 H 4196.79 -6.9022 0.46725 0
M  V30 39392 H 4195.92 -7.66548 2.79458 0
M  V30 39393 H 4193.26 -5.16165 2.65183 0
M  V30 39394 H 4192.98 -7.06433 0.329384 0
M  V30 39395 H 4191.99 -6.90926 1.82021 0
M  V30 39396 H 4193.83 -8.90873 1.62657 0
M  V30 39397 P 4191.96 -8.03563 3.84925 0
M  V30 39398 O 4191.74 -8.85821 5.0569 0
M  V30 39399 O 4191.17 -8.41101 2.65469 0
M  V30 39400 O 4191.71 -6.4965 4.18908 0
M  V30 39401 C 4192.65 -5.81037 5.05421 0
M  V30 39402 C 4191.92 -4.78366 5.89277 0
M  V30 39403 O 4191.71 -3.58302 5.08433 0
M  V30 39404 C 4190.52 -5.17448 6.36119 0
M  V30 39405 O 4190.13 -4.45271 7.53232 0
M  V30 39406 C 4189.64 -4.74639 5.19936 0
M  V30 39407 C 4190.35 -3.49432 4.70418 0
M  V30 39408 N 4190.3 -3.31776 3.22945 0
M  V30 39409 C 4190.38 -4.27147 2.23315 0
M  V30 39410 N 4190.3 -3.78447 1.02186 0
M  V30 39411 C 4190.16 -2.41001 1.21732 0
M  V30 39412 C 4190.03 -1.36111 0.27694 0
M  V30 39413 N 4189.91 -0.113683 0.912949 0
M  V30 39414 C 4189.91 0.0846396 2.27943 0
M  V30 39415 N 4189.78 1.34737 2.6916 0
M  V30 39416 N 4190.04 -0.902521 3.16379 0
M  V30 39417 C 4190.16 -2.11937 2.56849 0
M  V30 39418 H 4193.13 -6.54213 5.71376 0
M  V30 39419 H 4193.41 -5.30492 4.44033 0
M  V30 39420 H 4192.54 -4.55889 6.76652 0
M  V30 39421 P 4188.58 -4.23843 7.83734 0
M  V30 39422 O 4188.36 -4.19407 9.29784 0
M  V30 39423 O 4187.79 -5.24426 7.09156 0
M  V30 39424 O 4188.33 -2.7935 7.20758 0
M  V30 39425 C 4189.27 -1.7299 7.50419 0
M  V30 39426 C 4188.54 -0.406376 7.57911 0
M  V30 39427 O 4188.33 0.0897726 6.21935 0
M  V30 39428 C 4187.14 -0.447224 8.1878 0
M  V30 39429 O 4186.75 0.825065 8.71101 0
M  V30 39430 C 4186.26 -0.783801 6.99623 0
M  V30 39431 C 4186.97 -0.0619192 5.85967 0
M  V30 39432 N 4186.92 -0.790462 4.56202 0
M  V30 39433 C 4187 -2.13895 4.34171 0
M  V30 39434 N 4186.93 -2.46449 3.08687 0
M  V30 39435 C 4186.78 -1.2525 2.43697 0
M  V30 39436 C 4186.65 -0.914535 1.07318 0
M  V30 39437 N 4186.64 -1.80782 0.0887348 0
M  V30 39438 N 4186.53 0.386745 0.768133 0
M  V30 39439 C 4186.54 1.28096 1.75159 0
M  V30 39440 N 4186.66 1.09708 3.04861 0
M  V30 39441 C 4186.78 -0.214857 3.32306 0
M  V30 39442 H 4189.75 -1.93423 8.4679 0
M  V30 39443 H 4190.03 -1.68852 6.70877 0
M  V30 39444 H 4189.16 0.289041 8.15388 0
M  V30 39445 H 4186.5 0.927006 5.72848 0
M  V30 39446 H 4186.22 -1.86973 6.82036 0
M  V30 39447 H 4185.23 -0.403953 7.13357 0
M  V30 39448 H 4187.07 -1.20599 8.97534 0
M  V30 39449 H 4187.11 -2.86846 5.14318 0
M  V30 39450 H 4186.73 -2.81082 0.302037 0
M  V30 39451 H 4186.54 -1.49688 -0.889064 0
M  V30 39452 H 4186.43 2.31317 1.43855 0
M  V30 39453 P 4185.2 1.17771 8.83182 0
M  V30 39454 O 4184.98 2.07206 9.98732 0
M  V30 39455 O 4184.41 -0.0743816 8.81969 0
M  V30 39456 O 4184.95 1.97652 7.47304 0
M  V30 39457 C 4185.89 3.01055 7.08599 0
M  V30 39458 C 4185.16 4.12613 6.37049 0
M  V30 39459 O 4184.95 3.72827 4.97879 0
M  V30 39460 C 4183.76 4.45719 6.88164 0
M  V30 39461 O 4183.37 5.7877 6.5624 0
M  V30 39462 C 4182.88 3.47768 6.11991 0
M  V30 39463 C 4183.59 3.39356 4.77615 0
M  V30 39464 N 4183.54 2.04571 4.15244 0
M  V30 39465 C 4183.39 1.98587 2.78314 0
M  V30 39466 O 4183.3 2.98134 2.08835 0
M  V30 39467 N 4183.35 0.714467 2.24925 0
M  V30 39468 C 4183.44 -0.470001 2.94169 0
M  V30 39469 C 4183.59 -0.312541 4.36783 0
M  V30 39470 C 4183.64 0.914512 4.92583 0
M  V30 39471 H 4186.38 3.41169 7.98575 0
M  V30 39472 H 4186.65 2.58295 6.41556 0
M  V30 39473 H 4185.78 5.02657 6.42673 0
M  V30 39474 H 4183.12 4.11637 4.08885 0
M  V30 39475 H 4182.84 2.49626 6.61679 0
M  V30 39476 H 4181.85 3.86566 6.00778 0
M  V30 39477 H 4183.69 4.29943 7.96918 0
M  V30 39478 H 4183.76 1.00937 6.00374 0
M  V30 39479 P 4181.82 6.144 6.45285 0
M  V30 39480 O 4181.6 7.54673 6.86199 0
M  V30 39481 O 4181.03 5.12391 7.179 0
M  V30 39482 O 4181.57 5.99158 4.88404 0
M  V30 39483 C 4182.51 6.60234 3.96415 0
M  V30 39484 C 4181.78 7.08259 2.72856 0
M  V30 39485 O 4181.57 5.9427 1.83651 0
M  V30 39486 C 4180.38 7.64886 2.9555 0
M  V30 39487 O 4179.99 8.53963 1.90717 0
M  V30 39488 C 4179.5 6.4116 2.90739 0
M  V30 39489 C 4180.21 5.55375 1.86963 0
M  V30 39490 N 4180.16 4.09448 2.16152 0
M  V30 39491 H 4182.99 7.45574 4.45629 0
M  V30 39492 H 4183.27 5.85864 3.679 0
M  V30 39493 H 4182.4 7.84412 2.24479 0
M  V30 39494 H 4179.74 5.73457 0.888562 0
M  V30 39495 H 4179.46 5.90877 3.88583 0
M  V30 39496 H 4178.47 6.6596 2.58858 0
M  V30 39497 H 4180.31 8.16339 3.92049 0
M  V30 39498 P 4178.44 8.7635 1.60911 0
M  V30 39499 O 4178.22 10.1388 1.11561 0
M  V30 39500 O 4177.65 8.36503 2.79617 0
M  V30 39501 O 4178.19 7.71806 0.42951 0
M  V30 39502 C 4179.13 7.67148 -0.673689 0
M  V30 39503 C 4178.4 7.33374 -1.95559 0
M  V30 39504 O 4178.19 5.88721 -2.00726 0
M  V30 39505 C 4177 7.92526 -2.10483 0
M  V30 39506 O 4176.61 8.02971 -3.47653 0
M  V30 39507 C 4176.12 6.89602 -1.41652 0
M  V30 39508 C 4176.83 5.59201 -1.75185 0
M  V30 39509 N 4176.78 4.58235 -0.662552 0
M  V30 39510 H 4179.61 8.65116 -0.777161 0
M  V30 39511 H 4179.89 6.90173 -0.474152 0
M  V30 39512 H 4179.02 7.66548 -2.79458 0
M  V30 39513 P 4175.06 8.03563 -3.84925 0
M  V30 39514 O 4174.84 8.85821 -5.0569 0
M  V30 39515 O 4174.27 8.41101 -2.65469 0
M  V30 39516 O 4174.81 6.4965 -4.18908 0
M  V30 39517 C 4175.75 5.81037 -5.05421 0
M  V30 39518 C 4175.02 4.78366 -5.89277 0
M  V30 39519 O 4174.81 3.58302 -5.08433 0
M  V30 39520 C 4173.62 5.17448 -6.36119 0
M  V30 39521 O 4173.23 4.45271 -7.53232 0
M  V30 39522 C 4172.74 4.74639 -5.19936 0
M  V30 39523 C 4173.45 3.49432 -4.70418 0
M  V30 39524 N 4173.4 3.31776 -3.22945 0
M  V30 39525 H 4176.23 6.54213 -5.71376 0
M  V30 39526 H 4176.51 5.30492 -4.44033 0
M  V30 39527 H 4175.64 4.55889 -6.76652 0
M  V30 39528 P 4171.68 4.23843 -7.83734 0
M  V30 39529 O 4171.46 4.19407 -9.29784 0
M  V30 39530 O 4170.89 5.24426 -7.09156 0
M  V30 39531 O 4171.43 2.7935 -7.20758 0
M  V30 39532 C 4172.37 1.72945 -7.50224 0
M  V30 39533 C 4171.64 0.406376 -7.57911 0
M  V30 39534 O 4171.43 -0.0897726 -6.21935 0
M  V30 39535 C 4170.24 0.438983 -8.18724 0
M  V30 39536 O 4169.85 -0.825065 -8.71101 0
M  V30 39537 C 4169.36 0.783689 -6.99524 0
M  V30 39538 C 4170.07 0.0619086 -5.85867 0
M  V30 39539 N 4170.02 0.78573 -4.56183 0
M  V30 39540 C 4169.87 0.0292889 -3.41887 0
M  V30 39541 O 4169.78 -1.18445 -3.4419 0
M  V30 39542 N 4169.83 0.744061 -2.23964 0
M  V30 39543 C 4169.92 2.10932 -2.10362 0
M  V30 39544 C 4170.07 2.8202 -3.34994 0
M  V30 39545 C 4170.12 2.15547 -4.52261 0
M  V30 39546 H 4172.86 1.93379 -8.46595 0
M  V30 39547 H 4173.13 1.68132 -6.70852 0
M  V30 39548 H 4172.26 -0.289041 -8.15388 0
M  V30 39549 H 4169.6 -0.926847 -5.72749 0
M  V30 39550 H 4169.32 1.86973 -6.82036 0
M  V30 39551 H 4168.33 0.403896 -7.13257 0
M  V30 39552 H 4170.17 1.20585 -8.97435 0
M  V30 39553 H 4170.24 2.71231 -5.45042 0
M  V30 39554 P 4168.3 -1.17771 -8.83182 0
M  V30 39555 O 4168.08 -2.07206 -9.98732 0
M  V30 39556 O 4167.51 0.0743816 -8.81969 0
M  V30 39557 O 4168.05 -1.97652 -7.47304 0
M  V30 39558 C 4168.99 -3.01133 -7.08783 0
M  V30 39559 C 4168.26 -4.12613 -6.37049 0
M  V30 39560 O 4168.05 -3.72827 -4.97879 0
M  V30 39561 C 4166.86 -4.45085 -6.88694 0
M  V30 39562 O 4166.47 -5.7877 -6.5624 0
M  V30 39563 C 4165.98 -3.47817 -6.12078 0
M  V30 39564 C 4166.69 -3.39414 -4.77697 0
M  V30 39565 N 4166.64 -2.04615 -4.15333 0
M  V30 39566 H 4169.47 -3.41248 -7.98759 0
M  V30 39567 H 4169.75 -2.5837 -6.41742 0
M  V30 39568 H 4168.88 -5.02657 -6.42673 0
M  V30 39569 P 4164.92 -6.144 -6.45285 0
M  V30 39570 O 4164.7 -7.54673 -6.86199 0
M  V30 39571 O 4164.13 -5.12391 -7.179 0
M  V30 39572 O 4164.67 -5.99158 -4.88404 0
M  V30 39573 C 4165.61 -6.60234 -3.96415 0
M  V30 39574 C 4164.88 -7.08259 -2.72856 0
M  V30 39575 O 4164.67 -5.9427 -1.83651 0
M  V30 39576 C 4163.48 -7.64886 -2.9555 0
M  V30 39577 O 4163.09 -8.53963 -1.90717 0
M  V30 39578 C 4162.6 -6.4116 -2.90739 0
M  V30 39579 C 4163.31 -5.55375 -1.86963 0
M  V30 39580 N 4163.26 -4.09664 -2.15742 0
M  V30 39581 H 4166.09 -7.45574 -4.45629 0
M  V30 39582 H 4166.37 -5.86232 -3.67314 0
M  V30 39583 H 4165.5 -7.84412 -2.24479 0
M  V30 39584 P 4161.54 -8.7635 -1.60911 0
M  V30 39585 O 4161.32 -10.1388 -1.11561 0
M  V30 39586 O 4160.75 -8.36503 -2.79617 0
M  V30 39587 O 4161.29 -7.71906 -0.429565 0
M  V30 39588 C 4162.23 -7.67148 0.673689 0
M  V30 39589 C 4161.5 -7.33666 1.94851 0
M  V30 39590 O 4161.29 -5.88816 2.00759 0
M  V30 39591 C 4160.1 -7.92526 2.10483 0
M  V30 39592 O 4159.71 -8.03063 3.47693 0
M  V30 39593 C 4159.22 -6.89602 1.41652 0
M  V30 39594 C 4159.93 -5.59201 1.75185 0
M  V30 39595 N 4159.88 -4.58235 0.662552 0
M  V30 39596 C 4159.73 -3.24451 1.01643 0
M  V30 39597 O 4159.64 -2.94958 2.21722 0
M  V30 39598 N 4159.68 -2.30408 -0.165238 0
M  V30 39599 C 4159.78 -2.66048 -1.25118 0
M  V30 39600 N 4159.73 -1.70787 -2.16813 0
M  V30 39601 C 4159.93 -4.02732 -1.64413 0
M  V30 39602 C 4159.98 -4.9488 -0.63991 0
M  V30 39603 H 4162.72 -8.65017 0.777072 0
M  V30 39604 H 4162.99 -6.90173 0.474152 0
M  V30 39605 H 4162.12 -7.66642 2.79492 0
M  V30 39606 H 4159.46 -5.16254 2.65229 0
M  V30 39607 H 4159.18 -7.06532 0.329431 0
M  V30 39608 H 4158.19 -6.91023 1.82047 0
M  V30 39609 H 4160.03 -8.90873 1.62657 0
M  V30 39610 H 4160.1 -6.00104 -0.892197 0
M  V30 39611 H 4160 -4.31733 -2.69229 0
M  V30 39612 H 4159.61 -0.724835 -1.8844 0
M  V30 39613 H 4159.8 -1.94716 -3.16734 0
M  V30 39614 P 4158.16 -8.03563 3.84925 0
M  V30 39615 O 4157.94 -8.85821 5.0569 0
M  V30 39616 O 4157.37 -8.41101 2.65469 0
M  V30 39617 O 4157.91 -6.4965 4.18908 0
M  V30 39618 C 4158.85 -5.81037 5.05421 0
M  V30 39619 C 4158.12 -4.78366 5.89277 0
M  V30 39620 O 4157.91 -3.58302 5.08433 0
M  V30 39621 C 4156.72 -5.17448 6.36119 0
M  V30 39622 O 4156.33 -4.45271 7.53232 0
M  V30 39623 C 4155.84 -4.74639 5.19936 0
M  V30 39624 C 4156.55 -3.49432 4.70418 0
M  V30 39625 N 4156.5 -3.32099 3.22613 0
M  V30 39626 H 4159.33 -6.54213 5.71376 0
M  V30 39627 H 4159.61 -5.30936 4.43503 0
M  V30 39628 H 4158.74 -4.55889 6.76652 0
M  V30 39629 H 4156.08 -2.61715 5.17932 0
M  V30 39630 H 4155.8 -5.52155 4.41878 0
M  V30 39631 H 4154.81 -4.51981 5.53374 0
M  V30 39632 H 4156.65 -6.25124 6.55234 0
M  V30 39633 P 4154.78 -4.23843 7.83734 0
M  V30 39634 O 4154.56 -4.19407 9.29784 0
M  V30 39635 O 4153.99 -5.24426 7.09156 0
M  V30 39636 O 4154.53 -2.7935 7.20758 0
M  V30 39637 C 4155.47 -1.7299 7.50419 0
M  V30 39638 C 4154.74 -0.406376 7.57911 0
M  V30 39639 O 4154.53 0.0897726 6.21935 0
M  V30 39640 C 4153.34 -0.447224 8.1878 0
M  V30 39641 O 4152.95 0.825065 8.71101 0
M  V30 39642 C 4152.46 -0.783801 6.99623 0
M  V30 39643 C 4153.17 -0.0619192 5.85967 0
M  V30 39644 N 4153.12 -0.7859 4.56281 0
M  V30 39645 H 4155.95 -1.93423 8.4679 0
M  V30 39646 H 4156.23 -1.68181 6.71046 0
M  V30 39647 H 4155.36 0.289041 8.15388 0
M  V30 39648 P 4151.4 1.17771 8.83182 0
M  V30 39649 O 4151.18 2.07206 9.98732 0
M  V30 39650 O 4150.61 -0.0743816 8.81969 0
M  V30 39651 O 4151.15 1.97678 7.474 0
M  V30 39652 C 4152.09 3.01133 7.08783 0
M  V30 39653 C 4151.36 4.1203 6.37546 0
M  V30 39654 O 4151.15 3.72887 4.9796 0
M  V30 39655 C 4149.96 4.45085 6.88694 0
M  V30 39656 O 4149.57 5.78836 6.56315 0
M  V30 39657 C 4149.08 3.47817 6.12078 0
M  V30 39658 C 4149.79 3.39414 4.77697 0
M  V30 39659 N 4149.74 2.04615 4.15333 0
M  V30 39660 C 4149.59 1.96929 2.77162 0
M  V30 39661 O 4149.5 3.02017 2.12006 0
M  V30 39662 N 4149.54 0.55485 2.24237 0
M  V30 39663 C 4149.64 -0.367808 2.9169 0
M  V30 39664 N 4149.59 -1.53426 2.29427 0
M  V30 39665 C 4149.79 -0.319148 4.33828 0
M  V30 39666 C 4149.84 0.920672 4.90433 0
M  V30 39667 H 4152.58 3.41209 7.98667 0
M  V30 39668 H 4152.85 2.5837 6.41742 0
M  V30 39669 H 4151.98 5.02718 6.42752 0
M  V30 39670 H 4149.32 4.11779 4.09026 0
M  V30 39671 H 4149.04 2.49661 6.61772 0
M  V30 39672 H 4148.05 3.86674 6.00946 0
M  V30 39673 H 4149.89 4.29991 7.97006 0
M  V30 39674 H 4149.96 1.00589 5.98303 0
M  V30 39675 H 4149.86 -1.22639 4.93799 0
M  V30 39676 H 4149.47 -1.56819 1.27167 0
M  V30 39677 H 4149.66 -2.41062 2.83063 0
M  V30 39678 P 4148.02 6.144 6.45285 0
M  V30 39679 O 4147.8 7.54673 6.86199 0
M  V30 39680 O 4147.23 5.12391 7.179 0
M  V30 39681 O 4147.77 5.99158 4.88404 0
M  V30 39682 C 4148.71 6.60234 3.96415 0
M  V30 39683 C 4147.98 7.08259 2.72856 0
M  V30 39684 O 4147.77 5.9427 1.83651 0
M  V30 39685 C 4146.58 7.64886 2.9555 0
M  V30 39686 O 4146.19 8.53963 1.90717 0
M  V30 39687 C 4145.7 6.4116 2.90739 0
M  V30 39688 C 4146.41 5.55375 1.86963 0
M  V30 39689 N 4146.36 4.09664 2.15742 0
M  V30 39690 H 4149.19 7.45574 4.45629 0
M  V30 39691 H 4149.47 5.86232 3.67314 0
M  V30 39692 H 4148.6 7.84412 2.24479 0
M  V30 39693 P 4144.64 8.7635 1.60911 0
M  V30 39694 O 4144.42 10.1388 1.11561 0
M  V30 39695 O 4143.85 8.36503 2.79617 0
M  V30 39696 O 4144.39 7.71806 0.42951 0
M  V30 39697 C 4145.33 7.67148 -0.673689 0
M  V30 39698 C 4144.6 7.33374 -1.95559 0
M  V30 39699 O 4144.39 5.88721 -2.00726 0
M  V30 39700 C 4143.2 7.92526 -2.10483 0
M  V30 39701 O 4142.81 8.02971 -3.47653 0
M  V30 39702 C 4142.32 6.89602 -1.41652 0
M  V30 39703 C 4143.03 5.59201 -1.75185 0
M  V30 39704 N 4142.98 4.58235 -0.662552 0
M  V30 39705 C 4143.06 4.7683 0.704049 0
M  V30 39706 N 4142.98 3.66233 1.39775 0
M  V30 39707 C 4142.84 2.66526 0.431739 0
M  V30 39708 C 4142.71 1.26394 0.575992 0
M  V30 39709 O 4142.69 0.589894 1.60503 0
M  V30 39710 N 4142.59 0.62859 -0.67177 0
M  V30 39711 C 4142.59 1.27134 -1.89385 0
M  V30 39712 N 4142.46 0.492035 -2.96951 0
M  V30 39713 N 4142.72 2.58978 -2.02907 0
M  V30 39714 C 4142.84 3.22433 -0.832218 0
M  V30 39715 H 4145.81 8.65116 -0.777161 0
M  V30 39716 H 4146.09 6.90173 -0.474152 0
M  V30 39717 H 4145.22 7.66548 -2.79458 0
M  V30 39718 H 4142.56 5.16254 -2.65229 0
M  V30 39719 H 4142.28 7.06532 -0.329431 0
M  V30 39720 H 4141.29 6.91023 -1.82047 0
M  V30 39721 H 4143.13 8.90971 -1.62675 0
M  V30 39722 H 4143.18 5.74954 1.16305 0
M  V30 39723 H 4142.49 -0.366713 -0.674793 0
M  V30 39724 H 4142.46 0.908532 -3.91188 0
M  V30 39725 H 4142.36 -0.528253 -2.85758 0
M  V30 39726 P 4141.26 8.03563 -3.84925 0
M  V30 39727 O 4141.04 8.85821 -5.0569 0
M  V30 39728 O 4140.47 8.41101 -2.65469 0
M  V30 39729 O 4141.01 6.4965 -4.18908 0
M  V30 39730 C 4141.95 5.81037 -5.05421 0
M  V30 39731 C 4141.22 4.78366 -5.89277 0
M  V30 39732 O 4141.01 3.58302 -5.08433 0
M  V30 39733 C 4139.82 5.17448 -6.36119 0
M  V30 39734 O 4139.43 4.45271 -7.53232 0
M  V30 39735 C 4138.94 4.74639 -5.19936 0
M  V30 39736 C 4139.65 3.49432 -4.70418 0
M  V30 39737 N 4139.6 3.31776 -3.22945 0
M  V30 39738 H 4142.43 6.54213 -5.71376 0
M  V30 39739 H 4142.71 5.30492 -4.44033 0
M  V30 39740 H 4141.84 4.55889 -6.76652 0
M  V30 39741 P 4137.88 4.23843 -7.83734 0
M  V30 39742 O 4137.66 4.19407 -9.29784 0
M  V30 39743 O 4137.09 5.24426 -7.09156 0
M  V30 39744 O 4137.63 2.7935 -7.20758 0
M  V30 39745 C 4138.57 1.7299 -7.50419 0
M  V30 39746 C 4137.84 0.406376 -7.57911 0
M  V30 39747 O 4137.63 -0.0897726 -6.21935 0
M  V30 39748 C 4136.44 0.447224 -8.1878 0
M  V30 39749 O 4136.05 -0.825065 -8.71101 0
M  V30 39750 C 4135.56 0.783801 -6.99623 0
M  V30 39751 C 4136.27 0.0619192 -5.85967 0
M  V30 39752 N 4136.22 0.7859 -4.56281 0
M  V30 39753 H 4139.05 1.93423 -8.4679 0
M  V30 39754 H 4139.33 1.68181 -6.71046 0
M  V30 39755 H 4138.46 -0.289041 -8.15388 0
M  V30 39756 P 4134.5 -1.17771 -8.83182 0
M  V30 39757 O 4134.28 -2.07206 -9.98732 0
M  V30 39758 O 4133.71 0.0743816 -8.81969 0
M  V30 39759 O 4134.25 -1.97678 -7.474 0
M  V30 39760 C 4135.19 -3.01133 -7.08783 0
M  V30 39761 C 4134.46 -4.1203 -6.37546 0
M  V30 39762 O 4134.25 -3.72887 -4.9796 0
M  V30 39763 C 4133.06 -4.45085 -6.88694 0
M  V30 39764 O 4132.67 -5.78836 -6.56315 0
M  V30 39765 C 4132.18 -3.47817 -6.12078 0
M  V30 39766 C 4132.89 -3.39414 -4.77697 0
M  V30 39767 N 4132.84 -2.04615 -4.15333 0
M  V30 39768 C 4132.69 -1.96929 -2.77162 0
M  V30 39769 O 4132.6 -3.02017 -2.12006 0
M  V30 39770 N 4132.64 -0.55485 -2.24237 0
M  V30 39771 C 4132.74 0.367808 -2.9169 0
M  V30 39772 N 4132.69 1.53426 -2.29427 0
M  V30 39773 C 4132.89 0.319148 -4.33828 0
M  V30 39774 C 4132.94 -0.920672 -4.90433 0
M  V30 39775 H 4135.68 -3.41209 -7.98667 0
M  V30 39776 H 4135.95 -2.5837 -6.41742 0
M  V30 39777 H 4135.08 -5.02718 -6.42752 0
M  V30 39778 H 4132.42 -4.11779 -4.09026 0
M  V30 39779 H 4132.14 -2.49661 -6.61772 0
M  V30 39780 H 4131.15 -3.86674 -6.00946 0
M  V30 39781 H 4132.99 -4.29991 -7.97006 0
M  V30 39782 H 4133.06 -1.00589 -5.98303 0
M  V30 39783 H 4132.96 1.22639 -4.93799 0
M  V30 39784 H 4132.57 1.56819 -1.27167 0
M  V30 39785 H 4132.76 2.41062 -2.83063 0
M  V30 39786 P 4131.12 -6.144 -6.45285 0
M  V30 39787 O 4130.9 -7.54673 -6.86199 0
M  V30 39788 O 4130.33 -5.12391 -7.179 0
M  V30 39789 O 4130.87 -5.99236 -4.88467 0
M  V30 39790 C 4131.81 -6.60234 -3.96415 0
M  V30 39791 C 4131.08 -7.08079 -2.736 0
M  V30 39792 O 4130.87 -5.94365 -1.8368 0
M  V30 39793 C 4129.68 -7.64886 -2.9555 0
M  V30 39794 O 4129.29 -8.5406 -1.90739 0
M  V30 39795 C 4128.8 -6.4116 -2.90739 0
M  V30 39796 C 4129.51 -5.55375 -1.86963 0
M  V30 39797 N 4129.46 -4.09664 -2.15742 0
M  V30 39798 C 4129.31 -3.22231 -1.08477 0
M  V30 39799 O 4129.22 -3.68951 0.0600489 0
M  V30 39800 N 4129.26 -1.76692 -1.48799 0
M  V30 39801 C 4129.36 -1.41695 -2.57602 0
M  V30 39802 N 4129.31 -0.107296 -2.75791 0
M  V30 39803 C 4129.51 -2.29178 -3.69733 0
M  V30 39804 C 4129.56 -3.62753 -3.42653 0
M  V30 39805 H 4132.3 -7.45488 -4.45578 0
M  V30 39806 H 4132.57 -5.86232 -3.67314 0
M  V30 39807 H 4131.7 -7.84508 -2.24507 0
M  V30 39808 H 4129.04 -5.73556 -0.888715 0
M  V30 39809 H 4128.76 -5.9096 -3.88638 0
M  V30 39810 H 4127.77 -6.66053 -2.58894 0
M  V30 39811 H 4129.61 -8.16339 -3.92049 0
M  V30 39812 H 4129.68 -4.33052 -4.24913 0
M  V30 39813 H 4129.58 -1.9103 -4.71577 0
M  V30 39814 H 4129.19 0.521221 -1.95056 0
M  V30 39815 H 4129.38 0.286429 -3.70695 0
M  V30 39816 P 4127.74 -8.7635 -1.60911 0
M  V30 39817 O 4127.52 -10.1388 -1.11561 0
M  V30 39818 O 4126.95 -8.36503 -2.79617 0
M  V30 39819 O 4127.49 -7.71806 -0.42951 0
M  V30 39820 C 4128.43 -7.67148 0.673689 0
M  V30 39821 C 4127.7 -7.33374 1.95559 0
M  V30 39822 O 4127.49 -5.88721 2.00726 0
M  V30 39823 C 4126.3 -7.92526 2.10483 0
M  V30 39824 O 4125.91 -8.02971 3.47653 0
M  V30 39825 C 4125.42 -6.89602 1.41652 0
M  V30 39826 C 4126.13 -5.59201 1.75185 0
M  V30 39827 N 4126.08 -4.58235 0.662552 0
M  V30 39828 C 4126.16 -4.7683 -0.704049 0
M  V30 39829 N 4126.08 -3.66233 -1.39775 0
M  V30 39830 C 4125.94 -2.66526 -0.431739 0
M  V30 39831 C 4125.81 -1.26394 -0.575992 0
M  V30 39832 O 4125.79 -0.589894 -1.60503 0
M  V30 39833 N 4125.69 -0.62859 0.67177 0
M  V30 39834 C 4125.69 -1.27134 1.89385 0
M  V30 39835 N 4125.56 -0.492035 2.96951 0
M  V30 39836 N 4125.82 -2.58978 2.02907 0
M  V30 39837 C 4125.94 -3.22433 0.832218 0
M  V30 39838 H 4128.91 -8.65116 0.777161 0
M  V30 39839 H 4129.19 -6.90173 0.474152 0
M  V30 39840 H 4128.32 -7.66548 2.79458 0
M  V30 39841 H 4125.66 -5.16254 2.65229 0
M  V30 39842 H 4125.38 -7.06532 0.329431 0
M  V30 39843 H 4124.39 -6.91023 1.82047 0
M  V30 39844 H 4126.23 -8.90971 1.62675 0
M  V30 39845 H 4126.28 -5.74954 -1.16305 0
M  V30 39846 H 4125.59 0.366713 0.674793 0
M  V30 39847 H 4125.56 -0.908532 3.91188 0
M  V30 39848 H 4125.46 0.528253 2.85758 0
M  V30 39849 P 4124.36 -8.03563 3.84925 0
M  V30 39850 O 4124.14 -8.85821 5.0569 0
M  V30 39851 O 4123.57 -8.41101 2.65469 0
M  V30 39852 O 4124.11 -6.4965 4.18908 0
M  V30 39853 C 4125.05 -5.81037 5.05421 0
M  V30 39854 C 4124.32 -4.78366 5.89277 0
M  V30 39855 O 4124.11 -3.58302 5.08433 0
M  V30 39856 C 4122.92 -5.17448 6.36119 0
M  V30 39857 O 4122.53 -4.45271 7.53232 0
M  V30 39858 C 4122.04 -4.74639 5.19936 0
M  V30 39859 C 4122.75 -3.49432 4.70418 0
M  V30 39860 N 4122.7 -3.31776 3.22945 0
M  V30 39861 H 4125.53 -6.54213 5.71376 0
M  V30 39862 H 4125.81 -5.30492 4.44033 0
M  V30 39863 H 4124.94 -4.55889 6.76652 0
M  V30 39864 P 4120.98 -4.23843 7.83734 0
M  V30 39865 O 4120.76 -4.19407 9.29784 0
M  V30 39866 O 4120.19 -5.24426 7.09156 0
M  V30 39867 O 4120.73 -2.7935 7.20758 0
M  V30 39868 C 4121.67 -1.7299 7.50419 0
M  V30 39869 C 4120.94 -0.406376 7.57911 0
M  V30 39870 O 4120.73 0.0897726 6.21935 0
M  V30 39871 C 4119.54 -0.447224 8.1878 0
M  V30 39872 O 4119.15 0.825065 8.71101 0
M  V30 39873 C 4118.66 -0.783801 6.99623 0
M  V30 39874 C 4119.37 -0.0619192 5.85967 0
M  V30 39875 N 4119.32 -0.7859 4.56281 0
M  V30 39876 H 4122.15 -1.93423 8.4679 0
M  V30 39877 H 4122.43 -1.68181 6.71046 0
M  V30 39878 H 4121.56 0.289041 8.15388 0
M  V30 39879 P 4117.6 1.17771 8.83182 0
M  V30 39880 O 4117.38 2.07206 9.98732 0
M  V30 39881 O 4116.81 -0.0743816 8.81969 0
M  V30 39882 O 4117.35 1.97652 7.47304 0
M  V30 39883 C 4118.29 3.01133 7.08783 0
M  V30 39884 C 4117.56 4.12613 6.37049 0
M  V30 39885 O 4117.35 3.72827 4.97879 0
M  V30 39886 C 4116.16 4.45085 6.88694 0
M  V30 39887 O 4115.77 5.7877 6.5624 0
M  V30 39888 C 4115.28 3.47817 6.12078 0
M  V30 39889 C 4115.99 3.39414 4.77697 0
M  V30 39890 N 4115.94 2.04615 4.15333 0
M  V30 39891 H 4118.77 3.41248 7.98759 0
M  V30 39892 H 4119.05 2.5837 6.41742 0
M  V30 39893 H 4118.18 5.02657 6.42673 0
M  V30 39894 P 4114.22 6.144 6.45285 0
M  V30 39895 O 4114 7.54673 6.86199 0
M  V30 39896 O 4113.43 5.12391 7.179 0
M  V30 39897 O 4113.97 5.99158 4.88404 0
M  V30 39898 C 4114.91 6.60234 3.96415 0
M  V30 39899 C 4114.18 7.08259 2.72856 0
M  V30 39900 O 4113.97 5.9427 1.83651 0
M  V30 39901 C 4112.78 7.64886 2.9555 0
M  V30 39902 O 4112.39 8.53963 1.90717 0
M  V30 39903 C 4111.9 6.4116 2.90739 0
M  V30 39904 C 4112.61 5.55375 1.86963 0
M  V30 39905 N 4112.56 4.09664 2.15742 0
M  V30 39906 H 4115.39 7.45574 4.45629 0
M  V30 39907 H 4115.67 5.86232 3.67314 0
M  V30 39908 H 4114.8 7.84412 2.24479 0
M  V30 39909 P 4110.84 8.7635 1.60911 0
M  V30 39910 O 4110.62 10.1388 1.11561 0
M  V30 39911 O 4110.05 8.36503 2.79617 0
M  V30 39912 O 4110.59 7.71806 0.42951 0
M  V30 39913 C 4111.53 7.67148 -0.673689 0
M  V30 39914 C 4110.8 7.33374 -1.95559 0
M  V30 39915 O 4110.59 5.88721 -2.00726 0
M  V30 39916 C 4109.4 7.92526 -2.10483 0
M  V30 39917 O 4109.01 8.02971 -3.47653 0
M  V30 39918 C 4108.52 6.89602 -1.41652 0
M  V30 39919 C 4109.23 5.59201 -1.75185 0
M  V30 39920 N 4109.18 4.58301 -0.657969 0
M  V30 39921 H 4112.01 8.65116 -0.777161 0
M  V30 39922 H 4112.29 6.9022 -0.46725 0
M  V30 39923 H 4111.42 7.66548 -2.79458 0
M  V30 39924 H 4108.76 5.16165 -2.65183 0
M  V30 39925 H 4108.48 7.06433 -0.329384 0
M  V30 39926 H 4107.49 6.90926 -1.82021 0
M  V30 39927 H 4109.33 8.90873 -1.62657 0
M  V30 39928 P 4107.46 8.03563 -3.84925 0
M  V30 39929 O 4107.24 8.85821 -5.0569 0
M  V30 39930 O 4106.67 8.41101 -2.65469 0
M  V30 39931 O 4107.21 6.49734 -4.18962 0
M  V30 39932 C 4108.15 5.81037 -5.05421 0
M  V30 39933 C 4107.42 4.79018 -5.88876 0
M  V30 39934 O 4107.21 3.58359 -5.08515 0
M  V30 39935 C 4106.02 5.17448 -6.36119 0
M  V30 39936 O 4105.63 4.45322 -7.53318 0
M  V30 39937 C 4105.14 4.74639 -5.19936 0
M  V30 39938 C 4105.85 3.49432 -4.70418 0
M  V30 39939 N 4105.8 3.31776 -3.22945 0
M  V30 39940 C 4105.65 2.02742 -2.72939 0
M  V30 39941 O 4105.56 1.08301 -3.52749 0
M  V30 39942 N 4105.6 1.96117 -1.22063 0
M  V30 39943 C 4105.7 2.8878 -0.551566 0
M  V30 39944 N 4105.65 2.65609 0.750198 0
M  V30 39945 C 4105.85 4.22457 -1.03707 0
M  V30 39946 C 4105.9 4.37979 -2.39113 0
M  V30 39947 H 4108.64 6.54138 -5.7131 0
M  V30 39948 H 4108.91 5.30492 -4.44033 0
M  V30 39949 H 4108.04 4.55945 -6.76735 0
M  V30 39950 H 4105.38 2.6176 -5.18021 0
M  V30 39951 H 4105.1 5.52233 -4.41941 0
M  V30 39952 H 4104.11 4.52045 -5.53452 0
M  V30 39953 H 4105.95 6.25124 -6.55234 0
M  V30 39954 H 4106.02 5.37936 -2.80552 0
M  V30 39955 H 4105.92 5.07528 -0.359553 0
M  V30 39956 H 4105.53 1.69403 1.09847 0
M  V30 39957 H 4105.72 3.43701 1.41792 0
M  V30 39958 P 4104.08 4.23843 -7.83734 0
M  V30 39959 O 4103.86 4.19407 -9.29784 0
M  V30 39960 O 4103.29 5.24426 -7.09156 0
M  V30 39961 O 4103.83 2.7935 -7.20758 0
M  V30 39962 C 4104.77 1.7299 -7.50419 0
M  V30 39963 C 4104.04 0.406376 -7.57911 0
M  V30 39964 O 4103.83 -0.0897726 -6.21935 0
M  V30 39965 C 4102.64 0.447224 -8.1878 0
M  V30 39966 O 4102.25 -0.825065 -8.71101 0
M  V30 39967 C 4101.76 0.783801 -6.99623 0
M  V30 39968 C 4102.47 0.0619192 -5.85967 0
M  V30 39969 N 4102.42 0.790462 -4.56202 0
M  V30 39970 H 4105.25 1.93423 -8.4679 0
M  V30 39971 H 4105.53 1.68852 -6.70877 0
M  V30 39972 H 4104.66 -0.289041 -8.15388 0
M  V30 39973 H 4102 -0.927006 -5.72848 0
M  V30 39974 H 4101.72 1.86973 -6.82036 0
M  V30 39975 H 4100.73 0.403953 -7.13357 0
M  V30 39976 H 4102.57 1.20599 -8.97534 0
M  V30 39977 P 4100.7 -1.17771 -8.83182 0
M  V30 39978 O 4100.48 -2.07206 -9.98732 0
M  V30 39979 O 4099.91 0.0743816 -8.81969 0
M  V30 39980 O 4100.45 -1.97652 -7.47304 0
M  V30 39981 C 4101.39 -3.01133 -7.08783 0
M  V30 39982 C 4100.66 -4.12613 -6.37049 0
M  V30 39983 O 4100.45 -3.72827 -4.97879 0
M  V30 39984 C 4099.26 -4.45085 -6.88694 0
M  V30 39985 O 4098.87 -5.7877 -6.5624 0
M  V30 39986 C 4098.38 -3.47817 -6.12078 0
M  V30 39987 C 4099.09 -3.39414 -4.77697 0
M  V30 39988 N 4099.04 -2.04615 -4.15333 0
M  V30 39989 H 4101.87 -3.41248 -7.98759 0
M  V30 39990 H 4102.15 -2.5837 -6.41742 0
M  V30 39991 H 4101.28 -5.02657 -6.42673 0
M  V30 39992 P 4097.32 -6.144 -6.45285 0
M  V30 39993 O 4097.1 -7.54673 -6.86199 0
M  V30 39994 O 4096.53 -5.12391 -7.179 0
M  V30 39995 O 4097.07 -5.99158 -4.88404 0
M  V30 39996 C 4098.01 -6.60234 -3.96415 0
M  V30 39997 C 4097.28 -7.08259 -2.72856 0
M  V30 39998 O 4097.07 -5.9427 -1.83651 0
M  V30 39999 C 4095.88 -7.64886 -2.9555 0
M  V30 40000 O 4095.49 -8.53963 -1.90717 0
M  V30 40001 C 4095 -6.4116 -2.90739 0
M  V30 40002 C 4095.71 -5.55375 -1.86963 0
M  V30 40003 N 4095.66 -4.09664 -2.15742 0
M  V30 40004 H 4098.49 -7.45574 -4.45629 0
M  V30 40005 H 4098.77 -5.86232 -3.67314 0
M  V30 40006 H 4097.9 -7.84412 -2.24479 0
M  V30 40007 P 4093.94 -8.7635 -1.60911 0
M  V30 40008 O 4093.72 -10.1388 -1.11561 0
M  V30 40009 O 4093.15 -8.36503 -2.79617 0
M  V30 40010 O 4093.69 -7.71806 -0.42951 0
M  V30 40011 C 4094.63 -7.67148 0.673689 0
M  V30 40012 C 4093.9 -7.33374 1.95559 0
M  V30 40013 O 4093.69 -5.88721 2.00726 0
M  V30 40014 C 4092.5 -7.92526 2.10483 0
M  V30 40015 O 4092.11 -8.02971 3.47653 0
M  V30 40016 C 4091.62 -6.89602 1.41652 0
M  V30 40017 C 4092.33 -5.59201 1.75185 0
M  V30 40018 N 4092.28 -4.58235 0.662552 0
M  V30 40019 H 4095.11 -8.65116 0.777161 0
M  V30 40020 H 4095.39 -6.90173 0.474152 0
M  V30 40021 H 4094.52 -7.66548 2.79458 0
M  V30 40022 P 4090.56 -8.03563 3.84925 0
M  V30 40023 O 4090.34 -8.85821 5.0569 0
M  V30 40024 O 4089.77 -8.41101 2.65469 0
M  V30 40025 O 4090.31 -6.4965 4.18908 0
M  V30 40026 C 4091.25 -5.80886 5.05289 0
M  V30 40027 C 4090.52 -4.78366 5.89277 0
M  V30 40028 O 4090.31 -3.58302 5.08433 0
M  V30 40029 C 4089.12 -5.16748 6.36559 0
M  V30 40030 O 4088.73 -4.45271 7.53232 0
M  V30 40031 C 4088.24 -4.74572 5.19863 0
M  V30 40032 C 4088.95 -3.49373 4.70338 0
M  V30 40033 N 4088.9 -3.31704 3.22876 0
M  V30 40034 C 4088.75 -2.03326 2.74871 0
M  V30 40035 O 4088.66 -1.06486 3.48076 0
M  V30 40036 N 4088.71 -1.91838 1.37456 0
M  V30 40037 C 4088.8 -2.94295 0.462035 0
M  V30 40038 C 4088.95 -4.25064 1.05249 0
M  V30 40039 C 4089 -4.40214 2.39192 0
M  V30 40040 H 4091.74 -6.54063 5.71245 0
M  V30 40041 H 4092.01 -5.30339 4.43905 0
M  V30 40042 H 4091.14 -4.55889 6.76652 0
M  V30 40043 H 4088.48 -2.6167 5.17842 0
M  V30 40044 H 4088.2 -5.52155 4.41878 0
M  V30 40045 H 4087.21 -4.51918 5.53297 0
M  V30 40046 H 4089.05 -6.25055 6.55162 0
M  V30 40047 H 4089.12 -5.39798 2.81523 0
M  V30 40048 P 4087.18 -4.23843 7.83734 0
M  V30 40049 O 4086.96 -4.19407 9.29784 0
M  V30 40050 O 4086.39 -5.24426 7.09156 0
M  V30 40051 O 4086.93 -2.7935 7.20758 0
M  V30 40052 C 4087.87 -1.7299 7.50419 0
M  V30 40053 C 4087.14 -0.406376 7.57911 0
M  V30 40054 O 4086.93 0.0897726 6.21935 0
M  V30 40055 C 4085.74 -0.447224 8.1878 0
M  V30 40056 O 4085.35 0.825065 8.71101 0
M  V30 40057 C 4084.86 -0.783801 6.99623 0
M  V30 40058 C 4085.57 -0.0619192 5.85967 0
M  V30 40059 N 4085.52 -0.7859 4.56281 0
M  V30 40060 H 4088.35 -1.93423 8.4679 0
M  V30 40061 H 4088.63 -1.68181 6.71046 0
M  V30 40062 H 4087.76 0.289041 8.15388 0
M  V30 40063 P 4083.8 1.17771 8.83182 0
M  V30 40064 O 4083.58 2.07206 9.98732 0
M  V30 40065 O 4083.01 -0.0743816 8.81969 0
M  V30 40066 O 4083.55 1.97678 7.474 0
M  V30 40067 C 4084.49 3.01133 7.08783 0
M  V30 40068 C 4083.76 4.1203 6.37546 0
M  V30 40069 O 4083.55 3.72887 4.9796 0
M  V30 40070 C 4082.36 4.45085 6.88694 0
M  V30 40071 O 4081.97 5.78836 6.56315 0
M  V30 40072 C 4081.48 3.47817 6.12078 0
M  V30 40073 C 4082.19 3.39414 4.77697 0
M  V30 40074 N 4082.14 2.04615 4.15333 0
M  V30 40075 C 4081.99 1.96929 2.77162 0
M  V30 40076 O 4081.9 3.02017 2.12006 0
M  V30 40077 N 4081.94 0.55485 2.24237 0
M  V30 40078 C 4082.04 -0.367808 2.9169 0
M  V30 40079 N 4081.99 -1.53426 2.29427 0
M  V30 40080 C 4082.19 -0.319148 4.33828 0
M  V30 40081 C 4082.24 0.920672 4.90433 0
M  V30 40082 H 4084.98 3.41209 7.98667 0
M  V30 40083 H 4085.25 2.5837 6.41742 0
M  V30 40084 H 4084.38 5.02718 6.42752 0
M  V30 40085 H 4081.72 4.11779 4.09026 0
M  V30 40086 H 4081.44 2.49661 6.61772 0
M  V30 40087 H 4080.45 3.86674 6.00946 0
M  V30 40088 H 4082.29 4.29991 7.97006 0
M  V30 40089 H 4082.36 1.00589 5.98303 0
M  V30 40090 H 4082.26 -1.22639 4.93799 0
M  V30 40091 H 4081.87 -1.56819 1.27167 0
M  V30 40092 H 4082.06 -2.41062 2.83063 0
M  V30 40093 P 4080.42 6.144 6.45285 0
M  V30 40094 O 4080.2 7.54673 6.86199 0
M  V30 40095 O 4079.63 5.12391 7.179 0
M  V30 40096 O 4080.17 5.99158 4.88404 0
M  V30 40097 C 4081.11 6.60062 3.96313 0
M  V30 40098 C 4080.38 7.08259 2.72856 0
M  V30 40099 O 4080.17 5.9427 1.83651 0
M  V30 40100 C 4078.98 7.65087 2.94749 0
M  V30 40101 O 4078.59 8.53963 1.90717 0
M  V30 40102 C 4078.1 6.41069 2.90698 0
M  V30 40103 C 4078.81 5.5528 1.86931 0
M  V30 40104 N 4078.76 4.09575 2.15696 0
M  V30 40105 C 4078.61 3.24249 1.08435 0
M  V30 40106 O 4078.52 3.63946 -0.0628747 0
M  V30 40107 N 4078.57 1.90009 1.39973 0
M  V30 40108 C 4078.66 1.34884 2.65614 0
M  V30 40109 C 4078.81 2.3145 3.71736 0
M  V30 40110 C 4078.86 3.63518 3.44754 0
M  V30 40111 H 4081.6 7.45402 4.45526 0
M  V30 40112 H 4081.87 5.86062 3.67208 0
M  V30 40113 H 4081 7.84412 2.24479 0
M  V30 40114 H 4078.34 5.73358 0.888409 0
M  V30 40115 H 4078.06 5.90877 3.88583 0
M  V30 40116 H 4077.07 6.65867 2.58821 0
M  V30 40117 H 4078.91 8.16248 3.92006 0
M  V30 40118 H 4078.98 4.34551 4.26383 0
M  V30 40119 P 4077.04 8.7635 1.60911 0
M  V30 40120 O 4076.82 10.1388 1.11561 0
M  V30 40121 O 4076.25 8.36503 2.79617 0
M  V30 40122 O 4076.79 7.71806 0.42951 0
M  V30 40123 C 4077.73 7.67148 -0.673689 0
M  V30 40124 C 4077 7.33374 -1.95559 0
M  V30 40125 O 4076.79 5.88721 -2.00726 0
M  V30 40126 C 4075.6 7.92526 -2.10483 0
M  V30 40127 O 4075.21 8.02971 -3.47653 0
M  V30 40128 C 4074.72 6.89602 -1.41652 0
M  V30 40129 C 4075.43 5.59201 -1.75185 0
M  V30 40130 N 4075.38 4.58301 -0.657969 0
M  V30 40131 H 4078.21 8.65116 -0.777161 0
M  V30 40132 H 4078.49 6.9022 -0.46725 0
M  V30 40133 H 4077.62 7.66548 -2.79458 0
M  V30 40134 H 4074.96 5.16165 -2.65183 0
M  V30 40135 H 4074.68 7.06433 -0.329384 0
M  V30 40136 H 4073.69 6.90926 -1.82021 0
M  V30 40137 H 4075.53 8.90873 -1.62657 0
M  V30 40138 P 4073.66 8.03563 -3.84925 0
M  V30 40139 O 4073.44 8.85821 -5.0569 0
M  V30 40140 O 4072.87 8.41101 -2.65469 0
M  V30 40141 O 4073.41 6.4965 -4.18908 0
M  V30 40142 C 4074.35 5.81037 -5.05421 0
M  V30 40143 C 4073.62 4.78366 -5.89277 0
M  V30 40144 O 4073.41 3.58302 -5.08433 0
M  V30 40145 C 4072.22 5.17448 -6.36119 0
M  V30 40146 O 4071.83 4.45271 -7.53232 0
M  V30 40147 C 4071.34 4.74639 -5.19936 0
M  V30 40148 C 4072.05 3.49432 -4.70418 0
M  V30 40149 N 4072 3.31776 -3.22945 0
M  V30 40150 H 4074.83 6.54213 -5.71376 0
M  V30 40151 H 4075.11 5.30492 -4.44033 0
M  V30 40152 H 4074.24 4.55889 -6.76652 0
M  V30 40153 P 4070.28 4.23843 -7.83734 0
M  V30 40154 O 4070.06 4.19407 -9.29784 0
M  V30 40155 O 4069.49 5.24426 -7.09156 0
M  V30 40156 O 4070.03 2.7935 -7.20758 0
M  V30 40157 C 4070.97 1.7299 -7.50419 0
M  V30 40158 C 4070.24 0.406376 -7.57911 0
M  V30 40159 O 4070.03 -0.0897726 -6.21935 0
M  V30 40160 C 4068.84 0.447224 -8.1878 0
M  V30 40161 O 4068.45 -0.825065 -8.71101 0
M  V30 40162 C 4067.96 0.783801 -6.99623 0
M  V30 40163 C 4068.67 0.0619192 -5.85967 0
M  V30 40164 N 4068.62 0.790462 -4.56202 0
M  V30 40165 C 4068.7 2.13895 -4.34171 0
M  V30 40166 N 4068.63 2.46449 -3.08687 0
M  V30 40167 C 4068.48 1.2525 -2.43697 0
M  V30 40168 C 4068.35 0.914535 -1.07318 0
M  V30 40169 N 4068.34 1.80782 -0.0887348 0
M  V30 40170 N 4068.23 -0.386745 -0.768133 0
M  V30 40171 C 4068.24 -1.28096 -1.75159 0
M  V30 40172 N 4068.36 -1.09708 -3.04861 0
M  V30 40173 C 4068.48 0.214857 -3.32306 0
M  V30 40174 H 4071.45 1.93423 -8.4679 0
M  V30 40175 H 4071.73 1.68852 -6.70877 0
M  V30 40176 H 4070.86 -0.289041 -8.15388 0
M  V30 40177 H 4068.2 -0.927006 -5.72848 0
M  V30 40178 H 4067.92 1.86973 -6.82036 0
M  V30 40179 H 4066.93 0.403953 -7.13357 0
M  V30 40180 H 4068.77 1.20599 -8.97534 0
M  V30 40181 H 4068.81 2.86846 -5.14318 0
M  V30 40182 H 4068.43 2.81082 -0.302037 0
M  V30 40183 H 4068.24 1.49688 0.889064 0
M  V30 40184 H 4068.13 -2.31317 -1.43855 0
M  V30 40185 P 4066.9 -1.17771 -8.83182 0
M  V30 40186 O 4066.68 -2.07206 -9.98732 0
M  V30 40187 O 4066.11 0.0743816 -8.81969 0
M  V30 40188 O 4066.65 -1.97652 -7.47304 0
M  V30 40189 C 4067.59 -3.01133 -7.08783 0
M  V30 40190 C 4066.86 -4.12613 -6.37049 0
M  V30 40191 O 4066.65 -3.72827 -4.97879 0
M  V30 40192 C 4065.46 -4.45085 -6.88694 0
M  V30 40193 O 4065.07 -5.7877 -6.5624 0
M  V30 40194 C 4064.58 -3.47817 -6.12078 0
M  V30 40195 C 4065.29 -3.39414 -4.77697 0
M  V30 40196 N 4065.24 -2.04199 -4.15538 0
M  V30 40197 C 4065.32 -0.821545 -4.76977 0
M  V30 40198 N 4065.25 0.1794 -3.94592 0
M  V30 40199 C 4065.1 -0.419121 -2.70776 0
M  V30 40200 C 4064.97 0.109072 -1.40577 0
M  V30 40201 N 4064.96 1.4104 -1.1344 0
M  V30 40202 N 4064.85 -0.764381 -0.39411 0
M  V30 40203 C 4064.86 -2.06587 -0.664135 0
M  V30 40204 N 4064.98 -2.67948 -1.82153 0
M  V30 40205 C 4065.1 -1.77942 -2.8147 0
M  V30 40206 H 4068.07 -3.41248 -7.98759 0
M  V30 40207 H 4068.35 -2.57728 -6.42 0
M  V30 40208 H 4067.48 -5.02657 -6.42673 0
M  V30 40209 H 4064.82 -4.11708 -4.08956 0
M  V30 40210 H 4064.54 -2.49626 -6.61679 0
M  V30 40211 H 4063.55 -3.8662 -6.00862 0
M  V30 40212 H 4065.39 -4.29991 -7.97006 0
M  V30 40213 H 4065.43 -0.702451 -5.84696 0
M  V30 40214 H 4065.05 2.09647 -1.89651 0
M  V30 40215 H 4064.86 1.73358 -0.160575 0
M  V30 40216 H 4064.75 -2.71695 0.195838 0
M  V30 40217 P 4063.52 -6.144 -6.45285 0
M  V30 40218 O 4063.3 -7.54673 -6.86199 0
M  V30 40219 O 4062.73 -5.12391 -7.179 0
M  V30 40220 O 4063.27 -5.99158 -4.88404 0
M  V30 40221 C 4064.21 -6.60234 -3.96415 0
M  V30 40222 C 4063.48 -7.08259 -2.72856 0
M  V30 40223 O 4063.27 -5.9427 -1.83651 0
M  V30 40224 C 4062.08 -7.64886 -2.9555 0
M  V30 40225 O 4061.69 -8.53963 -1.90717 0
M  V30 40226 C 4061.2 -6.4116 -2.90739 0
M  V30 40227 C 4061.91 -5.55375 -1.86963 0
M  V30 40228 N 4061.86 -4.09664 -2.15742 0
M  V30 40229 H 4064.69 -7.45574 -4.45629 0
M  V30 40230 H 4064.97 -5.86232 -3.67314 0
M  V30 40231 H 4064.1 -7.84412 -2.24479 0
M  V30 40232 P 4060.14 -8.7635 -1.60911 0
M  V30 40233 O 4059.92 -10.1388 -1.11561 0
M  V30 40234 O 4059.35 -8.36503 -2.79617 0
M  V30 40235 O 4059.89 -7.71906 -0.429565 0
M  V30 40236 C 4060.83 -7.67148 0.673689 0
M  V30 40237 C 4060.1 -7.33666 1.94851 0
M  V30 40238 O 4059.89 -5.88816 2.00759 0
M  V30 40239 C 4058.7 -7.92526 2.10483 0
M  V30 40240 O 4058.31 -8.03063 3.47693 0
M  V30 40241 C 4057.82 -6.89602 1.41652 0
M  V30 40242 C 4058.53 -5.59201 1.75185 0
M  V30 40243 N 4058.48 -4.58235 0.662552 0
M  V30 40244 C 4058.33 -3.24451 1.01643 0
M  V30 40245 O 4058.24 -2.94958 2.21722 0
M  V30 40246 N 4058.28 -2.30408 -0.165238 0
M  V30 40247 C 4058.38 -2.66048 -1.25118 0
M  V30 40248 N 4058.33 -1.70787 -2.16813 0
M  V30 40249 C 4058.53 -4.02732 -1.64413 0
M  V30 40250 C 4058.58 -4.9488 -0.63991 0
M  V30 40251 H 4061.32 -8.65017 0.777072 0
M  V30 40252 H 4061.59 -6.90173 0.474152 0
M  V30 40253 H 4060.72 -7.66642 2.79492 0
M  V30 40254 H 4058.06 -5.16254 2.65229 0
M  V30 40255 H 4057.78 -7.06532 0.329431 0
M  V30 40256 H 4056.79 -6.91023 1.82047 0
M  V30 40257 H 4058.63 -8.90873 1.62657 0
M  V30 40258 H 4058.7 -6.00104 -0.892197 0
M  V30 40259 H 4058.6 -4.31733 -2.69229 0
M  V30 40260 H 4058.21 -0.724835 -1.8844 0
M  V30 40261 H 4058.41 -1.94716 -3.16734 0
M  V30 40262 P 4056.76 -8.03563 3.84925 0
M  V30 40263 O 4056.54 -8.85821 5.0569 0
M  V30 40264 O 4055.97 -8.41101 2.65469 0
M  V30 40265 O 4056.51 -6.4965 4.18908 0
M  V30 40266 C 4057.45 -5.80886 5.05289 0
M  V30 40267 C 4056.72 -4.78366 5.89277 0
M  V30 40268 O 4056.51 -3.58302 5.08433 0
M  V30 40269 C 4055.32 -5.16748 6.36559 0
M  V30 40270 O 4054.93 -4.45271 7.53232 0
M  V30 40271 C 4054.44 -4.74572 5.19863 0
M  V30 40272 C 4055.15 -3.49373 4.70338 0
M  V30 40273 N 4055.1 -3.31704 3.22876 0
M  V30 40274 C 4054.95 -2.03326 2.74871 0
M  V30 40275 O 4054.86 -1.06486 3.48076 0
M  V30 40276 N 4054.91 -1.91838 1.37456 0
M  V30 40277 C 4055 -2.94295 0.462035 0
M  V30 40278 O 4054.95 -2.71763 -0.752928 0
M  V30 40279 C 4055.15 -4.25064 1.05249 0
M  V30 40280 C 4055.26 -5.39815 0.095697 0
M  V30 40281 C 4055.2 -4.40214 2.39192 0
M  V30 40282 H 4057.94 -6.54063 5.71245 0
M  V30 40283 H 4058.21 -5.30339 4.43905 0
M  V30 40284 H 4057.34 -4.55889 6.76652 0
M  V30 40285 H 4054.68 -2.6167 5.17842 0
M  V30 40286 H 4054.41 -5.52155 4.41878 0
M  V30 40287 H 4053.41 -4.51918 5.53297 0
M  V30 40288 H 4055.25 -6.25055 6.55162 0
M  V30 40289 H 4055.32 -5.39798 2.81523 0
M  V30 40290 H 4054.29 -5.91593 0.0279582 0
M  V30 40291 H 4056.03 -6.10038 0.450573 0
M  V30 40292 H 4055.54 -5.02007 -0.89937 0
M  V30 40293 H 4054.8 -0.995326 1.00435 0
M  V30 40294 P 4053.38 -4.23843 7.83734 0
M  V30 40295 O 4053.16 -4.19407 9.29784 0
M  V30 40296 O 4052.59 -5.24426 7.09156 0
M  V30 40297 O 4053.13 -2.7935 7.20758 0
M  V30 40298 C 4054.07 -1.7299 7.50419 0
M  V30 40299 C 4053.34 -0.406376 7.57911 0
M  V30 40300 O 4053.13 0.0897726 6.21935 0
M  V30 40301 C 4051.94 -0.447224 8.1878 0
M  V30 40302 O 4051.55 0.825065 8.71101 0
M  V30 40303 C 4051.06 -0.783801 6.99623 0
M  V30 40304 C 4051.77 -0.0619192 5.85967 0
M  V30 40305 N 4051.72 -0.7859 4.56281 0
M  V30 40306 H 4054.56 -1.93423 8.4679 0
M  V30 40307 H 4054.83 -1.68181 6.71046 0
M  V30 40308 H 4053.96 0.289041 8.15388 0
M  V30 40309 P 4050 1.17771 8.83182 0
M  V30 40310 O 4049.78 2.07206 9.98732 0
M  V30 40311 O 4049.21 -0.0743816 8.81969 0
M  V30 40312 O 4049.75 1.97652 7.47304 0
M  V30 40313 C 4050.69 3.01133 7.08783 0
M  V30 40314 C 4049.96 4.12613 6.37049 0
M  V30 40315 O 4049.75 3.72827 4.97879 0
M  V30 40316 C 4048.56 4.45085 6.88694 0
M  V30 40317 O 4048.17 5.7877 6.5624 0
M  V30 40318 C 4047.68 3.47817 6.12078 0
M  V30 40319 C 4048.39 3.39414 4.77697 0
M  V30 40320 N 4048.34 2.04615 4.15333 0
M  V30 40321 H 4051.18 3.41248 7.98759 0
M  V30 40322 H 4051.45 2.5837 6.41742 0
M  V30 40323 H 4050.58 5.02657 6.42673 0
M  V30 40324 P 4046.62 6.144 6.45285 0
M  V30 40325 O 4046.4 7.54673 6.86199 0
M  V30 40326 O 4045.83 5.12391 7.179 0
M  V30 40327 O 4046.37 5.99158 4.88404 0
M  V30 40328 C 4047.31 6.60234 3.96415 0
M  V30 40329 C 4046.58 7.08259 2.72856 0
M  V30 40330 O 4046.37 5.9427 1.83651 0
M  V30 40331 C 4045.18 7.64886 2.9555 0
M  V30 40332 O 4044.79 8.53963 1.90717 0
M  V30 40333 C 4044.3 6.4116 2.90739 0
M  V30 40334 C 4045.01 5.55375 1.86963 0
M  V30 40335 N 4044.96 4.09664 2.15742 0
M  V30 40336 H 4047.8 7.45574 4.45629 0
M  V30 40337 H 4048.07 5.86232 3.67314 0
M  V30 40338 H 4047.2 7.84412 2.24479 0
M  V30 40339 P 4043.24 8.7635 1.60911 0
M  V30 40340 O 4043.02 10.1388 1.11561 0
M  V30 40341 O 4042.45 8.36503 2.79617 0
M  V30 40342 O 4042.99 7.71806 0.42951 0
M  V30 40343 C 4043.93 7.67148 -0.673689 0
M  V30 40344 C 4043.2 7.33374 -1.95559 0
M  V30 40345 O 4042.99 5.88721 -2.00726 0
M  V30 40346 C 4041.8 7.92526 -2.10483 0
M  V30 40347 O 4041.41 8.02971 -3.47653 0
M  V30 40348 C 4040.92 6.89602 -1.41652 0
M  V30 40349 C 4041.63 5.59201 -1.75185 0
M  V30 40350 N 4041.58 4.58301 -0.657969 0
M  V30 40351 H 4044.42 8.65116 -0.777161 0
M  V30 40352 H 4044.69 6.9022 -0.46725 0
M  V30 40353 H 4043.82 7.66548 -2.79458 0
M  V30 40354 H 4041.16 5.16165 -2.65183 0
M  V30 40355 H 4040.88 7.06433 -0.329384 0
M  V30 40356 H 4039.89 6.90926 -1.82021 0
M  V30 40357 H 4041.73 8.90873 -1.62657 0
M  V30 40358 P 4039.86 8.03563 -3.84925 0
M  V30 40359 O 4039.64 8.85821 -5.0569 0
M  V30 40360 O 4039.07 8.41101 -2.65469 0
M  V30 40361 O 4039.61 6.4965 -4.18908 0
M  V30 40362 C 4040.55 5.81037 -5.05421 0
M  V30 40363 C 4039.82 4.78366 -5.89277 0
M  V30 40364 O 4039.61 3.58302 -5.08433 0
M  V30 40365 C 4038.42 5.17448 -6.36119 0
M  V30 40366 O 4038.03 4.45271 -7.53232 0
M  V30 40367 C 4037.54 4.74639 -5.19936 0
M  V30 40368 C 4038.25 3.49432 -4.70418 0
M  V30 40369 N 4038.2 3.31776 -3.22945 0
M  V30 40370 H 4041.04 6.54213 -5.71376 0
M  V30 40371 H 4041.31 5.30492 -4.44033 0
M  V30 40372 H 4040.44 4.55889 -6.76652 0
M  V30 40373 P 4036.48 4.23843 -7.83734 0
M  V30 40374 O 4036.26 4.19407 -9.29784 0
M  V30 40375 O 4035.69 5.24426 -7.09156 0
M  V30 40376 O 4036.23 2.7935 -7.20758 0
M  V30 40377 C 4037.17 1.7299 -7.50419 0
M  V30 40378 C 4036.44 0.406376 -7.57911 0
M  V30 40379 O 4036.23 -0.0897726 -6.21935 0
M  V30 40380 C 4035.04 0.447224 -8.1878 0
M  V30 40381 O 4034.65 -0.825065 -8.71101 0
M  V30 40382 C 4034.16 0.783801 -6.99623 0
M  V30 40383 C 4034.87 0.0619192 -5.85967 0
M  V30 40384 N 4034.82 0.7859 -4.56281 0
M  V30 40385 H 4037.66 1.93423 -8.4679 0
M  V30 40386 H 4037.93 1.68181 -6.71046 0
M  V30 40387 H 4037.06 -0.289041 -8.15388 0
M  V30 40388 P 4033.1 -1.17771 -8.83182 0
M  V30 40389 O 4032.88 -2.07206 -9.98732 0
M  V30 40390 O 4032.31 0.0743816 -8.81969 0
M  V30 40391 O 4032.85 -1.97652 -7.47304 0
M  V30 40392 C 4033.79 -3.01133 -7.08783 0
M  V30 40393 C 4033.06 -4.12613 -6.37049 0
M  V30 40394 O 4032.85 -3.72827 -4.97879 0
M  V30 40395 C 4031.66 -4.45085 -6.88694 0
M  V30 40396 O 4031.27 -5.7877 -6.5624 0
M  V30 40397 C 4030.78 -3.47817 -6.12078 0
M  V30 40398 C 4031.49 -3.39414 -4.77697 0
M  V30 40399 N 4031.44 -2.04615 -4.15333 0
M  V30 40400 H 4034.28 -3.41248 -7.98759 0
M  V30 40401 H 4034.55 -2.5837 -6.41742 0
M  V30 40402 H 4033.68 -5.02657 -6.42673 0
M  V30 40403 P 4029.72 -6.144 -6.45285 0
M  V30 40404 O 4029.5 -7.54673 -6.86199 0
M  V30 40405 O 4028.93 -5.12391 -7.179 0
M  V30 40406 O 4029.47 -5.99158 -4.88404 0
M  V30 40407 C 4030.41 -6.60234 -3.96415 0
M  V30 40408 C 4029.68 -7.08259 -2.72856 0
M  V30 40409 O 4029.47 -5.9427 -1.83651 0
M  V30 40410 C 4028.28 -7.64886 -2.9555 0
M  V30 40411 O 4027.89 -8.53963 -1.90717 0
M  V30 40412 C 4027.4 -6.4116 -2.90739 0
M  V30 40413 C 4028.11 -5.55375 -1.86963 0
M  V30 40414 N 4028.06 -4.09664 -2.15742 0
M  V30 40415 H 4030.9 -7.45574 -4.45629 0
M  V30 40416 H 4031.17 -5.86232 -3.67314 0
M  V30 40417 H 4030.3 -7.84412 -2.24479 0
M  V30 40418 P 4026.34 -8.7635 -1.60911 0
M  V30 40419 O 4026.12 -10.1388 -1.11561 0
M  V30 40420 O 4025.55 -8.36503 -2.79617 0
M  V30 40421 O 4026.09 -7.71806 -0.42951 0
M  V30 40422 C 4027.03 -7.67148 0.673689 0
M  V30 40423 C 4026.3 -7.33374 1.95559 0
M  V30 40424 O 4026.09 -5.88721 2.00726 0
M  V30 40425 C 4024.9 -7.92526 2.10483 0
M  V30 40426 O 4024.51 -8.02971 3.47653 0
M  V30 40427 C 4024.02 -6.89602 1.41652 0
M  V30 40428 C 4024.73 -5.59201 1.75185 0
M  V30 40429 N 4024.68 -4.58235 0.662552 0
M  V30 40430 C 4024.76 -4.7683 -0.704049 0
M  V30 40431 N 4024.68 -3.66233 -1.39775 0
M  V30 40432 C 4024.54 -2.66526 -0.431739 0
M  V30 40433 C 4024.41 -1.26394 -0.575992 0
M  V30 40434 O 4024.39 -0.589894 -1.60503 0
M  V30 40435 N 4024.29 -0.62859 0.67177 0
M  V30 40436 C 4024.29 -1.27134 1.89385 0
M  V30 40437 N 4024.16 -0.492035 2.96951 0
M  V30 40438 N 4024.42 -2.58978 2.02907 0
M  V30 40439 C 4024.54 -3.22433 0.832218 0
M  V30 40440 H 4027.52 -8.65116 0.777161 0
M  V30 40441 H 4027.79 -6.90173 0.474152 0
M  V30 40442 H 4026.92 -7.66548 2.79458 0
M  V30 40443 H 4024.26 -5.16254 2.65229 0
M  V30 40444 H 4023.98 -7.06532 0.329431 0
M  V30 40445 H 4022.99 -6.91023 1.82047 0
M  V30 40446 H 4024.83 -8.90971 1.62675 0
M  V30 40447 H 4024.88 -5.74954 -1.16305 0
M  V30 40448 H 4024.19 0.366713 0.674793 0
M  V30 40449 H 4024.16 -0.908532 3.91188 0
M  V30 40450 H 4024.06 0.528253 2.85758 0
M  V30 40451 P 4022.96 -8.03563 3.84925 0
M  V30 40452 O 4022.74 -8.85821 5.0569 0
M  V30 40453 O 4022.17 -8.41101 2.65469 0
M  V30 40454 O 4022.71 -6.4965 4.18908 0
M  V30 40455 C 4023.65 -5.81037 5.05421 0
M  V30 40456 C 4022.92 -4.78366 5.89277 0
M  V30 40457 O 4022.71 -3.58302 5.08433 0
M  V30 40458 C 4021.52 -5.17448 6.36119 0
M  V30 40459 O 4021.13 -4.45271 7.53232 0
M  V30 40460 C 4020.64 -4.74639 5.19936 0
M  V30 40461 C 4021.35 -3.49432 4.70418 0
M  V30 40462 N 4021.3 -3.32099 3.22613 0
M  V30 40463 H 4024.14 -6.54213 5.71376 0
M  V30 40464 H 4024.41 -5.30936 4.43503 0
M  V30 40465 H 4023.54 -4.55889 6.76652 0
M  V30 40466 H 4020.88 -2.61715 5.17932 0
M  V30 40467 H 4020.6 -5.52155 4.41878 0
M  V30 40468 H 4019.61 -4.51981 5.53374 0
M  V30 40469 H 4021.45 -6.25124 6.55234 0
M  V30 40470 P 4019.58 -4.23843 7.83734 0
M  V30 40471 O 4019.36 -4.19407 9.29784 0
M  V30 40472 O 4018.79 -5.24426 7.09156 0
M  V30 40473 O 4019.33 -2.7935 7.20758 0
M  V30 40474 C 4020.27 -1.7299 7.50419 0
M  V30 40475 C 4019.54 -0.406376 7.57911 0
M  V30 40476 O 4019.33 0.0897726 6.21935 0
M  V30 40477 C 4018.14 -0.447224 8.1878 0
M  V30 40478 O 4017.75 0.825065 8.71101 0
M  V30 40479 C 4017.26 -0.783801 6.99623 0
M  V30 40480 C 4017.97 -0.0619192 5.85967 0
M  V30 40481 N 4017.92 -0.7859 4.56281 0
M  V30 40482 H 4020.76 -1.93423 8.4679 0
M  V30 40483 H 4021.03 -1.68181 6.71046 0
M  V30 40484 H 4020.16 0.289041 8.15388 0
M  V30 40485 P 4016.2 1.17771 8.83182 0
M  V30 40486 O 4015.98 2.07206 9.98732 0
M  V30 40487 O 4015.41 -0.0743816 8.81969 0
M  V30 40488 O 4015.95 1.97652 7.47304 0
M  V30 40489 C 4016.89 3.01133 7.08783 0
M  V30 40490 C 4016.16 4.12613 6.37049 0
M  V30 40491 O 4015.95 3.72827 4.97879 0
M  V30 40492 C 4014.76 4.45085 6.88694 0
M  V30 40493 O 4014.37 5.7877 6.5624 0
M  V30 40494 C 4013.88 3.47817 6.12078 0
M  V30 40495 C 4014.59 3.39414 4.77697 0
M  V30 40496 N 4014.54 2.04199 4.15538 0
M  V30 40497 C 4014.62 0.821545 4.76977 0
M  V30 40498 N 4014.55 -0.1794 3.94592 0
M  V30 40499 C 4014.4 0.419121 2.70776 0
M  V30 40500 C 4014.27 -0.109072 1.40577 0
M  V30 40501 N 4014.26 -1.4104 1.1344 0
M  V30 40502 N 4014.15 0.764381 0.39411 0
M  V30 40503 C 4014.16 2.06587 0.664135 0
M  V30 40504 N 4014.28 2.67948 1.82153 0
M  V30 40505 C 4014.4 1.77942 2.8147 0
M  V30 40506 H 4017.38 3.41248 7.98759 0
M  V30 40507 H 4017.65 2.57728 6.42 0
M  V30 40508 H 4016.78 5.02657 6.42673 0
M  V30 40509 H 4014.12 4.11708 4.08956 0
M  V30 40510 H 4013.84 2.49626 6.61679 0
M  V30 40511 H 4012.85 3.8662 6.00862 0
M  V30 40512 H 4014.69 4.29991 7.97006 0
M  V30 40513 H 4014.73 0.702451 5.84696 0
M  V30 40514 H 4014.35 -2.09647 1.89651 0
M  V30 40515 H 4014.16 -1.73358 0.160575 0
M  V30 40516 H 4014.05 2.71695 -0.195838 0
M  V30 40517 P 4012.82 6.144 6.45285 0
M  V30 40518 O 4012.6 7.54673 6.86199 0
M  V30 40519 O 4012.03 5.12391 7.179 0
M  V30 40520 O 4012.57 5.99158 4.88404 0
M  V30 40521 C 4013.51 6.60234 3.96415 0
M  V30 40522 C 4012.78 7.08259 2.72856 0
M  V30 40523 O 4012.57 5.9427 1.83651 0
M  V30 40524 C 4011.38 7.64886 2.9555 0
M  V30 40525 O 4010.99 8.53963 1.90717 0
M  V30 40526 C 4010.5 6.4116 2.90739 0
M  V30 40527 C 4011.21 5.55375 1.86963 0
M  V30 40528 N 4011.16 4.09664 2.15742 0
M  V30 40529 H 4014 7.45574 4.45629 0
M  V30 40530 H 4014.27 5.86232 3.67314 0
M  V30 40531 H 4013.4 7.84412 2.24479 0
M  V30 40532 P 4009.44 8.7635 1.60911 0
M  V30 40533 O 4009.22 10.1388 1.11561 0
M  V30 40534 O 4008.65 8.36503 2.79617 0
M  V30 40535 O 4009.19 7.71806 0.42951 0
M  V30 40536 C 4010.13 7.67148 -0.673689 0
M  V30 40537 C 4009.4 7.33374 -1.95559 0
M  V30 40538 O 4009.19 5.88721 -2.00726 0
M  V30 40539 C 4008 7.92526 -2.10483 0
M  V30 40540 O 4007.61 8.02971 -3.47653 0
M  V30 40541 C 4007.12 6.89602 -1.41652 0
M  V30 40542 C 4007.83 5.59201 -1.75185 0
M  V30 40543 N 4007.78 4.58235 -0.662552 0
M  V30 40544 H 4010.62 8.65116 -0.777161 0
M  V30 40545 H 4010.89 6.90173 -0.474152 0
M  V30 40546 H 4010.02 7.66548 -2.79458 0
M  V30 40547 P 4006.06 8.03563 -3.84925 0
M  V30 40548 O 4005.84 8.85821 -5.0569 0
M  V30 40549 O 4005.27 8.41101 -2.65469 0
M  V30 40550 O 4005.81 6.4965 -4.18908 0
M  V30 40551 C 4006.75 5.81037 -5.05421 0
M  V30 40552 C 4006.02 4.78366 -5.89277 0
M  V30 40553 O 4005.81 3.58302 -5.08433 0
M  V30 40554 C 4004.62 5.17448 -6.36119 0
M  V30 40555 O 4004.23 4.45271 -7.53232 0
M  V30 40556 C 4003.74 4.74639 -5.19936 0
M  V30 40557 C 4004.45 3.49432 -4.70418 0
M  V30 40558 N 4004.4 3.32099 -3.22613 0
M  V30 40559 C 4004.48 4.28245 -2.25527 0
M  V30 40560 N 4004.41 3.80823 -1.04874 0
M  V30 40561 C 4004.26 2.44571 -1.23535 0
M  V30 40562 C 4004.13 1.37068 -0.330675 0
M  V30 40563 N 4004.12 1.51472 0.990824 0
M  V30 40564 N 4004.01 0.138614 -0.848756 0
M  V30 40565 C 4004.02 -0.00675923 -2.16999 0
M  V30 40566 N 4004.14 0.904372 -3.11122 0
M  V30 40567 C 4004.26 2.12707 -2.56212 0
M  V30 40568 H 4007.24 6.54213 -5.71376 0
M  V30 40569 H 4007.51 5.30936 -4.43503 0
M  V30 40570 H 4006.64 4.55889 -6.76652 0
M  V30 40571 H 4003.98 2.61715 -5.17932 0
M  V30 40572 H 4003.7 5.52155 -4.41878 0
M  V30 40573 H 4002.71 4.51981 -5.53374 0
M  V30 40574 H 4004.55 6.25124 -6.55234 0
M  V30 40575 H 4004.59 5.34372 -2.47488 0
M  V30 40576 H 4004.21 2.45153 1.4078 0
M  V30 40577 H 4004.02 0.688422 1.59911 0
M  V30 40578 H 4003.91 -1.02584 -2.52346 0
M  V30 40579 P 4002.68 4.23843 -7.83734 0
M  V30 40580 O 4002.46 4.19407 -9.29784 0
M  V30 40581 O 4001.89 5.24426 -7.09156 0
M  V30 40582 O 4002.43 2.7935 -7.20758 0
M  V30 40583 C 4003.37 1.7299 -7.50419 0
M  V30 40584 C 4002.64 0.406376 -7.57911 0
M  V30 40585 O 4002.43 -0.0897726 -6.21935 0
M  V30 40586 C 4001.24 0.447224 -8.1878 0
M  V30 40587 O 4000.85 -0.825065 -8.71101 0
M  V30 40588 C 4000.36 0.783801 -6.99623 0
M  V30 40589 C 4001.07 0.0619192 -5.85967 0
M  V30 40590 N 4001.02 0.790462 -4.56202 0
M  V30 40591 H 4003.86 1.93423 -8.4679 0
M  V30 40592 H 4004.13 1.68852 -6.70877 0
M  V30 40593 H 4003.26 -0.289041 -8.15388 0
M  V30 40594 H 4000.6 -0.927006 -5.72848 0
M  V30 40595 H 4000.32 1.86973 -6.82036 0
M  V30 40596 H 3999.33 0.403953 -7.13357 0
M  V30 40597 H 4001.17 1.20599 -8.97534 0
M  V30 40598 P 3999.3 -1.17771 -8.83182 0
M  V30 40599 O 3999.08 -2.07206 -9.98732 0
M  V30 40600 O 3998.51 0.0743816 -8.81969 0
M  V30 40601 O 3999.05 -1.97678 -7.474 0
M  V30 40602 C 3999.99 -3.01133 -7.08783 0
M  V30 40603 C 3999.26 -4.1203 -6.37546 0
M  V30 40604 O 3999.05 -3.72887 -4.9796 0
M  V30 40605 C 3997.86 -4.45085 -6.88694 0
M  V30 40606 O 3997.47 -5.78836 -6.56315 0
M  V30 40607 C 3996.98 -3.47817 -6.12078 0
M  V30 40608 C 3997.69 -3.39414 -4.77697 0
M  V30 40609 N 3997.64 -2.04615 -4.15333 0
M  V30 40610 C 3997.49 -1.96929 -2.77162 0
M  V30 40611 O 3997.4 -3.02017 -2.12006 0
M  V30 40612 N 3997.44 -0.55485 -2.24237 0
M  V30 40613 C 3997.54 0.367808 -2.9169 0
M  V30 40614 N 3997.49 1.53426 -2.29427 0
M  V30 40615 C 3997.69 0.319148 -4.33828 0
M  V30 40616 C 3997.74 -0.920672 -4.90433 0
M  V30 40617 H 4000.48 -3.41209 -7.98667 0
M  V30 40618 H 4000.75 -2.5837 -6.41742 0
M  V30 40619 H 3999.88 -5.02718 -6.42752 0
M  V30 40620 H 3997.22 -4.11779 -4.09026 0
M  V30 40621 H 3996.94 -2.49661 -6.61772 0
M  V30 40622 H 3995.95 -3.86674 -6.00946 0
M  V30 40623 H 3997.79 -4.29991 -7.97006 0
M  V30 40624 H 3997.86 -1.00589 -5.98303 0
M  V30 40625 H 3997.76 1.22639 -4.93799 0
M  V30 40626 H 3997.37 1.56819 -1.27167 0
M  V30 40627 H 3997.57 2.41062 -2.83063 0
M  V30 40628 P 3995.92 -6.144 -6.45285 0
M  V30 40629 O 3995.7 -7.54673 -6.86199 0
M  V30 40630 O 3995.13 -5.12391 -7.179 0
M  V30 40631 O 3995.67 -5.99158 -4.88404 0
M  V30 40632 C 3996.61 -6.60234 -3.96415 0
M  V30 40633 C 3995.88 -7.08259 -2.72856 0
M  V30 40634 O 3995.67 -5.9427 -1.83651 0
M  V30 40635 C 3994.48 -7.64886 -2.9555 0
M  V30 40636 O 3994.09 -8.53963 -1.90717 0
M  V30 40637 C 3993.6 -6.4116 -2.90739 0
M  V30 40638 C 3994.31 -5.55375 -1.86963 0
M  V30 40639 N 3994.26 -4.09664 -2.15742 0
M  V30 40640 H 3997.1 -7.45574 -4.45629 0
M  V30 40641 H 3997.37 -5.86232 -3.67314 0
M  V30 40642 H 3996.5 -7.84412 -2.24479 0
M  V30 40643 P 3992.54 -8.7635 -1.60911 0
M  V30 40644 O 3992.32 -10.1388 -1.11561 0
M  V30 40645 O 3991.75 -8.36503 -2.79617 0
M  V30 40646 O 3992.29 -7.71806 -0.42951 0
M  V30 40647 C 3993.23 -7.67148 0.673689 0
M  V30 40648 C 3992.5 -7.33374 1.95559 0
M  V30 40649 O 3992.29 -5.88721 2.00726 0
M  V30 40650 C 3991.1 -7.92526 2.10483 0
M  V30 40651 O 3990.71 -8.02971 3.47653 0
M  V30 40652 C 3990.22 -6.89602 1.41652 0
M  V30 40653 C 3990.93 -5.59201 1.75185 0
M  V30 40654 N 3990.88 -4.58235 0.662552 0
M  V30 40655 H 3993.72 -8.65116 0.777161 0
M  V30 40656 H 3993.99 -6.90173 0.474152 0
M  V30 40657 H 3993.12 -7.66548 2.79458 0
M  V30 40658 P 3989.16 -8.03563 3.84925 0
M  V30 40659 O 3988.94 -8.85821 5.0569 0
M  V30 40660 O 3988.37 -8.41101 2.65469 0
M  V30 40661 O 3988.91 -6.4965 4.18908 0
M  V30 40662 C 3989.85 -5.81037 5.05421 0
M  V30 40663 C 3989.12 -4.78366 5.89277 0
M  V30 40664 O 3988.91 -3.58302 5.08433 0
M  V30 40665 C 3987.72 -5.17448 6.36119 0
M  V30 40666 O 3987.33 -4.45271 7.53232 0
M  V30 40667 C 3986.84 -4.74639 5.19936 0
M  V30 40668 C 3987.55 -3.49432 4.70418 0
M  V30 40669 N 3987.5 -3.31776 3.22945 0
M  V30 40670 H 3990.34 -6.54213 5.71376 0
M  V30 40671 H 3990.61 -5.30492 4.44033 0
M  V30 40672 H 3989.74 -4.55889 6.76652 0
M  V30 40673 P 3985.78 -4.23843 7.83734 0
M  V30 40674 O 3985.56 -4.19407 9.29784 0
M  V30 40675 O 3984.99 -5.24426 7.09156 0
M  V30 40676 O 3985.53 -2.7935 7.20758 0
M  V30 40677 C 3986.47 -1.7299 7.50419 0
M  V30 40678 C 3985.74 -0.406376 7.57911 0
M  V30 40679 O 3985.53 0.0897726 6.21935 0
M  V30 40680 C 3984.34 -0.447224 8.1878 0
M  V30 40681 O 3983.95 0.825065 8.71101 0
M  V30 40682 C 3983.46 -0.783801 6.99623 0
M  V30 40683 C 3984.17 -0.0619192 5.85967 0
M  V30 40684 N 3984.12 -0.7859 4.56281 0
M  V30 40685 H 3986.96 -1.93423 8.4679 0
M  V30 40686 H 3987.23 -1.68181 6.71046 0
M  V30 40687 H 3986.36 0.289041 8.15388 0
M  V30 40688 P 3982.4 1.17771 8.83182 0
M  V30 40689 O 3982.18 2.07206 9.98732 0
M  V30 40690 O 3981.61 -0.0743816 8.81969 0
M  V30 40691 O 3982.15 1.97652 7.47304 0
M  V30 40692 C 3983.09 3.01055 7.08599 0
M  V30 40693 C 3982.36 4.12613 6.37049 0
M  V30 40694 O 3982.15 3.72827 4.97879 0
M  V30 40695 C 3980.96 4.45719 6.88164 0
M  V30 40696 O 3980.57 5.7877 6.5624 0
M  V30 40697 C 3980.08 3.47768 6.11991 0
M  V30 40698 C 3980.79 3.39356 4.77615 0
M  V30 40699 N 3980.74 2.04571 4.15244 0
M  V30 40700 C 3980.59 1.98587 2.78314 0
M  V30 40701 O 3980.5 2.98134 2.08835 0
M  V30 40702 N 3980.55 0.714467 2.24925 0
M  V30 40703 C 3980.64 -0.470001 2.94169 0
M  V30 40704 C 3980.79 -0.312541 4.36783 0
M  V30 40705 C 3980.84 0.914512 4.92583 0
M  V30 40706 H 3983.58 3.41169 7.98575 0
M  V30 40707 H 3983.85 2.58295 6.41556 0
M  V30 40708 H 3982.98 5.02657 6.42673 0
M  V30 40709 H 3980.32 4.11637 4.08885 0
M  V30 40710 H 3980.05 2.49626 6.61679 0
M  V30 40711 H 3979.05 3.86566 6.00778 0
M  V30 40712 H 3980.89 4.29943 7.96918 0
M  V30 40713 H 3980.96 1.00937 6.00374 0
M  V30 40714 P 3979.02 6.144 6.45285 0
M  V30 40715 O 3978.8 7.54673 6.86199 0
M  V30 40716 O 3978.23 5.12391 7.179 0
M  V30 40717 O 3978.77 5.99158 4.88404 0
M  V30 40718 C 3979.71 6.60234 3.96415 0
M  V30 40719 C 3978.98 7.08259 2.72856 0
M  V30 40720 O 3978.77 5.9427 1.83651 0
M  V30 40721 C 3977.58 7.64886 2.9555 0
M  V30 40722 O 3977.19 8.53963 1.90717 0
M  V30 40723 C 3976.7 6.4116 2.90739 0
M  V30 40724 C 3977.41 5.55375 1.86963 0
M  V30 40725 N 3977.36 4.09664 2.15742 0
M  V30 40726 H 3980.2 7.45574 4.45629 0
M  V30 40727 H 3980.47 5.86232 3.67314 0
M  V30 40728 H 3979.6 7.84412 2.24479 0
M  V30 40729 P 3975.64 8.7635 1.60911 0
M  V30 40730 O 3975.42 10.1388 1.11561 0
M  V30 40731 O 3974.85 8.36503 2.79617 0
M  V30 40732 O 3975.39 7.71806 0.42951 0
M  V30 40733 C 3976.33 7.66948 -0.673514 0
M  V30 40734 C 3975.6 7.33374 -1.95559 0
M  V30 40735 O 3975.39 5.88721 -2.00726 0
M  V30 40736 C 3974.2 7.92218 -2.1125 0
M  V30 40737 O 3973.81 8.02971 -3.47653 0
M  V30 40738 C 3973.32 6.89504 -1.41631 0
M  V30 40739 C 3974.03 5.59106 -1.75155 0
M  V30 40740 N 3973.98 4.58136 -0.662409 0
M  V30 40741 C 3973.83 3.26059 -1.02863 0
M  V30 40742 O 3973.74 2.90743 -2.19009 0
M  V30 40743 N 3973.79 2.35995 0.0155585 0
M  V30 40744 C 3973.88 2.65248 1.35603 0
M  V30 40745 O 3973.83 1.75605 2.20651 0
M  V30 40746 C 3974.03 4.05747 1.64698 0
M  V30 40747 C 3974.14 4.42345 3.09553 0
M  V30 40748 C 3974.08 4.96734 0.652411 0
M  V30 40749 H 3976.82 8.64917 -0.776982 0
M  V30 40750 H 3977.09 6.89974 -0.474015 0
M  V30 40751 H 3976.22 7.66548 -2.79458 0
M  V30 40752 H 3973.56 5.16076 -2.65138 0
M  V30 40753 H 3973.29 7.06433 -0.329384 0
M  V30 40754 H 3972.29 6.90829 -1.81996 0
M  V30 40755 H 3974.13 8.90774 -1.62639 0
M  V30 40756 H 3974.2 6.02181 0.895285 0
M  V30 40757 H 3973.17 4.80252 3.45468 0
M  V30 40758 H 3974.91 5.20015 3.22119 0
M  V30 40759 H 3974.42 3.53269 3.67833 0
M  V30 40760 H 3973.68 1.39558 -0.227499 0
M  V30 40761 P 3972.26 8.03563 -3.84925 0
M  V30 40762 O 3972.04 8.85821 -5.0569 0
M  V30 40763 O 3971.47 8.41101 -2.65469 0
M  V30 40764 O 3972.01 6.4965 -4.18908 0
M  V30 40765 C 3972.95 5.81037 -5.05421 0
M  V30 40766 C 3972.22 4.78366 -5.89277 0
M  V30 40767 O 3972.01 3.58302 -5.08433 0
M  V30 40768 C 3970.82 5.17448 -6.36119 0
M  V30 40769 O 3970.43 4.45271 -7.53232 0
M  V30 40770 C 3969.94 4.74639 -5.19936 0
M  V30 40771 C 3970.65 3.49432 -4.70418 0
M  V30 40772 N 3970.6 3.31776 -3.22945 0
M  V30 40773 H 3973.44 6.54213 -5.71376 0
M  V30 40774 H 3973.71 5.30492 -4.44033 0
M  V30 40775 H 3972.84 4.55889 -6.76652 0
M  V30 40776 P 3968.88 4.23843 -7.83734 0
M  V30 40777 O 3968.66 4.19407 -9.29784 0
M  V30 40778 O 3968.09 5.24426 -7.09156 0
M  V30 40779 O 3968.63 2.7935 -7.20758 0
M  V30 40780 C 3969.57 1.72945 -7.50224 0
M  V30 40781 C 3968.84 0.406376 -7.57911 0
M  V30 40782 O 3968.63 -0.0897726 -6.21935 0
M  V30 40783 C 3967.44 0.438983 -8.18724 0
M  V30 40784 O 3967.05 -0.825065 -8.71101 0
M  V30 40785 C 3966.56 0.783689 -6.99524 0
M  V30 40786 C 3967.27 0.0619086 -5.85867 0
M  V30 40787 N 3967.22 0.78573 -4.56183 0
M  V30 40788 C 3967.07 0.0292889 -3.41887 0
M  V30 40789 O 3966.98 -1.18445 -3.4419 0
M  V30 40790 N 3967.03 0.744061 -2.23964 0
M  V30 40791 C 3967.12 2.10932 -2.10362 0
M  V30 40792 O 3967.07 2.64117 -0.98825 0
M  V30 40793 C 3967.27 2.8202 -3.34994 0
M  V30 40794 C 3967.38 4.31095 -3.25037 0
M  V30 40795 C 3967.32 2.15547 -4.52261 0
M  V30 40796 H 3970.06 1.93379 -8.46595 0
M  V30 40797 H 3970.33 1.68132 -6.70852 0
M  V30 40798 H 3969.46 -0.289041 -8.15388 0
M  V30 40799 H 3966.8 -0.926847 -5.72749 0
M  V30 40800 H 3966.53 1.86973 -6.82036 0
M  V30 40801 H 3965.53 0.403896 -7.13257 0
M  V30 40802 H 3967.37 1.20585 -8.97435 0
M  V30 40803 H 3967.44 2.71231 -5.45042 0
M  V30 40804 H 3966.41 4.76966 -3.49992 0
M  V30 40805 H 3968.15 4.67047 -3.95024 0
M  V30 40806 H 3967.66 4.58996 -2.22312 0
M  V30 40807 H 3966.92 0.214893 -1.39758 0
M  V30 40808 P 3965.5 -1.17771 -8.83182 0
M  V30 40809 O 3965.28 -2.07206 -9.98732 0
M  V30 40810 O 3964.71 0.0743816 -8.81969 0
M  V30 40811 O 3965.25 -1.97652 -7.47304 0
M  V30 40812 C 3966.19 -3.01055 -7.08599 0
M  V30 40813 C 3965.46 -4.12613 -6.37049 0
M  V30 40814 O 3965.25 -3.72827 -4.97879 0
M  V30 40815 C 3964.06 -4.45719 -6.88164 0
M  V30 40816 O 3963.67 -5.7877 -6.5624 0
M  V30 40817 C 3963.18 -3.47768 -6.11991 0
M  V30 40818 C 3963.89 -3.39356 -4.77615 0
M  V30 40819 N 3963.84 -2.04571 -4.15244 0
M  V30 40820 C 3963.69 -1.98587 -2.78314 0
M  V30 40821 O 3963.6 -2.98134 -2.08835 0
M  V30 40822 N 3963.65 -0.714467 -2.24925 0
M  V30 40823 C 3963.74 0.470001 -2.94169 0
M  V30 40824 O 3963.69 1.55587 -2.35195 0
M  V30 40825 C 3963.89 0.312541 -4.36783 0
M  V30 40826 C 3964 1.57711 -5.16352 0
M  V30 40827 C 3963.94 -0.914512 -4.92583 0
M  V30 40828 H 3966.68 -3.41169 -7.98575 0
M  V30 40829 H 3966.95 -2.58295 -6.41556 0
M  V30 40830 H 3966.08 -5.02657 -6.42673 0
M  V30 40831 H 3963.42 -4.11637 -4.08885 0
M  V30 40832 H 3963.15 -2.49626 -6.61679 0
M  V30 40833 H 3962.15 -3.86566 -6.00778 0
M  V30 40834 H 3963.99 -4.29943 -7.96918 0
M  V30 40835 H 3964.06 -1.00937 -6.00374 0
M  V30 40836 H 3963.03 1.80153 -5.63503 0
M  V30 40837 H 3964.77 1.4566 -5.94104 0
M  V30 40838 H 3964.28 2.40664 -4.49645 0
M  V30 40839 H 3963.54 -0.647622 -1.25697 0
M  V30 40840 P 3962.12 -6.144 -6.45285 0
M  V30 40841 O 3961.9 -7.54673 -6.86199 0
M  V30 40842 O 3961.33 -5.12391 -7.179 0
M  V30 40843 O 3961.87 -5.99158 -4.88404 0
M  V30 40844 C 3962.81 -6.60234 -3.96415 0
M  V30 40845 C 3962.08 -7.08259 -2.72856 0
M  V30 40846 O 3961.87 -5.9427 -1.83651 0
M  V30 40847 C 3960.68 -7.64886 -2.9555 0
M  V30 40848 O 3960.29 -8.53963 -1.90717 0
M  V30 40849 C 3959.8 -6.4116 -2.90739 0
M  V30 40850 C 3960.51 -5.55375 -1.86963 0
M  V30 40851 N 3960.46 -4.09664 -2.15742 0
M  V30 40852 H 3963.3 -7.45574 -4.45629 0
M  V30 40853 H 3963.57 -5.86232 -3.67314 0
M  V30 40854 H 3962.7 -7.84412 -2.24479 0
M  V30 40855 P 3958.74 -8.7635 -1.60911 0
M  V30 40856 O 3958.52 -10.1388 -1.11561 0
M  V30 40857 O 3957.95 -8.36503 -2.79617 0
M  V30 40858 O 3958.49 -7.71806 -0.42951 0
M  V30 40859 C 3959.43 -7.67148 0.673689 0
M  V30 40860 C 3958.7 -7.33374 1.95559 0
M  V30 40861 O 3958.49 -5.88721 2.00726 0
M  V30 40862 C 3957.3 -7.92526 2.10483 0
M  V30 40863 O 3956.91 -8.02971 3.47653 0
M  V30 40864 C 3956.42 -6.89602 1.41652 0
M  V30 40865 C 3957.13 -5.59201 1.75185 0
M  V30 40866 N 3957.08 -4.58301 0.657969 0
M  V30 40867 H 3959.92 -8.65116 0.777161 0
M  V30 40868 H 3960.19 -6.9022 0.46725 0
M  V30 40869 H 3959.32 -7.66548 2.79458 0
M  V30 40870 H 3956.66 -5.16165 2.65183 0
M  V30 40871 H 3956.38 -7.06433 0.329384 0
M  V30 40872 H 3955.39 -6.90926 1.82021 0
M  V30 40873 H 3957.23 -8.90873 1.62657 0
M  V30 40874 P 3955.36 -8.03563 3.84925 0
M  V30 40875 O 3955.14 -8.85821 5.0569 0
M  V30 40876 O 3954.57 -8.41101 2.65469 0
M  V30 40877 O 3955.11 -6.4965 4.18908 0
M  V30 40878 C 3956.05 -5.81037 5.05421 0
M  V30 40879 C 3955.32 -4.78366 5.89277 0
M  V30 40880 O 3955.11 -3.58302 5.08433 0
M  V30 40881 C 3953.92 -5.17448 6.36119 0
M  V30 40882 O 3953.53 -4.45271 7.53232 0
M  V30 40883 C 3953.04 -4.74639 5.19936 0
M  V30 40884 C 3953.75 -3.49432 4.70418 0
M  V30 40885 N 3953.7 -3.31776 3.22945 0
M  V30 40886 H 3956.54 -6.54213 5.71376 0
M  V30 40887 H 3956.81 -5.30492 4.44033 0
M  V30 40888 H 3955.94 -4.55889 6.76652 0
M  V30 40889 P 3951.98 -4.23843 7.83734 0
M  V30 40890 O 3951.76 -4.19407 9.29784 0
M  V30 40891 O 3951.19 -5.24426 7.09156 0
M  V30 40892 O 3951.73 -2.7935 7.20758 0
M  V30 40893 C 3952.67 -1.7299 7.50419 0
M  V30 40894 C 3951.94 -0.406376 7.57911 0
M  V30 40895 O 3951.73 0.0897726 6.21935 0
M  V30 40896 C 3950.54 -0.447224 8.1878 0
M  V30 40897 O 3950.15 0.825065 8.71101 0
M  V30 40898 C 3949.66 -0.783801 6.99623 0
M  V30 40899 C 3950.37 -0.0619192 5.85967 0
M  V30 40900 N 3950.32 -0.7859 4.56281 0
M  V30 40901 H 3953.16 -1.93423 8.4679 0
M  V30 40902 H 3953.43 -1.68181 6.71046 0
M  V30 40903 H 3952.56 0.289041 8.15388 0
M  V30 40904 P 3948.6 1.17771 8.83182 0
M  V30 40905 O 3948.38 2.07206 9.98732 0
M  V30 40906 O 3947.81 -0.0743816 8.81969 0
M  V30 40907 O 3948.35 1.97652 7.47304 0
M  V30 40908 C 3949.29 3.01133 7.08783 0
M  V30 40909 C 3948.56 4.12613 6.37049 0
M  V30 40910 O 3948.35 3.72827 4.97879 0
M  V30 40911 C 3947.16 4.45085 6.88694 0
M  V30 40912 O 3946.77 5.7877 6.5624 0
M  V30 40913 C 3946.28 3.47817 6.12078 0
M  V30 40914 C 3946.99 3.39414 4.77697 0
M  V30 40915 N 3946.94 2.04615 4.15333 0
M  V30 40916 H 3949.78 3.41248 7.98759 0
M  V30 40917 H 3950.05 2.5837 6.41742 0
M  V30 40918 H 3949.18 5.02657 6.42673 0
M  V30 40919 P 3945.22 6.144 6.45285 0
M  V30 40920 O 3945 7.54673 6.86199 0
M  V30 40921 O 3944.43 5.12391 7.179 0
M  V30 40922 O 3944.97 5.99158 4.88404 0
M  V30 40923 C 3945.91 6.60234 3.96415 0
M  V30 40924 C 3945.18 7.08259 2.72856 0
M  V30 40925 O 3944.97 5.9427 1.83651 0
M  V30 40926 C 3943.78 7.64886 2.9555 0
M  V30 40927 O 3943.39 8.53963 1.90717 0
M  V30 40928 C 3942.9 6.4116 2.90739 0
M  V30 40929 C 3943.61 5.55375 1.86963 0
M  V30 40930 N 3943.56 4.09664 2.15742 0
M  V30 40931 H 3946.4 7.45574 4.45629 0
M  V30 40932 H 3946.67 5.86232 3.67314 0
M  V30 40933 H 3945.8 7.84412 2.24479 0
M  V30 40934 P 3941.84 8.7635 1.60911 0
M  V30 40935 O 3941.62 10.1388 1.11561 0
M  V30 40936 O 3941.05 8.36503 2.79617 0
M  V30 40937 O 3941.59 7.71806 0.42951 0
M  V30 40938 C 3942.53 7.66948 -0.673514 0
M  V30 40939 C 3941.8 7.33374 -1.95559 0
M  V30 40940 O 3941.59 5.88721 -2.00726 0
M  V30 40941 C 3940.4 7.92218 -2.1125 0
M  V30 40942 O 3940.01 8.02971 -3.47653 0
M  V30 40943 C 3939.52 6.89504 -1.41631 0
M  V30 40944 C 3940.23 5.59106 -1.75155 0
M  V30 40945 N 3940.18 4.58136 -0.662409 0
M  V30 40946 C 3940.03 3.26059 -1.02863 0
M  V30 40947 O 3939.94 2.90743 -2.19009 0
M  V30 40948 N 3939.99 2.35995 0.0155585 0
M  V30 40949 C 3940.08 2.65248 1.35603 0
M  V30 40950 O 3940.03 1.75605 2.20651 0
M  V30 40951 C 3940.23 4.05747 1.64698 0
M  V30 40952 C 3940.34 4.42345 3.09553 0
M  V30 40953 C 3940.28 4.96734 0.652411 0
M  V30 40954 H 3943.02 8.64917 -0.776982 0
M  V30 40955 H 3943.29 6.89974 -0.474015 0
M  V30 40956 H 3942.42 7.66548 -2.79458 0
M  V30 40957 H 3939.76 5.16076 -2.65138 0
M  V30 40958 H 3939.49 7.06433 -0.329384 0
M  V30 40959 H 3938.49 6.90829 -1.81996 0
M  V30 40960 H 3940.33 8.90774 -1.62639 0
M  V30 40961 H 3940.4 6.02181 0.895285 0
M  V30 40962 H 3939.37 4.80252 3.45468 0
M  V30 40963 H 3941.11 5.20015 3.22119 0
M  V30 40964 H 3940.62 3.53269 3.67833 0
M  V30 40965 H 3939.88 1.39558 -0.227499 0
M  V30 40966 P 3938.46 8.03563 -3.84925 0
M  V30 40967 O 3938.24 8.85821 -5.0569 0
M  V30 40968 O 3937.67 8.41101 -2.65469 0
M  V30 40969 O 3938.21 6.4965 -4.18908 0
M  V30 40970 C 3939.15 5.81037 -5.05421 0
M  V30 40971 C 3938.42 4.78366 -5.89277 0
M  V30 40972 O 3938.21 3.58302 -5.08433 0
M  V30 40973 C 3937.02 5.17448 -6.36119 0
M  V30 40974 O 3936.63 4.45271 -7.53232 0
M  V30 40975 C 3936.14 4.74639 -5.19936 0
M  V30 40976 C 3936.85 3.49432 -4.70418 0
M  V30 40977 N 3936.8 3.31776 -3.22945 0
M  V30 40978 H 3939.64 6.54213 -5.71376 0
M  V30 40979 H 3939.91 5.30492 -4.44033 0
M  V30 40980 H 3939.04 4.55889 -6.76652 0
M  V30 40981 P 3935.08 4.23843 -7.83734 0
M  V30 40982 O 3934.86 4.19407 -9.29784 0
M  V30 40983 O 3934.29 5.24426 -7.09156 0
M  V30 40984 O 3934.83 2.7935 -7.20758 0
M  V30 40985 C 3935.77 1.7299 -7.50419 0
M  V30 40986 C 3935.04 0.406376 -7.57911 0
M  V30 40987 O 3934.83 -0.0897726 -6.21935 0
M  V30 40988 C 3933.64 0.447224 -8.1878 0
M  V30 40989 O 3933.25 -0.825065 -8.71101 0
M  V30 40990 C 3932.76 0.783801 -6.99623 0
M  V30 40991 C 3933.47 0.0619192 -5.85967 0
M  V30 40992 N 3933.42 0.7859 -4.56281 0
M  V30 40993 H 3936.26 1.93423 -8.4679 0
M  V30 40994 H 3936.53 1.68181 -6.71046 0
M  V30 40995 H 3935.66 -0.289041 -8.15388 0
M  V30 40996 P 3931.7 -1.17771 -8.83182 0
M  V30 40997 O 3931.48 -2.07206 -9.98732 0
M  V30 40998 O 3930.91 0.0743816 -8.81969 0
M  V30 40999 O 3931.45 -1.97652 -7.47304 0
M  V30 41000 C 3932.39 -3.01133 -7.08783 0
M  V30 41001 C 3931.66 -4.12613 -6.37049 0
M  V30 41002 O 3931.45 -3.72827 -4.97879 0
M  V30 41003 C 3930.26 -4.45085 -6.88694 0
M  V30 41004 O 3929.87 -5.7877 -6.5624 0
M  V30 41005 C 3929.38 -3.47817 -6.12078 0
M  V30 41006 C 3930.09 -3.39414 -4.77697 0
M  V30 41007 N 3930.04 -2.04199 -4.15538 0
M  V30 41008 C 3930.12 -0.821545 -4.76977 0
M  V30 41009 N 3930.05 0.1794 -3.94592 0
M  V30 41010 C 3929.9 -0.419121 -2.70776 0
M  V30 41011 C 3929.77 0.109072 -1.40577 0
M  V30 41012 N 3929.76 1.4104 -1.1344 0
M  V30 41013 N 3929.65 -0.764381 -0.39411 0
M  V30 41014 C 3929.66 -2.06587 -0.664135 0
M  V30 41015 N 3929.78 -2.67948 -1.82153 0
M  V30 41016 C 3929.9 -1.77942 -2.8147 0
M  V30 41017 H 3932.88 -3.41248 -7.98759 0
M  V30 41018 H 3933.15 -2.57728 -6.42 0
M  V30 41019 H 3932.28 -5.02657 -6.42673 0
M  V30 41020 H 3929.62 -4.11708 -4.08956 0
M  V30 41021 H 3929.34 -2.49626 -6.61679 0
M  V30 41022 H 3928.35 -3.8662 -6.00862 0
M  V30 41023 H 3930.19 -4.29991 -7.97006 0
M  V30 41024 H 3930.23 -0.702451 -5.84696 0
M  V30 41025 H 3929.85 2.09647 -1.89651 0
M  V30 41026 H 3929.66 1.73358 -0.160575 0
M  V30 41027 H 3929.55 -2.71695 0.195838 0
M  V30 41028 P 3928.32 -6.144 -6.45285 0
M  V30 41029 O 3928.1 -7.54673 -6.86199 0
M  V30 41030 O 3927.53 -5.12391 -7.179 0
M  V30 41031 O 3928.07 -5.99158 -4.88404 0
M  V30 41032 C 3929.01 -6.60234 -3.96415 0
M  V30 41033 C 3928.28 -7.08259 -2.72856 0
M  V30 41034 O 3928.07 -5.9427 -1.83651 0
M  V30 41035 C 3926.88 -7.64886 -2.9555 0
M  V30 41036 O 3926.49 -8.53963 -1.90717 0
M  V30 41037 C 3926 -6.4116 -2.90739 0
M  V30 41038 C 3926.71 -5.55375 -1.86963 0
M  V30 41039 N 3926.66 -4.09448 -2.16152 0
M  V30 41040 H 3929.5 -7.45574 -4.45629 0
M  V30 41041 H 3929.77 -5.85864 -3.679 0
M  V30 41042 H 3928.9 -7.84412 -2.24479 0
M  V30 41043 H 3926.24 -5.73457 -0.888562 0
M  V30 41044 H 3925.96 -5.90877 -3.88583 0
M  V30 41045 H 3924.97 -6.6596 -2.58858 0
M  V30 41046 H 3926.81 -8.16339 -3.92049 0
M  V30 41047 P 3924.94 -8.7635 -1.60911 0
M  V30 41048 O 3924.72 -10.1388 -1.11561 0
M  V30 41049 O 3924.15 -8.36503 -2.79617 0
M  V30 41050 O 3924.69 -7.71806 -0.42951 0
M  V30 41051 C 3925.63 -7.67148 0.673689 0
M  V30 41052 C 3924.9 -7.33374 1.95559 0
M  V30 41053 O 3924.69 -5.88721 2.00726 0
M  V30 41054 C 3923.5 -7.92526 2.10483 0
M  V30 41055 O 3923.11 -8.02971 3.47653 0
M  V30 41056 C 3922.62 -6.89602 1.41652 0
M  V30 41057 C 3923.33 -5.59201 1.75185 0
M  V30 41058 N 3923.28 -4.58301 0.657969 0
M  V30 41059 H 3926.12 -8.65116 0.777161 0
M  V30 41060 H 3926.39 -6.9022 0.46725 0
M  V30 41061 H 3925.52 -7.66548 2.79458 0
M  V30 41062 H 3922.86 -5.16165 2.65183 0
M  V30 41063 H 3922.58 -7.06433 0.329384 0
M  V30 41064 H 3921.59 -6.90926 1.82021 0
M  V30 41065 H 3923.43 -8.90873 1.62657 0
M  V30 41066 P 3921.56 -8.03563 3.84925 0
M  V30 41067 O 3921.34 -8.85821 5.0569 0
M  V30 41068 O 3920.77 -8.41101 2.65469 0
M  V30 41069 O 3921.31 -6.4965 4.18908 0
M  V30 41070 C 3922.25 -5.81037 5.05421 0
M  V30 41071 C 3921.52 -4.78366 5.89277 0
M  V30 41072 O 3921.31 -3.58302 5.08433 0
M  V30 41073 C 3920.12 -5.17448 6.36119 0
M  V30 41074 O 3919.73 -4.45271 7.53232 0
M  V30 41075 C 3919.24 -4.74639 5.19936 0
M  V30 41076 C 3919.95 -3.49432 4.70418 0
M  V30 41077 N 3919.9 -3.31776 3.22945 0
M  V30 41078 H 3922.74 -6.54213 5.71376 0
M  V30 41079 H 3923.01 -5.30492 4.44033 0
M  V30 41080 H 3922.14 -4.55889 6.76652 0
M  V30 41081 P 3918.18 -4.23843 7.83734 0
M  V30 41082 O 3917.96 -4.19407 9.29784 0
M  V30 41083 O 3917.39 -5.24426 7.09156 0
M  V30 41084 O 3917.93 -2.79386 7.20852 0
M  V30 41085 C 3918.87 -1.7299 7.50419 0
M  V30 41086 C 3918.14 -0.41401 7.5797 0
M  V30 41087 O 3917.93 0.089787 6.22035 0
M  V30 41088 C 3916.74 -0.447224 8.1878 0
M  V30 41089 O 3916.35 0.825159 8.71201 0
M  V30 41090 C 3915.86 -0.783801 6.99623 0
M  V30 41091 C 3916.57 -0.0619192 5.85967 0
M  V30 41092 N 3916.52 -0.7859 4.56281 0
M  V30 41093 C 3916.37 -0.0359258 3.39981 0
M  V30 41094 O 3916.28 1.19723 3.49038 0
M  V30 41095 N 3916.32 -0.869151 2.14025 0
M  V30 41096 C 3916.42 -2.01207 2.14363 0
M  V30 41097 N 3916.37 -2.58978 0.954287 0
M  V30 41098 C 3916.57 -2.80817 3.32215 0
M  V30 41099 C 3916.62 -2.13785 4.50884 0
M  V30 41100 H 3919.36 -1.93401 8.46693 0
M  V30 41101 H 3919.63 -1.68181 6.71046 0
M  V30 41102 H 3918.76 0.289076 8.15488 0
M  V30 41103 H 3916.1 0.927166 5.72947 0
M  V30 41104 H 3915.82 -1.87 6.82132 0
M  V30 41105 H 3914.83 -0.404009 7.13457 0
M  V30 41106 H 3916.67 -1.20599 8.97534 0
M  V30 41107 H 3916.74 -2.70295 5.43162 0
M  V30 41108 H 3916.64 -3.89465 3.27406 0
M  V30 41109 H 3916.25 -2.01616 0.107046 0
M  V30 41110 H 3916.45 -3.61403 0.873101 0
M  V30 41111 P 3914.8 1.17771 8.83182 0
M  V30 41112 O 3914.58 2.07206 9.98732 0
M  V30 41113 O 3914.01 -0.0743816 8.81969 0
M  V30 41114 O 3914.55 1.97652 7.47304 0
M  V30 41115 C 3915.49 3.01055 7.08599 0
M  V30 41116 C 3914.76 4.12613 6.37049 0
M  V30 41117 O 3914.55 3.72827 4.97879 0
M  V30 41118 C 3913.36 4.45719 6.88164 0
M  V30 41119 O 3912.97 5.7877 6.5624 0
M  V30 41120 C 3912.48 3.47768 6.11991 0
M  V30 41121 C 3913.19 3.39356 4.77615 0
M  V30 41122 N 3913.14 2.04571 4.15244 0
M  V30 41123 C 3912.99 1.98587 2.78314 0
M  V30 41124 O 3912.9 2.98134 2.08835 0
M  V30 41125 N 3912.95 0.714467 2.24925 0
M  V30 41126 C 3913.04 -0.470001 2.94169 0
M  V30 41127 O 3912.99 -1.55587 2.35195 0
M  V30 41128 C 3913.19 -0.312541 4.36783 0
M  V30 41129 C 3913.3 -1.57711 5.16352 0
M  V30 41130 C 3913.24 0.914512 4.92583 0
M  V30 41131 H 3915.98 3.41169 7.98575 0
M  V30 41132 H 3916.25 2.58295 6.41556 0
M  V30 41133 H 3915.38 5.02657 6.42673 0
M  V30 41134 H 3912.72 4.11637 4.08885 0
M  V30 41135 H 3912.45 2.49626 6.61679 0
M  V30 41136 H 3911.45 3.86566 6.00778 0
M  V30 41137 H 3913.29 4.29943 7.96918 0
M  V30 41138 H 3913.36 1.00937 6.00374 0
M  V30 41139 H 3912.33 -1.80153 5.63503 0
M  V30 41140 H 3914.07 -1.4566 5.94104 0
M  V30 41141 H 3913.58 -2.40664 4.49645 0
M  V30 41142 H 3912.84 0.647622 1.25697 0
M  V30 41143 P 3911.42 6.144 6.45285 0
M  V30 41144 O 3911.2 7.54673 6.86199 0
M  V30 41145 O 3910.63 5.12391 7.179 0
M  V30 41146 O 3911.17 5.99158 4.88404 0
M  V30 41147 C 3912.11 6.60234 3.96415 0
M  V30 41148 C 3911.38 7.08259 2.72856 0
M  V30 41149 O 3911.17 5.9427 1.83651 0
M  V30 41150 C 3909.98 7.64886 2.9555 0
M  V30 41151 O 3909.59 8.53963 1.90717 0
M  V30 41152 C 3909.1 6.4116 2.90739 0
M  V30 41153 C 3909.81 5.55375 1.86963 0
M  V30 41154 N 3909.76 4.09664 2.15742 0
M  V30 41155 H 3912.6 7.45574 4.45629 0
M  V30 41156 H 3912.87 5.86232 3.67314 0
M  V30 41157 H 3912 7.84412 2.24479 0
M  V30 41158 P 3908.04 8.7635 1.60911 0
M  V30 41159 O 3907.82 10.1388 1.11561 0
M  V30 41160 O 3907.25 8.36503 2.79617 0
M  V30 41161 O 3907.79 7.71806 0.42951 0
M  V30 41162 C 3908.73 7.67148 -0.673689 0
M  V30 41163 C 3908 7.33374 -1.95559 0
M  V30 41164 O 3907.79 5.88721 -2.00726 0
M  V30 41165 C 3906.6 7.92526 -2.10483 0
M  V30 41166 O 3906.21 8.02971 -3.47653 0
M  V30 41167 C 3905.72 6.89602 -1.41652 0
M  V30 41168 C 3906.43 5.59201 -1.75185 0
M  V30 41169 N 3906.38 4.58235 -0.662552 0
M  V30 41170 H 3909.22 8.65116 -0.777161 0
M  V30 41171 H 3909.49 6.90173 -0.474152 0
M  V30 41172 H 3908.62 7.66548 -2.79458 0
M  V30 41173 P 3904.66 8.03563 -3.84925 0
M  V30 41174 O 3904.44 8.85821 -5.0569 0
M  V30 41175 O 3903.87 8.41101 -2.65469 0
M  V30 41176 O 3904.41 6.4965 -4.18908 0
M  V30 41177 C 3905.35 5.81037 -5.05421 0
M  V30 41178 C 3904.62 4.78366 -5.89277 0
M  V30 41179 O 3904.41 3.58302 -5.08433 0
M  V30 41180 C 3903.22 5.17448 -6.36119 0
M  V30 41181 O 3902.83 4.45271 -7.53232 0
M  V30 41182 C 3902.34 4.74639 -5.19936 0
M  V30 41183 C 3903.05 3.49432 -4.70418 0
M  V30 41184 N 3903 3.31776 -3.22945 0
M  V30 41185 H 3905.84 6.54213 -5.71376 0
M  V30 41186 H 3906.11 5.30492 -4.44033 0
M  V30 41187 H 3905.24 4.55889 -6.76652 0
M  V30 41188 P 3901.28 4.23843 -7.83734 0
M  V30 41189 O 3901.06 4.19407 -9.29784 0
M  V30 41190 O 3900.49 5.24426 -7.09156 0
M  V30 41191 O 3901.03 2.79386 -7.20852 0
M  V30 41192 C 3901.97 1.7299 -7.50419 0
M  V30 41193 C 3901.24 0.41401 -7.5797 0
M  V30 41194 O 3901.03 -0.089787 -6.22035 0
M  V30 41195 C 3899.84 0.447224 -8.1878 0
M  V30 41196 O 3899.45 -0.825159 -8.71201 0
M  V30 41197 C 3898.96 0.783801 -6.99623 0
M  V30 41198 C 3899.67 0.0619192 -5.85967 0
M  V30 41199 N 3899.62 0.7859 -4.56281 0
M  V30 41200 C 3899.47 0.0359258 -3.39981 0
M  V30 41201 O 3899.38 -1.19723 -3.49038 0
M  V30 41202 N 3899.42 0.869151 -2.14025 0
M  V30 41203 C 3899.52 2.01207 -2.14363 0
M  V30 41204 N 3899.47 2.58978 -0.954287 0
M  V30 41205 C 3899.67 2.80817 -3.32215 0
M  V30 41206 C 3899.72 2.13785 -4.50884 0
M  V30 41207 H 3902.46 1.93401 -8.46693 0
M  V30 41208 H 3902.73 1.68181 -6.71046 0
M  V30 41209 H 3901.86 -0.289076 -8.15488 0
M  V30 41210 H 3899.2 -0.927166 -5.72947 0
M  V30 41211 H 3898.92 1.87 -6.82132 0
M  V30 41212 H 3897.93 0.404009 -7.13457 0
M  V30 41213 H 3899.77 1.20599 -8.97534 0
M  V30 41214 H 3899.84 2.70295 -5.43162 0
M  V30 41215 H 3899.74 3.89465 -3.27406 0
M  V30 41216 H 3899.35 2.01616 -0.107046 0
M  V30 41217 H 3899.55 3.61403 -0.873101 0
M  V30 41218 P 3897.9 -1.17771 -8.83182 0
M  V30 41219 O 3897.68 -2.07206 -9.98732 0
M  V30 41220 O 3897.11 0.0743816 -8.81969 0
M  V30 41221 O 3897.65 -1.97652 -7.47304 0
M  V30 41222 C 3898.59 -3.01133 -7.08783 0
M  V30 41223 C 3897.86 -4.12613 -6.37049 0
M  V30 41224 O 3897.65 -3.72827 -4.97879 0
M  V30 41225 C 3896.46 -4.45085 -6.88694 0
M  V30 41226 O 3896.07 -5.7877 -6.5624 0
M  V30 41227 C 3895.58 -3.47817 -6.12078 0
M  V30 41228 C 3896.29 -3.39414 -4.77697 0
M  V30 41229 N 3896.24 -2.04615 -4.15333 0
M  V30 41230 H 3899.08 -3.41248 -7.98759 0
M  V30 41231 H 3899.35 -2.5837 -6.41742 0
M  V30 41232 H 3898.48 -5.02657 -6.42673 0
M  V30 41233 P 3894.52 -6.144 -6.45285 0
M  V30 41234 O 3894.3 -7.54673 -6.86199 0
M  V30 41235 O 3893.73 -5.12391 -7.179 0
M  V30 41236 O 3894.27 -5.99158 -4.88404 0
M  V30 41237 C 3895.21 -6.60234 -3.96415 0
M  V30 41238 C 3894.48 -7.08259 -2.72856 0
M  V30 41239 O 3894.27 -5.9427 -1.83651 0
M  V30 41240 C 3893.08 -7.64886 -2.9555 0
M  V30 41241 O 3892.69 -8.53963 -1.90717 0
M  V30 41242 C 3892.2 -6.4116 -2.90739 0
M  V30 41243 C 3892.91 -5.55375 -1.86963 0
M  V30 41244 N 3892.86 -4.09448 -2.16152 0
M  V30 41245 H 3895.7 -7.45574 -4.45629 0
M  V30 41246 H 3895.97 -5.85864 -3.679 0
M  V30 41247 H 3895.1 -7.84412 -2.24479 0
M  V30 41248 H 3892.44 -5.73457 -0.888562 0
M  V30 41249 H 3892.16 -5.90877 -3.88583 0
M  V30 41250 H 3891.17 -6.6596 -2.58858 0
M  V30 41251 H 3893.01 -8.16339 -3.92049 0
M  V30 41252 P 3891.14 -8.7635 -1.60911 0
M  V30 41253 O 3890.92 -10.1388 -1.11561 0
M  V30 41254 O 3890.35 -8.36503 -2.79617 0
M  V30 41255 O 3890.89 -7.71806 -0.42951 0
M  V30 41256 C 3891.83 -7.67148 0.673689 0
M  V30 41257 C 3891.1 -7.33374 1.95559 0
M  V30 41258 O 3890.89 -5.88721 2.00726 0
M  V30 41259 C 3889.7 -7.92526 2.10483 0
M  V30 41260 O 3889.31 -8.02971 3.47653 0
M  V30 41261 C 3888.82 -6.89602 1.41652 0
M  V30 41262 C 3889.53 -5.59201 1.75185 0
M  V30 41263 N 3889.48 -4.58235 0.662552 0
M  V30 41264 H 3892.32 -8.65116 0.777161 0
M  V30 41265 H 3892.59 -6.90173 0.474152 0
M  V30 41266 H 3891.72 -7.66548 2.79458 0
M  V30 41267 P 3887.76 -8.03563 3.84925 0
M  V30 41268 O 3887.54 -8.85821 5.0569 0
M  V30 41269 O 3886.97 -8.41101 2.65469 0
M  V30 41270 O 3887.51 -6.49734 4.18962 0
M  V30 41271 C 3888.45 -5.81037 5.05421 0
M  V30 41272 C 3887.72 -4.79018 5.88876 0
M  V30 41273 O 3887.51 -3.58359 5.08515 0
M  V30 41274 C 3886.32 -5.17448 6.36119 0
M  V30 41275 O 3885.93 -4.45322 7.53318 0
M  V30 41276 C 3885.44 -4.74639 5.19936 0
M  V30 41277 C 3886.15 -3.49432 4.70418 0
M  V30 41278 N 3886.1 -3.31776 3.22945 0
M  V30 41279 C 3885.95 -2.02742 2.72939 0
M  V30 41280 O 3885.86 -1.08301 3.52749 0
M  V30 41281 N 3885.9 -1.96117 1.22063 0
M  V30 41282 C 3886 -2.8878 0.551566 0
M  V30 41283 N 3885.95 -2.65609 -0.750198 0
M  V30 41284 C 3886.15 -4.22457 1.03707 0
M  V30 41285 C 3886.2 -4.37979 2.39113 0
M  V30 41286 H 3888.94 -6.54138 5.7131 0
M  V30 41287 H 3889.21 -5.30492 4.44033 0
M  V30 41288 H 3888.34 -4.55945 6.76735 0
M  V30 41289 H 3885.69 -2.6176 5.18021 0
M  V30 41290 H 3885.41 -5.52233 4.41941 0
M  V30 41291 H 3884.41 -4.52045 5.53452 0
M  V30 41292 H 3886.25 -6.25124 6.55234 0
M  V30 41293 H 3886.32 -5.37936 2.80552 0
M  V30 41294 H 3886.22 -5.07528 0.359553 0
M  V30 41295 H 3885.83 -1.69403 -1.09847 0
M  V30 41296 H 3886.03 -3.43701 -1.41792 0
M  V30 41297 P 3884.38 -4.23843 7.83734 0
M  V30 41298 O 3884.16 -4.19407 9.29784 0
M  V30 41299 O 3883.59 -5.24426 7.09156 0
M  V30 41300 O 3884.13 -2.79386 7.20852 0
M  V30 41301 C 3885.07 -1.7299 7.50419 0
M  V30 41302 C 3884.34 -0.41401 7.5797 0
M  V30 41303 O 3884.13 0.089787 6.22035 0
M  V30 41304 C 3882.94 -0.447224 8.1878 0
M  V30 41305 O 3882.55 0.825159 8.71201 0
M  V30 41306 C 3882.06 -0.783801 6.99623 0
M  V30 41307 C 3882.77 -0.0619192 5.85967 0
M  V30 41308 N 3882.72 -0.7859 4.56281 0
M  V30 41309 C 3882.57 -0.0359258 3.39981 0
M  V30 41310 O 3882.48 1.19723 3.49038 0
M  V30 41311 N 3882.52 -0.869151 2.14025 0
M  V30 41312 C 3882.62 -2.01207 2.14363 0
M  V30 41313 N 3882.57 -2.58978 0.954287 0
M  V30 41314 C 3882.77 -2.80817 3.32215 0
M  V30 41315 C 3882.82 -2.13785 4.50884 0
M  V30 41316 H 3885.56 -1.93401 8.46693 0
M  V30 41317 H 3885.83 -1.68181 6.71046 0
M  V30 41318 H 3884.96 0.289076 8.15488 0
M  V30 41319 H 3882.31 0.927166 5.72947 0
M  V30 41320 H 3882.03 -1.87 6.82132 0
M  V30 41321 H 3881.03 -0.404009 7.13457 0
M  V30 41322 H 3882.87 -1.20599 8.97534 0
M  V30 41323 H 3882.94 -2.70295 5.43162 0
M  V30 41324 H 3882.84 -3.89465 3.27406 0
M  V30 41325 H 3882.45 -2.01616 0.107046 0
M  V30 41326 H 3882.65 -3.61403 0.873101 0
M  V30 41327 P 3881 1.17771 8.83182 0
M  V30 41328 O 3880.78 2.07206 9.98732 0
M  V30 41329 O 3880.21 -0.0743816 8.81969 0
M  V30 41330 O 3880.75 1.97652 7.47304 0
M  V30 41331 C 3881.69 3.01133 7.08783 0
M  V30 41332 C 3880.96 4.12613 6.37049 0
M  V30 41333 O 3880.75 3.72827 4.97879 0
M  V30 41334 C 3879.56 4.45085 6.88694 0
M  V30 41335 O 3879.17 5.7877 6.5624 0
M  V30 41336 C 3878.68 3.47817 6.12078 0
M  V30 41337 C 3879.39 3.39414 4.77697 0
M  V30 41338 N 3879.34 2.04615 4.15333 0
M  V30 41339 C 3879.42 0.803897 4.75249 0
M  V30 41340 N 3879.34 -0.197615 3.91502 0
M  V30 41341 C 3879.2 0.413002 2.66823 0
M  V30 41342 C 3879.07 -0.157221 1.38007 0
M  V30 41343 O 3879.05 -1.34419 1.057 0
M  V30 41344 N 3878.95 0.833136 0.390236 0
M  V30 41345 C 3878.95 2.19402 0.623885 0
M  V30 41346 N 3878.82 2.97622 -0.449677 0
M  V30 41347 N 3879.08 2.73005 1.83601 0
M  V30 41348 C 3879.2 1.78786 2.80935 0
M  V30 41349 H 3882.18 3.41248 7.98759 0
M  V30 41350 H 3882.45 2.5837 6.41742 0
M  V30 41351 H 3881.58 5.02657 6.42673 0
M  V30 41352 H 3878.93 4.11779 4.09026 0
M  V30 41353 H 3878.65 2.49661 6.61772 0
M  V30 41354 H 3877.65 3.86674 6.00946 0
M  V30 41355 H 3879.49 4.30038 7.97094 0
M  V30 41356 H 3879.54 0.670579 5.82754 0
M  V30 41357 H 3878.86 0.528446 -0.557287 0
M  V30 41358 H 3878.82 4.00117 -0.344773 0
M  V30 41359 H 3878.72 2.55448 -1.38544 0
M  V30 41360 P 3877.62 6.144 6.45285 0
M  V30 41361 O 3877.4 7.54673 6.86199 0
M  V30 41362 O 3876.83 5.12391 7.179 0
M  V30 41363 O 3877.37 5.99236 4.88467 0
M  V30 41364 C 3878.31 6.60234 3.96415 0
M  V30 41365 C 3877.58 7.08079 2.736 0
M  V30 41366 O 3877.37 5.94365 1.8368 0
M  V30 41367 C 3876.18 7.64886 2.9555 0
M  V30 41368 O 3875.79 8.5406 1.90739 0
M  V30 41369 C 3875.3 6.4116 2.90739 0
M  V30 41370 C 3876.01 5.55375 1.86963 0
M  V30 41371 N 3875.96 4.09664 2.15742 0
M  V30 41372 C 3875.81 3.22231 1.08477 0
M  V30 41373 O 3875.72 3.68951 -0.0600489 0
M  V30 41374 N 3875.76 1.76692 1.48799 0
M  V30 41375 C 3875.86 1.41695 2.57602 0
M  V30 41376 N 3875.81 0.107296 2.75791 0
M  V30 41377 C 3876.01 2.29178 3.69733 0
M  V30 41378 C 3876.06 3.62753 3.42653 0
M  V30 41379 H 3878.8 7.45488 4.45578 0
M  V30 41380 H 3879.07 5.86232 3.67314 0
M  V30 41381 H 3878.2 7.84508 2.24507 0
M  V30 41382 H 3875.55 5.73556 0.888715 0
M  V30 41383 H 3875.27 5.9096 3.88638 0
M  V30 41384 H 3874.27 6.66053 2.58894 0
M  V30 41385 H 3876.11 8.16339 3.92049 0
M  V30 41386 H 3876.18 4.33052 4.24913 0
M  V30 41387 H 3876.08 1.9103 4.71577 0
M  V30 41388 H 3875.69 -0.521221 1.95056 0
M  V30 41389 H 3875.89 -0.286429 3.70695 0
M  V30 41390 P 3874.24 8.7635 1.60911 0
M  V30 41391 O 3874.02 10.1388 1.11561 0
M  V30 41392 O 3873.45 8.36503 2.79617 0
M  V30 41393 O 3873.99 7.71806 0.42951 0
M  V30 41394 C 3874.93 7.67148 -0.673689 0
M  V30 41395 C 3874.2 7.33374 -1.95559 0
M  V30 41396 O 3873.99 5.88721 -2.00726 0
M  V30 41397 C 3872.8 7.92526 -2.10483 0
M  V30 41398 O 3872.41 8.02971 -3.47653 0
M  V30 41399 C 3871.92 6.89602 -1.41652 0
M  V30 41400 C 3872.63 5.59201 -1.75185 0
M  V30 41401 N 3872.58 4.58301 -0.657969 0
M  V30 41402 H 3875.42 8.65116 -0.777161 0
M  V30 41403 H 3875.69 6.9022 -0.46725 0
M  V30 41404 H 3874.82 7.66548 -2.79458 0
M  V30 41405 H 3872.17 5.16165 -2.65183 0
M  V30 41406 H 3871.89 7.06433 -0.329384 0
M  V30 41407 H 3870.89 6.90926 -1.82021 0
M  V30 41408 H 3872.73 8.90873 -1.62657 0
M  V30 41409 P 3870.86 8.03563 -3.84925 0
M  V30 41410 O 3870.64 8.85821 -5.0569 0
M  V30 41411 O 3870.07 8.41101 -2.65469 0
M  V30 41412 O 3870.61 6.4965 -4.18908 0
M  V30 41413 C 3871.55 5.81037 -5.05421 0
M  V30 41414 C 3870.82 4.78366 -5.89277 0
M  V30 41415 O 3870.61 3.58302 -5.08433 0
M  V30 41416 C 3869.42 5.17448 -6.36119 0
M  V30 41417 O 3869.03 4.45271 -7.53232 0
M  V30 41418 C 3868.54 4.74639 -5.19936 0
M  V30 41419 C 3869.25 3.49432 -4.70418 0
M  V30 41420 N 3869.2 3.31776 -3.22945 0
M  V30 41421 H 3872.04 6.54213 -5.71376 0
M  V30 41422 H 3872.31 5.30492 -4.44033 0
M  V30 41423 H 3871.44 4.55889 -6.76652 0
M  V30 41424 P 3867.48 4.23843 -7.83734 0
M  V30 41425 O 3867.26 4.19407 -9.29784 0
M  V30 41426 O 3866.69 5.24426 -7.09156 0
M  V30 41427 O 3867.23 2.7935 -7.20758 0
M  V30 41428 C 3868.17 1.7299 -7.50419 0
M  V30 41429 C 3867.44 0.406376 -7.57911 0
M  V30 41430 O 3867.23 -0.0897726 -6.21935 0
M  V30 41431 C 3866.04 0.447224 -8.1878 0
M  V30 41432 O 3865.65 -0.825065 -8.71101 0
M  V30 41433 C 3865.16 0.783801 -6.99623 0
M  V30 41434 C 3865.87 0.0619192 -5.85967 0
M  V30 41435 N 3865.82 0.7859 -4.56281 0
M  V30 41436 H 3868.66 1.93423 -8.4679 0
M  V30 41437 H 3868.93 1.68181 -6.71046 0
M  V30 41438 H 3868.06 -0.289041 -8.15388 0
M  V30 41439 P 3864.1 -1.17771 -8.83182 0
M  V30 41440 O 3863.88 -2.07206 -9.98732 0
M  V30 41441 O 3863.31 0.0743816 -8.81969 0
M  V30 41442 O 3863.85 -1.97652 -7.47304 0
M  V30 41443 C 3864.79 -3.01133 -7.08783 0
M  V30 41444 C 3864.06 -4.12613 -6.37049 0
M  V30 41445 O 3863.85 -3.72827 -4.97879 0
M  V30 41446 C 3862.66 -4.45085 -6.88694 0
M  V30 41447 O 3862.27 -5.7877 -6.5624 0
M  V30 41448 C 3861.78 -3.47817 -6.12078 0
M  V30 41449 C 3862.49 -3.39414 -4.77697 0
M  V30 41450 N 3862.44 -2.04199 -4.15538 0
M  V30 41451 H 3865.28 -3.41248 -7.98759 0
M  V30 41452 H 3865.55 -2.57728 -6.42 0
M  V30 41453 H 3864.68 -5.02657 -6.42673 0
M  V30 41454 H 3862.03 -4.11708 -4.08956 0
M  V30 41455 H 3861.75 -2.49626 -6.61679 0
M  V30 41456 H 3860.75 -3.8662 -6.00862 0
M  V30 41457 H 3862.59 -4.29991 -7.97006 0
M  V30 41458 P 3860.72 -6.144 -6.45285 0
M  V30 41459 O 3860.5 -7.54673 -6.86199 0
M  V30 41460 O 3859.93 -5.12391 -7.179 0
M  V30 41461 O 3860.47 -5.99158 -4.88404 0
M  V30 41462 C 3861.41 -6.60234 -3.96415 0
M  V30 41463 C 3860.68 -7.08259 -2.72856 0
M  V30 41464 O 3860.47 -5.9427 -1.83651 0
M  V30 41465 C 3859.28 -7.64886 -2.9555 0
M  V30 41466 O 3858.89 -8.53963 -1.90717 0
M  V30 41467 C 3858.4 -6.4116 -2.90739 0
M  V30 41468 C 3859.11 -5.55375 -1.86963 0
M  V30 41469 N 3859.06 -4.09664 -2.15742 0
M  V30 41470 H 3861.9 -7.45574 -4.45629 0
M  V30 41471 H 3862.17 -5.86232 -3.67314 0
M  V30 41472 H 3861.3 -7.84412 -2.24479 0
M  V30 41473 P 3857.34 -8.7635 -1.60911 0
M  V30 41474 O 3857.12 -10.1388 -1.11561 0
M  V30 41475 O 3856.55 -8.36503 -2.79617 0
M  V30 41476 O 3857.09 -7.71806 -0.42951 0
M  V30 41477 C 3858.03 -7.67148 0.673689 0
M  V30 41478 C 3857.3 -7.33374 1.95559 0
M  V30 41479 O 3857.09 -5.88721 2.00726 0
M  V30 41480 C 3855.9 -7.92526 2.10483 0
M  V30 41481 O 3855.51 -8.02971 3.47653 0
M  V30 41482 C 3855.02 -6.89602 1.41652 0
M  V30 41483 C 3855.73 -5.59201 1.75185 0
M  V30 41484 N 3855.68 -4.58301 0.657969 0
M  V30 41485 C 3855.76 -4.79019 -0.692603 0
M  V30 41486 N 3855.69 -3.69736 -1.38998 0
M  V30 41487 C 3855.54 -2.70474 -0.438135 0
M  V30 41488 C 3855.41 -1.30327 -0.538142 0
M  V30 41489 N 3855.4 -0.64304 -1.69192 0
M  V30 41490 N 3855.29 -0.611027 0.605183 0
M  V30 41491 C 3855.3 -1.27002 1.75953 0
M  V30 41492 N 3855.42 -2.56038 1.98546 0
M  V30 41493 C 3855.54 -3.22681 0.822541 0
M  V30 41494 H 3858.52 -8.65116 0.777161 0
M  V30 41495 H 3858.79 -6.9022 0.46725 0
M  V30 41496 H 3857.92 -7.66548 2.79458 0
M  V30 41497 H 3855.27 -5.16165 2.65183 0
M  V30 41498 H 3854.99 -7.06433 0.329384 0
M  V30 41499 H 3853.99 -6.90926 1.82021 0
M  V30 41500 H 3855.83 -8.90873 1.62657 0
M  V30 41501 H 3855.87 -5.77785 -1.13874 0
M  V30 41502 H 3855.49 -1.15585 -2.57991 0
M  V30 41503 H 3855.3 0.382989 -1.69835 0
M  V30 41504 H 3855.19 -0.653331 2.64449 0
M  V30 41505 P 3853.96 -8.03563 3.84925 0
M  V30 41506 O 3853.74 -8.85821 5.0569 0
M  V30 41507 O 3853.17 -8.41101 2.65469 0
M  V30 41508 O 3853.71 -6.4965 4.18908 0
M  V30 41509 C 3854.65 -5.80886 5.05289 0
M  V30 41510 C 3853.92 -4.78366 5.89277 0
M  V30 41511 O 3853.71 -3.58302 5.08433 0
M  V30 41512 C 3852.52 -5.16748 6.36559 0
M  V30 41513 O 3852.13 -4.45271 7.53232 0
M  V30 41514 C 3851.64 -4.74572 5.19863 0
M  V30 41515 C 3852.35 -3.49373 4.70338 0
M  V30 41516 N 3852.3 -3.31704 3.22876 0
M  V30 41517 C 3852.15 -2.03326 2.74871 0
M  V30 41518 O 3852.06 -1.06486 3.48076 0
M  V30 41519 N 3852.11 -1.91838 1.37456 0
M  V30 41520 C 3852.2 -2.94295 0.462035 0
M  V30 41521 C 3852.35 -4.25064 1.05249 0
M  V30 41522 C 3852.4 -4.40214 2.39192 0
M  V30 41523 H 3855.14 -6.54063 5.71245 0
M  V30 41524 H 3855.41 -5.30339 4.43905 0
M  V30 41525 H 3854.54 -4.55889 6.76652 0
M  V30 41526 H 3851.89 -2.6167 5.17842 0
M  V30 41527 H 3851.61 -5.52155 4.41878 0
M  V30 41528 H 3850.61 -4.51918 5.53297 0
M  V30 41529 H 3852.45 -6.25055 6.55162 0
M  V30 41530 H 3852.52 -5.39798 2.81523 0
M  V30 41531 P 3850.58 -4.23843 7.83734 0
M  V30 41532 O 3850.36 -4.19407 9.29784 0
M  V30 41533 O 3849.79 -5.24426 7.09156 0
M  V30 41534 O 3850.33 -2.7935 7.20758 0
M  V30 41535 C 3851.27 -1.7299 7.50419 0
M  V30 41536 C 3850.54 -0.406376 7.57911 0
M  V30 41537 O 3850.33 0.0897726 6.21935 0
M  V30 41538 C 3849.14 -0.447224 8.1878 0
M  V30 41539 O 3848.75 0.825065 8.71101 0
M  V30 41540 C 3848.26 -0.783801 6.99623 0
M  V30 41541 C 3848.97 -0.0619192 5.85967 0
M  V30 41542 N 3848.92 -0.7859 4.56281 0
M  V30 41543 H 3851.76 -1.93423 8.4679 0
M  V30 41544 H 3852.03 -1.68181 6.71046 0
M  V30 41545 H 3851.16 0.289041 8.15388 0
M  V30 41546 P 3847.2 1.17771 8.83182 0
M  V30 41547 O 3846.98 2.07206 9.98732 0
M  V30 41548 O 3846.41 -0.0743816 8.81969 0
M  V30 41549 O 3846.95 1.97652 7.47304 0
M  V30 41550 C 3847.89 3.01133 7.08783 0
M  V30 41551 C 3847.16 4.12613 6.37049 0
M  V30 41552 O 3846.95 3.72827 4.97879 0
M  V30 41553 C 3845.76 4.45085 6.88694 0
M  V30 41554 O 3845.37 5.7877 6.5624 0
M  V30 41555 C 3844.88 3.47817 6.12078 0
M  V30 41556 C 3845.59 3.39414 4.77697 0
M  V30 41557 N 3845.54 2.04199 4.15538 0
M  V30 41558 H 3848.38 3.41248 7.98759 0
M  V30 41559 H 3848.65 2.57728 6.42 0
M  V30 41560 H 3847.78 5.02657 6.42673 0
M  V30 41561 H 3845.13 4.11708 4.08956 0
M  V30 41562 H 3844.85 2.49626 6.61679 0
M  V30 41563 H 3843.85 3.8662 6.00862 0
M  V30 41564 H 3845.69 4.29991 7.97006 0
M  V30 41565 P 3843.82 6.144 6.45285 0
M  V30 41566 O 3843.6 7.54673 6.86199 0
M  V30 41567 O 3843.03 5.12391 7.179 0
M  V30 41568 O 3843.57 5.99158 4.88404 0
M  V30 41569 C 3844.51 6.60234 3.96415 0
M  V30 41570 C 3843.78 7.08259 2.72856 0
M  V30 41571 O 3843.57 5.9427 1.83651 0
M  V30 41572 C 3842.38 7.64886 2.9555 0
M  V30 41573 O 3841.99 8.53963 1.90717 0
M  V30 41574 C 3841.5 6.4116 2.90739 0
M  V30 41575 C 3842.21 5.55375 1.86963 0
M  V30 41576 N 3842.16 4.09664 2.15742 0
M  V30 41577 H 3845 7.45574 4.45629 0
M  V30 41578 H 3845.27 5.86232 3.67314 0
M  V30 41579 H 3844.4 7.84412 2.24479 0
M  V30 41580 P 3840.44 8.7635 1.60911 0
M  V30 41581 O 3840.22 10.1388 1.11561 0
M  V30 41582 O 3839.65 8.36503 2.79617 0
M  V30 41583 O 3840.19 7.71806 0.42951 0
M  V30 41584 C 3841.13 7.67148 -0.673689 0
M  V30 41585 C 3840.4 7.33374 -1.95559 0
M  V30 41586 O 3840.19 5.88721 -2.00726 0
M  V30 41587 C 3839 7.92526 -2.10483 0
M  V30 41588 O 3838.61 8.02971 -3.47653 0
M  V30 41589 C 3838.12 6.89602 -1.41652 0
M  V30 41590 C 3838.83 5.59201 -1.75185 0
M  V30 41591 N 3838.78 4.58235 -0.662552 0
M  V30 41592 H 3841.62 8.65116 -0.777161 0
M  V30 41593 H 3841.89 6.90173 -0.474152 0
M  V30 41594 H 3841.02 7.66548 -2.79458 0
M  V30 41595 P 3837.06 8.03563 -3.84925 0
M  V30 41596 O 3836.84 8.85821 -5.0569 0
M  V30 41597 O 3836.27 8.41101 -2.65469 0
M  V30 41598 O 3836.81 6.4965 -4.18908 0
M  V30 41599 C 3837.75 5.81037 -5.05421 0
M  V30 41600 C 3837.02 4.78366 -5.89277 0
M  V30 41601 O 3836.81 3.58302 -5.08433 0
M  V30 41602 C 3835.62 5.17448 -6.36119 0
M  V30 41603 O 3835.23 4.45271 -7.53232 0
M  V30 41604 C 3834.74 4.74639 -5.19936 0
M  V30 41605 C 3835.45 3.49432 -4.70418 0
M  V30 41606 N 3835.4 3.32099 -3.22613 0
M  V30 41607 H 3838.24 6.54213 -5.71376 0
M  V30 41608 H 3838.51 5.30936 -4.43503 0
M  V30 41609 H 3837.64 4.55889 -6.76652 0
M  V30 41610 H 3834.99 2.61715 -5.17932 0
M  V30 41611 H 3834.71 5.52155 -4.41878 0
M  V30 41612 H 3833.71 4.51981 -5.53374 0
M  V30 41613 H 3835.55 6.25124 -6.55234 0
M  V30 41614 P 3833.68 4.23843 -7.83734 0
M  V30 41615 O 3833.46 4.19407 -9.29784 0
M  V30 41616 O 3832.89 5.24426 -7.09156 0
M  V30 41617 O 3833.43 2.7935 -7.20758 0
M  V30 41618 C 3834.37 1.7299 -7.50419 0
M  V30 41619 C 3833.64 0.406376 -7.57911 0
M  V30 41620 O 3833.43 -0.0897726 -6.21935 0
M  V30 41621 C 3832.24 0.447224 -8.1878 0
M  V30 41622 O 3831.85 -0.825065 -8.71101 0
M  V30 41623 C 3831.36 0.783801 -6.99623 0
M  V30 41624 C 3832.07 0.0619192 -5.85967 0
M  V30 41625 N 3832.02 0.7859 -4.56281 0
M  V30 41626 H 3834.86 1.93423 -8.4679 0
M  V30 41627 H 3835.13 1.68181 -6.71046 0
M  V30 41628 H 3834.26 -0.289041 -8.15388 0
M  V30 41629 P 3830.3 -1.17771 -8.83182 0
M  V30 41630 O 3830.08 -2.07206 -9.98732 0
M  V30 41631 O 3829.51 0.0743816 -8.81969 0
M  V30 41632 O 3830.05 -1.97652 -7.47304 0
M  V30 41633 C 3830.99 -3.01133 -7.08783 0
M  V30 41634 C 3830.26 -4.12613 -6.37049 0
M  V30 41635 O 3830.05 -3.72827 -4.97879 0
M  V30 41636 C 3828.86 -4.45085 -6.88694 0
M  V30 41637 O 3828.47 -5.7877 -6.5624 0
M  V30 41638 C 3827.98 -3.47817 -6.12078 0
M  V30 41639 C 3828.69 -3.39414 -4.77697 0
M  V30 41640 N 3828.64 -2.04615 -4.15333 0
M  V30 41641 H 3831.48 -3.41248 -7.98759 0
M  V30 41642 H 3831.75 -2.5837 -6.41742 0
M  V30 41643 H 3830.88 -5.02657 -6.42673 0
M  V30 41644 P 3826.92 -6.144 -6.45285 0
M  V30 41645 O 3826.7 -7.54673 -6.86199 0
M  V30 41646 O 3826.13 -5.12391 -7.179 0
M  V30 41647 O 3826.67 -5.99158 -4.88404 0
M  V30 41648 C 3827.61 -6.60234 -3.96415 0
M  V30 41649 C 3826.88 -7.08259 -2.72856 0
M  V30 41650 O 3826.67 -5.9427 -1.83651 0
M  V30 41651 C 3825.48 -7.64886 -2.9555 0
M  V30 41652 O 3825.09 -8.53963 -1.90717 0
M  V30 41653 C 3824.6 -6.4116 -2.90739 0
M  V30 41654 C 3825.31 -5.55375 -1.86963 0
M  V30 41655 N 3825.26 -4.09664 -2.15742 0
M  V30 41656 H 3828.1 -7.45574 -4.45629 0
M  V30 41657 H 3828.37 -5.86232 -3.67314 0
M  V30 41658 H 3827.5 -7.84412 -2.24479 0
M  V30 41659 P 3823.54 -8.7635 -1.60911 0
M  V30 41660 O 3823.32 -10.1388 -1.11561 0
M  V30 41661 O 3822.75 -8.36503 -2.79617 0
M  V30 41662 O 3823.29 -7.71806 -0.42951 0
M  V30 41663 C 3824.23 -7.67148 0.673689 0
M  V30 41664 C 3823.5 -7.33374 1.95559 0
M  V30 41665 O 3823.29 -5.88721 2.00726 0
M  V30 41666 C 3822.1 -7.92526 2.10483 0
M  V30 41667 O 3821.71 -8.02971 3.47653 0
M  V30 41668 C 3821.22 -6.89602 1.41652 0
M  V30 41669 C 3821.93 -5.59201 1.75185 0
M  V30 41670 N 3821.88 -4.58235 0.662552 0
M  V30 41671 H 3824.72 -8.65116 0.777161 0
M  V30 41672 H 3824.99 -6.90173 0.474152 0
M  V30 41673 H 3824.12 -7.66548 2.79458 0
M  V30 41674 P 3820.16 -8.03563 3.84925 0
M  V30 41675 O 3819.94 -8.85821 5.0569 0
M  V30 41676 O 3819.37 -8.41101 2.65469 0
M  V30 41677 O 3819.91 -6.4965 4.18908 0
M  V30 41678 C 3820.85 -5.81037 5.05421 0
M  V30 41679 C 3820.12 -4.78366 5.89277 0
M  V30 41680 O 3819.91 -3.58302 5.08433 0
M  V30 41681 C 3818.72 -5.17448 6.36119 0
M  V30 41682 O 3818.33 -4.45271 7.53232 0
M  V30 41683 C 3817.84 -4.74639 5.19936 0
M  V30 41684 C 3818.55 -3.49432 4.70418 0
M  V30 41685 N 3818.5 -3.31776 3.22945 0
M  V30 41686 H 3821.34 -6.54213 5.71376 0
M  V30 41687 H 3821.61 -5.30492 4.44033 0
M  V30 41688 H 3820.74 -4.55889 6.76652 0
M  V30 41689 P 3816.78 -4.23843 7.83734 0
M  V30 41690 O 3816.56 -4.19407 9.29784 0
M  V30 41691 O 3815.99 -5.24426 7.09156 0
M  V30 41692 O 3816.53 -2.7935 7.20758 0
M  V30 41693 C 3817.47 -1.7299 7.50419 0
M  V30 41694 C 3816.74 -0.406376 7.57911 0
M  V30 41695 O 3816.53 0.0897726 6.21935 0
M  V30 41696 C 3815.34 -0.447224 8.1878 0
M  V30 41697 O 3814.95 0.825065 8.71101 0
M  V30 41698 C 3814.46 -0.783801 6.99623 0
M  V30 41699 C 3815.17 -0.0619192 5.85967 0
M  V30 41700 N 3815.12 -0.7859 4.56281 0
M  V30 41701 H 3817.96 -1.93423 8.4679 0
M  V30 41702 H 3818.23 -1.68181 6.71046 0
M  V30 41703 H 3817.36 0.289041 8.15388 0
M  V30 41704 P 3813.4 1.17771 8.83182 0
M  V30 41705 O 3813.18 2.07206 9.98732 0
M  V30 41706 O 3812.61 -0.0743816 8.81969 0
M  V30 41707 O 3813.15 1.97652 7.47304 0
M  V30 41708 C 3814.09 3.01133 7.08783 0
M  V30 41709 C 3813.36 4.12613 6.37049 0
M  V30 41710 O 3813.15 3.72827 4.97879 0
M  V30 41711 C 3811.96 4.45085 6.88694 0
M  V30 41712 O 3811.57 5.7877 6.5624 0
M  V30 41713 C 3811.08 3.47817 6.12078 0
M  V30 41714 C 3811.79 3.39414 4.77697 0
M  V30 41715 N 3811.74 2.04199 4.15538 0
M  V30 41716 H 3814.58 3.41248 7.98759 0
M  V30 41717 H 3814.85 2.57728 6.42 0
M  V30 41718 H 3813.98 5.02657 6.42673 0
M  V30 41719 H 3811.33 4.11708 4.08956 0
M  V30 41720 H 3811.05 2.49626 6.61679 0
M  V30 41721 H 3810.05 3.8662 6.00862 0
M  V30 41722 H 3811.89 4.29991 7.97006 0
M  V30 41723 P 3810.02 6.144 6.45285 0
M  V30 41724 O 3809.8 7.54673 6.86199 0
M  V30 41725 O 3809.23 5.12391 7.179 0
M  V30 41726 O 3809.77 5.99158 4.88404 0
M  V30 41727 C 3810.71 6.60234 3.96415 0
M  V30 41728 C 3809.98 7.08259 2.72856 0
M  V30 41729 O 3809.77 5.9427 1.83651 0
M  V30 41730 C 3808.58 7.64886 2.9555 0
M  V30 41731 O 3808.19 8.53963 1.90717 0
M  V30 41732 C 3807.7 6.4116 2.90739 0
M  V30 41733 C 3808.41 5.55375 1.86963 0
M  V30 41734 N 3808.36 4.09664 2.15742 0
M  V30 41735 H 3811.2 7.45574 4.45629 0
M  V30 41736 H 3811.47 5.86232 3.67314 0
M  V30 41737 H 3810.6 7.84412 2.24479 0
M  V30 41738 P 3806.64 8.7635 1.60911 0
M  V30 41739 O 3806.42 10.1388 1.11561 0
M  V30 41740 O 3805.85 8.36503 2.79617 0
M  V30 41741 O 3806.39 7.71806 0.42951 0
M  V30 41742 C 3807.33 7.67148 -0.673689 0
M  V30 41743 C 3806.6 7.33374 -1.95559 0
M  V30 41744 O 3806.39 5.88721 -2.00726 0
M  V30 41745 C 3805.2 7.92526 -2.10483 0
M  V30 41746 O 3804.81 8.02971 -3.47653 0
M  V30 41747 C 3804.32 6.89602 -1.41652 0
M  V30 41748 C 3805.03 5.59201 -1.75185 0
M  V30 41749 N 3804.98 4.58235 -0.662552 0
M  V30 41750 H 3807.82 8.65116 -0.777161 0
M  V30 41751 H 3808.09 6.90173 -0.474152 0
M  V30 41752 H 3807.22 7.66548 -2.79458 0
M  V30 41753 P 3803.26 8.03563 -3.84925 0
M  V30 41754 O 3803.04 8.85821 -5.0569 0
M  V30 41755 O 3802.47 8.41101 -2.65469 0
M  V30 41756 O 3803.01 6.4965 -4.18908 0
M  V30 41757 C 3803.95 5.81037 -5.05421 0
M  V30 41758 C 3803.22 4.78366 -5.89277 0
M  V30 41759 O 3803.01 3.58302 -5.08433 0
M  V30 41760 C 3801.82 5.17448 -6.36119 0
M  V30 41761 O 3801.43 4.45271 -7.53232 0
M  V30 41762 C 3800.94 4.74639 -5.19936 0
M  V30 41763 C 3801.65 3.49432 -4.70418 0
M  V30 41764 N 3801.6 3.31776 -3.22945 0
M  V30 41765 C 3801.68 4.27147 -2.23315 0
M  V30 41766 N 3801.6 3.78447 -1.02186 0
M  V30 41767 C 3801.46 2.41001 -1.21732 0
M  V30 41768 C 3801.33 1.36111 -0.27694 0
M  V30 41769 O 3801.31 1.42065 0.951767 0
M  V30 41770 N 3801.21 0.113683 -0.912949 0
M  V30 41771 C 3801.21 -0.0846396 -2.27943 0
M  V30 41772 N 3801.08 -1.34737 -2.6916 0
M  V30 41773 N 3801.34 0.902521 -3.16379 0
M  V30 41774 C 3801.46 2.11937 -2.56849 0
M  V30 41775 H 3804.44 6.54213 -5.71376 0
M  V30 41776 H 3804.71 5.30492 -4.44033 0
M  V30 41777 H 3803.84 4.55889 -6.76652 0
M  V30 41778 H 3801.19 2.6176 -5.18021 0
M  V30 41779 H 3800.91 5.52233 -4.41941 0
M  V30 41780 H 3799.91 4.52045 -5.53452 0
M  V30 41781 H 3801.75 6.25193 -6.55307 0
M  V30 41782 H 3801.8 5.3351 -2.43857 0
M  V30 41783 H 3801.12 -0.69331 -0.330371 0
M  V30 41784 H 3801.08 -1.56433 -3.6988 0
M  V30 41785 H 3800.98 -2.10701 -2.00133 0
M  V30 41786 P 3799.88 4.23843 -7.83734 0
M  V30 41787 O 3799.66 4.19407 -9.29784 0
M  V30 41788 O 3799.09 5.24426 -7.09156 0
M  V30 41789 O 3799.63 2.7935 -7.20758 0
M  V30 41790 C 3800.57 1.72945 -7.50224 0
M  V30 41791 C 3799.84 0.406376 -7.57911 0
M  V30 41792 O 3799.63 -0.0897726 -6.21935 0
M  V30 41793 C 3798.44 0.438983 -8.18724 0
M  V30 41794 O 3798.05 -0.825065 -8.71101 0
M  V30 41795 C 3797.56 0.783689 -6.99524 0
M  V30 41796 C 3798.27 0.0619086 -5.85867 0
M  V30 41797 N 3798.22 0.78573 -4.56183 0
M  V30 41798 C 3798.07 0.0292889 -3.41887 0
M  V30 41799 O 3797.98 -1.18445 -3.4419 0
M  V30 41800 N 3798.03 0.744061 -2.23964 0
M  V30 41801 C 3798.12 2.10932 -2.10362 0
M  V30 41802 O 3798.07 2.64117 -0.98825 0
M  V30 41803 C 3798.27 2.8202 -3.34994 0
M  V30 41804 C 3798.38 4.31095 -3.25037 0
M  V30 41805 C 3798.32 2.15547 -4.52261 0
M  V30 41806 H 3801.06 1.93379 -8.46595 0
M  V30 41807 H 3801.33 1.68132 -6.70852 0
M  V30 41808 H 3800.46 -0.289041 -8.15388 0
M  V30 41809 H 3797.81 -0.926847 -5.72749 0
M  V30 41810 H 3797.53 1.86973 -6.82036 0
M  V30 41811 H 3796.53 0.403896 -7.13257 0
M  V30 41812 H 3798.37 1.20585 -8.97435 0
M  V30 41813 H 3798.44 2.71231 -5.45042 0
M  V30 41814 H 3797.41 4.76966 -3.49992 0
M  V30 41815 H 3799.15 4.67047 -3.95024 0
M  V30 41816 H 3798.66 4.58996 -2.22312 0
M  V30 41817 H 3797.92 0.214893 -1.39758 0
M  V30 41818 P 3796.5 -1.17771 -8.83182 0
M  V30 41819 O 3796.28 -2.07206 -9.98732 0
M  V30 41820 O 3795.71 0.0743816 -8.81969 0
M  V30 41821 O 3796.25 -1.97652 -7.47304 0
M  V30 41822 C 3797.19 -3.01133 -7.08783 0
M  V30 41823 C 3796.46 -4.12613 -6.37049 0
M  V30 41824 O 3796.25 -3.72827 -4.97879 0
M  V30 41825 C 3795.06 -4.45085 -6.88694 0
M  V30 41826 O 3794.67 -5.7877 -6.5624 0
M  V30 41827 C 3794.18 -3.47817 -6.12078 0
M  V30 41828 C 3794.89 -3.39414 -4.77697 0
M  V30 41829 N 3794.84 -2.04615 -4.15333 0
M  V30 41830 H 3797.68 -3.41248 -7.98759 0
M  V30 41831 H 3797.95 -2.5837 -6.41742 0
M  V30 41832 H 3797.08 -5.02657 -6.42673 0
M  V30 41833 P 3793.12 -6.144 -6.45285 0
M  V30 41834 O 3792.9 -7.54673 -6.86199 0
M  V30 41835 O 3792.33 -5.12391 -7.179 0
M  V30 41836 O 3792.87 -5.99158 -4.88404 0
M  V30 41837 C 3793.81 -6.60234 -3.96415 0
M  V30 41838 C 3793.08 -7.08259 -2.72856 0
M  V30 41839 O 3792.87 -5.9427 -1.83651 0
M  V30 41840 C 3791.68 -7.64886 -2.9555 0
M  V30 41841 O 3791.29 -8.53963 -1.90717 0
M  V30 41842 C 3790.8 -6.4116 -2.90739 0
M  V30 41843 C 3791.51 -5.55375 -1.86963 0
M  V30 41844 N 3791.46 -4.09448 -2.16152 0
M  V30 41845 H 3794.3 -7.45574 -4.45629 0
M  V30 41846 H 3794.57 -5.85864 -3.679 0
M  V30 41847 H 3793.7 -7.84412 -2.24479 0
M  V30 41848 H 3791.05 -5.73457 -0.888562 0
M  V30 41849 H 3790.77 -5.90877 -3.88583 0
M  V30 41850 H 3789.77 -6.6596 -2.58858 0
M  V30 41851 H 3791.61 -8.16339 -3.92049 0
M  V30 41852 P 3789.74 -8.7635 -1.60911 0
M  V30 41853 O 3789.52 -10.1388 -1.11561 0
M  V30 41854 O 3788.95 -8.36503 -2.79617 0
M  V30 41855 O 3789.49 -7.71806 -0.42951 0
M  V30 41856 C 3790.43 -7.67148 0.673689 0
M  V30 41857 C 3789.7 -7.33374 1.95559 0
M  V30 41858 O 3789.49 -5.88721 2.00726 0
M  V30 41859 C 3788.3 -7.92526 2.10483 0
M  V30 41860 O 3787.91 -8.02971 3.47653 0
M  V30 41861 C 3787.42 -6.89602 1.41652 0
M  V30 41862 C 3788.13 -5.59201 1.75185 0
M  V30 41863 N 3788.08 -4.58301 0.657969 0
M  V30 41864 H 3790.92 -8.65116 0.777161 0
M  V30 41865 H 3791.19 -6.9022 0.46725 0
M  V30 41866 H 3790.32 -7.66548 2.79458 0
M  V30 41867 H 3787.67 -5.16165 2.65183 0
M  V30 41868 H 3787.39 -7.06433 0.329384 0
M  V30 41869 H 3786.39 -6.90926 1.82021 0
M  V30 41870 H 3788.23 -8.90873 1.62657 0
M  V30 41871 P 3786.36 -8.03563 3.84925 0
M  V30 41872 O 3786.14 -8.85821 5.0569 0
M  V30 41873 O 3785.57 -8.41101 2.65469 0
M  V30 41874 O 3786.11 -6.4965 4.18908 0
M  V30 41875 C 3787.05 -5.81037 5.05421 0
M  V30 41876 C 3786.32 -4.78366 5.89277 0
M  V30 41877 O 3786.11 -3.58302 5.08433 0
M  V30 41878 C 3784.92 -5.17448 6.36119 0
M  V30 41879 O 3784.53 -4.45271 7.53232 0
M  V30 41880 C 3784.04 -4.74639 5.19936 0
M  V30 41881 C 3784.75 -3.49432 4.70418 0
M  V30 41882 N 3784.7 -3.31776 3.22945 0
M  V30 41883 H 3787.54 -6.54213 5.71376 0
M  V30 41884 H 3787.81 -5.30492 4.44033 0
M  V30 41885 H 3786.94 -4.55889 6.76652 0
M  V30 41886 P 3782.98 -4.23843 7.83734 0
M  V30 41887 O 3782.76 -4.19407 9.29784 0
M  V30 41888 O 3782.19 -5.24426 7.09156 0
M  V30 41889 O 3782.73 -2.7935 7.20758 0
M  V30 41890 C 3783.67 -1.7299 7.50419 0
M  V30 41891 C 3782.94 -0.406376 7.57911 0
M  V30 41892 O 3782.73 0.0897726 6.21935 0
M  V30 41893 C 3781.54 -0.447224 8.1878 0
M  V30 41894 O 3781.15 0.825065 8.71101 0
M  V30 41895 C 3780.66 -0.783801 6.99623 0
M  V30 41896 C 3781.37 -0.0619192 5.85967 0
M  V30 41897 N 3781.32 -0.790462 4.56202 0
M  V30 41898 H 3784.16 -1.93423 8.4679 0
M  V30 41899 H 3784.43 -1.68852 6.70877 0
M  V30 41900 H 3783.56 0.289041 8.15388 0
M  V30 41901 H 3780.91 0.927006 5.72848 0
M  V30 41902 H 3780.63 -1.86973 6.82036 0
M  V30 41903 H 3779.63 -0.403953 7.13357 0
M  V30 41904 H 3781.47 -1.20599 8.97534 0
M  V30 41905 P 3779.6 1.17771 8.83182 0
M  V30 41906 O 3779.38 2.07206 9.98732 0
M  V30 41907 O 3778.81 -0.0743816 8.81969 0
M  V30 41908 O 3779.35 1.97678 7.474 0
M  V30 41909 C 3780.29 3.01133 7.08783 0
M  V30 41910 C 3779.56 4.1203 6.37546 0
M  V30 41911 O 3779.35 3.72887 4.9796 0
M  V30 41912 C 3778.16 4.45085 6.88694 0
M  V30 41913 O 3777.77 5.78836 6.56315 0
M  V30 41914 C 3777.28 3.47817 6.12078 0
M  V30 41915 C 3777.99 3.39414 4.77697 0
M  V30 41916 N 3777.94 2.04615 4.15333 0
M  V30 41917 C 3777.79 1.96929 2.77162 0
M  V30 41918 O 3777.7 3.02017 2.12006 0
M  V30 41919 N 3777.74 0.55485 2.24237 0
M  V30 41920 C 3777.84 -0.367808 2.9169 0
M  V30 41921 N 3777.79 -1.53426 2.29427 0
M  V30 41922 C 3777.99 -0.319148 4.33828 0
M  V30 41923 C 3778.04 0.920672 4.90433 0
M  V30 41924 H 3780.78 3.41209 7.98667 0
M  V30 41925 H 3781.05 2.5837 6.41742 0
M  V30 41926 H 3780.18 5.02718 6.42752 0
M  V30 41927 H 3777.53 4.11779 4.09026 0
M  V30 41928 H 3777.25 2.49661 6.61772 0
M  V30 41929 H 3776.25 3.86674 6.00946 0
M  V30 41930 H 3778.09 4.29991 7.97006 0
M  V30 41931 H 3778.16 1.00589 5.98303 0
M  V30 41932 H 3778.06 -1.22639 4.93799 0
M  V30 41933 H 3777.67 -1.56819 1.27167 0
M  V30 41934 H 3777.87 -2.41062 2.83063 0
M  V30 41935 P 3776.22 6.144 6.45285 0
M  V30 41936 O 3776 7.54673 6.86199 0
M  V30 41937 O 3775.43 5.12391 7.179 0
M  V30 41938 O 3775.97 5.99158 4.88404 0
M  V30 41939 C 3776.91 6.60234 3.96415 0
M  V30 41940 C 3776.18 7.08259 2.72856 0
M  V30 41941 O 3775.97 5.9427 1.83651 0
M  V30 41942 C 3774.78 7.64886 2.9555 0
M  V30 41943 O 3774.39 8.53963 1.90717 0
M  V30 41944 C 3773.9 6.4116 2.90739 0
M  V30 41945 C 3774.61 5.55375 1.86963 0
M  V30 41946 N 3774.56 4.09448 2.16152 0
M  V30 41947 H 3777.4 7.45574 4.45629 0
M  V30 41948 H 3777.67 5.85864 3.679 0
M  V30 41949 H 3776.8 7.84412 2.24479 0
M  V30 41950 H 3774.15 5.73457 0.888562 0
M  V30 41951 H 3773.87 5.90877 3.88583 0
M  V30 41952 H 3772.87 6.6596 2.58858 0
M  V30 41953 H 3774.71 8.16339 3.92049 0
M  V30 41954 P 3772.84 8.7635 1.60911 0
M  V30 41955 O 3772.62 10.1388 1.11561 0
M  V30 41956 O 3772.05 8.36503 2.79617 0
M  V30 41957 O 3772.59 7.71906 0.429565 0
M  V30 41958 C 3773.53 7.67148 -0.673689 0
M  V30 41959 C 3772.8 7.33666 -1.94851 0
M  V30 41960 O 3772.59 5.88816 -2.00759 0
M  V30 41961 C 3771.4 7.92526 -2.10483 0
M  V30 41962 O 3771.01 8.03063 -3.47693 0
M  V30 41963 C 3770.52 6.89602 -1.41652 0
M  V30 41964 C 3771.23 5.59201 -1.75185 0
M  V30 41965 N 3771.18 4.58235 -0.662552 0
M  V30 41966 C 3771.03 3.24451 -1.01643 0
M  V30 41967 O 3770.94 2.94958 -2.21722 0
M  V30 41968 N 3770.98 2.30408 0.165238 0
M  V30 41969 C 3771.08 2.66048 1.25118 0
M  V30 41970 N 3771.03 1.70787 2.16813 0
M  V30 41971 C 3771.23 4.02732 1.64413 0
M  V30 41972 C 3771.28 4.9488 0.63991 0
M  V30 41973 H 3774.02 8.65017 -0.777072 0
M  V30 41974 H 3774.29 6.90173 -0.474152 0
M  V30 41975 H 3773.42 7.66642 -2.79492 0
M  V30 41976 H 3770.77 5.16254 -2.65229 0
M  V30 41977 H 3770.49 7.06532 -0.329431 0
M  V30 41978 H 3769.49 6.91023 -1.82047 0
M  V30 41979 H 3771.33 8.90873 -1.62657 0
M  V30 41980 H 3771.4 6.00104 0.892197 0
M  V30 41981 H 3771.3 4.31733 2.69229 0
M  V30 41982 H 3770.91 0.724835 1.8844 0
M  V30 41983 H 3771.11 1.94716 3.16734 0
M  V30 41984 P 3769.46 8.03563 -3.84925 0
M  V30 41985 O 3769.24 8.85821 -5.0569 0
M  V30 41986 O 3768.67 8.41101 -2.65469 0
M  V30 41987 O 3769.21 6.4965 -4.18908 0
M  V30 41988 C 3770.15 5.81037 -5.05421 0
M  V30 41989 C 3769.42 4.78366 -5.89277 0
M  V30 41990 O 3769.21 3.58302 -5.08433 0
M  V30 41991 C 3768.02 5.17448 -6.36119 0
M  V30 41992 O 3767.63 4.45271 -7.53232 0
M  V30 41993 C 3767.14 4.74639 -5.19936 0
M  V30 41994 C 3767.85 3.49432 -4.70418 0
M  V30 41995 N 3767.8 3.32099 -3.22613 0
M  V30 41996 H 3770.64 6.54213 -5.71376 0
M  V30 41997 H 3770.91 5.30936 -4.43503 0
M  V30 41998 H 3770.04 4.55889 -6.76652 0
M  V30 41999 H 3767.39 2.61715 -5.17932 0
M  V30 42000 H 3767.11 5.52155 -4.41878 0
M  V30 42001 H 3766.11 4.51981 -5.53374 0
M  V30 42002 H 3767.95 6.25124 -6.55234 0
M  V30 42003 P 3766.08 4.23843 -7.83734 0
M  V30 42004 O 3765.86 4.19407 -9.29784 0
M  V30 42005 O 3765.29 5.24426 -7.09156 0
M  V30 42006 O 3765.83 2.79386 -7.20852 0
M  V30 42007 C 3766.77 1.7299 -7.50419 0
M  V30 42008 C 3766.04 0.41401 -7.5797 0
M  V30 42009 O 3765.83 -0.089787 -6.22035 0
M  V30 42010 C 3764.64 0.447224 -8.1878 0
M  V30 42011 O 3764.25 -0.825159 -8.71201 0
M  V30 42012 C 3763.76 0.783801 -6.99623 0
M  V30 42013 C 3764.47 0.0619192 -5.85967 0
M  V30 42014 N 3764.42 0.7859 -4.56281 0
M  V30 42015 C 3764.27 0.0359258 -3.39981 0
M  V30 42016 O 3764.18 -1.19723 -3.49038 0
M  V30 42017 N 3764.22 0.869151 -2.14025 0
M  V30 42018 C 3764.32 2.01207 -2.14363 0
M  V30 42019 N 3764.27 2.58978 -0.954287 0
M  V30 42020 C 3764.47 2.80817 -3.32215 0
M  V30 42021 C 3764.52 2.13785 -4.50884 0
M  V30 42022 H 3767.26 1.93401 -8.46693 0
M  V30 42023 H 3767.53 1.68181 -6.71046 0
M  V30 42024 H 3766.66 -0.289076 -8.15488 0
M  V30 42025 H 3764.01 -0.927166 -5.72947 0
M  V30 42026 H 3763.73 1.87 -6.82132 0
M  V30 42027 H 3762.73 0.404009 -7.13457 0
M  V30 42028 H 3764.57 1.20599 -8.97534 0
M  V30 42029 H 3764.64 2.70295 -5.43162 0
M  V30 42030 H 3764.54 3.89465 -3.27406 0
M  V30 42031 H 3764.15 2.01616 -0.107046 0
M  V30 42032 H 3764.35 3.61403 -0.873101 0
M  V30 42033 P 3762.7 -1.17771 -8.83182 0
M  V30 42034 O 3762.48 -2.07206 -9.98732 0
M  V30 42035 O 3761.91 0.0743816 -8.81969 0
M  V30 42036 O 3762.45 -1.97652 -7.47304 0
M  V30 42037 C 3763.39 -3.01133 -7.08783 0
M  V30 42038 C 3762.66 -4.12613 -6.37049 0
M  V30 42039 O 3762.45 -3.72827 -4.97879 0
M  V30 42040 C 3761.26 -4.45085 -6.88694 0
M  V30 42041 O 3760.87 -5.7877 -6.5624 0
M  V30 42042 C 3760.38 -3.47817 -6.12078 0
M  V30 42043 C 3761.09 -3.39414 -4.77697 0
M  V30 42044 N 3761.04 -2.04199 -4.15538 0
M  V30 42045 H 3763.88 -3.41248 -7.98759 0
M  V30 42046 H 3764.15 -2.57728 -6.42 0
M  V30 42047 H 3763.28 -5.02657 -6.42673 0
M  V30 42048 H 3760.63 -4.11708 -4.08956 0
M  V30 42049 H 3760.35 -2.49626 -6.61679 0
M  V30 42050 H 3759.35 -3.8662 -6.00862 0
M  V30 42051 H 3761.19 -4.29991 -7.97006 0
M  V30 42052 P 3759.32 -6.144 -6.45285 0
M  V30 42053 O 3759.1 -7.54673 -6.86199 0
M  V30 42054 O 3758.53 -5.12391 -7.179 0
M  V30 42055 O 3759.07 -5.99236 -4.88467 0
M  V30 42056 C 3760.01 -6.60234 -3.96415 0
M  V30 42057 C 3759.28 -7.08079 -2.736 0
M  V30 42058 O 3759.07 -5.94365 -1.8368 0
M  V30 42059 C 3757.88 -7.64886 -2.9555 0
M  V30 42060 O 3757.49 -8.5406 -1.90739 0
M  V30 42061 C 3757 -6.4116 -2.90739 0
M  V30 42062 C 3757.71 -5.55375 -1.86963 0
M  V30 42063 N 3757.66 -4.09664 -2.15742 0
M  V30 42064 C 3757.51 -3.22231 -1.08477 0
M  V30 42065 O 3757.42 -3.68951 0.0600489 0
M  V30 42066 N 3757.46 -1.76692 -1.48799 0
M  V30 42067 C 3757.56 -1.41695 -2.57602 0
M  V30 42068 N 3757.51 -0.107296 -2.75791 0
M  V30 42069 C 3757.71 -2.29178 -3.69733 0
M  V30 42070 C 3757.76 -3.62753 -3.42653 0
M  V30 42071 H 3760.5 -7.45488 -4.45578 0
M  V30 42072 H 3760.77 -5.86232 -3.67314 0
M  V30 42073 H 3759.9 -7.84508 -2.24507 0
M  V30 42074 H 3757.25 -5.73556 -0.888715 0
M  V30 42075 H 3756.97 -5.9096 -3.88638 0
M  V30 42076 H 3755.97 -6.66053 -2.58894 0
M  V30 42077 H 3757.81 -8.16339 -3.92049 0
M  V30 42078 H 3757.88 -4.33052 -4.24913 0
M  V30 42079 H 3757.78 -1.9103 -4.71577 0
M  V30 42080 H 3757.39 0.521221 -1.95056 0
M  V30 42081 H 3757.59 0.286429 -3.70695 0
M  V30 42082 P 3755.94 -8.7635 -1.60911 0
M  V30 42083 O 3755.72 -10.1388 -1.11561 0
M  V30 42084 O 3755.15 -8.36503 -2.79617 0
M  V30 42085 O 3755.69 -7.71806 -0.42951 0
M  V30 42086 C 3756.63 -7.67148 0.673689 0
M  V30 42087 C 3755.9 -7.33374 1.95559 0
M  V30 42088 O 3755.69 -5.88721 2.00726 0
M  V30 42089 C 3754.5 -7.92526 2.10483 0
M  V30 42090 O 3754.11 -8.02971 3.47653 0
M  V30 42091 C 3753.62 -6.89602 1.41652 0
M  V30 42092 C 3754.33 -5.59201 1.75185 0
M  V30 42093 N 3754.28 -4.58301 0.657969 0
M  V30 42094 H 3757.12 -8.65116 0.777161 0
M  V30 42095 H 3757.39 -6.9022 0.46725 0
M  V30 42096 H 3756.52 -7.66548 2.79458 0
M  V30 42097 H 3753.87 -5.16165 2.65183 0
M  V30 42098 H 3753.59 -7.06433 0.329384 0
M  V30 42099 H 3752.59 -6.90926 1.82021 0
M  V30 42100 H 3754.43 -8.90873 1.62657 0
M  V30 42101 P 3752.56 -8.03563 3.84925 0
M  V30 42102 O 3752.34 -8.85821 5.0569 0
M  V30 42103 O 3751.77 -8.41101 2.65469 0
M  V30 42104 O 3752.31 -6.49734 4.18962 0
M  V30 42105 C 3753.25 -5.81037 5.05421 0
M  V30 42106 C 3752.52 -4.79018 5.88876 0
M  V30 42107 O 3752.31 -3.58359 5.08515 0
M  V30 42108 C 3751.12 -5.17448 6.36119 0
M  V30 42109 O 3750.73 -4.45322 7.53318 0
M  V30 42110 C 3750.24 -4.74639 5.19936 0
M  V30 42111 C 3750.95 -3.49432 4.70418 0
M  V30 42112 N 3750.9 -3.31776 3.22945 0
M  V30 42113 C 3750.75 -2.02742 2.72939 0
M  V30 42114 O 3750.66 -1.08301 3.52749 0
M  V30 42115 N 3750.7 -1.96117 1.22063 0
M  V30 42116 C 3750.8 -2.8878 0.551566 0
M  V30 42117 N 3750.75 -2.65609 -0.750198 0
M  V30 42118 C 3750.95 -4.22457 1.03707 0
M  V30 42119 C 3751 -4.37979 2.39113 0
M  V30 42120 H 3753.74 -6.54138 5.7131 0
M  V30 42121 H 3754.01 -5.30492 4.44033 0
M  V30 42122 H 3753.14 -4.55945 6.76735 0
M  V30 42123 H 3750.49 -2.6176 5.18021 0
M  V30 42124 H 3750.21 -5.52233 4.41941 0
M  V30 42125 H 3749.21 -4.52045 5.53452 0
M  V30 42126 H 3751.05 -6.25124 6.55234 0
M  V30 42127 H 3751.12 -5.37936 2.80552 0
M  V30 42128 H 3751.02 -5.07528 0.359553 0
M  V30 42129 H 3750.63 -1.69403 -1.09847 0
M  V30 42130 H 3750.83 -3.43701 -1.41792 0
M  V30 42131 P 3749.18 -4.23843 7.83734 0
M  V30 42132 O 3748.96 -4.19407 9.29784 0
M  V30 42133 O 3748.39 -5.24426 7.09156 0
M  V30 42134 O 3748.93 -2.7935 7.20758 0
M  V30 42135 C 3749.87 -1.7299 7.50419 0
M  V30 42136 C 3749.14 -0.406376 7.57911 0
M  V30 42137 O 3748.93 0.0897726 6.21935 0
M  V30 42138 C 3747.74 -0.447224 8.1878 0
M  V30 42139 O 3747.35 0.825065 8.71101 0
M  V30 42140 C 3746.86 -0.783801 6.99623 0
M  V30 42141 C 3747.57 -0.0619192 5.85967 0
M  V30 42142 N 3747.52 -0.790462 4.56202 0
M  V30 42143 H 3750.36 -1.93423 8.4679 0
M  V30 42144 H 3750.63 -1.68852 6.70877 0
M  V30 42145 H 3749.76 0.289041 8.15388 0
M  V30 42146 H 3747.11 0.927006 5.72848 0
M  V30 42147 H 3746.83 -1.86973 6.82036 0
M  V30 42148 H 3745.83 -0.403953 7.13357 0
M  V30 42149 H 3747.67 -1.20599 8.97534 0
M  V30 42150 P 3745.8 1.17771 8.83182 0
M  V30 42151 O 3745.58 2.07206 9.98732 0
M  V30 42152 O 3745.01 -0.0743816 8.81969 0
M  V30 42153 O 3745.55 1.97652 7.47304 0
M  V30 42154 C 3746.49 3.01133 7.08783 0
M  V30 42155 C 3745.76 4.12613 6.37049 0
M  V30 42156 O 3745.55 3.72827 4.97879 0
M  V30 42157 C 3744.36 4.45085 6.88694 0
M  V30 42158 O 3743.97 5.7877 6.5624 0
M  V30 42159 C 3743.48 3.47817 6.12078 0
M  V30 42160 C 3744.19 3.39414 4.77697 0
M  V30 42161 N 3744.14 2.04615 4.15333 0
M  V30 42162 H 3746.98 3.41248 7.98759 0
M  V30 42163 H 3747.25 2.5837 6.41742 0
M  V30 42164 H 3746.38 5.02657 6.42673 0
M  V30 42165 P 3742.42 6.144 6.45285 0
M  V30 42166 O 3742.2 7.54673 6.86199 0
M  V30 42167 O 3741.63 5.12391 7.179 0
M  V30 42168 O 3742.17 5.99236 4.88467 0
M  V30 42169 C 3743.11 6.60234 3.96415 0
M  V30 42170 C 3742.38 7.08079 2.736 0
M  V30 42171 O 3742.17 5.94365 1.8368 0
M  V30 42172 C 3740.98 7.64886 2.9555 0
M  V30 42173 O 3740.59 8.5406 1.90739 0
M  V30 42174 C 3740.1 6.4116 2.90739 0
M  V30 42175 C 3740.81 5.55375 1.86963 0
M  V30 42176 N 3740.76 4.09664 2.15742 0
M  V30 42177 C 3740.61 3.22231 1.08477 0
M  V30 42178 O 3740.52 3.68951 -0.0600489 0
M  V30 42179 N 3740.56 1.76692 1.48799 0
M  V30 42180 C 3740.66 1.41695 2.57602 0
M  V30 42181 N 3740.61 0.107296 2.75791 0
M  V30 42182 C 3740.81 2.29178 3.69733 0
M  V30 42183 C 3740.86 3.62753 3.42653 0
M  V30 42184 H 3743.6 7.45488 4.45578 0
M  V30 42185 H 3743.87 5.86232 3.67314 0
M  V30 42186 H 3743 7.84508 2.24507 0
M  V30 42187 H 3740.35 5.73556 0.888715 0
M  V30 42188 H 3740.07 5.9096 3.88638 0
M  V30 42189 H 3739.07 6.66053 2.58894 0
M  V30 42190 H 3740.91 8.16339 3.92049 0
M  V30 42191 H 3740.98 4.33052 4.24913 0
M  V30 42192 H 3740.88 1.9103 4.71577 0
M  V30 42193 H 3740.49 -0.521221 1.95056 0
M  V30 42194 H 3740.69 -0.286429 3.70695 0
M  V30 42195 P 3739.04 8.7635 1.60911 0
M  V30 42196 O 3738.82 10.1388 1.11561 0
M  V30 42197 O 3738.25 8.36503 2.79617 0
M  V30 42198 O 3738.79 7.71806 0.42951 0
M  V30 42199 C 3739.73 7.67148 -0.673689 0
M  V30 42200 C 3739 7.33374 -1.95559 0
M  V30 42201 O 3738.79 5.88721 -2.00726 0
M  V30 42202 C 3737.6 7.92526 -2.10483 0
M  V30 42203 O 3737.21 8.02971 -3.47653 0
M  V30 42204 C 3736.72 6.89602 -1.41652 0
M  V30 42205 C 3737.43 5.59201 -1.75185 0
M  V30 42206 N 3737.38 4.58235 -0.662552 0
M  V30 42207 H 3740.22 8.65116 -0.777161 0
M  V30 42208 H 3740.49 6.90173 -0.474152 0
M  V30 42209 H 3739.62 7.66548 -2.79458 0
M  V30 42210 P 3735.66 8.03563 -3.84925 0
M  V30 42211 O 3735.44 8.85821 -5.0569 0
M  V30 42212 O 3734.87 8.41101 -2.65469 0
M  V30 42213 O 3735.41 6.4965 -4.18908 0
M  V30 42214 C 3736.35 5.81037 -5.05421 0
M  V30 42215 C 3735.62 4.78366 -5.89277 0
M  V30 42216 O 3735.41 3.58302 -5.08433 0
M  V30 42217 C 3734.22 5.17448 -6.36119 0
M  V30 42218 O 3733.83 4.45271 -7.53232 0
M  V30 42219 C 3733.34 4.74639 -5.19936 0
M  V30 42220 C 3734.05 3.49432 -4.70418 0
M  V30 42221 N 3734 3.32099 -3.22613 0
M  V30 42222 H 3736.84 6.54213 -5.71376 0
M  V30 42223 H 3737.11 5.30936 -4.43503 0
M  V30 42224 H 3736.24 4.55889 -6.76652 0
M  V30 42225 H 3733.59 2.61715 -5.17932 0
M  V30 42226 H 3733.31 5.52155 -4.41878 0
M  V30 42227 H 3732.31 4.51981 -5.53374 0
M  V30 42228 H 3734.15 6.25124 -6.55234 0
M  V30 42229 P 3732.28 4.23843 -7.83734 0
M  V30 42230 O 3732.06 4.19407 -9.29784 0
M  V30 42231 O 3731.49 5.24426 -7.09156 0
M  V30 42232 O 3732.03 2.7935 -7.20758 0
M  V30 42233 C 3732.97 1.72945 -7.50224 0
M  V30 42234 C 3732.24 0.406376 -7.57911 0
M  V30 42235 O 3732.03 -0.0897726 -6.21935 0
M  V30 42236 C 3730.84 0.438983 -8.18724 0
M  V30 42237 O 3730.45 -0.825065 -8.71101 0
M  V30 42238 C 3729.96 0.783689 -6.99524 0
M  V30 42239 C 3730.67 0.0619086 -5.85867 0
M  V30 42240 N 3730.62 0.78573 -4.56183 0
M  V30 42241 C 3730.47 0.0292889 -3.41887 0
M  V30 42242 O 3730.38 -1.18445 -3.4419 0
M  V30 42243 N 3730.43 0.744061 -2.23964 0
M  V30 42244 C 3730.52 2.10932 -2.10362 0
M  V30 42245 C 3730.67 2.8202 -3.34994 0
M  V30 42246 C 3730.72 2.15547 -4.52261 0
M  V30 42247 H 3733.46 1.93379 -8.46595 0
M  V30 42248 H 3733.73 1.68132 -6.70852 0
M  V30 42249 H 3732.86 -0.289041 -8.15388 0
M  V30 42250 H 3730.21 -0.926847 -5.72749 0
M  V30 42251 H 3729.93 1.86973 -6.82036 0
M  V30 42252 H 3728.93 0.403896 -7.13257 0
M  V30 42253 H 3730.77 1.20585 -8.97435 0
M  V30 42254 H 3730.84 2.71231 -5.45042 0
M  V30 42255 P 3728.9 -1.17771 -8.83182 0
M  V30 42256 O 3728.68 -2.07206 -9.98732 0
M  V30 42257 O 3728.11 0.0743816 -8.81969 0
M  V30 42258 O 3728.65 -1.97652 -7.47304 0
M  V30 42259 C 3729.59 -3.01055 -7.08599 0
M  V30 42260 C 3728.86 -4.12613 -6.37049 0
M  V30 42261 O 3728.65 -3.72827 -4.97879 0
M  V30 42262 C 3727.46 -4.45719 -6.88164 0
M  V30 42263 O 3727.07 -5.7877 -6.5624 0
M  V30 42264 C 3726.58 -3.47768 -6.11991 0
M  V30 42265 C 3727.29 -3.39356 -4.77615 0
M  V30 42266 N 3727.24 -2.04571 -4.15244 0
M  V30 42267 C 3727.09 -1.98587 -2.78314 0
M  V30 42268 O 3727 -2.98134 -2.08835 0
M  V30 42269 N 3727.05 -0.714467 -2.24925 0
M  V30 42270 C 3727.14 0.470001 -2.94169 0
M  V30 42271 O 3727.09 1.55587 -2.35195 0
M  V30 42272 C 3727.29 0.312541 -4.36783 0
M  V30 42273 C 3727.4 1.57711 -5.16352 0
M  V30 42274 C 3727.34 -0.914512 -4.92583 0
M  V30 42275 H 3730.08 -3.41169 -7.98575 0
M  V30 42276 H 3730.35 -2.58295 -6.41556 0
M  V30 42277 H 3729.48 -5.02657 -6.42673 0
M  V30 42278 H 3726.83 -4.11637 -4.08885 0
M  V30 42279 H 3726.55 -2.49626 -6.61679 0
M  V30 42280 H 3725.55 -3.86566 -6.00778 0
M  V30 42281 H 3727.39 -4.29943 -7.96918 0
M  V30 42282 H 3727.46 -1.00937 -6.00374 0
M  V30 42283 H 3726.43 1.80153 -5.63503 0
M  V30 42284 H 3728.17 1.4566 -5.94104 0
M  V30 42285 H 3727.68 2.40664 -4.49645 0
M  V30 42286 H 3726.94 -0.647622 -1.25697 0
M  V30 42287 P 3725.52 -6.144 -6.45285 0
M  V30 42288 O 3725.3 -7.54673 -6.86199 0
M  V30 42289 O 3724.73 -5.12391 -7.179 0
M  V30 42290 O 3725.27 -5.99158 -4.88404 0
M  V30 42291 C 3726.21 -6.60234 -3.96415 0
M  V30 42292 C 3725.48 -7.08259 -2.72856 0
M  V30 42293 O 3725.27 -5.9427 -1.83651 0
M  V30 42294 C 3724.08 -7.64886 -2.9555 0
M  V30 42295 O 3723.69 -8.53963 -1.90717 0
M  V30 42296 C 3723.2 -6.4116 -2.90739 0
M  V30 42297 C 3723.91 -5.55375 -1.86963 0
M  V30 42298 N 3723.86 -4.09664 -2.15742 0
M  V30 42299 H 3726.7 -7.45574 -4.45629 0
M  V30 42300 H 3726.97 -5.86232 -3.67314 0
M  V30 42301 H 3726.1 -7.84412 -2.24479 0
M  V30 42302 P 3722.14 -8.7635 -1.60911 0
M  V30 42303 O 3721.92 -10.1388 -1.11561 0
M  V30 42304 O 3721.35 -8.36503 -2.79617 0
M  V30 42305 O 3721.89 -7.71806 -0.42951 0
M  V30 42306 C 3722.83 -7.67148 0.673689 0
M  V30 42307 C 3722.1 -7.33374 1.95559 0
M  V30 42308 O 3721.89 -5.88721 2.00726 0
M  V30 42309 C 3720.7 -7.92526 2.10483 0
M  V30 42310 O 3720.31 -8.02971 3.47653 0
M  V30 42311 C 3719.82 -6.89602 1.41652 0
M  V30 42312 C 3720.53 -5.59201 1.75185 0
M  V30 42313 N 3720.48 -4.58235 0.662552 0
M  V30 42314 H 3723.32 -8.65116 0.777161 0
M  V30 42315 H 3723.59 -6.90173 0.474152 0
M  V30 42316 H 3722.72 -7.66548 2.79458 0
M  V30 42317 P 3718.76 -8.03563 3.84925 0
M  V30 42318 O 3718.54 -8.85821 5.0569 0
M  V30 42319 O 3717.97 -8.41101 2.65469 0
M  V30 42320 O 3718.51 -6.4965 4.18908 0
M  V30 42321 C 3719.45 -5.81037 5.05421 0
M  V30 42322 C 3718.72 -4.78366 5.89277 0
M  V30 42323 O 3718.51 -3.58302 5.08433 0
M  V30 42324 C 3717.32 -5.17448 6.36119 0
M  V30 42325 O 3716.93 -4.45271 7.53232 0
M  V30 42326 C 3716.44 -4.74639 5.19936 0
M  V30 42327 C 3717.15 -3.49432 4.70418 0
M  V30 42328 N 3717.1 -3.31776 3.22945 0
M  V30 42329 H 3719.94 -6.54213 5.71376 0
M  V30 42330 H 3720.21 -5.30492 4.44033 0
M  V30 42331 H 3719.34 -4.55889 6.76652 0
M  V30 42332 P 3715.38 -4.23843 7.83734 0
M  V30 42333 O 3715.16 -4.19407 9.29784 0
M  V30 42334 O 3714.59 -5.24426 7.09156 0
M  V30 42335 O 3715.13 -2.7935 7.20758 0
M  V30 42336 C 3716.07 -1.7299 7.50419 0
M  V30 42337 C 3715.34 -0.406376 7.57911 0
M  V30 42338 O 3715.13 0.0897726 6.21935 0
M  V30 42339 C 3713.94 -0.447224 8.1878 0
M  V30 42340 O 3713.55 0.825065 8.71101 0
M  V30 42341 C 3713.06 -0.783801 6.99623 0
M  V30 42342 C 3713.77 -0.0619192 5.85967 0
M  V30 42343 N 3713.72 -0.7859 4.56281 0
M  V30 42344 H 3716.56 -1.93423 8.4679 0
M  V30 42345 H 3716.83 -1.68181 6.71046 0
M  V30 42346 H 3715.96 0.289041 8.15388 0
M  V30 42347 P 3712 1.17771 8.83182 0
M  V30 42348 O 3711.78 2.07206 9.98732 0
M  V30 42349 O 3711.21 -0.0743816 8.81969 0
M  V30 42350 O 3711.75 1.97652 7.47304 0
M  V30 42351 C 3712.69 3.01133 7.08783 0
M  V30 42352 C 3711.96 4.12613 6.37049 0
M  V30 42353 O 3711.75 3.72827 4.97879 0
M  V30 42354 C 3710.56 4.45085 6.88694 0
M  V30 42355 O 3710.17 5.7877 6.5624 0
M  V30 42356 C 3709.68 3.47817 6.12078 0
M  V30 42357 C 3710.39 3.39414 4.77697 0
M  V30 42358 N 3710.34 2.04199 4.15538 0
M  V30 42359 H 3713.18 3.41248 7.98759 0
M  V30 42360 H 3713.45 2.57728 6.42 0
M  V30 42361 H 3712.58 5.02657 6.42673 0
M  V30 42362 H 3709.93 4.11708 4.08956 0
M  V30 42363 H 3709.65 2.49626 6.61679 0
M  V30 42364 H 3708.66 3.8662 6.00862 0
M  V30 42365 H 3710.49 4.29991 7.97006 0
M  V30 42366 P 3708.62 6.144 6.45285 0
M  V30 42367 O 3708.4 7.54673 6.86199 0
M  V30 42368 O 3707.83 5.12391 7.179 0
M  V30 42369 O 3708.37 5.99158 4.88404 0
M  V30 42370 C 3709.31 6.60234 3.96415 0
M  V30 42371 C 3708.58 7.08259 2.72856 0
M  V30 42372 O 3708.37 5.9427 1.83651 0
M  V30 42373 C 3707.18 7.64886 2.9555 0
M  V30 42374 O 3706.79 8.53963 1.90717 0
M  V30 42375 C 3706.3 6.4116 2.90739 0
M  V30 42376 C 3707.01 5.55375 1.86963 0
M  V30 42377 N 3706.96 4.09664 2.15742 0
M  V30 42378 H 3709.8 7.45574 4.45629 0
M  V30 42379 H 3710.07 5.86232 3.67314 0
M  V30 42380 H 3709.2 7.84412 2.24479 0
M  V30 42381 P 3705.24 8.7635 1.60911 0
M  V30 42382 O 3705.02 10.1388 1.11561 0
M  V30 42383 O 3704.45 8.36503 2.79617 0
M  V30 42384 O 3704.99 7.71806 0.42951 0
M  V30 42385 C 3705.93 7.67148 -0.673689 0
M  V30 42386 C 3705.2 7.33374 -1.95559 0
M  V30 42387 O 3704.99 5.88721 -2.00726 0
M  V30 42388 C 3703.8 7.92526 -2.10483 0
M  V30 42389 O 3703.41 8.02971 -3.47653 0
M  V30 42390 C 3702.92 6.89602 -1.41652 0
M  V30 42391 C 3703.63 5.59201 -1.75185 0
M  V30 42392 N 3703.58 4.58235 -0.662552 0
M  V30 42393 H 3706.42 8.65116 -0.777161 0
M  V30 42394 H 3706.69 6.90173 -0.474152 0
M  V30 42395 H 3705.82 7.66548 -2.79458 0
M  V30 42396 P 3701.86 8.03563 -3.84925 0
M  V30 42397 O 3701.64 8.85821 -5.0569 0
M  V30 42398 O 3701.07 8.41101 -2.65469 0
M  V30 42399 O 3701.61 6.4965 -4.18908 0
M  V30 42400 C 3702.55 5.81037 -5.05421 0
M  V30 42401 C 3701.82 4.78366 -5.89277 0
M  V30 42402 O 3701.61 3.58302 -5.08433 0
M  V30 42403 C 3700.42 5.17448 -6.36119 0
M  V30 42404 O 3700.03 4.45271 -7.53232 0
M  V30 42405 C 3699.54 4.74639 -5.19936 0
M  V30 42406 C 3700.25 3.49432 -4.70418 0
M  V30 42407 N 3700.2 3.32099 -3.22613 0
M  V30 42408 H 3703.04 6.54213 -5.71376 0
M  V30 42409 H 3703.31 5.30936 -4.43503 0
M  V30 42410 H 3702.44 4.55889 -6.76652 0
M  V30 42411 H 3699.79 2.61715 -5.17932 0
M  V30 42412 H 3699.51 5.52155 -4.41878 0
M  V30 42413 H 3698.52 4.51981 -5.53374 0
M  V30 42414 H 3700.35 6.25124 -6.55234 0
M  V30 42415 P 3698.48 4.23843 -7.83734 0
M  V30 42416 O 3698.26 4.19407 -9.29784 0
M  V30 42417 O 3697.69 5.24426 -7.09156 0
M  V30 42418 O 3698.23 2.7935 -7.20758 0
M  V30 42419 C 3699.17 1.7299 -7.50419 0
M  V30 42420 C 3698.44 0.406376 -7.57911 0
M  V30 42421 O 3698.23 -0.0897726 -6.21935 0
M  V30 42422 C 3697.04 0.447224 -8.1878 0
M  V30 42423 O 3696.65 -0.825065 -8.71101 0
M  V30 42424 C 3696.16 0.783801 -6.99623 0
M  V30 42425 C 3696.87 0.0619192 -5.85967 0
M  V30 42426 N 3696.82 0.790462 -4.56202 0
M  V30 42427 H 3699.66 1.93423 -8.4679 0
M  V30 42428 H 3699.93 1.68852 -6.70877 0
M  V30 42429 H 3699.06 -0.289041 -8.15388 0
M  V30 42430 H 3696.41 -0.927006 -5.72848 0
M  V30 42431 H 3696.13 1.86973 -6.82036 0
M  V30 42432 H 3695.14 0.403953 -7.13357 0
M  V30 42433 H 3696.97 1.20599 -8.97534 0
M  V30 42434 P 3695.1 -1.17771 -8.83182 0
M  V30 42435 O 3694.88 -2.07206 -9.98732 0
M  V30 42436 O 3694.31 0.0743816 -8.81969 0
M  V30 42437 O 3694.85 -1.97652 -7.47304 0
M  V30 42438 C 3695.79 -3.01133 -7.08783 0
M  V30 42439 C 3695.06 -4.12613 -6.37049 0
M  V30 42440 O 3694.85 -3.72827 -4.97879 0
M  V30 42441 C 3693.66 -4.45085 -6.88694 0
M  V30 42442 O 3693.27 -5.7877 -6.5624 0
M  V30 42443 C 3692.78 -3.47817 -6.12078 0
M  V30 42444 C 3693.49 -3.39414 -4.77697 0
M  V30 42445 N 3693.44 -2.04199 -4.15538 0
M  V30 42446 H 3696.28 -3.41248 -7.98759 0
M  V30 42447 H 3696.55 -2.57728 -6.42 0
M  V30 42448 H 3695.68 -5.02657 -6.42673 0
M  V30 42449 H 3693.03 -4.11708 -4.08956 0
M  V30 42450 H 3692.75 -2.49626 -6.61679 0
M  V30 42451 H 3691.76 -3.8662 -6.00862 0
M  V30 42452 H 3693.59 -4.29991 -7.97006 0
M  V30 42453 P 3691.72 -6.144 -6.45285 0
M  V30 42454 O 3691.5 -7.54673 -6.86199 0
M  V30 42455 O 3690.93 -5.12391 -7.179 0
M  V30 42456 O 3691.47 -5.99158 -4.88404 0
M  V30 42457 C 3692.41 -6.60234 -3.96415 0
M  V30 42458 C 3691.68 -7.08259 -2.72856 0
M  V30 42459 O 3691.47 -5.9427 -1.83651 0
M  V30 42460 C 3690.28 -7.64886 -2.9555 0
M  V30 42461 O 3689.89 -8.53963 -1.90717 0
M  V30 42462 C 3689.4 -6.4116 -2.90739 0
M  V30 42463 C 3690.11 -5.55375 -1.86963 0
M  V30 42464 N 3690.06 -4.09448 -2.16152 0
M  V30 42465 H 3692.9 -7.45574 -4.45629 0
M  V30 42466 H 3693.17 -5.85864 -3.679 0
M  V30 42467 H 3692.3 -7.84412 -2.24479 0
M  V30 42468 H 3689.65 -5.73457 -0.888562 0
M  V30 42469 H 3689.37 -5.90877 -3.88583 0
M  V30 42470 H 3688.38 -6.6596 -2.58858 0
M  V30 42471 H 3690.21 -8.16339 -3.92049 0
M  V30 42472 P 3688.34 -8.7635 -1.60911 0
M  V30 42473 O 3688.12 -10.1388 -1.11561 0
M  V30 42474 O 3687.55 -8.36503 -2.79617 0
M  V30 42475 O 3688.09 -7.71806 -0.42951 0
M  V30 42476 C 3689.03 -7.66948 0.673514 0
M  V30 42477 C 3688.3 -7.33374 1.95559 0
M  V30 42478 O 3688.09 -5.88721 2.00726 0
M  V30 42479 C 3686.9 -7.92218 2.1125 0
M  V30 42480 O 3686.51 -8.02971 3.47653 0
M  V30 42481 C 3686.02 -6.89504 1.41631 0
M  V30 42482 C 3686.73 -5.59106 1.75155 0
M  V30 42483 N 3686.68 -4.58136 0.662409 0
M  V30 42484 C 3686.53 -3.26059 1.02863 0
M  V30 42485 O 3686.44 -2.90743 2.19009 0
M  V30 42486 N 3686.49 -2.35995 -0.0155585 0
M  V30 42487 C 3686.58 -2.65248 -1.35603 0
M  V30 42488 O 3686.53 -1.75605 -2.20651 0
M  V30 42489 C 3686.73 -4.05747 -1.64698 0
M  V30 42490 C 3686.84 -4.42345 -3.09553 0
M  V30 42491 C 3686.78 -4.96734 -0.652411 0
M  V30 42492 H 3689.52 -8.64917 0.776982 0
M  V30 42493 H 3689.79 -6.89974 0.474015 0
M  V30 42494 H 3688.92 -7.66548 2.79458 0
M  V30 42495 H 3686.27 -5.16076 2.65138 0
M  V30 42496 H 3685.99 -7.06433 0.329384 0
M  V30 42497 H 3685 -6.90829 1.81996 0
M  V30 42498 H 3686.83 -8.90774 1.62639 0
M  V30 42499 H 3686.9 -6.02181 -0.895285 0
M  V30 42500 H 3685.87 -4.80252 -3.45468 0
M  V30 42501 H 3687.61 -5.20015 -3.22119 0
M  V30 42502 H 3687.12 -3.53269 -3.67833 0
M  V30 42503 H 3686.38 -1.39558 0.227499 0
M  V30 42504 P 3684.96 -8.03563 3.84925 0
M  V30 42505 O 3684.74 -8.85821 5.0569 0
M  V30 42506 O 3684.17 -8.41101 2.65469 0
M  V30 42507 O 3684.71 -6.4965 4.18908 0
M  V30 42508 C 3685.65 -5.81037 5.05421 0
M  V30 42509 C 3684.92 -4.78366 5.89277 0
M  V30 42510 O 3684.71 -3.58302 5.08433 0
M  V30 42511 C 3683.52 -5.17448 6.36119 0
M  V30 42512 O 3683.13 -4.45271 7.53232 0
M  V30 42513 C 3682.64 -4.74639 5.19936 0
M  V30 42514 C 3683.35 -3.49432 4.70418 0
M  V30 42515 N 3683.3 -3.31776 3.22945 0
M  V30 42516 H 3686.14 -6.54213 5.71376 0
M  V30 42517 H 3686.41 -5.30492 4.44033 0
M  V30 42518 H 3685.54 -4.55889 6.76652 0
M  V30 42519 P 3681.58 -4.23843 7.83734 0
M  V30 42520 O 3681.36 -4.19407 9.29784 0
M  V30 42521 O 3680.79 -5.24426 7.09156 0
M  V30 42522 O 3681.33 -2.7935 7.20758 0
M  V30 42523 C 3682.27 -1.7299 7.50419 0
M  V30 42524 C 3681.54 -0.406376 7.57911 0
M  V30 42525 O 3681.33 0.0897726 6.21935 0
M  V30 42526 C 3680.14 -0.447224 8.1878 0
M  V30 42527 O 3679.75 0.825065 8.71101 0
M  V30 42528 C 3679.26 -0.783801 6.99623 0
M  V30 42529 C 3679.97 -0.0619192 5.85967 0
M  V30 42530 N 3679.92 -0.7859 4.56281 0
M  V30 42531 C 3680 -2.14308 4.31736 0
M  V30 42532 N 3679.92 -2.46106 3.05116 0
M  V30 42533 C 3679.78 -1.23422 2.4014 0
M  V30 42534 C 3679.65 -0.938381 1.02409 0
M  V30 42535 N 3679.53 0.444647 0.805413 0
M  V30 42536 C 3679.53 1.40829 1.79435 0
M  V30 42537 N 3679.4 2.67213 1.38558 0
M  V30 42538 N 3679.66 1.12947 3.09005 0
M  V30 42539 C 3679.78 -0.204887 3.32369 0
M  V30 42540 H 3682.76 -1.93423 8.4679 0
M  V30 42541 H 3683.03 -1.68181 6.71046 0
M  V30 42542 H 3682.16 0.289041 8.15388 0
M  V30 42543 P 3678.2 1.17771 8.83182 0
M  V30 42544 O 3677.98 2.07206 9.98732 0
M  V30 42545 O 3677.41 -0.0743816 8.81969 0
M  V30 42546 O 3677.95 1.97652 7.47304 0
M  V30 42547 C 3678.89 3.01055 7.08599 0
M  V30 42548 C 3678.16 4.12613 6.37049 0
M  V30 42549 O 3677.95 3.72827 4.97879 0
M  V30 42550 C 3676.76 4.45719 6.88164 0
M  V30 42551 O 3676.37 5.7877 6.5624 0
M  V30 42552 C 3675.88 3.47768 6.11991 0
M  V30 42553 C 3676.59 3.39356 4.77615 0
M  V30 42554 N 3676.54 2.04571 4.15244 0
M  V30 42555 C 3676.39 1.98587 2.78314 0
M  V30 42556 O 3676.3 2.98134 2.08835 0
M  V30 42557 N 3676.35 0.714467 2.24925 0
M  V30 42558 C 3676.44 -0.470001 2.94169 0
M  V30 42559 O 3676.39 -1.55587 2.35195 0
M  V30 42560 C 3676.59 -0.312541 4.36783 0
M  V30 42561 C 3676.7 -1.57711 5.16352 0
M  V30 42562 C 3676.64 0.914512 4.92583 0
M  V30 42563 H 3679.38 3.41169 7.98575 0
M  V30 42564 H 3679.65 2.58295 6.41556 0
M  V30 42565 H 3678.78 5.02657 6.42673 0
M  V30 42566 H 3676.13 4.11637 4.08885 0
M  V30 42567 H 3675.85 2.49626 6.61679 0
M  V30 42568 H 3674.86 3.86566 6.00778 0
M  V30 42569 H 3676.69 4.29943 7.96918 0
M  V30 42570 H 3676.76 1.00937 6.00374 0
M  V30 42571 H 3675.73 -1.80153 5.63503 0
M  V30 42572 H 3677.47 -1.4566 5.94104 0
M  V30 42573 H 3676.98 -2.40664 4.49645 0
M  V30 42574 H 3676.24 0.647622 1.25697 0
M  V30 42575 P 3674.82 6.144 6.45285 0
M  V30 42576 O 3674.6 7.54673 6.86199 0
M  V30 42577 O 3674.03 5.12391 7.179 0
M  V30 42578 O 3674.57 5.99158 4.88404 0
M  V30 42579 C 3675.51 6.60234 3.96415 0
M  V30 42580 C 3674.78 7.08259 2.72856 0
M  V30 42581 O 3674.57 5.9427 1.83651 0
M  V30 42582 C 3673.38 7.64886 2.9555 0
M  V30 42583 O 3672.99 8.53963 1.90717 0
M  V30 42584 C 3672.5 6.4116 2.90739 0
M  V30 42585 C 3673.21 5.55375 1.86963 0
M  V30 42586 N 3673.16 4.09664 2.15742 0
M  V30 42587 H 3676 7.45574 4.45629 0
M  V30 42588 H 3676.27 5.86232 3.67314 0
M  V30 42589 H 3675.4 7.84412 2.24479 0
M  V30 42590 P 3671.44 8.7635 1.60911 0
M  V30 42591 O 3671.22 10.1388 1.11561 0
M  V30 42592 O 3670.65 8.36503 2.79617 0
M  V30 42593 O 3671.19 7.71806 0.42951 0
M  V30 42594 C 3672.13 7.67148 -0.673689 0
M  V30 42595 C 3671.4 7.33374 -1.95559 0
M  V30 42596 O 3671.19 5.88721 -2.00726 0
M  V30 42597 C 3670 7.92526 -2.10483 0
M  V30 42598 O 3669.61 8.02971 -3.47653 0
M  V30 42599 C 3669.12 6.89602 -1.41652 0
M  V30 42600 C 3669.83 5.59201 -1.75185 0
M  V30 42601 N 3669.78 4.58235 -0.662552 0
M  V30 42602 H 3672.62 8.65116 -0.777161 0
M  V30 42603 H 3672.89 6.90173 -0.474152 0
M  V30 42604 H 3672.02 7.66548 -2.79458 0
M  V30 42605 P 3668.06 8.03563 -3.84925 0
M  V30 42606 O 3667.84 8.85821 -5.0569 0
M  V30 42607 O 3667.27 8.41101 -2.65469 0
M  V30 42608 O 3667.81 6.4965 -4.18908 0
M  V30 42609 C 3668.75 5.81037 -5.05421 0
M  V30 42610 C 3668.02 4.78366 -5.89277 0
M  V30 42611 O 3667.81 3.58302 -5.08433 0
M  V30 42612 C 3666.62 5.17448 -6.36119 0
M  V30 42613 O 3666.23 4.45271 -7.53232 0
M  V30 42614 C 3665.74 4.74639 -5.19936 0
M  V30 42615 C 3666.45 3.49432 -4.70418 0
M  V30 42616 N 3666.4 3.31776 -3.22945 0
M  V30 42617 H 3669.24 6.54213 -5.71376 0
M  V30 42618 H 3669.51 5.30492 -4.44033 0
M  V30 42619 H 3668.64 4.55889 -6.76652 0
M  V30 42620 P 3664.68 4.23843 -7.83734 0
M  V30 42621 O 3664.46 4.19407 -9.29784 0
M  V30 42622 O 3663.89 5.24426 -7.09156 0
M  V30 42623 O 3664.43 2.7935 -7.20758 0
M  V30 42624 C 3665.37 1.7299 -7.50419 0
M  V30 42625 C 3664.64 0.406376 -7.57911 0
M  V30 42626 O 3664.43 -0.0897726 -6.21935 0
M  V30 42627 C 3663.24 0.447224 -8.1878 0
M  V30 42628 O 3662.85 -0.825065 -8.71101 0
M  V30 42629 C 3662.36 0.783801 -6.99623 0
M  V30 42630 C 3663.07 0.0619192 -5.85967 0
M  V30 42631 N 3663.02 0.7859 -4.56281 0
M  V30 42632 C 3663.1 2.14308 -4.31736 0
M  V30 42633 N 3663.02 2.46106 -3.05116 0
M  V30 42634 C 3662.88 1.23422 -2.4014 0
M  V30 42635 C 3662.75 0.938381 -1.02409 0
M  V30 42636 N 3662.63 -0.444647 -0.805413 0
M  V30 42637 C 3662.63 -1.40829 -1.79435 0
M  V30 42638 N 3662.5 -2.67213 -1.38558 0
M  V30 42639 N 3662.76 -1.12947 -3.09005 0
M  V30 42640 C 3662.88 0.204887 -3.32369 0
M  V30 42641 H 3665.86 1.93423 -8.4679 0
M  V30 42642 H 3666.13 1.68181 -6.71046 0
M  V30 42643 H 3665.26 -0.289041 -8.15388 0
M  V30 42644 P 3661.3 -1.17771 -8.83182 0
M  V30 42645 O 3661.08 -2.07206 -9.98732 0
M  V30 42646 O 3660.51 0.0743816 -8.81969 0
M  V30 42647 O 3661.05 -1.97652 -7.47304 0
M  V30 42648 C 3661.99 -3.01133 -7.08783 0
M  V30 42649 C 3661.26 -4.12613 -6.37049 0
M  V30 42650 O 3661.05 -3.72827 -4.97879 0
M  V30 42651 C 3659.86 -4.45085 -6.88694 0
M  V30 42652 O 3659.47 -5.7877 -6.5624 0
M  V30 42653 C 3658.98 -3.47817 -6.12078 0
M  V30 42654 C 3659.69 -3.39414 -4.77697 0
M  V30 42655 N 3659.64 -2.04615 -4.15333 0
M  V30 42656 H 3662.48 -3.41248 -7.98759 0
M  V30 42657 H 3662.75 -2.5837 -6.41742 0
M  V30 42658 H 3661.88 -5.02657 -6.42673 0
M  V30 42659 P 3657.92 -6.144 -6.45285 0
M  V30 42660 O 3657.7 -7.54673 -6.86199 0
M  V30 42661 O 3657.13 -5.12391 -7.179 0
M  V30 42662 O 3657.67 -5.99158 -4.88404 0
M  V30 42663 C 3658.61 -6.60062 -3.96313 0
M  V30 42664 C 3657.88 -7.08259 -2.72856 0
M  V30 42665 O 3657.67 -5.9427 -1.83651 0
M  V30 42666 C 3656.48 -7.65087 -2.94749 0
M  V30 42667 O 3656.09 -8.53963 -1.90717 0
M  V30 42668 C 3655.6 -6.41069 -2.90698 0
M  V30 42669 C 3656.31 -5.5528 -1.86931 0
M  V30 42670 N 3656.26 -4.09575 -2.15696 0
M  V30 42671 C 3656.11 -3.24249 -1.08435 0
M  V30 42672 O 3656.02 -3.63946 0.0628747 0
M  V30 42673 N 3656.07 -1.90009 -1.39973 0
M  V30 42674 C 3656.16 -1.34884 -2.65614 0
M  V30 42675 C 3656.31 -2.3145 -3.71736 0
M  V30 42676 C 3656.36 -3.63518 -3.44754 0
M  V30 42677 H 3659.1 -7.45402 -4.45526 0
M  V30 42678 H 3659.37 -5.86062 -3.67208 0
M  V30 42679 H 3658.5 -7.84412 -2.24479 0
M  V30 42680 H 3655.85 -5.73358 -0.888409 0
M  V30 42681 H 3655.57 -5.90877 -3.88583 0
M  V30 42682 H 3654.58 -6.65867 -2.58821 0
M  V30 42683 H 3656.41 -8.16248 -3.92006 0
M  V30 42684 H 3656.48 -4.34551 -4.26383 0
M  V30 42685 P 3654.54 -8.7635 -1.60911 0
M  V30 42686 O 3654.32 -10.1388 -1.11561 0
M  V30 42687 O 3653.75 -8.36503 -2.79617 0
M  V30 42688 O 3654.29 -7.71806 -0.42951 0
M  V30 42689 C 3655.23 -7.67148 0.673689 0
M  V30 42690 C 3654.5 -7.33374 1.95559 0
M  V30 42691 O 3654.29 -5.88721 2.00726 0
M  V30 42692 C 3653.1 -7.92526 2.10483 0
M  V30 42693 O 3652.71 -8.02971 3.47653 0
M  V30 42694 C 3652.22 -6.89602 1.41652 0
M  V30 42695 C 3652.93 -5.59201 1.75185 0
M  V30 42696 N 3652.88 -4.58235 0.662552 0
M  V30 42697 H 3655.72 -8.65116 0.777161 0
M  V30 42698 H 3655.99 -6.90173 0.474152 0
M  V30 42699 H 3655.12 -7.66548 2.79458 0
M  V30 42700 P 3651.16 -8.03563 3.84925 0
M  V30 42701 O 3650.94 -8.85821 5.0569 0
M  V30 42702 O 3650.37 -8.41101 2.65469 0
M  V30 42703 O 3650.91 -6.4965 4.18908 0
M  V30 42704 C 3651.85 -5.81037 5.05421 0
M  V30 42705 C 3651.12 -4.78366 5.89277 0
M  V30 42706 O 3650.91 -3.58302 5.08433 0
M  V30 42707 C 3649.72 -5.17448 6.36119 0
M  V30 42708 O 3649.33 -4.45271 7.53232 0
M  V30 42709 C 3648.84 -4.74639 5.19936 0
M  V30 42710 C 3649.55 -3.49432 4.70418 0
M  V30 42711 N 3649.5 -3.31776 3.22945 0
M  V30 42712 H 3652.34 -6.54213 5.71376 0
M  V30 42713 H 3652.61 -5.30492 4.44033 0
M  V30 42714 H 3651.74 -4.55889 6.76652 0
M  V30 42715 P 3647.78 -4.23843 7.83734 0
M  V30 42716 O 3647.56 -4.19407 9.29784 0
M  V30 42717 O 3646.99 -5.24426 7.09156 0
M  V30 42718 O 3647.53 -2.79386 7.20852 0
M  V30 42719 C 3648.47 -1.7299 7.50419 0
M  V30 42720 C 3647.74 -0.41401 7.5797 0
M  V30 42721 O 3647.53 0.089787 6.22035 0
M  V30 42722 C 3646.34 -0.447224 8.1878 0
M  V30 42723 O 3645.95 0.825159 8.71201 0
M  V30 42724 C 3645.46 -0.783801 6.99623 0
M  V30 42725 C 3646.17 -0.0619192 5.85967 0
M  V30 42726 N 3646.12 -0.7859 4.56281 0
M  V30 42727 C 3645.97 -0.0359258 3.39981 0
M  V30 42728 O 3645.88 1.19723 3.49038 0
M  V30 42729 N 3645.92 -0.869151 2.14025 0
M  V30 42730 C 3646.02 -2.01207 2.14363 0
M  V30 42731 N 3645.97 -2.58978 0.954287 0
M  V30 42732 C 3646.17 -2.80817 3.32215 0
M  V30 42733 C 3646.22 -2.13785 4.50884 0
M  V30 42734 H 3648.96 -1.93401 8.46693 0
M  V30 42735 H 3649.23 -1.68181 6.71046 0
M  V30 42736 H 3648.36 0.289076 8.15488 0
M  V30 42737 H 3645.71 0.927166 5.72947 0
M  V30 42738 H 3645.43 -1.87 6.82132 0
M  V30 42739 H 3644.44 -0.404009 7.13457 0
M  V30 42740 H 3646.27 -1.20599 8.97534 0
M  V30 42741 H 3646.34 -2.70295 5.43162 0
M  V30 42742 H 3646.24 -3.89465 3.27406 0
M  V30 42743 H 3645.85 -2.01616 0.107046 0
M  V30 42744 H 3646.05 -3.61403 0.873101 0
M  V30 42745 P 3644.4 1.17771 8.83182 0
M  V30 42746 O 3644.18 2.07206 9.98732 0
M  V30 42747 O 3643.61 -0.0743816 8.81969 0
M  V30 42748 O 3644.15 1.97678 7.474 0
M  V30 42749 C 3645.09 3.01133 7.08783 0
M  V30 42750 C 3644.36 4.1203 6.37546 0
M  V30 42751 O 3644.15 3.72887 4.9796 0
M  V30 42752 C 3642.96 4.45085 6.88694 0
M  V30 42753 O 3642.57 5.78836 6.56315 0
M  V30 42754 C 3642.08 3.47817 6.12078 0
M  V30 42755 C 3642.79 3.39414 4.77697 0
M  V30 42756 N 3642.74 2.04615 4.15333 0
M  V30 42757 C 3642.59 1.96929 2.77162 0
M  V30 42758 O 3642.5 3.02017 2.12006 0
M  V30 42759 N 3642.54 0.55485 2.24237 0
M  V30 42760 C 3642.64 -0.367808 2.9169 0
M  V30 42761 N 3642.59 -1.53426 2.29427 0
M  V30 42762 C 3642.79 -0.319148 4.33828 0
M  V30 42763 C 3642.84 0.920672 4.90433 0
M  V30 42764 H 3645.58 3.41209 7.98667 0
M  V30 42765 H 3645.85 2.5837 6.41742 0
M  V30 42766 H 3644.98 5.02718 6.42752 0
M  V30 42767 H 3642.33 4.11779 4.09026 0
M  V30 42768 H 3642.05 2.49661 6.61772 0
M  V30 42769 H 3641.06 3.86674 6.00946 0
M  V30 42770 H 3642.89 4.29991 7.97006 0
M  V30 42771 H 3642.96 1.00589 5.98303 0
M  V30 42772 H 3642.86 -1.22639 4.93799 0
M  V30 42773 H 3642.47 -1.56819 1.27167 0
M  V30 42774 H 3642.67 -2.41062 2.83063 0
M  V30 42775 P 3641.02 6.144 6.45285 0
M  V30 42776 O 3640.8 7.54673 6.86199 0
M  V30 42777 O 3640.23 5.12391 7.179 0
M  V30 42778 O 3640.77 5.99158 4.88404 0
M  V30 42779 C 3641.71 6.60234 3.96415 0
M  V30 42780 C 3640.98 7.08259 2.72856 0
M  V30 42781 O 3640.77 5.9427 1.83651 0
M  V30 42782 C 3639.58 7.64886 2.9555 0
M  V30 42783 O 3639.19 8.53963 1.90717 0
M  V30 42784 C 3638.7 6.4116 2.90739 0
M  V30 42785 C 3639.41 5.55375 1.86963 0
M  V30 42786 N 3639.36 4.09664 2.15742 0
M  V30 42787 H 3642.2 7.45574 4.45629 0
M  V30 42788 H 3642.47 5.86232 3.67314 0
M  V30 42789 H 3641.6 7.84412 2.24479 0
M  V30 42790 P 3637.64 8.7635 1.60911 0
M  V30 42791 O 3637.42 10.1388 1.11561 0
M  V30 42792 O 3636.85 8.36503 2.79617 0
M  V30 42793 O 3637.39 7.71806 0.42951 0
M  V30 42794 C 3638.33 7.67148 -0.673689 0
M  V30 42795 C 3637.6 7.33374 -1.95559 0
M  V30 42796 O 3637.39 5.88721 -2.00726 0
M  V30 42797 C 3636.2 7.92526 -2.10483 0
M  V30 42798 O 3635.81 8.02971 -3.47653 0
M  V30 42799 C 3635.32 6.89602 -1.41652 0
M  V30 42800 C 3636.03 5.59201 -1.75185 0
M  V30 42801 N 3635.98 4.58301 -0.657969 0
M  V30 42802 H 3638.82 8.65116 -0.777161 0
M  V30 42803 H 3639.09 6.9022 -0.46725 0
M  V30 42804 H 3638.22 7.66548 -2.79458 0
M  V30 42805 H 3635.57 5.16165 -2.65183 0
M  V30 42806 H 3635.29 7.06433 -0.329384 0
M  V30 42807 H 3634.3 6.90926 -1.82021 0
M  V30 42808 H 3636.13 8.90873 -1.62657 0
M  V30 42809 P 3634.26 8.03563 -3.84925 0
M  V30 42810 O 3634.04 8.85821 -5.0569 0
M  V30 42811 O 3633.47 8.41101 -2.65469 0
M  V30 42812 O 3634.01 6.4965 -4.18908 0
M  V30 42813 C 3634.95 5.81037 -5.05421 0
M  V30 42814 C 3634.22 4.78366 -5.89277 0
M  V30 42815 O 3634.01 3.58302 -5.08433 0
M  V30 42816 C 3632.82 5.17448 -6.36119 0
M  V30 42817 O 3632.43 4.45271 -7.53232 0
M  V30 42818 C 3631.94 4.74639 -5.19936 0
M  V30 42819 C 3632.65 3.49432 -4.70418 0
M  V30 42820 N 3632.6 3.31776 -3.22945 0
M  V30 42821 C 3632.68 4.27147 -2.23315 0
M  V30 42822 N 3632.6 3.78447 -1.02186 0
M  V30 42823 C 3632.46 2.41001 -1.21732 0
M  V30 42824 C 3632.33 1.36111 -0.27694 0
M  V30 42825 N 3632.21 0.113683 -0.912949 0
M  V30 42826 C 3632.21 -0.0846396 -2.27943 0
M  V30 42827 N 3632.08 -1.34737 -2.6916 0
M  V30 42828 N 3632.34 0.902521 -3.16379 0
M  V30 42829 C 3632.46 2.11937 -2.56849 0
M  V30 42830 H 3635.44 6.54213 -5.71376 0
M  V30 42831 H 3635.71 5.30492 -4.44033 0
M  V30 42832 H 3634.84 4.55889 -6.76652 0
M  V30 42833 P 3630.88 4.23843 -7.83734 0
M  V30 42834 O 3630.66 4.19407 -9.29784 0
M  V30 42835 O 3630.09 5.24426 -7.09156 0
M  V30 42836 O 3630.63 2.7935 -7.20758 0
M  V30 42837 C 3631.57 1.7299 -7.50419 0
M  V30 42838 C 3630.84 0.406376 -7.57911 0
M  V30 42839 O 3630.63 -0.0897726 -6.21935 0
M  V30 42840 C 3629.44 0.447224 -8.1878 0
M  V30 42841 O 3629.05 -0.825065 -8.71101 0
M  V30 42842 C 3628.56 0.783801 -6.99623 0
M  V30 42843 C 3629.27 0.0619192 -5.85967 0
M  V30 42844 N 3629.22 0.7859 -4.56281 0
M  V30 42845 H 3632.06 1.93423 -8.4679 0
M  V30 42846 H 3632.33 1.68181 -6.71046 0
M  V30 42847 H 3631.46 -0.289041 -8.15388 0
M  V30 42848 P 3627.5 -1.17771 -8.83182 0
M  V30 42849 O 3627.28 -2.07206 -9.98732 0
M  V30 42850 O 3626.71 0.0743816 -8.81969 0
M  V30 42851 O 3627.25 -1.97652 -7.47304 0
M  V30 42852 C 3628.19 -3.01133 -7.08783 0
M  V30 42853 C 3627.46 -4.12613 -6.37049 0
M  V30 42854 O 3627.25 -3.72827 -4.97879 0
M  V30 42855 C 3626.06 -4.45085 -6.88694 0
M  V30 42856 O 3625.67 -5.7877 -6.5624 0
M  V30 42857 C 3625.18 -3.47817 -6.12078 0
M  V30 42858 C 3625.89 -3.39414 -4.77697 0
M  V30 42859 N 3625.84 -2.04615 -4.15333 0
M  V30 42860 H 3628.68 -3.41248 -7.98759 0
M  V30 42861 H 3628.95 -2.5837 -6.41742 0
M  V30 42862 H 3628.08 -5.02657 -6.42673 0
M  V30 42863 P 3624.12 -6.144 -6.45285 0
M  V30 42864 O 3623.9 -7.54673 -6.86199 0
M  V30 42865 O 3623.33 -5.12391 -7.179 0
M  V30 42866 O 3623.87 -5.99158 -4.88404 0
M  V30 42867 C 3624.81 -6.60234 -3.96415 0
M  V30 42868 C 3624.08 -7.08259 -2.72856 0
M  V30 42869 O 3623.87 -5.9427 -1.83651 0
M  V30 42870 C 3622.68 -7.64886 -2.9555 0
M  V30 42871 O 3622.29 -8.53963 -1.90717 0
M  V30 42872 C 3621.8 -6.4116 -2.90739 0
M  V30 42873 C 3622.51 -5.55375 -1.86963 0
M  V30 42874 N 3622.46 -4.09664 -2.15742 0
M  V30 42875 H 3625.3 -7.45574 -4.45629 0
M  V30 42876 H 3625.57 -5.86232 -3.67314 0
M  V30 42877 H 3624.7 -7.84412 -2.24479 0
M  V30 42878 P 3620.74 -8.7635 -1.60911 0
M  V30 42879 O 3620.52 -10.1388 -1.11561 0
M  V30 42880 O 3619.95 -8.36503 -2.79617 0
M  V30 42881 O 3620.49 -7.71806 -0.42951 0
M  V30 42882 C 3621.43 -7.67148 0.673689 0
M  V30 42883 C 3620.7 -7.33374 1.95559 0
M  V30 42884 O 3620.49 -5.88721 2.00726 0
M  V30 42885 C 3619.3 -7.92526 2.10483 0
M  V30 42886 O 3618.91 -8.02971 3.47653 0
M  V30 42887 C 3618.42 -6.89602 1.41652 0
M  V30 42888 C 3619.13 -5.59201 1.75185 0
M  V30 42889 N 3619.08 -4.58235 0.662552 0
M  V30 42890 C 3619.16 -4.7683 -0.704049 0
M  V30 42891 N 3619.08 -3.66233 -1.39775 0
M  V30 42892 C 3618.94 -2.66526 -0.431739 0
M  V30 42893 C 3618.81 -1.26394 -0.575992 0
M  V30 42894 O 3618.79 -0.589894 -1.60503 0
M  V30 42895 N 3618.69 -0.62859 0.67177 0
M  V30 42896 C 3618.69 -1.27134 1.89385 0
M  V30 42897 N 3618.56 -0.492035 2.96951 0
M  V30 42898 N 3618.82 -2.58978 2.02907 0
M  V30 42899 C 3618.94 -3.22433 0.832218 0
M  V30 42900 H 3621.92 -8.65116 0.777161 0
M  V30 42901 H 3622.19 -6.90173 0.474152 0
M  V30 42902 H 3621.32 -7.66548 2.79458 0
M  V30 42903 H 3618.67 -5.16254 2.65229 0
M  V30 42904 H 3618.39 -7.06532 0.329431 0
M  V30 42905 H 3617.4 -6.91023 1.82047 0
M  V30 42906 H 3619.23 -8.90971 1.62675 0
M  V30 42907 H 3619.28 -5.74954 -1.16305 0
M  V30 42908 H 3618.6 0.366713 0.674793 0
M  V30 42909 H 3618.56 -0.908532 3.91188 0
M  V30 42910 H 3618.46 0.528253 2.85758 0
M  V30 42911 P 3617.36 -8.03563 3.84925 0
M  V30 42912 O 3617.14 -8.85821 5.0569 0
M  V30 42913 O 3616.57 -8.41101 2.65469 0
M  V30 42914 O 3617.11 -6.4965 4.18908 0
M  V30 42915 C 3618.05 -5.81037 5.05421 0
M  V30 42916 C 3617.32 -4.78366 5.89277 0
M  V30 42917 O 3617.11 -3.58302 5.08433 0
M  V30 42918 C 3615.92 -5.17448 6.36119 0
M  V30 42919 O 3615.53 -4.45271 7.53232 0
M  V30 42920 C 3615.04 -4.74639 5.19936 0
M  V30 42921 C 3615.75 -3.49432 4.70418 0
M  V30 42922 N 3615.7 -3.31776 3.22945 0
M  V30 42923 H 3618.54 -6.54213 5.71376 0
M  V30 42924 H 3618.81 -5.30492 4.44033 0
M  V30 42925 H 3617.94 -4.55889 6.76652 0
M  V30 42926 P 3613.98 -4.23843 7.83734 0
M  V30 42927 O 3613.76 -4.19407 9.29784 0
M  V30 42928 O 3613.19 -5.24426 7.09156 0
M  V30 42929 O 3613.73 -2.7935 7.20758 0
M  V30 42930 C 3614.67 -1.7299 7.50419 0
M  V30 42931 C 3613.94 -0.406376 7.57911 0
M  V30 42932 O 3613.73 0.0897726 6.21935 0
M  V30 42933 C 3612.54 -0.447224 8.1878 0
M  V30 42934 O 3612.15 0.825065 8.71101 0
M  V30 42935 C 3611.66 -0.783801 6.99623 0
M  V30 42936 C 3612.37 -0.0619192 5.85967 0
M  V30 42937 N 3612.32 -0.7859 4.56281 0
M  V30 42938 H 3615.16 -1.93423 8.4679 0
M  V30 42939 H 3615.43 -1.68181 6.71046 0
M  V30 42940 H 3614.56 0.289041 8.15388 0
M  V30 42941 P 3610.6 1.17771 8.83182 0
M  V30 42942 O 3610.38 2.07206 9.98732 0
M  V30 42943 O 3609.81 -0.0743816 8.81969 0
M  V30 42944 O 3610.35 1.97652 7.47304 0
M  V30 42945 C 3611.29 3.01133 7.08783 0
M  V30 42946 C 3610.56 4.12613 6.37049 0
M  V30 42947 O 3610.35 3.72827 4.97879 0
M  V30 42948 C 3609.16 4.45085 6.88694 0
M  V30 42949 O 3608.77 5.7877 6.5624 0
M  V30 42950 C 3608.28 3.47817 6.12078 0
M  V30 42951 C 3608.99 3.39414 4.77697 0
M  V30 42952 N 3608.94 2.04615 4.15333 0
M  V30 42953 H 3611.78 3.41248 7.98759 0
M  V30 42954 H 3612.05 2.5837 6.41742 0
M  V30 42955 H 3611.18 5.02657 6.42673 0
M  V30 42956 P 3607.22 6.144 6.45285 0
M  V30 42957 O 3607 7.54673 6.86199 0
M  V30 42958 O 3606.43 5.12391 7.179 0
M  V30 42959 O 3606.97 5.99158 4.88404 0
M  V30 42960 C 3607.91 6.60234 3.96415 0
M  V30 42961 C 3607.18 7.08259 2.72856 0
M  V30 42962 O 3606.97 5.9427 1.83651 0
M  V30 42963 C 3605.78 7.64886 2.9555 0
M  V30 42964 O 3605.39 8.53963 1.90717 0
M  V30 42965 C 3604.9 6.4116 2.90739 0
M  V30 42966 C 3605.61 5.55375 1.86963 0
M  V30 42967 N 3605.56 4.09448 2.16152 0
M  V30 42968 H 3608.4 7.45574 4.45629 0
M  V30 42969 H 3608.67 5.85864 3.679 0
M  V30 42970 H 3607.8 7.84412 2.24479 0
M  V30 42971 H 3605.15 5.73457 0.888562 0
M  V30 42972 H 3604.87 5.90877 3.88583 0
M  V30 42973 H 3603.88 6.6596 2.58858 0
M  V30 42974 H 3605.71 8.16339 3.92049 0
M  V30 42975 P 3603.84 8.7635 1.60911 0
M  V30 42976 O 3603.62 10.1388 1.11561 0
M  V30 42977 O 3603.05 8.36503 2.79617 0
M  V30 42978 O 3603.59 7.71806 0.42951 0
M  V30 42979 C 3604.53 7.67148 -0.673689 0
M  V30 42980 C 3603.8 7.33374 -1.95559 0
M  V30 42981 O 3603.59 5.88721 -2.00726 0
M  V30 42982 C 3602.4 7.92526 -2.10483 0
M  V30 42983 O 3602.01 8.02971 -3.47653 0
M  V30 42984 C 3601.52 6.89602 -1.41652 0
M  V30 42985 C 3602.23 5.59201 -1.75185 0
M  V30 42986 N 3602.18 4.58235 -0.662552 0
M  V30 42987 H 3605.02 8.65116 -0.777161 0
M  V30 42988 H 3605.29 6.90173 -0.474152 0
M  V30 42989 H 3604.42 7.66548 -2.79458 0
M  V30 42990 P 3600.46 8.03563 -3.84925 0
M  V30 42991 O 3600.24 8.85821 -5.0569 0
M  V30 42992 O 3599.67 8.41101 -2.65469 0
M  V30 42993 O 3600.21 6.49734 -4.18962 0
M  V30 42994 C 3601.15 5.81037 -5.05421 0
M  V30 42995 C 3600.42 4.79018 -5.88876 0
M  V30 42996 O 3600.21 3.58359 -5.08515 0
M  V30 42997 C 3599.02 5.17448 -6.36119 0
M  V30 42998 O 3598.63 4.45322 -7.53318 0
M  V30 42999 C 3598.14 4.74639 -5.19936 0
M  V30 43000 C 3598.85 3.49432 -4.70418 0
M  V30 43001 N 3598.8 3.31776 -3.22945 0
M  V30 43002 C 3598.65 2.02742 -2.72939 0
M  V30 43003 O 3598.56 1.08301 -3.52749 0
M  V30 43004 N 3598.6 1.96117 -1.22063 0
M  V30 43005 C 3598.7 2.8878 -0.551566 0
M  V30 43006 N 3598.65 2.65609 0.750198 0
M  V30 43007 C 3598.85 4.22457 -1.03707 0
M  V30 43008 C 3598.9 4.37979 -2.39113 0
M  V30 43009 H 3601.64 6.54138 -5.7131 0
M  V30 43010 H 3601.91 5.30492 -4.44033 0
M  V30 43011 H 3601.04 4.55945 -6.76735 0
M  V30 43012 H 3598.39 2.6176 -5.18021 0
M  V30 43013 H 3598.11 5.52233 -4.41941 0
M  V30 43014 H 3597.12 4.52045 -5.53452 0
M  V30 43015 H 3598.95 6.25124 -6.55234 0
M  V30 43016 H 3599.02 5.37936 -2.80552 0
M  V30 43017 H 3598.92 5.07528 -0.359553 0
M  V30 43018 H 3598.53 1.69403 1.09847 0
M  V30 43019 H 3598.73 3.43701 1.41792 0
M  V30 43020 P 3597.08 4.23843 -7.83734 0
M  V30 43021 O 3596.86 4.19407 -9.29784 0
M  V30 43022 O 3596.29 5.24426 -7.09156 0
M  V30 43023 O 3596.83 2.7935 -7.20758 0
M  V30 43024 C 3597.77 1.7299 -7.50419 0
M  V30 43025 C 3597.04 0.406376 -7.57911 0
M  V30 43026 O 3596.83 -0.0897726 -6.21935 0
M  V30 43027 C 3595.64 0.447224 -8.1878 0
M  V30 43028 O 3595.25 -0.825065 -8.71101 0
M  V30 43029 C 3594.76 0.783801 -6.99623 0
M  V30 43030 C 3595.47 0.0619192 -5.85967 0
M  V30 43031 N 3595.42 0.7859 -4.56281 0
M  V30 43032 C 3595.5 2.14308 -4.31736 0
M  V30 43033 N 3595.42 2.46106 -3.05116 0
M  V30 43034 C 3595.28 1.23422 -2.4014 0
M  V30 43035 C 3595.15 0.938381 -1.02409 0
M  V30 43036 N 3595.03 -0.444647 -0.805413 0
M  V30 43037 C 3595.03 -1.40829 -1.79435 0
M  V30 43038 N 3594.9 -2.67213 -1.38558 0
M  V30 43039 N 3595.16 -1.12947 -3.09005 0
M  V30 43040 C 3595.28 0.204887 -3.32369 0
M  V30 43041 H 3598.26 1.93423 -8.4679 0
M  V30 43042 H 3598.53 1.68181 -6.71046 0
M  V30 43043 H 3597.66 -0.289041 -8.15388 0
M  V30 43044 P 3593.7 -1.17771 -8.83182 0
M  V30 43045 O 3593.48 -2.07206 -9.98732 0
M  V30 43046 O 3592.91 0.0743816 -8.81969 0
M  V30 43047 O 3593.45 -1.97652 -7.47304 0
M  V30 43048 C 3594.39 -3.01133 -7.08783 0
M  V30 43049 C 3593.66 -4.12613 -6.37049 0
M  V30 43050 O 3593.45 -3.72827 -4.97879 0
M  V30 43051 C 3592.26 -4.45085 -6.88694 0
M  V30 43052 O 3591.87 -5.7877 -6.5624 0
M  V30 43053 C 3591.38 -3.47817 -6.12078 0
M  V30 43054 C 3592.09 -3.39414 -4.77697 0
M  V30 43055 N 3592.04 -2.04615 -4.15333 0
M  V30 43056 H 3594.88 -3.41248 -7.98759 0
M  V30 43057 H 3595.15 -2.5837 -6.41742 0
M  V30 43058 H 3594.28 -5.02657 -6.42673 0
M  V30 43059 P 3590.32 -6.144 -6.45285 0
M  V30 43060 O 3590.1 -7.54673 -6.86199 0
M  V30 43061 O 3589.53 -5.12391 -7.179 0
M  V30 43062 O 3590.07 -5.99158 -4.88404 0
M  V30 43063 C 3591.01 -6.60234 -3.96415 0
M  V30 43064 C 3590.28 -7.08259 -2.72856 0
M  V30 43065 O 3590.07 -5.9427 -1.83651 0
M  V30 43066 C 3588.88 -7.64886 -2.9555 0
M  V30 43067 O 3588.49 -8.53963 -1.90717 0
M  V30 43068 C 3588 -6.4116 -2.90739 0
M  V30 43069 C 3588.71 -5.55375 -1.86963 0
M  V30 43070 N 3588.66 -4.09664 -2.15742 0
M  V30 43071 H 3591.5 -7.45574 -4.45629 0
M  V30 43072 H 3591.77 -5.86232 -3.67314 0
M  V30 43073 H 3590.9 -7.84412 -2.24479 0
M  V30 43074 P 3586.94 -8.7635 -1.60911 0
M  V30 43075 O 3586.72 -10.1388 -1.11561 0
M  V30 43076 O 3586.15 -8.36503 -2.79617 0
M  V30 43077 O 3586.69 -7.71806 -0.42951 0
M  V30 43078 C 3587.63 -7.67148 0.673689 0
M  V30 43079 C 3586.9 -7.33374 1.95559 0
M  V30 43080 O 3586.69 -5.88721 2.00726 0
M  V30 43081 C 3585.5 -7.92526 2.10483 0
M  V30 43082 O 3585.11 -8.02971 3.47653 0
M  V30 43083 C 3584.62 -6.89602 1.41652 0
M  V30 43084 C 3585.33 -5.59201 1.75185 0
M  V30 43085 N 3585.28 -4.58301 0.657969 0
M  V30 43086 C 3585.36 -4.79019 -0.692603 0
M  V30 43087 N 3585.29 -3.69736 -1.38998 0
M  V30 43088 C 3585.14 -2.70474 -0.438135 0
M  V30 43089 C 3585.01 -1.30327 -0.538142 0
M  V30 43090 N 3585 -0.64304 -1.69192 0
M  V30 43091 N 3584.89 -0.611027 0.605183 0
M  V30 43092 C 3584.9 -1.27002 1.75953 0
M  V30 43093 N 3585.02 -2.56038 1.98546 0
M  V30 43094 C 3585.14 -3.22681 0.822541 0
M  V30 43095 H 3588.12 -8.65116 0.777161 0
M  V30 43096 H 3588.39 -6.9022 0.46725 0
M  V30 43097 H 3587.52 -7.66548 2.79458 0
M  V30 43098 H 3584.87 -5.16165 2.65183 0
M  V30 43099 H 3584.59 -7.06433 0.329384 0
M  V30 43100 H 3583.6 -6.90926 1.82021 0
M  V30 43101 H 3585.43 -8.90873 1.62657 0
M  V30 43102 H 3585.47 -5.77785 -1.13874 0
M  V30 43103 H 3585.09 -1.15585 -2.57991 0
M  V30 43104 H 3584.9 0.382989 -1.69835 0
M  V30 43105 H 3584.79 -0.653331 2.64449 0
M  V30 43106 P 3583.56 -8.03563 3.84925 0
M  V30 43107 O 3583.34 -8.85821 5.0569 0
M  V30 43108 O 3582.77 -8.41101 2.65469 0
M  V30 43109 O 3583.31 -6.4965 4.18908 0
M  V30 43110 C 3584.25 -5.81037 5.05421 0
M  V30 43111 C 3583.52 -4.78366 5.89277 0
M  V30 43112 O 3583.31 -3.58302 5.08433 0
M  V30 43113 C 3582.12 -5.17448 6.36119 0
M  V30 43114 O 3581.73 -4.45271 7.53232 0
M  V30 43115 C 3581.24 -4.74639 5.19936 0
M  V30 43116 C 3581.95 -3.49432 4.70418 0
M  V30 43117 N 3581.9 -3.31776 3.22945 0
M  V30 43118 C 3581.98 -4.27147 2.23315 0
M  V30 43119 N 3581.9 -3.78447 1.02186 0
M  V30 43120 C 3581.76 -2.41001 1.21732 0
M  V30 43121 C 3581.63 -1.36111 0.27694 0
M  V30 43122 O 3581.61 -1.42065 -0.951767 0
M  V30 43123 N 3581.51 -0.113683 0.912949 0
M  V30 43124 C 3581.51 0.0846396 2.27943 0
M  V30 43125 N 3581.38 1.34737 2.6916 0
M  V30 43126 N 3581.64 -0.902521 3.16379 0
M  V30 43127 C 3581.76 -2.11937 2.56849 0
M  V30 43128 H 3584.74 -6.54213 5.71376 0
M  V30 43129 H 3585.01 -5.30492 4.44033 0
M  V30 43130 H 3584.14 -4.55889 6.76652 0
M  V30 43131 H 3581.49 -2.6176 5.18021 0
M  V30 43132 H 3581.21 -5.52233 4.41941 0
M  V30 43133 H 3580.22 -4.52045 5.53452 0
M  V30 43134 H 3582.05 -6.25193 6.55307 0
M  V30 43135 H 3582.1 -5.3351 2.43857 0
M  V30 43136 H 3581.42 0.69331 0.330371 0
M  V30 43137 H 3581.38 1.56433 3.6988 0
M  V30 43138 H 3581.28 2.10701 2.00133 0
M  V30 43139 P 3580.18 -4.23843 7.83734 0
M  V30 43140 O 3579.96 -4.19407 9.29784 0
M  V30 43141 O 3579.39 -5.24426 7.09156 0
M  V30 43142 O 3579.93 -2.7935 7.20758 0
M  V30 43143 C 3580.87 -1.72945 7.50224 0
M  V30 43144 C 3580.14 -0.406376 7.57911 0
M  V30 43145 O 3579.93 0.0897726 6.21935 0
M  V30 43146 C 3578.74 -0.438983 8.18724 0
M  V30 43147 O 3578.35 0.825065 8.71101 0
M  V30 43148 C 3577.86 -0.783689 6.99524 0
M  V30 43149 C 3578.57 -0.0619086 5.85867 0
M  V30 43150 N 3578.52 -0.78573 4.56183 0
M  V30 43151 C 3578.37 -0.0292889 3.41887 0
M  V30 43152 O 3578.28 1.18445 3.4419 0
M  V30 43153 N 3578.33 -0.744061 2.23964 0
M  V30 43154 C 3578.42 -2.10932 2.10362 0
M  V30 43155 C 3578.57 -2.8202 3.34994 0
M  V30 43156 C 3578.62 -2.15547 4.52261 0
M  V30 43157 H 3581.36 -1.93379 8.46595 0
M  V30 43158 H 3581.63 -1.68132 6.70852 0
M  V30 43159 H 3580.76 0.289041 8.15388 0
M  V30 43160 H 3578.11 0.926847 5.72749 0
M  V30 43161 H 3577.83 -1.86973 6.82036 0
M  V30 43162 H 3576.84 -0.403896 7.13257 0
M  V30 43163 H 3578.67 -1.20585 8.97435 0
M  V30 43164 H 3578.74 -2.71231 5.45042 0
M  V30 43165 P 3576.8 1.17771 8.83182 0
M  V30 43166 O 3576.58 2.07206 9.98732 0
M  V30 43167 O 3576.01 -0.0743816 8.81969 0
M  V30 43168 O 3576.55 1.97678 7.474 0
M  V30 43169 C 3577.49 3.01133 7.08783 0
M  V30 43170 C 3576.76 4.1203 6.37546 0
M  V30 43171 O 3576.55 3.72887 4.9796 0
M  V30 43172 C 3575.36 4.45085 6.88694 0
M  V30 43173 O 3574.97 5.78836 6.56315 0
M  V30 43174 C 3574.48 3.47817 6.12078 0
M  V30 43175 C 3575.19 3.39414 4.77697 0
M  V30 43176 N 3575.14 2.04615 4.15333 0
M  V30 43177 C 3574.99 1.96929 2.77162 0
M  V30 43178 O 3574.9 3.02017 2.12006 0
M  V30 43179 N 3574.94 0.55485 2.24237 0
M  V30 43180 C 3575.04 -0.367808 2.9169 0
M  V30 43181 N 3574.99 -1.53426 2.29427 0
M  V30 43182 C 3575.19 -0.319148 4.33828 0
M  V30 43183 C 3575.24 0.920672 4.90433 0
M  V30 43184 H 3577.98 3.41209 7.98667 0
M  V30 43185 H 3578.25 2.5837 6.41742 0
M  V30 43186 H 3577.38 5.02718 6.42752 0
M  V30 43187 H 3574.73 4.11779 4.09026 0
M  V30 43188 H 3574.45 2.49661 6.61772 0
M  V30 43189 H 3573.46 3.86674 6.00946 0
M  V30 43190 H 3575.29 4.29991 7.97006 0
M  V30 43191 H 3575.36 1.00589 5.98303 0
M  V30 43192 H 3575.26 -1.22639 4.93799 0
M  V30 43193 H 3574.87 -1.56819 1.27167 0
M  V30 43194 H 3575.07 -2.41062 2.83063 0
M  V30 43195 P 3573.42 6.144 6.45285 0
M  V30 43196 O 3573.2 7.54673 6.86199 0
M  V30 43197 O 3572.63 5.12391 7.179 0
M  V30 43198 O 3573.17 5.99158 4.88404 0
M  V30 43199 C 3574.11 6.60234 3.96415 0
M  V30 43200 C 3573.38 7.08259 2.72856 0
M  V30 43201 O 3573.17 5.9427 1.83651 0
M  V30 43202 C 3571.98 7.64886 2.9555 0
M  V30 43203 O 3571.59 8.53963 1.90717 0
M  V30 43204 C 3571.1 6.4116 2.90739 0
M  V30 43205 C 3571.81 5.55375 1.86963 0
M  V30 43206 N 3571.76 4.09664 2.15742 0
M  V30 43207 H 3574.6 7.45574 4.45629 0
M  V30 43208 H 3574.87 5.86232 3.67314 0
M  V30 43209 H 3574 7.84412 2.24479 0
M  V30 43210 P 3570.04 8.7635 1.60911 0
M  V30 43211 O 3569.82 10.1388 1.11561 0
M  V30 43212 O 3569.25 8.36503 2.79617 0
M  V30 43213 O 3569.79 7.71806 0.42951 0
M  V30 43214 C 3570.73 7.67148 -0.673689 0
M  V30 43215 C 3570 7.33374 -1.95559 0
M  V30 43216 O 3569.79 5.88721 -2.00726 0
M  V30 43217 C 3568.6 7.92526 -2.10483 0
M  V30 43218 O 3568.21 8.02971 -3.47653 0
M  V30 43219 C 3567.72 6.89602 -1.41652 0
M  V30 43220 C 3568.43 5.59201 -1.75185 0
M  V30 43221 N 3568.38 4.58235 -0.662552 0
M  V30 43222 H 3571.22 8.65116 -0.777161 0
M  V30 43223 H 3571.49 6.90173 -0.474152 0
M  V30 43224 H 3570.62 7.66548 -2.79458 0
M  V30 43225 P 3566.66 8.03563 -3.84925 0
M  V30 43226 O 3566.44 8.85821 -5.0569 0
M  V30 43227 O 3565.87 8.41101 -2.65469 0
M  V30 43228 O 3566.41 6.4965 -4.18908 0
M  V30 43229 C 3567.35 5.80886 -5.05289 0
M  V30 43230 C 3566.62 4.78366 -5.89277 0
M  V30 43231 O 3566.41 3.58302 -5.08433 0
M  V30 43232 C 3565.22 5.16748 -6.36559 0
M  V30 43233 O 3564.83 4.45271 -7.53232 0
M  V30 43234 C 3564.34 4.74572 -5.19863 0
M  V30 43235 C 3565.05 3.49373 -4.70338 0
M  V30 43236 N 3565 3.31704 -3.22876 0
M  V30 43237 C 3564.85 2.03326 -2.74871 0
M  V30 43238 O 3564.76 1.06486 -3.48076 0
M  V30 43239 N 3564.81 1.91838 -1.37456 0
M  V30 43240 C 3564.9 2.94295 -0.462035 0
M  V30 43241 O 3564.85 2.71763 0.752928 0
M  V30 43242 C 3565.05 4.25064 -1.05249 0
M  V30 43243 C 3565.16 5.39815 -0.095697 0
M  V30 43244 C 3565.1 4.40214 -2.39192 0
M  V30 43245 H 3567.84 6.54063 -5.71245 0
M  V30 43246 H 3568.11 5.30339 -4.43905 0
M  V30 43247 H 3567.24 4.55889 -6.76652 0
M  V30 43248 H 3564.59 2.6167 -5.17842 0
M  V30 43249 H 3564.31 5.52155 -4.41878 0
M  V30 43250 H 3563.32 4.51918 -5.53297 0
M  V30 43251 H 3565.15 6.25055 -6.55162 0
M  V30 43252 H 3565.22 5.39798 -2.81523 0
M  V30 43253 H 3564.19 5.91593 -0.0279582 0
M  V30 43254 H 3565.93 6.10038 -0.450573 0
M  V30 43255 H 3565.44 5.02007 0.89937 0
M  V30 43256 H 3564.7 0.995326 -1.00435 0
M  V30 43257 P 3563.28 4.23843 -7.83734 0
M  V30 43258 O 3563.06 4.19407 -9.29784 0
M  V30 43259 O 3562.49 5.24426 -7.09156 0
M  V30 43260 O 3563.03 2.7935 -7.20758 0
M  V30 43261 C 3563.97 1.7299 -7.50419 0
M  V30 43262 C 3563.24 0.406376 -7.57911 0
M  V30 43263 O 3563.03 -0.0897726 -6.21935 0
M  V30 43264 C 3561.84 0.447224 -8.1878 0
M  V30 43265 O 3561.45 -0.825065 -8.71101 0
M  V30 43266 C 3560.96 0.783801 -6.99623 0
M  V30 43267 C 3561.67 0.0619192 -5.85967 0
M  V30 43268 N 3561.62 0.790462 -4.56202 0
M  V30 43269 H 3564.46 1.93423 -8.4679 0
M  V30 43270 H 3564.73 1.68852 -6.70877 0
M  V30 43271 H 3563.86 -0.289041 -8.15388 0
M  V30 43272 H 3561.21 -0.927006 -5.72848 0
M  V30 43273 H 3560.93 1.86973 -6.82036 0
M  V30 43274 H 3559.94 0.403953 -7.13357 0
M  V30 43275 H 3561.77 1.20599 -8.97534 0
M  V30 43276 P 3559.9 -1.17771 -8.83182 0
M  V30 43277 O 3559.68 -2.07206 -9.98732 0
M  V30 43278 O 3559.11 0.0743816 -8.81969 0
M  V30 43279 O 3559.65 -1.97652 -7.47304 0
M  V30 43280 C 3560.59 -3.01133 -7.08783 0
M  V30 43281 C 3559.86 -4.12613 -6.37049 0
M  V30 43282 O 3559.65 -3.72827 -4.97879 0
M  V30 43283 C 3558.46 -4.45085 -6.88694 0
M  V30 43284 O 3558.07 -5.7877 -6.5624 0
M  V30 43285 C 3557.58 -3.47817 -6.12078 0
M  V30 43286 C 3558.29 -3.39414 -4.77697 0
M  V30 43287 N 3558.24 -2.04615 -4.15333 0
M  V30 43288 H 3561.08 -3.41248 -7.98759 0
M  V30 43289 H 3561.35 -2.5837 -6.41742 0
M  V30 43290 H 3560.48 -5.02657 -6.42673 0
M  V30 43291 P 3556.52 -6.144 -6.45285 0
M  V30 43292 O 3556.3 -7.54673 -6.86199 0
M  V30 43293 O 3555.73 -5.12391 -7.179 0
M  V30 43294 O 3556.27 -5.99158 -4.88404 0
M  V30 43295 C 3557.21 -6.60234 -3.96415 0
M  V30 43296 C 3556.48 -7.08259 -2.72856 0
M  V30 43297 O 3556.27 -5.9427 -1.83651 0
M  V30 43298 C 3555.08 -7.64886 -2.9555 0
M  V30 43299 O 3554.69 -8.53963 -1.90717 0
M  V30 43300 C 3554.2 -6.4116 -2.90739 0
M  V30 43301 C 3554.91 -5.55375 -1.86963 0
M  V30 43302 N 3554.86 -4.09448 -2.16152 0
M  V30 43303 H 3557.7 -7.45574 -4.45629 0
M  V30 43304 H 3557.97 -5.85864 -3.679 0
M  V30 43305 H 3557.1 -7.84412 -2.24479 0
M  V30 43306 H 3554.45 -5.73457 -0.888562 0
M  V30 43307 H 3554.17 -5.90877 -3.88583 0
M  V30 43308 H 3553.18 -6.6596 -2.58858 0
M  V30 43309 H 3555.01 -8.16339 -3.92049 0
M  V30 43310 P 3553.14 -8.7635 -1.60911 0
M  V30 43311 O 3552.92 -10.1388 -1.11561 0
M  V30 43312 O 3552.35 -8.36503 -2.79617 0
M  V30 43313 O 3552.89 -7.71806 -0.42951 0
M  V30 43314 C 3553.83 -7.67148 0.673689 0
M  V30 43315 C 3553.1 -7.33374 1.95559 0
M  V30 43316 O 3552.89 -5.88721 2.00726 0
M  V30 43317 C 3551.7 -7.92526 2.10483 0
M  V30 43318 O 3551.31 -8.02971 3.47653 0
M  V30 43319 C 3550.82 -6.89602 1.41652 0
M  V30 43320 C 3551.53 -5.59201 1.75185 0
M  V30 43321 N 3551.48 -4.58235 0.662552 0
M  V30 43322 H 3554.32 -8.65116 0.777161 0
M  V30 43323 H 3554.59 -6.90173 0.474152 0
M  V30 43324 H 3553.72 -7.66548 2.79458 0
M  V30 43325 P 3549.76 -8.03563 3.84925 0
M  V30 43326 O 3549.54 -8.85821 5.0569 0
M  V30 43327 O 3548.97 -8.41101 2.65469 0
M  V30 43328 O 3549.51 -6.4965 4.18908 0
M  V30 43329 C 3550.45 -5.81037 5.05421 0
M  V30 43330 C 3549.72 -4.78366 5.89277 0
M  V30 43331 O 3549.51 -3.58302 5.08433 0
M  V30 43332 C 3548.32 -5.17448 6.36119 0
M  V30 43333 O 3547.93 -4.45271 7.53232 0
M  V30 43334 C 3547.44 -4.74639 5.19936 0
M  V30 43335 C 3548.15 -3.49432 4.70418 0
M  V30 43336 N 3548.1 -3.31776 3.22945 0
M  V30 43337 H 3550.94 -6.54213 5.71376 0
M  V30 43338 H 3551.21 -5.30492 4.44033 0
M  V30 43339 H 3550.34 -4.55889 6.76652 0
M  V30 43340 P 3546.38 -4.23843 7.83734 0
M  V30 43341 O 3546.16 -4.19407 9.29784 0
M  V30 43342 O 3545.59 -5.24426 7.09156 0
M  V30 43343 O 3546.13 -2.7935 7.20758 0
M  V30 43344 C 3547.07 -1.72945 7.50224 0
M  V30 43345 C 3546.34 -0.406376 7.57911 0
M  V30 43346 O 3546.13 0.0897726 6.21935 0
M  V30 43347 C 3544.94 -0.438983 8.18724 0
M  V30 43348 O 3544.55 0.825065 8.71101 0
M  V30 43349 C 3544.06 -0.783689 6.99524 0
M  V30 43350 C 3544.77 -0.0619086 5.85867 0
M  V30 43351 N 3544.72 -0.78573 4.56183 0
M  V30 43352 C 3544.57 -0.0292889 3.41887 0
M  V30 43353 O 3544.48 1.18445 3.4419 0
M  V30 43354 N 3544.53 -0.744061 2.23964 0
M  V30 43355 C 3544.62 -2.10932 2.10362 0
M  V30 43356 O 3544.57 -2.64117 0.98825 0
M  V30 43357 C 3544.77 -2.8202 3.34994 0
M  V30 43358 C 3544.88 -4.31095 3.25037 0
M  V30 43359 C 3544.82 -2.15547 4.52261 0
M  V30 43360 H 3547.56 -1.93379 8.46595 0
M  V30 43361 H 3547.83 -1.68132 6.70852 0
M  V30 43362 H 3546.96 0.289041 8.15388 0
M  V30 43363 H 3544.31 0.926847 5.72749 0
M  V30 43364 H 3544.03 -1.86973 6.82036 0
M  V30 43365 H 3543.04 -0.403896 7.13257 0
M  V30 43366 H 3544.87 -1.20585 8.97435 0
M  V30 43367 H 3544.94 -2.71231 5.45042 0
M  V30 43368 H 3543.91 -4.76966 3.49992 0
M  V30 43369 H 3545.65 -4.67047 3.95024 0
M  V30 43370 H 3545.16 -4.58996 2.22312 0
M  V30 43371 H 3544.42 -0.214893 1.39758 0
M  V30 43372 P 3543 1.17771 8.83182 0
M  V30 43373 O 3542.78 2.07206 9.98732 0
M  V30 43374 O 3542.21 -0.0743816 8.81969 0
M  V30 43375 O 3542.75 1.97652 7.47304 0
M  V30 43376 C 3543.69 3.01133 7.08783 0
M  V30 43377 C 3542.96 4.12613 6.37049 0
M  V30 43378 O 3542.75 3.72827 4.97879 0
M  V30 43379 C 3541.56 4.45085 6.88694 0
M  V30 43380 O 3541.17 5.7877 6.5624 0
M  V30 43381 C 3540.68 3.47817 6.12078 0
M  V30 43382 C 3541.39 3.39414 4.77697 0
M  V30 43383 N 3541.34 2.04615 4.15333 0
M  V30 43384 H 3544.18 3.41248 7.98759 0
M  V30 43385 H 3544.45 2.5837 6.41742 0
M  V30 43386 H 3543.58 5.02657 6.42673 0
M  V30 43387 P 3539.62 6.144 6.45285 0
M  V30 43388 O 3539.4 7.54673 6.86199 0
M  V30 43389 O 3538.83 5.12391 7.179 0
M  V30 43390 O 3539.37 5.99158 4.88404 0
M  V30 43391 C 3540.31 6.60234 3.96415 0
M  V30 43392 C 3539.58 7.08259 2.72856 0
M  V30 43393 O 3539.37 5.9427 1.83651 0
M  V30 43394 C 3538.18 7.64886 2.9555 0
M  V30 43395 O 3537.79 8.53963 1.90717 0
M  V30 43396 C 3537.3 6.4116 2.90739 0
M  V30 43397 C 3538.01 5.55375 1.86963 0
M  V30 43398 N 3537.96 4.09664 2.15742 0
M  V30 43399 H 3540.8 7.45574 4.45629 0
M  V30 43400 H 3541.07 5.86232 3.67314 0
M  V30 43401 H 3540.2 7.84412 2.24479 0
M  V30 43402 P 3536.24 8.7635 1.60911 0
M  V30 43403 O 3536.02 10.1388 1.11561 0
M  V30 43404 O 3535.45 8.36503 2.79617 0
M  V30 43405 O 3535.99 7.71806 0.42951 0
M  V30 43406 C 3536.93 7.67148 -0.673689 0
M  V30 43407 C 3536.2 7.33374 -1.95559 0
M  V30 43408 O 3535.99 5.88721 -2.00726 0
M  V30 43409 C 3534.8 7.92526 -2.10483 0
M  V30 43410 O 3534.41 8.02971 -3.47653 0
M  V30 43411 C 3533.92 6.89602 -1.41652 0
M  V30 43412 C 3534.63 5.59201 -1.75185 0
M  V30 43413 N 3534.58 4.58301 -0.657969 0
M  V30 43414 H 3537.42 8.65116 -0.777161 0
M  V30 43415 H 3537.69 6.9022 -0.46725 0
M  V30 43416 H 3536.82 7.66548 -2.79458 0
M  V30 43417 H 3534.17 5.16165 -2.65183 0
M  V30 43418 H 3533.89 7.06433 -0.329384 0
M  V30 43419 H 3532.9 6.90926 -1.82021 0
M  V30 43420 H 3534.73 8.90873 -1.62657 0
M  V30 43421 P 3532.86 8.03563 -3.84925 0
M  V30 43422 O 3532.64 8.85821 -5.0569 0
M  V30 43423 O 3532.07 8.41101 -2.65469 0
M  V30 43424 O 3532.61 6.4965 -4.18908 0
M  V30 43425 C 3533.55 5.81037 -5.05421 0
M  V30 43426 C 3532.82 4.78366 -5.89277 0
M  V30 43427 O 3532.61 3.58302 -5.08433 0
M  V30 43428 C 3531.42 5.17448 -6.36119 0
M  V30 43429 O 3531.03 4.45271 -7.53232 0
M  V30 43430 C 3530.54 4.74639 -5.19936 0
M  V30 43431 C 3531.25 3.49432 -4.70418 0
M  V30 43432 N 3531.2 3.32099 -3.22613 0
M  V30 43433 H 3534.04 6.54213 -5.71376 0
M  V30 43434 H 3534.31 5.30936 -4.43503 0
M  V30 43435 H 3533.44 4.55889 -6.76652 0
M  V30 43436 H 3530.79 2.61715 -5.17932 0
M  V30 43437 H 3530.51 5.52155 -4.41878 0
M  V30 43438 H 3529.52 4.51981 -5.53374 0
M  V30 43439 H 3531.35 6.25124 -6.55234 0
M  V30 43440 P 3529.48 4.23843 -7.83734 0
M  V30 43441 O 3529.26 4.19407 -9.29784 0
M  V30 43442 O 3528.69 5.24426 -7.09156 0
M  V30 43443 O 3529.23 2.7935 -7.20758 0
M  V30 43444 C 3530.17 1.7299 -7.50419 0
M  V30 43445 C 3529.44 0.406376 -7.57911 0
M  V30 43446 O 3529.23 -0.0897726 -6.21935 0
M  V30 43447 C 3528.04 0.447224 -8.1878 0
M  V30 43448 O 3527.65 -0.825065 -8.71101 0
M  V30 43449 C 3527.16 0.783801 -6.99623 0
M  V30 43450 C 3527.87 0.0619192 -5.85967 0
M  V30 43451 N 3527.82 0.7859 -4.56281 0
M  V30 43452 H 3530.66 1.93423 -8.4679 0
M  V30 43453 H 3530.93 1.68181 -6.71046 0
M  V30 43454 H 3530.06 -0.289041 -8.15388 0
M  V30 43455 P 3526.1 -1.17771 -8.83182 0
M  V30 43456 O 3525.88 -2.07206 -9.98732 0
M  V30 43457 O 3525.31 0.0743816 -8.81969 0
M  V30 43458 O 3525.85 -1.97652 -7.47304 0
M  V30 43459 C 3526.79 -3.01133 -7.08783 0
M  V30 43460 C 3526.06 -4.12613 -6.37049 0
M  V30 43461 O 3525.85 -3.72827 -4.97879 0
M  V30 43462 C 3524.66 -4.45085 -6.88694 0
M  V30 43463 O 3524.27 -5.7877 -6.5624 0
M  V30 43464 C 3523.78 -3.47817 -6.12078 0
M  V30 43465 C 3524.49 -3.39414 -4.77697 0
M  V30 43466 N 3524.44 -2.04615 -4.15333 0
M  V30 43467 C 3524.52 -0.803897 -4.75249 0
M  V30 43468 N 3524.44 0.197615 -3.91502 0
M  V30 43469 C 3524.3 -0.413002 -2.66823 0
M  V30 43470 C 3524.17 0.157221 -1.38007 0
M  V30 43471 N 3524.05 -0.833136 -0.390236 0
M  V30 43472 C 3524.05 -2.19402 -0.623885 0
M  V30 43473 N 3523.92 -2.97622 0.449677 0
M  V30 43474 N 3524.18 -2.73005 -1.83601 0
M  V30 43475 C 3524.3 -1.78786 -2.80935 0
M  V30 43476 H 3527.28 -3.41248 -7.98759 0
M  V30 43477 H 3527.55 -2.5837 -6.41742 0
M  V30 43478 H 3526.68 -5.02657 -6.42673 0
M  V30 43479 P 3522.72 -6.144 -6.45285 0
M  V30 43480 O 3522.5 -7.54673 -6.86199 0
M  V30 43481 O 3521.93 -5.12391 -7.179 0
M  V30 43482 O 3522.47 -5.99158 -4.88404 0
M  V30 43483 C 3523.41 -6.60234 -3.96415 0
M  V30 43484 C 3522.68 -7.08259 -2.72856 0
M  V30 43485 O 3522.47 -5.9427 -1.83651 0
M  V30 43486 C 3521.28 -7.64886 -2.9555 0
M  V30 43487 O 3520.89 -8.53963 -1.90717 0
M  V30 43488 C 3520.4 -6.4116 -2.90739 0
M  V30 43489 C 3521.11 -5.55375 -1.86963 0
M  V30 43490 N 3521.06 -4.09664 -2.15742 0
M  V30 43491 H 3523.9 -7.45574 -4.45629 0
M  V30 43492 H 3524.17 -5.86232 -3.67314 0
M  V30 43493 H 3523.3 -7.84412 -2.24479 0
M  V30 43494 P 3519.34 -8.7635 -1.60911 0
M  V30 43495 O 3519.12 -10.1388 -1.11561 0
M  V30 43496 O 3518.55 -8.36503 -2.79617 0
M  V30 43497 O 3519.09 -7.71806 -0.42951 0
M  V30 43498 C 3520.03 -7.67148 0.673689 0
M  V30 43499 C 3519.3 -7.33374 1.95559 0
M  V30 43500 O 3519.09 -5.88721 2.00726 0
M  V30 43501 C 3517.9 -7.92526 2.10483 0
M  V30 43502 O 3517.51 -8.02971 3.47653 0
M  V30 43503 C 3517.02 -6.89602 1.41652 0
M  V30 43504 C 3517.73 -5.59201 1.75185 0
M  V30 43505 N 3517.68 -4.58235 0.662552 0
M  V30 43506 H 3520.52 -8.65116 0.777161 0
M  V30 43507 H 3520.79 -6.90173 0.474152 0
M  V30 43508 H 3519.92 -7.66548 2.79458 0
M  V30 43509 P 3515.96 -8.03563 3.84925 0
M  V30 43510 O 3515.74 -8.85821 5.0569 0
M  V30 43511 O 3515.17 -8.41101 2.65469 0
M  V30 43512 O 3515.71 -6.4965 4.18908 0
M  V30 43513 C 3516.65 -5.81037 5.05421 0
M  V30 43514 C 3515.92 -4.78366 5.89277 0
M  V30 43515 O 3515.71 -3.58302 5.08433 0
M  V30 43516 C 3514.52 -5.17448 6.36119 0
M  V30 43517 O 3514.13 -4.45271 7.53232 0
M  V30 43518 C 3513.64 -4.74639 5.19936 0
M  V30 43519 C 3514.35 -3.49432 4.70418 0
M  V30 43520 N 3514.3 -3.31776 3.22945 0
M  V30 43521 H 3517.14 -6.54213 5.71376 0
M  V30 43522 H 3517.41 -5.30492 4.44033 0
M  V30 43523 H 3516.54 -4.55889 6.76652 0
M  V30 43524 P 3512.58 -4.23843 7.83734 0
M  V30 43525 O 3512.36 -4.19407 9.29784 0
M  V30 43526 O 3511.79 -5.24426 7.09156 0
M  V30 43527 O 3512.33 -2.7935 7.20758 0
M  V30 43528 C 3513.27 -1.7299 7.50419 0
M  V30 43529 C 3512.54 -0.406376 7.57911 0
M  V30 43530 O 3512.33 0.0897726 6.21935 0
M  V30 43531 C 3511.14 -0.447224 8.1878 0
M  V30 43532 O 3510.75 0.825065 8.71101 0
M  V30 43533 C 3510.26 -0.783801 6.99623 0
M  V30 43534 C 3510.97 -0.0619192 5.85967 0
M  V30 43535 N 3510.92 -0.7859 4.56281 0
M  V30 43536 H 3513.76 -1.93423 8.4679 0
M  V30 43537 H 3514.03 -1.68181 6.71046 0
M  V30 43538 H 3513.16 0.289041 8.15388 0
M  V30 43539 P 3509.2 1.17771 8.83182 0
M  V30 43540 O 3508.98 2.07206 9.98732 0
M  V30 43541 O 3508.41 -0.0743816 8.81969 0
M  V30 43542 O 3508.95 1.97652 7.47304 0
M  V30 43543 C 3509.89 3.01133 7.08783 0
M  V30 43544 C 3509.16 4.12613 6.37049 0
M  V30 43545 O 3508.95 3.72827 4.97879 0
M  V30 43546 C 3507.76 4.45085 6.88694 0
M  V30 43547 O 3507.37 5.7877 6.5624 0
M  V30 43548 C 3506.88 3.47817 6.12078 0
M  V30 43549 C 3507.59 3.39414 4.77697 0
M  V30 43550 N 3507.54 2.04199 4.15538 0
M  V30 43551 H 3510.38 3.41248 7.98759 0
M  V30 43552 H 3510.65 2.57728 6.42 0
M  V30 43553 H 3509.78 5.02657 6.42673 0
M  V30 43554 H 3507.13 4.11708 4.08956 0
M  V30 43555 H 3506.85 2.49626 6.61679 0
M  V30 43556 H 3505.86 3.8662 6.00862 0
M  V30 43557 H 3507.69 4.29991 7.97006 0
M  V30 43558 P 3505.82 6.144 6.45285 0
M  V30 43559 O 3505.6 7.54673 6.86199 0
M  V30 43560 O 3505.03 5.12391 7.179 0
M  V30 43561 O 3505.57 5.99158 4.88404 0
M  V30 43562 C 3506.51 6.60062 3.96313 0
M  V30 43563 C 3505.78 7.08259 2.72856 0
M  V30 43564 O 3505.57 5.9427 1.83651 0
M  V30 43565 C 3504.38 7.65087 2.94749 0
M  V30 43566 O 3503.99 8.53963 1.90717 0
M  V30 43567 C 3503.5 6.41069 2.90698 0
M  V30 43568 C 3504.21 5.5528 1.86931 0
M  V30 43569 N 3504.16 4.09575 2.15696 0
M  V30 43570 C 3504.01 3.24249 1.08435 0
M  V30 43571 O 3503.92 3.63946 -0.0628747 0
M  V30 43572 N 3503.97 1.90009 1.39973 0
M  V30 43573 C 3504.06 1.34884 2.65614 0
M  V30 43574 O 3504.01 0.123716 2.81728 0
M  V30 43575 C 3504.21 2.3145 3.71736 0
M  V30 43576 C 3504.32 1.75913 5.10438 0
M  V30 43577 C 3504.26 3.63518 3.44754 0
M  V30 43578 H 3507 7.45402 4.45526 0
M  V30 43579 H 3507.27 5.86062 3.67208 0
M  V30 43580 H 3506.4 7.84412 2.24479 0
M  V30 43581 H 3503.75 5.73358 0.888409 0
M  V30 43582 H 3503.47 5.90877 3.88583 0
M  V30 43583 H 3502.48 6.65867 2.58821 0
M  V30 43584 H 3504.31 8.16248 3.92006 0
M  V30 43585 H 3504.38 4.34551 4.26383 0
M  V30 43586 H 3503.35 1.85471 5.61775 0
M  V30 43587 H 3505.09 2.31364 5.66257 0
M  V30 43588 H 3504.6 0.695936 5.05229 0
M  V30 43589 H 3503.86 1.26277 0.63625 0
M  V30 43590 P 3502.44 8.7635 1.60911 0
M  V30 43591 O 3502.22 10.1388 1.11561 0
M  V30 43592 O 3501.65 8.36503 2.79617 0
M  V30 43593 O 3502.19 7.71806 0.42951 0
M  V30 43594 C 3503.13 7.67148 -0.673689 0
M  V30 43595 C 3502.4 7.33374 -1.95559 0
M  V30 43596 O 3502.19 5.88721 -2.00726 0
M  V30 43597 C 3501 7.92526 -2.10483 0
M  V30 43598 O 3500.61 8.02971 -3.47653 0
M  V30 43599 C 3500.12 6.89602 -1.41652 0
M  V30 43600 C 3500.83 5.59201 -1.75185 0
M  V30 43601 N 3500.78 4.58235 -0.662552 0
M  V30 43602 H 3503.62 8.65116 -0.777161 0
M  V30 43603 H 3503.89 6.90173 -0.474152 0
M  V30 43604 H 3503.02 7.66548 -2.79458 0
M  V30 43605 P 3499.06 8.03563 -3.84925 0
M  V30 43606 O 3498.84 8.85821 -5.0569 0
M  V30 43607 O 3498.27 8.41101 -2.65469 0
M  V30 43608 O 3498.81 6.4965 -4.18908 0
M  V30 43609 C 3499.75 5.81037 -5.05421 0
M  V30 43610 C 3499.02 4.78366 -5.89277 0
M  V30 43611 O 3498.81 3.58302 -5.08433 0
M  V30 43612 C 3497.62 5.17448 -6.36119 0
M  V30 43613 O 3497.23 4.45271 -7.53232 0
M  V30 43614 C 3496.74 4.74639 -5.19936 0
M  V30 43615 C 3497.45 3.49432 -4.70418 0
M  V30 43616 N 3497.4 3.31776 -3.22945 0
M  V30 43617 C 3497.48 4.27147 -2.23315 0
M  V30 43618 N 3497.4 3.78447 -1.02186 0
M  V30 43619 C 3497.26 2.41001 -1.21732 0
M  V30 43620 C 3497.13 1.36111 -0.27694 0
M  V30 43621 N 3497.01 0.113683 -0.912949 0
M  V30 43622 C 3497.01 -0.0846396 -2.27943 0
M  V30 43623 N 3496.88 -1.34737 -2.6916 0
M  V30 43624 N 3497.14 0.902521 -3.16379 0
M  V30 43625 C 3497.26 2.11937 -2.56849 0
M  V30 43626 H 3500.24 6.54213 -5.71376 0
M  V30 43627 H 3500.51 5.30492 -4.44033 0
M  V30 43628 H 3499.64 4.55889 -6.76652 0
M  V30 43629 P 3495.68 4.23843 -7.83734 0
M  V30 43630 O 3495.46 4.19407 -9.29784 0
M  V30 43631 O 3494.89 5.24426 -7.09156 0
M  V30 43632 O 3495.43 2.7935 -7.20758 0
M  V30 43633 C 3496.37 1.7299 -7.50419 0
M  V30 43634 C 3495.64 0.406376 -7.57911 0
M  V30 43635 O 3495.43 -0.0897726 -6.21935 0
M  V30 43636 C 3494.24 0.447224 -8.1878 0
M  V30 43637 O 3493.85 -0.825065 -8.71101 0
M  V30 43638 C 3493.36 0.783801 -6.99623 0
M  V30 43639 C 3494.07 0.0619192 -5.85967 0
M  V30 43640 N 3494.02 0.790462 -4.56202 0
M  V30 43641 H 3496.86 1.93423 -8.4679 0
M  V30 43642 H 3497.13 1.68852 -6.70877 0
M  V30 43643 H 3496.26 -0.289041 -8.15388 0
M  V30 43644 H 3493.61 -0.927006 -5.72848 0
M  V30 43645 H 3493.33 1.86973 -6.82036 0
M  V30 43646 H 3492.34 0.403953 -7.13357 0
M  V30 43647 H 3494.17 1.20599 -8.97534 0
M  V30 43648 P 3492.3 -1.17771 -8.83182 0
M  V30 43649 O 3492.08 -2.07206 -9.98732 0
M  V30 43650 O 3491.51 0.0743816 -8.81969 0
M  V30 43651 O 3492.05 -1.97652 -7.47304 0
M  V30 43652 C 3492.99 -3.01055 -7.08599 0
M  V30 43653 C 3492.26 -4.12613 -6.37049 0
M  V30 43654 O 3492.05 -3.72827 -4.97879 0
M  V30 43655 C 3490.86 -4.45719 -6.88164 0
M  V30 43656 O 3490.47 -5.7877 -6.5624 0
M  V30 43657 C 3489.98 -3.47768 -6.11991 0
M  V30 43658 C 3490.69 -3.39356 -4.77615 0
M  V30 43659 N 3490.64 -2.04571 -4.15244 0
M  V30 43660 C 3490.49 -1.98587 -2.78314 0
M  V30 43661 O 3490.4 -2.98134 -2.08835 0
M  V30 43662 N 3490.45 -0.714467 -2.24925 0
M  V30 43663 C 3490.54 0.470001 -2.94169 0
M  V30 43664 O 3490.49 1.55587 -2.35195 0
M  V30 43665 C 3490.69 0.312541 -4.36783 0
M  V30 43666 C 3490.8 1.57711 -5.16352 0
M  V30 43667 C 3490.74 -0.914512 -4.92583 0
M  V30 43668 H 3493.48 -3.41169 -7.98575 0
M  V30 43669 H 3493.75 -2.58295 -6.41556 0
M  V30 43670 H 3492.88 -5.02657 -6.42673 0
M  V30 43671 H 3490.23 -4.11637 -4.08885 0
M  V30 43672 H 3489.95 -2.49626 -6.61679 0
M  V30 43673 H 3488.96 -3.86566 -6.00778 0
M  V30 43674 H 3490.79 -4.29943 -7.96918 0
M  V30 43675 H 3490.86 -1.00937 -6.00374 0
M  V30 43676 H 3489.83 1.80153 -5.63503 0
M  V30 43677 H 3491.57 1.4566 -5.94104 0
M  V30 43678 H 3491.08 2.40664 -4.49645 0
M  V30 43679 H 3490.34 -0.647622 -1.25697 0
M  V30 43680 P 3488.92 -6.144 -6.45285 0
M  V30 43681 O 3488.7 -7.54673 -6.86199 0
M  V30 43682 O 3488.13 -5.12391 -7.179 0
M  V30 43683 O 3488.67 -5.99158 -4.88404 0
M  V30 43684 C 3489.61 -6.60234 -3.96415 0
M  V30 43685 C 3488.88 -7.08259 -2.72856 0
M  V30 43686 O 3488.67 -5.9427 -1.83651 0
M  V30 43687 C 3487.48 -7.64886 -2.9555 0
M  V30 43688 O 3487.09 -8.53963 -1.90717 0
M  V30 43689 C 3486.6 -6.4116 -2.90739 0
M  V30 43690 C 3487.31 -5.55375 -1.86963 0
M  V30 43691 N 3487.26 -4.09664 -2.15742 0
M  V30 43692 H 3490.1 -7.45574 -4.45629 0
M  V30 43693 H 3490.37 -5.86232 -3.67314 0
M  V30 43694 H 3489.5 -7.84412 -2.24479 0
M  V30 43695 P 3485.54 -8.7635 -1.60911 0
M  V30 43696 O 3485.32 -10.1388 -1.11561 0
M  V30 43697 O 3484.75 -8.36503 -2.79617 0
M  V30 43698 O 3485.29 -7.71806 -0.42951 0
M  V30 43699 C 3486.23 -7.67148 0.673689 0
M  V30 43700 C 3485.5 -7.33374 1.95559 0
M  V30 43701 O 3485.29 -5.88721 2.00726 0
M  V30 43702 C 3484.1 -7.92526 2.10483 0
M  V30 43703 O 3483.71 -8.02971 3.47653 0
M  V30 43704 C 3483.22 -6.89602 1.41652 0
M  V30 43705 C 3483.93 -5.59201 1.75185 0
M  V30 43706 N 3483.88 -4.58301 0.657969 0
M  V30 43707 C 3483.96 -4.79019 -0.692603 0
M  V30 43708 N 3483.89 -3.69736 -1.38998 0
M  V30 43709 C 3483.74 -2.70474 -0.438135 0
M  V30 43710 C 3483.61 -1.30327 -0.538142 0
M  V30 43711 N 3483.6 -0.64304 -1.69192 0
M  V30 43712 N 3483.49 -0.611027 0.605183 0
M  V30 43713 C 3483.5 -1.27002 1.75953 0
M  V30 43714 N 3483.62 -2.56038 1.98546 0
M  V30 43715 C 3483.74 -3.22681 0.822541 0
M  V30 43716 H 3486.72 -8.65116 0.777161 0
M  V30 43717 H 3486.99 -6.9022 0.46725 0
M  V30 43718 H 3486.12 -7.66548 2.79458 0
M  V30 43719 H 3483.47 -5.16165 2.65183 0
M  V30 43720 H 3483.19 -7.06433 0.329384 0
M  V30 43721 H 3482.2 -6.90926 1.82021 0
M  V30 43722 H 3484.03 -8.90873 1.62657 0
M  V30 43723 H 3484.07 -5.77785 -1.13874 0
M  V30 43724 H 3483.69 -1.15585 -2.57991 0
M  V30 43725 H 3483.5 0.382989 -1.69835 0
M  V30 43726 H 3483.39 -0.653331 2.64449 0
M  V30 43727 P 3482.16 -8.03563 3.84925 0
M  V30 43728 O 3481.94 -8.85821 5.0569 0
M  V30 43729 O 3481.37 -8.41101 2.65469 0
M  V30 43730 O 3481.91 -6.4965 4.18908 0
M  V30 43731 C 3482.85 -5.81037 5.05421 0
M  V30 43732 C 3482.12 -4.78366 5.89277 0
M  V30 43733 O 3481.91 -3.58302 5.08433 0
M  V30 43734 C 3480.72 -5.17448 6.36119 0
M  V30 43735 O 3480.33 -4.45271 7.53232 0
M  V30 43736 C 3479.84 -4.74639 5.19936 0
M  V30 43737 C 3480.55 -3.49432 4.70418 0
M  V30 43738 N 3480.5 -3.32099 3.22613 0
M  V30 43739 H 3483.34 -6.54213 5.71376 0
M  V30 43740 H 3483.61 -5.30936 4.43503 0
M  V30 43741 H 3482.74 -4.55889 6.76652 0
M  V30 43742 H 3480.09 -2.61715 5.17932 0
M  V30 43743 H 3479.81 -5.52155 4.41878 0
M  V30 43744 H 3478.82 -4.51981 5.53374 0
M  V30 43745 H 3480.65 -6.25124 6.55234 0
M  V30 43746 P 3478.78 -4.23843 7.83734 0
M  V30 43747 O 3478.56 -4.19407 9.29784 0
M  V30 43748 O 3477.99 -5.24426 7.09156 0
M  V30 43749 O 3478.53 -2.7935 7.20758 0
M  V30 43750 C 3479.47 -1.7299 7.50419 0
M  V30 43751 C 3478.74 -0.406376 7.57911 0
M  V30 43752 O 3478.53 0.0897726 6.21935 0
M  V30 43753 C 3477.34 -0.447224 8.1878 0
M  V30 43754 O 3476.95 0.825065 8.71101 0
M  V30 43755 C 3476.46 -0.783801 6.99623 0
M  V30 43756 C 3477.17 -0.0619192 5.85967 0
M  V30 43757 N 3477.12 -0.790462 4.56202 0
M  V30 43758 H 3479.96 -1.93423 8.4679 0
M  V30 43759 H 3480.23 -1.68852 6.70877 0
M  V30 43760 H 3479.36 0.289041 8.15388 0
M  V30 43761 H 3476.71 0.927006 5.72848 0
M  V30 43762 H 3476.43 -1.86973 6.82036 0
M  V30 43763 H 3475.44 -0.403953 7.13357 0
M  V30 43764 H 3477.27 -1.20599 8.97534 0
M  V30 43765 P 3475.4 1.17771 8.83182 0
M  V30 43766 O 3475.18 2.07206 9.98732 0
M  V30 43767 O 3474.61 -0.0743816 8.81969 0
M  V30 43768 O 3475.15 1.97652 7.47304 0
M  V30 43769 C 3476.09 3.01133 7.08783 0
M  V30 43770 C 3475.36 4.12613 6.37049 0
M  V30 43771 O 3475.15 3.72827 4.97879 0
M  V30 43772 C 3473.96 4.45085 6.88694 0
M  V30 43773 O 3473.57 5.7877 6.5624 0
M  V30 43774 C 3473.08 3.47817 6.12078 0
M  V30 43775 C 3473.79 3.39414 4.77697 0
M  V30 43776 N 3473.74 2.04615 4.15333 0
M  V30 43777 H 3476.58 3.41248 7.98759 0
M  V30 43778 H 3476.85 2.5837 6.41742 0
M  V30 43779 H 3475.98 5.02657 6.42673 0
M  V30 43780 P 3472.02 6.144 6.45285 0
M  V30 43781 O 3471.8 7.54673 6.86199 0
M  V30 43782 O 3471.23 5.12391 7.179 0
M  V30 43783 O 3471.77 5.99158 4.88404 0
M  V30 43784 C 3472.71 6.60234 3.96415 0
M  V30 43785 C 3471.98 7.08259 2.72856 0
M  V30 43786 O 3471.77 5.9427 1.83651 0
M  V30 43787 C 3470.58 7.64886 2.9555 0
M  V30 43788 O 3470.19 8.53963 1.90717 0
M  V30 43789 C 3469.7 6.4116 2.90739 0
M  V30 43790 C 3470.41 5.55375 1.86963 0
M  V30 43791 N 3470.36 4.09448 2.16152 0
M  V30 43792 C 3470.44 3.46824 3.37593 0
M  V30 43793 N 3470.37 2.17422 3.29777 0
M  V30 43794 C 3470.22 1.93065 1.94427 0
M  V30 43795 C 3470.09 0.738053 1.20141 0
M  V30 43796 N 3470.08 -0.474256 1.74676 0
M  V30 43797 N 3469.97 0.850049 -0.13045 0
M  V30 43798 C 3469.98 2.06169 -0.676992 0
M  V30 43799 N 3470.1 3.23842 -0.101312 0
M  V30 43800 C 3470.22 3.09402 1.23122 0
M  V30 43801 H 3473.2 7.45574 4.45629 0
M  V30 43802 H 3473.47 5.85864 3.679 0
M  V30 43803 H 3472.6 7.84412 2.24479 0
M  V30 43804 H 3469.95 5.73457 0.888562 0
M  V30 43805 H 3469.67 5.90877 3.88583 0
M  V30 43806 H 3468.68 6.6596 2.58858 0
M  V30 43807 H 3470.51 8.16339 3.92049 0
M  V30 43808 H 3470.55 4.00505 4.3174 0
M  V30 43809 H 3470.17 -0.581337 2.76658 0
M  V30 43810 H 3469.98 -1.30811 1.14888 0
M  V30 43811 H 3469.87 2.08295 -1.75542 0
M  V30 43812 P 3468.64 8.7635 1.60911 0
M  V30 43813 O 3468.42 10.1388 1.11561 0
M  V30 43814 O 3467.85 8.36503 2.79617 0
M  V30 43815 O 3468.39 7.71806 0.42951 0
M  V30 43816 C 3469.33 7.67148 -0.673689 0
M  V30 43817 C 3468.6 7.33374 -1.95559 0
M  V30 43818 O 3468.39 5.88721 -2.00726 0
M  V30 43819 C 3467.2 7.92526 -2.10483 0
M  V30 43820 O 3466.81 8.02971 -3.47653 0
M  V30 43821 C 3466.32 6.89602 -1.41652 0
M  V30 43822 C 3467.03 5.59201 -1.75185 0
M  V30 43823 N 3466.98 4.58235 -0.662552 0
M  V30 43824 H 3469.82 8.65116 -0.777161 0
M  V30 43825 H 3470.09 6.90173 -0.474152 0
M  V30 43826 H 3469.22 7.66548 -2.79458 0
M  V30 43827 P 3465.26 8.03563 -3.84925 0
M  V30 43828 O 3465.04 8.85821 -5.0569 0
M  V30 43829 O 3464.47 8.41101 -2.65469 0
M  V30 43830 O 3465.01 6.4965 -4.18908 0
M  V30 43831 C 3465.95 5.81037 -5.05421 0
M  V30 43832 C 3465.22 4.78366 -5.89277 0
M  V30 43833 O 3465.01 3.58302 -5.08433 0
M  V30 43834 C 3463.82 5.17448 -6.36119 0
M  V30 43835 O 3463.43 4.45271 -7.53232 0
M  V30 43836 C 3462.94 4.74639 -5.19936 0
M  V30 43837 C 3463.65 3.49432 -4.70418 0
M  V30 43838 N 3463.6 3.31776 -3.22945 0
M  V30 43839 H 3466.44 6.54213 -5.71376 0
M  V30 43840 H 3466.71 5.30492 -4.44033 0
M  V30 43841 H 3465.84 4.55889 -6.76652 0
M  V30 43842 P 3461.88 4.23843 -7.83734 0
M  V30 43843 O 3461.66 4.19407 -9.29784 0
M  V30 43844 O 3461.09 5.24426 -7.09156 0
M  V30 43845 O 3461.63 2.7935 -7.20758 0
M  V30 43846 C 3462.57 1.7299 -7.50419 0
M  V30 43847 C 3461.84 0.406376 -7.57911 0
M  V30 43848 O 3461.63 -0.0897726 -6.21935 0
M  V30 43849 C 3460.44 0.447224 -8.1878 0
M  V30 43850 O 3460.05 -0.825065 -8.71101 0
M  V30 43851 C 3459.56 0.783801 -6.99623 0
M  V30 43852 C 3460.27 0.0619192 -5.85967 0
M  V30 43853 N 3460.22 0.7859 -4.56281 0
M  V30 43854 H 3463.06 1.93423 -8.4679 0
M  V30 43855 H 3463.33 1.68181 -6.71046 0
M  V30 43856 H 3462.46 -0.289041 -8.15388 0
M  V30 43857 P 3458.5 -1.17771 -8.83182 0
M  V30 43858 O 3458.28 -2.07206 -9.98732 0
M  V30 43859 O 3457.71 0.0743816 -8.81969 0
M  V30 43860 O 3458.25 -1.97652 -7.47304 0
M  V30 43861 C 3459.19 -3.01055 -7.08599 0
M  V30 43862 C 3458.46 -4.12613 -6.37049 0
M  V30 43863 O 3458.25 -3.72827 -4.97879 0
M  V30 43864 C 3457.06 -4.45719 -6.88164 0
M  V30 43865 O 3456.67 -5.7877 -6.5624 0
M  V30 43866 C 3456.18 -3.47768 -6.11991 0
M  V30 43867 C 3456.89 -3.39356 -4.77615 0
M  V30 43868 N 3456.84 -2.04571 -4.15244 0
M  V30 43869 C 3456.69 -1.98587 -2.78314 0
M  V30 43870 O 3456.6 -2.98134 -2.08835 0
M  V30 43871 N 3456.65 -0.714467 -2.24925 0
M  V30 43872 C 3456.74 0.470001 -2.94169 0
M  V30 43873 C 3456.89 0.312541 -4.36783 0
M  V30 43874 C 3456.94 -0.914512 -4.92583 0
M  V30 43875 H 3459.68 -3.41169 -7.98575 0
M  V30 43876 H 3459.95 -2.58295 -6.41556 0
M  V30 43877 H 3459.08 -5.02657 -6.42673 0
M  V30 43878 H 3456.43 -4.11637 -4.08885 0
M  V30 43879 H 3456.15 -2.49626 -6.61679 0
M  V30 43880 H 3455.16 -3.86566 -6.00778 0
M  V30 43881 H 3456.99 -4.29943 -7.96918 0
M  V30 43882 H 3457.06 -1.00937 -6.00374 0
M  V30 43883 P 3455.12 -6.144 -6.45285 0
M  V30 43884 O 3454.9 -7.54673 -6.86199 0
M  V30 43885 O 3454.33 -5.12391 -7.179 0
M  V30 43886 O 3454.87 -5.99158 -4.88404 0
M  V30 43887 C 3455.81 -6.60234 -3.96415 0
M  V30 43888 C 3455.08 -7.08259 -2.72856 0
M  V30 43889 O 3454.87 -5.9427 -1.83651 0
M  V30 43890 C 3453.68 -7.64886 -2.9555 0
M  V30 43891 O 3453.29 -8.53963 -1.90717 0
M  V30 43892 C 3452.8 -6.4116 -2.90739 0
M  V30 43893 C 3453.51 -5.55375 -1.86963 0
M  V30 43894 N 3453.46 -4.09664 -2.15742 0
M  V30 43895 C 3453.54 -3.44381 -3.37233 0
M  V30 43896 N 3453.46 -2.14131 -3.28347 0
M  V30 43897 C 3453.32 -1.90247 -1.91588 0
M  V30 43898 C 3453.19 -0.683992 -1.20892 0
M  V30 43899 N 3453.07 -0.903396 0.173998 0
M  V30 43900 C 3453.07 -2.14171 0.784879 0
M  V30 43901 N 3452.94 -2.1435 2.11317 0
M  V30 43902 N 3453.2 -3.28784 0.119316 0
M  V30 43903 C 3453.32 -3.0977 -1.22194 0
M  V30 43904 H 3456.3 -7.45574 -4.45629 0
M  V30 43905 H 3456.57 -5.86232 -3.67314 0
M  V30 43906 H 3455.7 -7.84412 -2.24479 0
M  V30 43907 P 3451.74 -8.7635 -1.60911 0
M  V30 43908 O 3451.52 -10.1388 -1.11561 0
M  V30 43909 O 3450.95 -8.36503 -2.79617 0
M  V30 43910 O 3451.49 -7.71806 -0.42951 0
M  V30 43911 C 3452.43 -7.67148 0.673689 0
M  V30 43912 C 3451.7 -7.33374 1.95559 0
M  V30 43913 O 3451.49 -5.88721 2.00726 0
M  V30 43914 C 3450.3 -7.92526 2.10483 0
M  V30 43915 O 3449.91 -8.02971 3.47653 0
M  V30 43916 C 3449.42 -6.89602 1.41652 0
M  V30 43917 C 3450.13 -5.59201 1.75185 0
M  V30 43918 N 3450.08 -4.58235 0.662552 0
M  V30 43919 H 3452.92 -8.65116 0.777161 0
M  V30 43920 H 3453.19 -6.90173 0.474152 0
M  V30 43921 H 3452.32 -7.66548 2.79458 0
M  V30 43922 P 3448.36 -8.03563 3.84925 0
M  V30 43923 O 3448.14 -8.85821 5.0569 0
M  V30 43924 O 3447.57 -8.41101 2.65469 0
M  V30 43925 O 3448.11 -6.4965 4.18908 0
M  V30 43926 C 3449.05 -5.81037 5.05421 0
M  V30 43927 C 3448.32 -4.78366 5.89277 0
M  V30 43928 O 3448.11 -3.58302 5.08433 0
M  V30 43929 C 3446.92 -5.17448 6.36119 0
M  V30 43930 O 3446.53 -4.45271 7.53232 0
M  V30 43931 C 3446.04 -4.74639 5.19936 0
M  V30 43932 C 3446.75 -3.49432 4.70418 0
M  V30 43933 N 3446.7 -3.32099 3.22613 0
M  V30 43934 H 3449.54 -6.54213 5.71376 0
M  V30 43935 H 3449.81 -5.30936 4.43503 0
M  V30 43936 H 3448.94 -4.55889 6.76652 0
M  V30 43937 H 3446.29 -2.61715 5.17932 0
M  V30 43938 H 3446.01 -5.52155 4.41878 0
M  V30 43939 H 3445.02 -4.51981 5.53374 0
M  V30 43940 H 3446.85 -6.25124 6.55234 0
M  V30 43941 P 3444.98 -4.23843 7.83734 0
M  V30 43942 O 3444.76 -4.19407 9.29784 0
M  V30 43943 O 3444.19 -5.24426 7.09156 0
M  V30 43944 O 3444.73 -2.7935 7.20758 0
M  V30 43945 C 3445.67 -1.7299 7.50419 0
M  V30 43946 C 3444.94 -0.406376 7.57911 0
M  V30 43947 O 3444.73 0.0897726 6.21935 0
M  V30 43948 C 3443.54 -0.447224 8.1878 0
M  V30 43949 O 3443.15 0.825065 8.71101 0
M  V30 43950 C 3442.66 -0.783801 6.99623 0
M  V30 43951 C 3443.37 -0.0619192 5.85967 0
M  V30 43952 N 3443.32 -0.7859 4.56281 0
M  V30 43953 H 3446.16 -1.93423 8.4679 0
M  V30 43954 H 3446.43 -1.68181 6.71046 0
M  V30 43955 H 3445.56 0.289041 8.15388 0
M  V30 43956 P 3441.6 1.17771 8.83182 0
M  V30 43957 O 3441.38 2.07206 9.98732 0
M  V30 43958 O 3440.81 -0.0743816 8.81969 0
M  V30 43959 O 3441.35 1.97652 7.47304 0
M  V30 43960 C 3442.29 3.01133 7.08783 0
M  V30 43961 C 3441.56 4.12613 6.37049 0
M  V30 43962 O 3441.35 3.72827 4.97879 0
M  V30 43963 C 3440.16 4.45085 6.88694 0
M  V30 43964 O 3439.77 5.7877 6.5624 0
M  V30 43965 C 3439.28 3.47817 6.12078 0
M  V30 43966 C 3439.99 3.39414 4.77697 0
M  V30 43967 N 3439.94 2.04615 4.15333 0
M  V30 43968 H 3442.78 3.41248 7.98759 0
M  V30 43969 H 3443.05 2.5837 6.41742 0
M  V30 43970 H 3442.18 5.02657 6.42673 0
M  V30 43971 P 3438.22 6.144 6.45285 0
M  V30 43972 O 3438 7.54673 6.86199 0
M  V30 43973 O 3437.43 5.12391 7.179 0
M  V30 43974 O 3437.97 5.99158 4.88404 0
M  V30 43975 C 3438.91 6.60062 3.96313 0
M  V30 43976 C 3438.18 7.08259 2.72856 0
M  V30 43977 O 3437.97 5.9427 1.83651 0
M  V30 43978 C 3436.78 7.65087 2.94749 0
M  V30 43979 O 3436.39 8.53963 1.90717 0
M  V30 43980 C 3435.9 6.41069 2.90698 0
M  V30 43981 C 3436.61 5.5528 1.86931 0
M  V30 43982 N 3436.56 4.09575 2.15696 0
M  V30 43983 C 3436.41 3.24249 1.08435 0
M  V30 43984 O 3436.32 3.63946 -0.0628747 0
M  V30 43985 N 3436.37 1.90009 1.39973 0
M  V30 43986 C 3436.46 1.34884 2.65614 0
M  V30 43987 C 3436.61 2.3145 3.71736 0
M  V30 43988 C 3436.66 3.63518 3.44754 0
M  V30 43989 H 3439.4 7.45402 4.45526 0
M  V30 43990 H 3439.67 5.86062 3.67208 0
M  V30 43991 H 3438.8 7.84412 2.24479 0
M  V30 43992 H 3436.15 5.73358 0.888409 0
M  V30 43993 H 3435.87 5.90877 3.88583 0
M  V30 43994 H 3434.88 6.65867 2.58821 0
M  V30 43995 H 3436.71 8.16248 3.92006 0
M  V30 43996 H 3436.78 4.34551 4.26383 0
M  V30 43997 P 3434.84 8.7635 1.60911 0
M  V30 43998 O 3434.62 10.1388 1.11561 0
M  V30 43999 O 3434.05 8.36503 2.79617 0
M  V30 44000 O 3434.59 7.71806 0.42951 0
M  V30 44001 C 3435.53 7.67148 -0.673689 0
M  V30 44002 C 3434.8 7.33374 -1.95559 0
M  V30 44003 O 3434.59 5.88721 -2.00726 0
M  V30 44004 C 3433.4 7.92526 -2.10483 0
M  V30 44005 O 3433.01 8.02971 -3.47653 0
M  V30 44006 C 3432.52 6.89602 -1.41652 0
M  V30 44007 C 3433.23 5.59201 -1.75185 0
M  V30 44008 N 3433.18 4.58235 -0.662552 0
M  V30 44009 H 3436.02 8.65116 -0.777161 0
M  V30 44010 H 3436.29 6.90173 -0.474152 0
M  V30 44011 H 3435.42 7.66548 -2.79458 0
M  V30 44012 P 3431.46 8.03563 -3.84925 0
M  V30 44013 O 3431.24 8.85821 -5.0569 0
M  V30 44014 O 3430.67 8.41101 -2.65469 0
M  V30 44015 O 3431.21 6.4965 -4.18908 0
M  V30 44016 C 3432.15 5.81037 -5.05421 0
M  V30 44017 C 3431.42 4.78366 -5.89277 0
M  V30 44018 O 3431.21 3.58302 -5.08433 0
M  V30 44019 C 3430.02 5.17448 -6.36119 0
M  V30 44020 O 3429.63 4.45271 -7.53232 0
M  V30 44021 C 3429.14 4.74639 -5.19936 0
M  V30 44022 C 3429.85 3.49432 -4.70418 0
M  V30 44023 N 3429.8 3.32099 -3.22613 0
M  V30 44024 H 3432.64 6.54213 -5.71376 0
M  V30 44025 H 3432.91 5.30936 -4.43503 0
M  V30 44026 H 3432.04 4.55889 -6.76652 0
M  V30 44027 H 3429.39 2.61715 -5.17932 0
M  V30 44028 H 3429.11 5.52155 -4.41878 0
M  V30 44029 H 3428.12 4.51981 -5.53374 0
M  V30 44030 H 3429.95 6.25124 -6.55234 0
M  V30 44031 P 3428.08 4.23843 -7.83734 0
M  V30 44032 O 3427.86 4.19407 -9.29784 0
M  V30 44033 O 3427.29 5.24426 -7.09156 0
M  V30 44034 O 3427.83 2.7935 -7.20758 0
M  V30 44035 C 3428.77 1.7299 -7.50419 0
M  V30 44036 C 3428.04 0.406376 -7.57911 0
M  V30 44037 O 3427.83 -0.0897726 -6.21935 0
M  V30 44038 C 3426.64 0.447224 -8.1878 0
M  V30 44039 O 3426.25 -0.825065 -8.71101 0
M  V30 44040 C 3425.76 0.783801 -6.99623 0
M  V30 44041 C 3426.47 0.0619192 -5.85967 0
M  V30 44042 N 3426.42 0.7859 -4.56281 0
M  V30 44043 H 3429.26 1.93423 -8.4679 0
M  V30 44044 H 3429.53 1.68181 -6.71046 0
M  V30 44045 H 3428.66 -0.289041 -8.15388 0
M  V30 44046 P 3424.7 -1.17771 -8.83182 0
M  V30 44047 O 3424.48 -2.07206 -9.98732 0
M  V30 44048 O 3423.91 0.0743816 -8.81969 0
M  V30 44049 O 3424.45 -1.97652 -7.47304 0
M  V30 44050 C 3425.39 -3.01133 -7.08783 0
M  V30 44051 C 3424.66 -4.12613 -6.37049 0
M  V30 44052 O 3424.45 -3.72827 -4.97879 0
M  V30 44053 C 3423.26 -4.45085 -6.88694 0
M  V30 44054 O 3422.87 -5.7877 -6.5624 0
M  V30 44055 C 3422.38 -3.47817 -6.12078 0
M  V30 44056 C 3423.09 -3.39414 -4.77697 0
M  V30 44057 N 3423.04 -2.04199 -4.15538 0
M  V30 44058 H 3425.88 -3.41248 -7.98759 0
M  V30 44059 H 3426.15 -2.57728 -6.42 0
M  V30 44060 H 3425.28 -5.02657 -6.42673 0
M  V30 44061 H 3422.63 -4.11708 -4.08956 0
M  V30 44062 H 3422.35 -2.49626 -6.61679 0
M  V30 44063 H 3421.36 -3.8662 -6.00862 0
M  V30 44064 H 3423.19 -4.29991 -7.97006 0
M  V30 44065 P 3421.32 -6.144 -6.45285 0
M  V30 44066 O 3421.1 -7.54673 -6.86199 0
M  V30 44067 O 3420.53 -5.12391 -7.179 0
M  V30 44068 O 3421.07 -5.99158 -4.88404 0
M  V30 44069 C 3422.01 -6.60234 -3.96415 0
M  V30 44070 C 3421.28 -7.08259 -2.72856 0
M  V30 44071 O 3421.07 -5.9427 -1.83651 0
M  V30 44072 C 3419.88 -7.64886 -2.9555 0
M  V30 44073 O 3419.49 -8.53963 -1.90717 0
M  V30 44074 C 3419 -6.4116 -2.90739 0
M  V30 44075 C 3419.71 -5.55375 -1.86963 0
M  V30 44076 N 3419.66 -4.09448 -2.16152 0
M  V30 44077 C 3419.74 -3.46824 -3.37593 0
M  V30 44078 N 3419.67 -2.17422 -3.29777 0
M  V30 44079 C 3419.52 -1.93065 -1.94427 0
M  V30 44080 C 3419.39 -0.738053 -1.20141 0
M  V30 44081 N 3419.38 0.474256 -1.74676 0
M  V30 44082 N 3419.27 -0.850049 0.13045 0
M  V30 44083 C 3419.28 -2.06169 0.676992 0
M  V30 44084 N 3419.4 -3.23842 0.101312 0
M  V30 44085 C 3419.52 -3.09402 -1.23122 0
M  V30 44086 H 3422.5 -7.45574 -4.45629 0
M  V30 44087 H 3422.77 -5.85864 -3.679 0
M  V30 44088 H 3421.9 -7.84412 -2.24479 0
M  V30 44089 H 3419.25 -5.73457 -0.888562 0
M  V30 44090 H 3418.97 -5.90877 -3.88583 0
M  V30 44091 H 3417.98 -6.6596 -2.58858 0
M  V30 44092 H 3419.81 -8.16339 -3.92049 0
M  V30 44093 H 3419.85 -4.00505 -4.3174 0
M  V30 44094 H 3419.47 0.581337 -2.76658 0
M  V30 44095 H 3419.28 1.30811 -1.14888 0
M  V30 44096 H 3419.17 -2.08295 1.75542 0
M  V30 44097 P 3417.94 -8.7635 -1.60911 0
M  V30 44098 O 3417.72 -10.1388 -1.11561 0
M  V30 44099 O 3417.15 -8.36503 -2.79617 0
M  V30 44100 O 3417.69 -7.71806 -0.42951 0
M  V30 44101 C 3418.63 -7.67148 0.673689 0
M  V30 44102 C 3417.9 -7.33374 1.95559 0
M  V30 44103 O 3417.69 -5.88721 2.00726 0
M  V30 44104 C 3416.5 -7.92526 2.10483 0
M  V30 44105 O 3416.11 -8.02971 3.47653 0
M  V30 44106 C 3415.62 -6.89602 1.41652 0
M  V30 44107 C 3416.33 -5.59201 1.75185 0
M  V30 44108 N 3416.28 -4.58235 0.662552 0
M  V30 44109 H 3419.12 -8.65116 0.777161 0
M  V30 44110 H 3419.39 -6.90173 0.474152 0
M  V30 44111 H 3418.52 -7.66548 2.79458 0
M  V30 44112 P 3414.56 -8.03563 3.84925 0
M  V30 44113 O 3414.34 -8.85821 5.0569 0
M  V30 44114 O 3413.77 -8.41101 2.65469 0
M  V30 44115 O 3414.31 -6.4965 4.18908 0
M  V30 44116 C 3415.25 -5.81037 5.05421 0
M  V30 44117 C 3414.52 -4.78366 5.89277 0
M  V30 44118 O 3414.31 -3.58302 5.08433 0
M  V30 44119 C 3413.12 -5.17448 6.36119 0
M  V30 44120 O 3412.73 -4.45271 7.53232 0
M  V30 44121 C 3412.24 -4.74639 5.19936 0
M  V30 44122 C 3412.95 -3.49432 4.70418 0
M  V30 44123 N 3412.9 -3.31776 3.22945 0
M  V30 44124 H 3415.74 -6.54213 5.71376 0
M  V30 44125 H 3416.01 -5.30492 4.44033 0
M  V30 44126 H 3415.14 -4.55889 6.76652 0
M  V30 44127 P 3411.18 -4.23843 7.83734 0
M  V30 44128 O 3410.96 -4.19407 9.29784 0
M  V30 44129 O 3410.39 -5.24426 7.09156 0
M  V30 44130 O 3410.93 -2.7935 7.20758 0
M  V30 44131 C 3411.87 -1.7299 7.50419 0
M  V30 44132 C 3411.14 -0.406376 7.57911 0
M  V30 44133 O 3410.93 0.0897726 6.21935 0
M  V30 44134 C 3409.74 -0.447224 8.1878 0
M  V30 44135 O 3409.35 0.825065 8.71101 0
M  V30 44136 C 3408.86 -0.783801 6.99623 0
M  V30 44137 C 3409.57 -0.0619192 5.85967 0
M  V30 44138 N 3409.52 -0.7859 4.56281 0
M  V30 44139 H 3412.36 -1.93423 8.4679 0
M  V30 44140 H 3412.63 -1.68181 6.71046 0
M  V30 44141 H 3411.76 0.289041 8.15388 0
M  V30 44142 P 3407.8 1.17771 8.83182 0
M  V30 44143 O 3407.58 2.07206 9.98732 0
M  V30 44144 O 3407.01 -0.0743816 8.81969 0
M  V30 44145 O 3407.55 1.97652 7.47304 0
M  V30 44146 C 3408.49 3.01055 7.08599 0
M  V30 44147 C 3407.76 4.12613 6.37049 0
M  V30 44148 O 3407.55 3.72827 4.97879 0
M  V30 44149 C 3406.36 4.45719 6.88164 0
M  V30 44150 O 3405.97 5.7877 6.5624 0
M  V30 44151 C 3405.48 3.47768 6.11991 0
M  V30 44152 C 3406.19 3.39356 4.77615 0
M  V30 44153 N 3406.14 2.04571 4.15244 0
M  V30 44154 C 3405.99 1.98587 2.78314 0
M  V30 44155 O 3405.9 2.98134 2.08835 0
M  V30 44156 N 3405.95 0.714467 2.24925 0
M  V30 44157 C 3406.04 -0.470001 2.94169 0
M  V30 44158 C 3406.19 -0.312541 4.36783 0
M  V30 44159 C 3406.24 0.914512 4.92583 0
M  V30 44160 H 3408.98 3.41169 7.98575 0
M  V30 44161 H 3409.25 2.58295 6.41556 0
M  V30 44162 H 3408.38 5.02657 6.42673 0
M  V30 44163 H 3405.73 4.11637 4.08885 0
M  V30 44164 H 3405.45 2.49626 6.61679 0
M  V30 44165 H 3404.46 3.86566 6.00778 0
M  V30 44166 H 3406.29 4.29943 7.96918 0
M  V30 44167 H 3406.36 1.00937 6.00374 0
M  V30 44168 P 3404.42 6.144 6.45285 0
M  V30 44169 O 3404.2 7.54673 6.86199 0
M  V30 44170 O 3403.63 5.12391 7.179 0
M  V30 44171 O 3404.17 5.99236 4.88467 0
M  V30 44172 C 3405.11 6.60234 3.96415 0
M  V30 44173 C 3404.38 7.08079 2.736 0
M  V30 44174 O 3404.17 5.94365 1.8368 0
M  V30 44175 C 3402.98 7.64886 2.9555 0
M  V30 44176 O 3402.59 8.5406 1.90739 0
M  V30 44177 C 3402.1 6.4116 2.90739 0
M  V30 44178 C 3402.81 5.55375 1.86963 0
M  V30 44179 N 3402.76 4.09664 2.15742 0
M  V30 44180 C 3402.61 3.22231 1.08477 0
M  V30 44181 O 3402.52 3.68951 -0.0600489 0
M  V30 44182 N 3402.56 1.76692 1.48799 0
M  V30 44183 C 3402.66 1.41695 2.57602 0
M  V30 44184 N 3402.61 0.107296 2.75791 0
M  V30 44185 C 3402.81 2.29178 3.69733 0
M  V30 44186 C 3402.86 3.62753 3.42653 0
M  V30 44187 H 3405.6 7.45488 4.45578 0
M  V30 44188 H 3405.87 5.86232 3.67314 0
M  V30 44189 H 3405 7.84508 2.24507 0
M  V30 44190 H 3402.35 5.73556 0.888715 0
M  V30 44191 H 3402.07 5.9096 3.88638 0
M  V30 44192 H 3401.08 6.66053 2.58894 0
M  V30 44193 H 3402.91 8.16339 3.92049 0
M  V30 44194 H 3402.98 4.33052 4.24913 0
M  V30 44195 H 3402.88 1.9103 4.71577 0
M  V30 44196 H 3402.49 -0.521221 1.95056 0
M  V30 44197 H 3402.69 -0.286429 3.70695 0
M  V30 44198 P 3401.04 8.7635 1.60911 0
M  V30 44199 O 3400.82 10.1388 1.11561 0
M  V30 44200 O 3400.25 8.36503 2.79617 0
M  V30 44201 O 3400.79 7.71806 0.42951 0
M  V30 44202 C 3401.73 7.67148 -0.673689 0
M  V30 44203 C 3401 7.33374 -1.95559 0
M  V30 44204 O 3400.79 5.88721 -2.00726 0
M  V30 44205 C 3399.6 7.92526 -2.10483 0
M  V30 44206 O 3399.21 8.02971 -3.47653 0
M  V30 44207 C 3398.72 6.89602 -1.41652 0
M  V30 44208 C 3399.43 5.59201 -1.75185 0
M  V30 44209 N 3399.38 4.58235 -0.662552 0
M  V30 44210 H 3402.22 8.65116 -0.777161 0
M  V30 44211 H 3402.49 6.90173 -0.474152 0
M  V30 44212 H 3401.62 7.66548 -2.79458 0
M  V30 44213 P 3397.66 8.03563 -3.84925 0
M  V30 44214 O 3397.44 8.85821 -5.0569 0
M  V30 44215 O 3396.87 8.41101 -2.65469 0
M  V30 44216 O 3397.41 6.4965 -4.18908 0
M  V30 44217 C 3398.35 5.81037 -5.05421 0
M  V30 44218 C 3397.62 4.78366 -5.89277 0
M  V30 44219 O 3397.41 3.58302 -5.08433 0
M  V30 44220 C 3396.22 5.17448 -6.36119 0
M  V30 44221 O 3395.83 4.45271 -7.53232 0
M  V30 44222 C 3395.34 4.74639 -5.19936 0
M  V30 44223 C 3396.05 3.49432 -4.70418 0
M  V30 44224 N 3396 3.32099 -3.22613 0
M  V30 44225 H 3398.84 6.54213 -5.71376 0
M  V30 44226 H 3399.11 5.30936 -4.43503 0
M  V30 44227 H 3398.24 4.55889 -6.76652 0
M  V30 44228 H 3395.59 2.61715 -5.17932 0
M  V30 44229 H 3395.31 5.52155 -4.41878 0
M  V30 44230 H 3394.32 4.51981 -5.53374 0
M  V30 44231 H 3396.15 6.25124 -6.55234 0
M  V30 44232 P 3394.28 4.23843 -7.83734 0
M  V30 44233 O 3394.06 4.19407 -9.29784 0
M  V30 44234 O 3393.49 5.24426 -7.09156 0
M  V30 44235 O 3394.03 2.7935 -7.20758 0
M  V30 44236 C 3394.97 1.7299 -7.50419 0
M  V30 44237 C 3394.24 0.406376 -7.57911 0
M  V30 44238 O 3394.03 -0.0897726 -6.21935 0
M  V30 44239 C 3392.84 0.447224 -8.1878 0
M  V30 44240 O 3392.45 -0.825065 -8.71101 0
M  V30 44241 C 3391.96 0.783801 -6.99623 0
M  V30 44242 C 3392.67 0.0619192 -5.85967 0
M  V30 44243 N 3392.62 0.790462 -4.56202 0
M  V30 44244 H 3395.46 1.93423 -8.4679 0
M  V30 44245 H 3395.73 1.68852 -6.70877 0
M  V30 44246 H 3394.86 -0.289041 -8.15388 0
M  V30 44247 H 3392.21 -0.927006 -5.72848 0
M  V30 44248 H 3391.93 1.86973 -6.82036 0
M  V30 44249 H 3390.94 0.403953 -7.13357 0
M  V30 44250 H 3392.77 1.20599 -8.97534 0
M  V30 44251 P 3390.9 -1.17771 -8.83182 0
M  V30 44252 O 3390.68 -2.07206 -9.98732 0
M  V30 44253 O 3390.11 0.0743816 -8.81969 0
M  V30 44254 O 3390.65 -1.97652 -7.47304 0
M  V30 44255 C 3391.59 -3.01133 -7.08783 0
M  V30 44256 C 3390.86 -4.12613 -6.37049 0
M  V30 44257 O 3390.65 -3.72827 -4.97879 0
M  V30 44258 C 3389.46 -4.45085 -6.88694 0
M  V30 44259 O 3389.07 -5.7877 -6.5624 0
M  V30 44260 C 3388.58 -3.47817 -6.12078 0
M  V30 44261 C 3389.29 -3.39414 -4.77697 0
M  V30 44262 N 3389.24 -2.04199 -4.15538 0
M  V30 44263 H 3392.08 -3.41248 -7.98759 0
M  V30 44264 H 3392.35 -2.57728 -6.42 0
M  V30 44265 H 3391.48 -5.02657 -6.42673 0
M  V30 44266 H 3388.83 -4.11708 -4.08956 0
M  V30 44267 H 3388.55 -2.49626 -6.61679 0
M  V30 44268 H 3387.56 -3.8662 -6.00862 0
M  V30 44269 H 3389.39 -4.29991 -7.97006 0
M  V30 44270 P 3387.52 -6.144 -6.45285 0
M  V30 44271 O 3387.3 -7.54673 -6.86199 0
M  V30 44272 O 3386.73 -5.12391 -7.179 0
M  V30 44273 O 3387.27 -5.99158 -4.88404 0
M  V30 44274 C 3388.21 -6.60234 -3.96415 0
M  V30 44275 C 3387.48 -7.08259 -2.72856 0
M  V30 44276 O 3387.27 -5.9427 -1.83651 0
M  V30 44277 C 3386.08 -7.64886 -2.9555 0
M  V30 44278 O 3385.69 -8.53963 -1.90717 0
M  V30 44279 C 3385.2 -6.4116 -2.90739 0
M  V30 44280 C 3385.91 -5.55375 -1.86963 0
M  V30 44281 N 3385.86 -4.09664 -2.15742 0
M  V30 44282 H 3388.7 -7.45574 -4.45629 0
M  V30 44283 H 3388.97 -5.86232 -3.67314 0
M  V30 44284 H 3388.1 -7.84412 -2.24479 0
M  V30 44285 P 3384.14 -8.7635 -1.60911 0
M  V30 44286 O 3383.92 -10.1388 -1.11561 0
M  V30 44287 O 3383.35 -8.36503 -2.79617 0
M  V30 44288 O 3383.89 -7.71806 -0.42951 0
M  V30 44289 C 3384.83 -7.67148 0.673689 0
M  V30 44290 C 3384.1 -7.33374 1.95559 0
M  V30 44291 O 3383.89 -5.88721 2.00726 0
M  V30 44292 C 3382.7 -7.92526 2.10483 0
M  V30 44293 O 3382.31 -8.02971 3.47653 0
M  V30 44294 C 3381.82 -6.89602 1.41652 0
M  V30 44295 C 3382.53 -5.59201 1.75185 0
M  V30 44296 N 3382.48 -4.58235 0.662552 0
M  V30 44297 C 3382.56 -4.7683 -0.704049 0
M  V30 44298 N 3382.48 -3.66233 -1.39775 0
M  V30 44299 C 3382.34 -2.66526 -0.431739 0
M  V30 44300 C 3382.21 -1.26394 -0.575992 0
M  V30 44301 O 3382.19 -0.589894 -1.60503 0
M  V30 44302 N 3382.09 -0.62859 0.67177 0
M  V30 44303 C 3382.09 -1.27134 1.89385 0
M  V30 44304 N 3381.96 -0.492035 2.96951 0
M  V30 44305 N 3382.22 -2.58978 2.02907 0
M  V30 44306 C 3382.34 -3.22433 0.832218 0
M  V30 44307 H 3385.32 -8.65116 0.777161 0
M  V30 44308 H 3385.59 -6.90173 0.474152 0
M  V30 44309 H 3384.72 -7.66548 2.79458 0
M  V30 44310 H 3382.07 -5.16254 2.65229 0
M  V30 44311 H 3381.79 -7.06532 0.329431 0
M  V30 44312 H 3380.8 -6.91023 1.82047 0
M  V30 44313 H 3382.63 -8.90971 1.62675 0
M  V30 44314 H 3382.68 -5.74954 -1.16305 0
M  V30 44315 H 3382 0.366713 0.674793 0
M  V30 44316 H 3381.96 -0.908532 3.91188 0
M  V30 44317 H 3381.86 0.528253 2.85758 0
M  V30 44318 P 3380.76 -8.03563 3.84925 0
M  V30 44319 O 3380.54 -8.85821 5.0569 0
M  V30 44320 O 3379.97 -8.41101 2.65469 0
M  V30 44321 O 3380.51 -6.4965 4.18908 0
M  V30 44322 C 3381.45 -5.81037 5.05421 0
M  V30 44323 C 3380.72 -4.78366 5.89277 0
M  V30 44324 O 3380.51 -3.58302 5.08433 0
M  V30 44325 C 3379.32 -5.17448 6.36119 0
M  V30 44326 O 3378.93 -4.45271 7.53232 0
M  V30 44327 C 3378.44 -4.74639 5.19936 0
M  V30 44328 C 3379.15 -3.49432 4.70418 0
M  V30 44329 N 3379.1 -3.31776 3.22945 0
M  V30 44330 H 3381.94 -6.54213 5.71376 0
M  V30 44331 H 3382.21 -5.30492 4.44033 0
M  V30 44332 H 3381.34 -4.55889 6.76652 0
M  V30 44333 P 3377.38 -4.23843 7.83734 0
M  V30 44334 O 3377.16 -4.19407 9.29784 0
M  V30 44335 O 3376.59 -5.24426 7.09156 0
M  V30 44336 O 3377.13 -2.7935 7.20758 0
M  V30 44337 C 3378.07 -1.7299 7.50419 0
M  V30 44338 C 3377.34 -0.406376 7.57911 0
M  V30 44339 O 3377.13 0.0897726 6.21935 0
M  V30 44340 C 3375.94 -0.447224 8.1878 0
M  V30 44341 O 3375.55 0.825065 8.71101 0
M  V30 44342 C 3375.06 -0.783801 6.99623 0
M  V30 44343 C 3375.77 -0.0619192 5.85967 0
M  V30 44344 N 3375.72 -0.7859 4.56281 0
M  V30 44345 H 3378.56 -1.93423 8.4679 0
M  V30 44346 H 3378.83 -1.68181 6.71046 0
M  V30 44347 H 3377.96 0.289041 8.15388 0
M  V30 44348 P 3374 1.17771 8.83182 0
M  V30 44349 O 3373.78 2.07206 9.98732 0
M  V30 44350 O 3373.21 -0.0743816 8.81969 0
M  V30 44351 O 3373.75 1.97652 7.47304 0
M  V30 44352 C 3374.69 3.01133 7.08783 0
M  V30 44353 C 3373.96 4.12613 6.37049 0
M  V30 44354 O 3373.75 3.72827 4.97879 0
M  V30 44355 C 3372.56 4.45085 6.88694 0
M  V30 44356 O 3372.17 5.7877 6.5624 0
M  V30 44357 C 3371.68 3.47817 6.12078 0
M  V30 44358 C 3372.39 3.39414 4.77697 0
M  V30 44359 N 3372.34 2.04615 4.15333 0
M  V30 44360 H 3375.18 3.41248 7.98759 0
M  V30 44361 H 3375.45 2.5837 6.41742 0
M  V30 44362 H 3374.58 5.02657 6.42673 0
M  V30 44363 P 3370.62 6.144 6.45285 0
M  V30 44364 O 3370.4 7.54673 6.86199 0
M  V30 44365 O 3369.83 5.12391 7.179 0
M  V30 44366 O 3370.37 5.99158 4.88404 0
M  V30 44367 C 3371.31 6.60234 3.96415 0
M  V30 44368 C 3370.58 7.08259 2.72856 0
M  V30 44369 O 3370.37 5.9427 1.83651 0
M  V30 44370 C 3369.18 7.64886 2.9555 0
M  V30 44371 O 3368.79 8.53963 1.90717 0
M  V30 44372 C 3368.3 6.4116 2.90739 0
M  V30 44373 C 3369.01 5.55375 1.86963 0
M  V30 44374 N 3368.96 4.09448 2.16152 0
M  V30 44375 H 3371.8 7.45574 4.45629 0
M  V30 44376 H 3372.07 5.85864 3.679 0
M  V30 44377 H 3371.2 7.84412 2.24479 0
M  V30 44378 H 3368.55 5.73457 0.888562 0
M  V30 44379 H 3368.27 5.90877 3.88583 0
M  V30 44380 H 3367.28 6.6596 2.58858 0
M  V30 44381 H 3369.11 8.16339 3.92049 0
M  V30 44382 P 3367.24 8.7635 1.60911 0
M  V30 44383 O 3367.02 10.1388 1.11561 0
M  V30 44384 O 3366.45 8.36503 2.79617 0
M  V30 44385 O 3366.99 7.71806 0.42951 0
M  V30 44386 C 3367.93 7.67148 -0.673689 0
M  V30 44387 C 3367.2 7.33374 -1.95559 0
M  V30 44388 O 3366.99 5.88721 -2.00726 0
M  V30 44389 C 3365.8 7.92526 -2.10483 0
M  V30 44390 O 3365.41 8.02971 -3.47653 0
M  V30 44391 C 3364.92 6.89602 -1.41652 0
M  V30 44392 C 3365.63 5.59201 -1.75185 0
M  V30 44393 N 3365.58 4.58235 -0.662552 0
M  V30 44394 H 3368.42 8.65116 -0.777161 0
M  V30 44395 H 3368.69 6.90173 -0.474152 0
M  V30 44396 H 3367.82 7.66548 -2.79458 0
M  V30 44397 P 3363.86 8.03563 -3.84925 0
M  V30 44398 O 3363.64 8.85821 -5.0569 0
M  V30 44399 O 3363.07 8.41101 -2.65469 0
M  V30 44400 O 3363.61 6.4965 -4.18908 0
M  V30 44401 C 3364.55 5.80886 -5.05289 0
M  V30 44402 C 3363.82 4.78366 -5.89277 0
M  V30 44403 O 3363.61 3.58302 -5.08433 0
M  V30 44404 C 3362.42 5.16748 -6.36559 0
M  V30 44405 O 3362.03 4.45271 -7.53232 0
M  V30 44406 C 3361.54 4.74572 -5.19863 0
M  V30 44407 C 3362.25 3.49373 -4.70338 0
M  V30 44408 N 3362.2 3.31704 -3.22876 0
M  V30 44409 C 3362.05 2.03326 -2.74871 0
M  V30 44410 O 3361.96 1.06486 -3.48076 0
M  V30 44411 N 3362.01 1.91838 -1.37456 0
M  V30 44412 C 3362.1 2.94295 -0.462035 0
M  V30 44413 C 3362.25 4.25064 -1.05249 0
M  V30 44414 C 3362.3 4.40214 -2.39192 0
M  V30 44415 H 3365.04 6.54063 -5.71245 0
M  V30 44416 H 3365.31 5.30339 -4.43905 0
M  V30 44417 H 3364.44 4.55889 -6.76652 0
M  V30 44418 H 3361.79 2.6167 -5.17842 0
M  V30 44419 H 3361.51 5.52155 -4.41878 0
M  V30 44420 H 3360.52 4.51918 -5.53297 0
M  V30 44421 H 3362.35 6.25055 -6.55162 0
M  V30 44422 H 3362.42 5.39798 -2.81523 0
M  V30 44423 P 3360.48 4.23843 -7.83734 0
M  V30 44424 O 3360.26 4.19407 -9.29784 0
M  V30 44425 O 3359.69 5.24426 -7.09156 0
M  V30 44426 O 3360.23 2.79386 -7.20852 0
M  V30 44427 C 3361.17 1.7299 -7.50419 0
M  V30 44428 C 3360.44 0.41401 -7.5797 0
M  V30 44429 O 3360.23 -0.089787 -6.22035 0
M  V30 44430 C 3359.04 0.447224 -8.1878 0
M  V30 44431 O 3358.65 -0.825159 -8.71201 0
M  V30 44432 C 3358.16 0.783801 -6.99623 0
M  V30 44433 C 3358.87 0.0619192 -5.85967 0
M  V30 44434 N 3358.82 0.7859 -4.56281 0
M  V30 44435 C 3358.67 0.0359258 -3.39981 0
M  V30 44436 O 3358.58 -1.19723 -3.49038 0
M  V30 44437 N 3358.62 0.869151 -2.14025 0
M  V30 44438 C 3358.72 2.01207 -2.14363 0
M  V30 44439 N 3358.67 2.58978 -0.954287 0
M  V30 44440 C 3358.87 2.80817 -3.32215 0
M  V30 44441 C 3358.92 2.13785 -4.50884 0
M  V30 44442 H 3361.66 1.93401 -8.46693 0
M  V30 44443 H 3361.93 1.68181 -6.71046 0
M  V30 44444 H 3361.06 -0.289076 -8.15488 0
M  V30 44445 H 3358.41 -0.927166 -5.72947 0
M  V30 44446 H 3358.13 1.87 -6.82132 0
M  V30 44447 H 3357.14 0.404009 -7.13457 0
M  V30 44448 H 3358.97 1.20599 -8.97534 0
M  V30 44449 H 3359.04 2.70295 -5.43162 0
M  V30 44450 H 3358.94 3.89465 -3.27406 0
M  V30 44451 H 3358.55 2.01616 -0.107046 0
M  V30 44452 H 3358.75 3.61403 -0.873101 0
M  V30 44453 P 3357.1 -1.17771 -8.83182 0
M  V30 44454 O 3356.88 -2.07206 -9.98732 0
M  V30 44455 O 3356.31 0.0743816 -8.81969 0
M  V30 44456 O 3356.85 -1.97652 -7.47304 0
M  V30 44457 C 3357.79 -3.01133 -7.08783 0
M  V30 44458 C 3357.06 -4.12613 -6.37049 0
M  V30 44459 O 3356.85 -3.72827 -4.97879 0
M  V30 44460 C 3355.66 -4.45085 -6.88694 0
M  V30 44461 O 3355.27 -5.7877 -6.5624 0
M  V30 44462 C 3354.78 -3.47817 -6.12078 0
M  V30 44463 C 3355.49 -3.39414 -4.77697 0
M  V30 44464 N 3355.44 -2.04615 -4.15333 0
M  V30 44465 H 3358.28 -3.41248 -7.98759 0
M  V30 44466 H 3358.55 -2.5837 -6.41742 0
M  V30 44467 H 3357.68 -5.02657 -6.42673 0
M  V30 44468 P 3353.72 -6.144 -6.45285 0
M  V30 44469 O 3353.5 -7.54673 -6.86199 0
M  V30 44470 O 3352.93 -5.12391 -7.179 0
M  V30 44471 O 3353.47 -5.99158 -4.88404 0
M  V30 44472 C 3354.41 -6.60062 -3.96313 0
M  V30 44473 C 3353.68 -7.08259 -2.72856 0
M  V30 44474 O 3353.47 -5.9427 -1.83651 0
M  V30 44475 C 3352.28 -7.65087 -2.94749 0
M  V30 44476 O 3351.89 -8.53963 -1.90717 0
M  V30 44477 C 3351.4 -6.41069 -2.90698 0
M  V30 44478 C 3352.11 -5.5528 -1.86931 0
M  V30 44479 N 3352.06 -4.09575 -2.15696 0
M  V30 44480 C 3351.91 -3.24249 -1.08435 0
M  V30 44481 O 3351.82 -3.63946 0.0628747 0
M  V30 44482 N 3351.87 -1.90009 -1.39973 0
M  V30 44483 C 3351.96 -1.34884 -2.65614 0
M  V30 44484 C 3352.11 -2.3145 -3.71736 0
M  V30 44485 C 3352.16 -3.63518 -3.44754 0
M  V30 44486 H 3354.9 -7.45402 -4.45526 0
M  V30 44487 H 3355.17 -5.86062 -3.67208 0
M  V30 44488 H 3354.3 -7.84412 -2.24479 0
M  V30 44489 H 3351.65 -5.73358 -0.888409 0
M  V30 44490 H 3351.37 -5.90877 -3.88583 0
M  V30 44491 H 3350.38 -6.65867 -2.58821 0
M  V30 44492 H 3352.21 -8.16248 -3.92006 0
M  V30 44493 H 3352.28 -4.34551 -4.26383 0
M  V30 44494 P 3350.34 -8.7635 -1.60911 0
M  V30 44495 O 3350.12 -10.1388 -1.11561 0
M  V30 44496 O 3349.55 -8.36503 -2.79617 0
M  V30 44497 O 3350.09 -7.71806 -0.42951 0
M  V30 44498 C 3351.03 -7.67148 0.673689 0
M  V30 44499 C 3350.3 -7.33374 1.95559 0
M  V30 44500 O 3350.09 -5.88721 2.00726 0
M  V30 44501 C 3348.9 -7.92526 2.10483 0
M  V30 44502 O 3348.51 -8.02971 3.47653 0
M  V30 44503 C 3348.02 -6.89602 1.41652 0
M  V30 44504 C 3348.73 -5.59201 1.75185 0
M  V30 44505 N 3348.68 -4.58235 0.662552 0
M  V30 44506 C 3348.76 -4.7683 -0.704049 0
M  V30 44507 N 3348.68 -3.66233 -1.39775 0
M  V30 44508 C 3348.54 -2.66526 -0.431739 0
M  V30 44509 C 3348.41 -1.26394 -0.575992 0
M  V30 44510 N 3348.29 -0.62859 0.67177 0
M  V30 44511 C 3348.29 -1.27134 1.89385 0
M  V30 44512 N 3348.16 -0.492035 2.96951 0
M  V30 44513 N 3348.42 -2.58978 2.02907 0
M  V30 44514 C 3348.54 -3.22433 0.832218 0
M  V30 44515 H 3351.52 -8.65116 0.777161 0
M  V30 44516 H 3351.79 -6.90173 0.474152 0
M  V30 44517 H 3350.92 -7.66548 2.79458 0
M  V30 44518 P 3346.96 -8.03563 3.84925 0
M  V30 44519 O 3346.74 -8.85821 5.0569 0
M  V30 44520 O 3346.17 -8.41101 2.65469 0
M  V30 44521 O 3346.71 -6.4965 4.18908 0
M  V30 44522 C 3347.65 -5.81037 5.05421 0
M  V30 44523 C 3346.92 -4.78366 5.89277 0
M  V30 44524 O 3346.71 -3.58302 5.08433 0
M  V30 44525 C 3345.52 -5.17448 6.36119 0
M  V30 44526 O 3345.13 -4.45271 7.53232 0
M  V30 44527 C 3344.64 -4.74639 5.19936 0
M  V30 44528 C 3345.35 -3.49432 4.70418 0
M  V30 44529 N 3345.3 -3.31776 3.22945 0
M  V30 44530 H 3348.14 -6.54213 5.71376 0
M  V30 44531 H 3348.41 -5.30492 4.44033 0
M  V30 44532 H 3347.54 -4.55889 6.76652 0
M  V30 44533 P 3343.58 -4.23843 7.83734 0
M  V30 44534 O 3343.36 -4.19407 9.29784 0
M  V30 44535 O 3342.79 -5.24426 7.09156 0
M  V30 44536 O 3343.33 -2.7935 7.20758 0
M  V30 44537 C 3344.27 -1.7299 7.50419 0
M  V30 44538 C 3343.54 -0.406376 7.57911 0
M  V30 44539 O 3343.33 0.0897726 6.21935 0
M  V30 44540 C 3342.14 -0.447224 8.1878 0
M  V30 44541 O 3341.75 0.825065 8.71101 0
M  V30 44542 C 3341.26 -0.783801 6.99623 0
M  V30 44543 C 3341.97 -0.0619192 5.85967 0
M  V30 44544 N 3341.92 -0.7859 4.56281 0
M  V30 44545 H 3344.76 -1.93423 8.4679 0
M  V30 44546 H 3345.03 -1.68181 6.71046 0
M  V30 44547 H 3344.16 0.289041 8.15388 0
M  V30 44548 P 3340.2 1.17771 8.83182 0
M  V30 44549 O 3339.98 2.07206 9.98732 0
M  V30 44550 O 3339.41 -0.0743816 8.81969 0
M  V30 44551 O 3339.95 1.97652 7.47304 0
M  V30 44552 C 3340.89 3.01133 7.08783 0
M  V30 44553 C 3340.16 4.12613 6.37049 0
M  V30 44554 O 3339.95 3.72827 4.97879 0
M  V30 44555 C 3338.76 4.45085 6.88694 0
M  V30 44556 O 3338.37 5.7877 6.5624 0
M  V30 44557 C 3337.88 3.47817 6.12078 0
M  V30 44558 C 3338.59 3.39414 4.77697 0
M  V30 44559 N 3338.54 2.04615 4.15333 0
M  V30 44560 H 3341.38 3.41248 7.98759 0
M  V30 44561 H 3341.65 2.5837 6.41742 0
M  V30 44562 H 3340.78 5.02657 6.42673 0
M  V30 44563 P 3336.82 6.144 6.45285 0
M  V30 44564 O 3336.6 7.54673 6.86199 0
M  V30 44565 O 3336.03 5.12391 7.179 0
M  V30 44566 O 3336.57 5.99158 4.88404 0
M  V30 44567 C 3337.51 6.60062 3.96313 0
M  V30 44568 C 3336.78 7.08259 2.72856 0
M  V30 44569 O 3336.57 5.9427 1.83651 0
M  V30 44570 C 3335.38 7.65087 2.94749 0
M  V30 44571 O 3334.99 8.53963 1.90717 0
M  V30 44572 C 3334.5 6.41069 2.90698 0
M  V30 44573 C 3335.21 5.5528 1.86931 0
M  V30 44574 N 3335.16 4.09575 2.15696 0
M  V30 44575 C 3335.01 3.24249 1.08435 0
M  V30 44576 O 3334.92 3.63946 -0.0628747 0
M  V30 44577 N 3334.97 1.90009 1.39973 0
M  V30 44578 C 3335.06 1.34884 2.65614 0
M  V30 44579 O 3335.01 0.123716 2.81728 0
M  V30 44580 C 3335.21 2.3145 3.71736 0
M  V30 44581 C 3335.32 1.75913 5.10438 0
M  V30 44582 C 3335.26 3.63518 3.44754 0
M  V30 44583 H 3338 7.45402 4.45526 0
M  V30 44584 H 3338.27 5.86062 3.67208 0
M  V30 44585 H 3337.4 7.84412 2.24479 0
M  V30 44586 H 3334.75 5.73358 0.888409 0
M  V30 44587 H 3334.47 5.90877 3.88583 0
M  V30 44588 H 3333.48 6.65867 2.58821 0
M  V30 44589 H 3335.31 8.16248 3.92006 0
M  V30 44590 H 3335.38 4.34551 4.26383 0
M  V30 44591 H 3334.35 1.85471 5.61775 0
M  V30 44592 H 3336.09 2.31364 5.66257 0
M  V30 44593 H 3335.6 0.695936 5.05229 0
M  V30 44594 H 3334.87 1.26277 0.63625 0
M  V30 44595 P 3333.44 8.7635 1.60911 0
M  V30 44596 O 3333.22 10.1388 1.11561 0
M  V30 44597 O 3332.65 8.36503 2.79617 0
M  V30 44598 O 3333.19 7.71806 0.42951 0
M  V30 44599 C 3334.13 7.67148 -0.673689 0
M  V30 44600 C 3333.4 7.33374 -1.95559 0
M  V30 44601 O 3333.19 5.88721 -2.00726 0
M  V30 44602 C 3332 7.92526 -2.10483 0
M  V30 44603 O 3331.61 8.02971 -3.47653 0
M  V30 44604 C 3331.12 6.89602 -1.41652 0
M  V30 44605 C 3331.83 5.59201 -1.75185 0
M  V30 44606 N 3331.78 4.58301 -0.657969 0
M  V30 44607 H 3334.62 8.65116 -0.777161 0
M  V30 44608 H 3334.89 6.9022 -0.46725 0
M  V30 44609 H 3334.02 7.66548 -2.79458 0
M  V30 44610 H 3331.37 5.16165 -2.65183 0
M  V30 44611 H 3331.09 7.06433 -0.329384 0
M  V30 44612 H 3330.1 6.90926 -1.82021 0
M  V30 44613 H 3331.93 8.90873 -1.62657 0
M  V30 44614 P 3330.06 8.03563 -3.84925 0
M  V30 44615 O 3329.84 8.85821 -5.0569 0
M  V30 44616 O 3329.27 8.41101 -2.65469 0
M  V30 44617 O 3329.81 6.4965 -4.18908 0
M  V30 44618 C 3330.75 5.81037 -5.05421 0
M  V30 44619 C 3330.02 4.78366 -5.89277 0
M  V30 44620 O 3329.81 3.58302 -5.08433 0
M  V30 44621 C 3328.62 5.17448 -6.36119 0
M  V30 44622 O 3328.23 4.45271 -7.53232 0
M  V30 44623 C 3327.74 4.74639 -5.19936 0
M  V30 44624 C 3328.45 3.49432 -4.70418 0
M  V30 44625 N 3328.4 3.31776 -3.22945 0
M  V30 44626 H 3331.24 6.54213 -5.71376 0
M  V30 44627 H 3331.51 5.30492 -4.44033 0
M  V30 44628 H 3330.64 4.55889 -6.76652 0
M  V30 44629 P 3326.68 4.23843 -7.83734 0
M  V30 44630 O 3326.46 4.19407 -9.29784 0
M  V30 44631 O 3325.89 5.24426 -7.09156 0
M  V30 44632 O 3326.43 2.7935 -7.20758 0
M  V30 44633 C 3327.37 1.7299 -7.50419 0
M  V30 44634 C 3326.64 0.406376 -7.57911 0
M  V30 44635 O 3326.43 -0.0897726 -6.21935 0
M  V30 44636 C 3325.24 0.447224 -8.1878 0
M  V30 44637 O 3324.85 -0.825065 -8.71101 0
M  V30 44638 C 3324.36 0.783801 -6.99623 0
M  V30 44639 C 3325.07 0.0619192 -5.85967 0
M  V30 44640 N 3325.02 0.7859 -4.56281 0
M  V30 44641 H 3327.86 1.93423 -8.4679 0
M  V30 44642 H 3328.13 1.68181 -6.71046 0
M  V30 44643 H 3327.26 -0.289041 -8.15388 0
M  V30 44644 P 3323.3 -1.17771 -8.83182 0
M  V30 44645 O 3323.08 -2.07206 -9.98732 0
M  V30 44646 O 3322.51 0.0743816 -8.81969 0
M  V30 44647 O 3323.05 -1.97652 -7.47304 0
M  V30 44648 C 3323.99 -3.01133 -7.08783 0
M  V30 44649 C 3323.26 -4.12613 -6.37049 0
M  V30 44650 O 3323.05 -3.72827 -4.97879 0
M  V30 44651 C 3321.86 -4.45085 -6.88694 0
M  V30 44652 O 3321.47 -5.7877 -6.5624 0
M  V30 44653 C 3320.98 -3.47817 -6.12078 0
M  V30 44654 C 3321.69 -3.39414 -4.77697 0
M  V30 44655 N 3321.64 -2.04199 -4.15538 0
M  V30 44656 H 3324.48 -3.41248 -7.98759 0
M  V30 44657 H 3324.75 -2.57728 -6.42 0
M  V30 44658 H 3323.88 -5.02657 -6.42673 0
M  V30 44659 H 3321.23 -4.11708 -4.08956 0
M  V30 44660 H 3320.95 -2.49626 -6.61679 0
M  V30 44661 H 3319.96 -3.8662 -6.00862 0
M  V30 44662 H 3321.79 -4.29991 -7.97006 0
M  V30 44663 P 3319.92 -6.144 -6.45285 0
M  V30 44664 O 3319.7 -7.54673 -6.86199 0
M  V30 44665 O 3319.13 -5.12391 -7.179 0
M  V30 44666 O 3319.67 -5.99236 -4.88467 0
M  V30 44667 C 3320.61 -6.60234 -3.96415 0
M  V30 44668 C 3319.88 -7.08079 -2.736 0
M  V30 44669 O 3319.67 -5.94365 -1.8368 0
M  V30 44670 C 3318.48 -7.64886 -2.9555 0
M  V30 44671 O 3318.09 -8.5406 -1.90739 0
M  V30 44672 C 3317.6 -6.4116 -2.90739 0
M  V30 44673 C 3318.31 -5.55375 -1.86963 0
M  V30 44674 N 3318.26 -4.09664 -2.15742 0
M  V30 44675 C 3318.11 -3.22231 -1.08477 0
M  V30 44676 O 3318.02 -3.68951 0.0600489 0
M  V30 44677 N 3318.06 -1.76692 -1.48799 0
M  V30 44678 C 3318.16 -1.41695 -2.57602 0
M  V30 44679 N 3318.11 -0.107296 -2.75791 0
M  V30 44680 C 3318.31 -2.29178 -3.69733 0
M  V30 44681 C 3318.36 -3.62753 -3.42653 0
M  V30 44682 H 3321.1 -7.45488 -4.45578 0
M  V30 44683 H 3321.37 -5.86232 -3.67314 0
M  V30 44684 H 3320.5 -7.84508 -2.24507 0
M  V30 44685 H 3317.85 -5.73556 -0.888715 0
M  V30 44686 H 3317.57 -5.9096 -3.88638 0
M  V30 44687 H 3316.58 -6.66053 -2.58894 0
M  V30 44688 H 3318.41 -8.16339 -3.92049 0
M  V30 44689 H 3318.48 -4.33052 -4.24913 0
M  V30 44690 H 3318.38 -1.9103 -4.71577 0
M  V30 44691 H 3317.99 0.521221 -1.95056 0
M  V30 44692 H 3318.19 0.286429 -3.70695 0
M  V30 44693 P 3316.54 -8.7635 -1.60911 0
M  V30 44694 O 3316.32 -10.1388 -1.11561 0
M  V30 44695 O 3315.75 -8.36503 -2.79617 0
M  V30 44696 O 3316.29 -7.71806 -0.42951 0
M  V30 44697 C 3317.23 -7.67148 0.673689 0
M  V30 44698 C 3316.5 -7.33374 1.95559 0
M  V30 44699 O 3316.29 -5.88721 2.00726 0
M  V30 44700 C 3315.1 -7.92526 2.10483 0
M  V30 44701 O 3314.71 -8.02971 3.47653 0
M  V30 44702 C 3314.22 -6.89602 1.41652 0
M  V30 44703 C 3314.93 -5.59201 1.75185 0
M  V30 44704 N 3314.88 -4.58301 0.657969 0
M  V30 44705 H 3317.72 -8.65116 0.777161 0
M  V30 44706 H 3317.99 -6.9022 0.46725 0
M  V30 44707 H 3317.12 -7.66548 2.79458 0
M  V30 44708 H 3314.47 -5.16165 2.65183 0
M  V30 44709 H 3314.19 -7.06433 0.329384 0
M  V30 44710 H 3313.2 -6.90926 1.82021 0
M  V30 44711 H 3315.03 -8.90873 1.62657 0
M  V30 44712 P 3313.16 -8.03563 3.84925 0
M  V30 44713 O 3312.94 -8.85821 5.0569 0
M  V30 44714 O 3312.37 -8.41101 2.65469 0
M  V30 44715 O 3312.91 -6.4965 4.18908 0
M  V30 44716 C 3313.85 -5.81037 5.05421 0
M  V30 44717 C 3313.12 -4.78366 5.89277 0
M  V30 44718 O 3312.91 -3.58302 5.08433 0
M  V30 44719 C 3311.72 -5.17448 6.36119 0
M  V30 44720 O 3311.33 -4.45271 7.53232 0
M  V30 44721 C 3310.84 -4.74639 5.19936 0
M  V30 44722 C 3311.55 -3.49432 4.70418 0
M  V30 44723 N 3311.5 -3.31776 3.22945 0
M  V30 44724 H 3314.34 -6.54213 5.71376 0
M  V30 44725 H 3314.61 -5.30492 4.44033 0
M  V30 44726 H 3313.74 -4.55889 6.76652 0
M  V30 44727 P 3309.78 -4.23843 7.83734 0
M  V30 44728 O 3309.56 -4.19407 9.29784 0
M  V30 44729 O 3308.99 -5.24426 7.09156 0
M  V30 44730 O 3309.53 -2.7935 7.20758 0
M  V30 44731 C 3310.47 -1.7299 7.50419 0
M  V30 44732 C 3309.74 -0.406376 7.57911 0
M  V30 44733 O 3309.53 0.0897726 6.21935 0
M  V30 44734 C 3308.34 -0.447224 8.1878 0
M  V30 44735 O 3307.95 0.825065 8.71101 0
M  V30 44736 C 3307.46 -0.783801 6.99623 0
M  V30 44737 C 3308.17 -0.0619192 5.85967 0
M  V30 44738 N 3308.12 -0.7859 4.56281 0
M  V30 44739 C 3308.2 -2.14308 4.31736 0
M  V30 44740 N 3308.12 -2.46106 3.05116 0
M  V30 44741 C 3307.98 -1.23422 2.4014 0
M  V30 44742 C 3307.85 -0.938381 1.02409 0
M  V30 44743 N 3307.73 0.444647 0.805413 0
M  V30 44744 C 3307.73 1.40829 1.79435 0
M  V30 44745 N 3307.6 2.67213 1.38558 0
M  V30 44746 N 3307.86 1.12947 3.09005 0
M  V30 44747 C 3307.98 -0.204887 3.32369 0
M  V30 44748 H 3310.96 -1.93423 8.4679 0
M  V30 44749 H 3311.23 -1.68181 6.71046 0
M  V30 44750 H 3310.36 0.289041 8.15388 0
M  V30 44751 P 3306.4 1.17771 8.83182 0
M  V30 44752 O 3306.18 2.07206 9.98732 0
M  V30 44753 O 3305.61 -0.0743816 8.81969 0
M  V30 44754 O 3306.15 1.97652 7.47304 0
M  V30 44755 C 3307.09 3.01133 7.08783 0
M  V30 44756 C 3306.36 4.12613 6.37049 0
M  V30 44757 O 3306.15 3.72827 4.97879 0
M  V30 44758 C 3304.96 4.45085 6.88694 0
M  V30 44759 O 3304.57 5.7877 6.5624 0
M  V30 44760 C 3304.08 3.47817 6.12078 0
M  V30 44761 C 3304.79 3.39414 4.77697 0
M  V30 44762 N 3304.74 2.04199 4.15538 0
M  V30 44763 H 3307.58 3.41248 7.98759 0
M  V30 44764 H 3307.85 2.57728 6.42 0
M  V30 44765 H 3306.98 5.02657 6.42673 0
M  V30 44766 H 3304.33 4.11708 4.08956 0
M  V30 44767 H 3304.05 2.49626 6.61679 0
M  V30 44768 H 3303.06 3.8662 6.00862 0
M  V30 44769 H 3304.89 4.29991 7.97006 0
M  V30 44770 P 3303.02 6.144 6.45285 0
M  V30 44771 O 3302.8 7.54673 6.86199 0
M  V30 44772 O 3302.23 5.12391 7.179 0
M  V30 44773 O 3302.77 5.99158 4.88404 0
M  V30 44774 C 3303.71 6.60234 3.96415 0
M  V30 44775 C 3302.98 7.08259 2.72856 0
M  V30 44776 O 3302.77 5.9427 1.83651 0
M  V30 44777 C 3301.58 7.64886 2.9555 0
M  V30 44778 O 3301.19 8.53963 1.90717 0
M  V30 44779 C 3300.7 6.4116 2.90739 0
M  V30 44780 C 3301.41 5.55375 1.86963 0
M  V30 44781 N 3301.36 4.09448 2.16152 0
M  V30 44782 H 3304.2 7.45574 4.45629 0
M  V30 44783 H 3304.47 5.85864 3.679 0
M  V30 44784 H 3303.6 7.84412 2.24479 0
M  V30 44785 H 3300.95 5.73457 0.888562 0
M  V30 44786 H 3300.67 5.90877 3.88583 0
M  V30 44787 H 3299.68 6.6596 2.58858 0
M  V30 44788 H 3301.51 8.16339 3.92049 0
M  V30 44789 P 3299.64 8.7635 1.60911 0
M  V30 44790 O 3299.42 10.1388 1.11561 0
M  V30 44791 O 3298.85 8.36503 2.79617 0
M  V30 44792 O 3299.39 7.71806 0.42951 0
M  V30 44793 C 3300.33 7.67148 -0.673689 0
M  V30 44794 C 3299.6 7.33374 -1.95559 0
M  V30 44795 O 3299.39 5.88721 -2.00726 0
M  V30 44796 C 3298.2 7.92526 -2.10483 0
M  V30 44797 O 3297.81 8.02971 -3.47653 0
M  V30 44798 C 3297.32 6.89602 -1.41652 0
M  V30 44799 C 3298.03 5.59201 -1.75185 0
M  V30 44800 N 3297.98 4.58235 -0.662552 0
M  V30 44801 C 3298.06 4.7683 0.704049 0
M  V30 44802 N 3297.98 3.66233 1.39775 0
M  V30 44803 C 3297.84 2.66526 0.431739 0
M  V30 44804 C 3297.71 1.26394 0.575992 0
M  V30 44805 N 3297.59 0.62859 -0.67177 0
M  V30 44806 C 3297.59 1.27134 -1.89385 0
M  V30 44807 N 3297.46 0.492035 -2.96951 0
M  V30 44808 N 3297.72 2.58978 -2.02907 0
M  V30 44809 C 3297.84 3.22433 -0.832218 0
M  V30 44810 H 3300.82 8.65116 -0.777161 0
M  V30 44811 H 3301.09 6.90173 -0.474152 0
M  V30 44812 H 3300.22 7.66548 -2.79458 0
M  V30 44813 P 3296.26 8.03563 -3.84925 0
M  V30 44814 O 3296.04 8.85821 -5.0569 0
M  V30 44815 O 3295.47 8.41101 -2.65469 0
M  V30 44816 O 3296.01 6.4965 -4.18908 0
M  V30 44817 C 3296.95 5.81037 -5.05421 0
M  V30 44818 C 3296.22 4.78366 -5.89277 0
M  V30 44819 O 3296.01 3.58302 -5.08433 0
M  V30 44820 C 3294.82 5.17448 -6.36119 0
M  V30 44821 O 3294.43 4.45271 -7.53232 0
M  V30 44822 C 3293.94 4.74639 -5.19936 0
M  V30 44823 C 3294.65 3.49432 -4.70418 0
M  V30 44824 N 3294.6 3.32099 -3.22613 0
M  V30 44825 H 3297.44 6.54213 -5.71376 0
M  V30 44826 H 3297.71 5.30936 -4.43503 0
M  V30 44827 H 3296.84 4.55889 -6.76652 0
M  V30 44828 H 3294.19 2.61715 -5.17932 0
M  V30 44829 H 3293.91 5.52155 -4.41878 0
M  V30 44830 H 3292.92 4.51981 -5.53374 0
M  V30 44831 H 3294.75 6.25124 -6.55234 0
M  V30 44832 P 3292.88 4.23843 -7.83734 0
M  V30 44833 O 3292.66 4.19407 -9.29784 0
M  V30 44834 O 3292.09 5.24426 -7.09156 0
M  V30 44835 O 3292.63 2.7935 -7.20758 0
M  V30 44836 C 3293.57 1.72945 -7.50224 0
M  V30 44837 C 3292.84 0.406376 -7.57911 0
M  V30 44838 O 3292.63 -0.0897726 -6.21935 0
M  V30 44839 C 3291.44 0.438983 -8.18724 0
M  V30 44840 O 3291.05 -0.825065 -8.71101 0
M  V30 44841 C 3290.56 0.783689 -6.99524 0
M  V30 44842 C 3291.27 0.0619086 -5.85867 0
M  V30 44843 N 3291.22 0.78573 -4.56183 0
M  V30 44844 C 3291.07 0.0292889 -3.41887 0
M  V30 44845 O 3290.98 -1.18445 -3.4419 0
M  V30 44846 N 3291.03 0.744061 -2.23964 0
M  V30 44847 C 3291.12 2.10932 -2.10362 0
M  V30 44848 C 3291.27 2.8202 -3.34994 0
M  V30 44849 C 3291.32 2.15547 -4.52261 0
M  V30 44850 H 3294.06 1.93379 -8.46595 0
M  V30 44851 H 3294.33 1.68132 -6.70852 0
M  V30 44852 H 3293.46 -0.289041 -8.15388 0
M  V30 44853 H 3290.81 -0.926847 -5.72749 0
M  V30 44854 H 3290.53 1.86973 -6.82036 0
M  V30 44855 H 3289.54 0.403896 -7.13257 0
M  V30 44856 H 3291.37 1.20585 -8.97435 0
M  V30 44857 H 3291.44 2.71231 -5.45042 0
M  V30 44858 P 3289.5 -1.17771 -8.83182 0
M  V30 44859 O 3289.28 -2.07206 -9.98732 0
M  V30 44860 O 3288.71 0.0743816 -8.81969 0
M  V30 44861 O 3289.25 -1.97652 -7.47304 0
M  V30 44862 C 3290.19 -3.01133 -7.08783 0
M  V30 44863 C 3289.46 -4.12613 -6.37049 0
M  V30 44864 O 3289.25 -3.72827 -4.97879 0
M  V30 44865 C 3288.06 -4.45085 -6.88694 0
M  V30 44866 O 3287.67 -5.7877 -6.5624 0
M  V30 44867 C 3287.18 -3.47817 -6.12078 0
M  V30 44868 C 3287.89 -3.39414 -4.77697 0
M  V30 44869 N 3287.84 -2.04615 -4.15333 0
M  V30 44870 C 3287.92 -0.803897 -4.75249 0
M  V30 44871 N 3287.84 0.197615 -3.91502 0
M  V30 44872 C 3287.7 -0.413002 -2.66823 0
M  V30 44873 C 3287.57 0.157221 -1.38007 0
M  V30 44874 N 3287.45 -0.833136 -0.390236 0
M  V30 44875 C 3287.45 -2.19402 -0.623885 0
M  V30 44876 N 3287.32 -2.97622 0.449677 0
M  V30 44877 N 3287.58 -2.73005 -1.83601 0
M  V30 44878 C 3287.7 -1.78786 -2.80935 0
M  V30 44879 H 3290.68 -3.41248 -7.98759 0
M  V30 44880 H 3290.95 -2.5837 -6.41742 0
M  V30 44881 H 3290.08 -5.02657 -6.42673 0
M  V30 44882 P 3286.12 -6.144 -6.45285 0
M  V30 44883 O 3285.9 -7.54673 -6.86199 0
M  V30 44884 O 3285.33 -5.12391 -7.179 0
M  V30 44885 O 3285.87 -5.99158 -4.88404 0
M  V30 44886 C 3286.81 -6.60234 -3.96415 0
M  V30 44887 C 3286.08 -7.08259 -2.72856 0
M  V30 44888 O 3285.87 -5.9427 -1.83651 0
M  V30 44889 C 3284.68 -7.64886 -2.9555 0
M  V30 44890 O 3284.29 -8.53963 -1.90717 0
M  V30 44891 C 3283.8 -6.4116 -2.90739 0
M  V30 44892 C 3284.51 -5.55375 -1.86963 0
M  V30 44893 N 3284.46 -4.09664 -2.15742 0
M  V30 44894 H 3287.3 -7.45574 -4.45629 0
M  V30 44895 H 3287.57 -5.86232 -3.67314 0
M  V30 44896 H 3286.7 -7.84412 -2.24479 0
M  V30 44897 P 3282.74 -8.7635 -1.60911 0
M  V30 44898 O 3282.52 -10.1388 -1.11561 0
M  V30 44899 O 3281.95 -8.36503 -2.79617 0
M  V30 44900 O 3282.49 -7.71806 -0.42951 0
M  V30 44901 C 3283.43 -7.67148 0.673689 0
M  V30 44902 C 3282.7 -7.33374 1.95559 0
M  V30 44903 O 3282.49 -5.88721 2.00726 0
M  V30 44904 C 3281.3 -7.92526 2.10483 0
M  V30 44905 O 3280.91 -8.02971 3.47653 0
M  V30 44906 C 3280.42 -6.89602 1.41652 0
M  V30 44907 C 3281.13 -5.59201 1.75185 0
M  V30 44908 N 3281.08 -4.58235 0.662552 0
M  V30 44909 H 3283.92 -8.65116 0.777161 0
M  V30 44910 H 3284.19 -6.90173 0.474152 0
M  V30 44911 H 3283.32 -7.66548 2.79458 0
M  V30 44912 P 3279.36 -8.03563 3.84925 0
M  V30 44913 O 3279.14 -8.85821 5.0569 0
M  V30 44914 O 3278.57 -8.41101 2.65469 0
M  V30 44915 O 3279.11 -6.4965 4.18908 0
M  V30 44916 C 3280.05 -5.81037 5.05421 0
M  V30 44917 C 3279.32 -4.78366 5.89277 0
M  V30 44918 O 3279.11 -3.58302 5.08433 0
M  V30 44919 C 3277.92 -5.17448 6.36119 0
M  V30 44920 O 3277.53 -4.45271 7.53232 0
M  V30 44921 C 3277.04 -4.74639 5.19936 0
M  V30 44922 C 3277.75 -3.49432 4.70418 0
M  V30 44923 N 3277.7 -3.31776 3.22945 0
M  V30 44924 H 3280.54 -6.54213 5.71376 0
M  V30 44925 H 3280.81 -5.30492 4.44033 0
M  V30 44926 H 3279.94 -4.55889 6.76652 0
M  V30 44927 P 3275.98 -4.23843 7.83734 0
M  V30 44928 O 3275.76 -4.19407 9.29784 0
M  V30 44929 O 3275.19 -5.24426 7.09156 0
M  V30 44930 O 3275.73 -2.7935 7.20758 0
M  V30 44931 C 3276.67 -1.7299 7.50419 0
M  V30 44932 C 3275.94 -0.406376 7.57911 0
M  V30 44933 O 3275.73 0.0897726 6.21935 0
M  V30 44934 C 3274.54 -0.447224 8.1878 0
M  V30 44935 O 3274.15 0.825065 8.71101 0
M  V30 44936 C 3273.66 -0.783801 6.99623 0
M  V30 44937 C 3274.37 -0.0619192 5.85967 0
M  V30 44938 N 3274.32 -0.7859 4.56281 0
M  V30 44939 C 3274.4 -2.14308 4.31736 0
M  V30 44940 N 3274.32 -2.46106 3.05116 0
M  V30 44941 C 3274.18 -1.23422 2.4014 0
M  V30 44942 C 3274.05 -0.938381 1.02409 0
M  V30 44943 N 3273.93 0.444647 0.805413 0
M  V30 44944 C 3273.93 1.40829 1.79435 0
M  V30 44945 N 3273.8 2.67213 1.38558 0
M  V30 44946 N 3274.06 1.12947 3.09005 0
M  V30 44947 C 3274.18 -0.204887 3.32369 0
M  V30 44948 H 3277.16 -1.93423 8.4679 0
M  V30 44949 H 3277.43 -1.68181 6.71046 0
M  V30 44950 H 3276.56 0.289041 8.15388 0
M  V30 44951 P 3272.6 1.17771 8.83182 0
M  V30 44952 O 3272.38 2.07206 9.98732 0
M  V30 44953 O 3271.81 -0.0743816 8.81969 0
M  V30 44954 O 3272.35 1.97652 7.47304 0
M  V30 44955 C 3273.29 3.01133 7.08783 0
M  V30 44956 C 3272.56 4.12613 6.37049 0
M  V30 44957 O 3272.35 3.72827 4.97879 0
M  V30 44958 C 3271.16 4.45085 6.88694 0
M  V30 44959 O 3270.77 5.7877 6.5624 0
M  V30 44960 C 3270.28 3.47817 6.12078 0
M  V30 44961 C 3270.99 3.39414 4.77697 0
M  V30 44962 N 3270.94 2.04615 4.15333 0
M  V30 44963 H 3273.78 3.41248 7.98759 0
M  V30 44964 H 3274.05 2.5837 6.41742 0
M  V30 44965 H 3273.18 5.02657 6.42673 0
M  V30 44966 P 3269.22 6.144 6.45285 0
M  V30 44967 O 3269 7.54673 6.86199 0
M  V30 44968 O 3268.43 5.12391 7.179 0
M  V30 44969 O 3268.97 5.99158 4.88404 0
M  V30 44970 C 3269.91 6.60234 3.96415 0
M  V30 44971 C 3269.18 7.08259 2.72856 0
M  V30 44972 O 3268.97 5.9427 1.83651 0
M  V30 44973 C 3267.78 7.64886 2.9555 0
M  V30 44974 O 3267.39 8.53963 1.90717 0
M  V30 44975 C 3266.9 6.4116 2.90739 0
M  V30 44976 C 3267.61 5.55375 1.86963 0
M  V30 44977 N 3267.56 4.09448 2.16152 0
M  V30 44978 H 3270.4 7.45574 4.45629 0
M  V30 44979 H 3270.67 5.85864 3.679 0
M  V30 44980 H 3269.8 7.84412 2.24479 0
M  V30 44981 H 3267.15 5.73457 0.888562 0
M  V30 44982 H 3266.87 5.90877 3.88583 0
M  V30 44983 H 3265.88 6.6596 2.58858 0
M  V30 44984 H 3267.71 8.16339 3.92049 0
M  V30 44985 P 3265.84 8.7635 1.60911 0
M  V30 44986 O 3265.62 10.1388 1.11561 0
M  V30 44987 O 3265.05 8.36503 2.79617 0
M  V30 44988 O 3265.59 7.71806 0.42951 0
M  V30 44989 C 3266.53 7.67148 -0.673689 0
M  V30 44990 C 3265.8 7.33374 -1.95559 0
M  V30 44991 O 3265.59 5.88721 -2.00726 0
M  V30 44992 C 3264.4 7.92526 -2.10483 0
M  V30 44993 O 3264.01 8.02971 -3.47653 0
M  V30 44994 C 3263.52 6.89602 -1.41652 0
M  V30 44995 C 3264.23 5.59201 -1.75185 0
M  V30 44996 N 3264.18 4.58235 -0.662552 0
M  V30 44997 H 3267.02 8.65116 -0.777161 0
M  V30 44998 H 3267.29 6.90173 -0.474152 0
M  V30 44999 H 3266.42 7.66548 -2.79458 0
M  V30 45000 P 3262.46 8.03563 -3.84925 0
M  V30 45001 O 3262.24 8.85821 -5.0569 0
M  V30 45002 O 3261.67 8.41101 -2.65469 0
M  V30 45003 O 3262.21 6.4965 -4.18908 0
M  V30 45004 C 3263.15 5.81037 -5.05421 0
M  V30 45005 C 3262.42 4.78366 -5.89277 0
M  V30 45006 O 3262.21 3.58302 -5.08433 0
M  V30 45007 C 3261.02 5.17448 -6.36119 0
M  V30 45008 O 3260.63 4.45271 -7.53232 0
M  V30 45009 C 3260.14 4.74639 -5.19936 0
M  V30 45010 C 3260.85 3.49432 -4.70418 0
M  V30 45011 N 3260.8 3.32099 -3.22613 0
M  V30 45012 H 3263.64 6.54213 -5.71376 0
M  V30 45013 H 3263.91 5.30936 -4.43503 0
M  V30 45014 H 3263.04 4.55889 -6.76652 0
M  V30 45015 H 3260.39 2.61715 -5.17932 0
M  V30 45016 H 3260.11 5.52155 -4.41878 0
M  V30 45017 H 3259.12 4.51981 -5.53374 0
M  V30 45018 H 3260.95 6.25124 -6.55234 0
M  V30 45019 P 3259.08 4.23843 -7.83734 0
M  V30 45020 O 3258.86 4.19407 -9.29784 0
M  V30 45021 O 3258.29 5.24426 -7.09156 0
M  V30 45022 O 3258.83 2.7935 -7.20758 0
M  V30 45023 C 3259.77 1.7299 -7.50419 0
M  V30 45024 C 3259.04 0.406376 -7.57911 0
M  V30 45025 O 3258.83 -0.0897726 -6.21935 0
M  V30 45026 C 3257.64 0.447224 -8.1878 0
M  V30 45027 O 3257.25 -0.825065 -8.71101 0
M  V30 45028 C 3256.76 0.783801 -6.99623 0
M  V30 45029 C 3257.47 0.0619192 -5.85967 0
M  V30 45030 N 3257.42 0.7859 -4.56281 0
M  V30 45031 H 3260.26 1.93423 -8.4679 0
M  V30 45032 H 3260.53 1.68181 -6.71046 0
M  V30 45033 H 3259.66 -0.289041 -8.15388 0
M  V30 45034 P 3255.7 -1.17771 -8.83182 0
M  V30 45035 O 3255.48 -2.07206 -9.98732 0
M  V30 45036 O 3254.91 0.0743816 -8.81969 0
M  V30 45037 O 3255.45 -1.97652 -7.47304 0
M  V30 45038 C 3256.39 -3.01133 -7.08783 0
M  V30 45039 C 3255.66 -4.12613 -6.37049 0
M  V30 45040 O 3255.45 -3.72827 -4.97879 0
M  V30 45041 C 3254.26 -4.45085 -6.88694 0
M  V30 45042 O 3253.87 -5.7877 -6.5624 0
M  V30 45043 C 3253.38 -3.47817 -6.12078 0
M  V30 45044 C 3254.09 -3.39414 -4.77697 0
M  V30 45045 N 3254.04 -2.04615 -4.15333 0
M  V30 45046 H 3256.88 -3.41248 -7.98759 0
M  V30 45047 H 3257.15 -2.5837 -6.41742 0
M  V30 45048 H 3256.28 -5.02657 -6.42673 0
M  V30 45049 P 3252.32 -6.144 -6.45285 0
M  V30 45050 O 3252.1 -7.54673 -6.86199 0
M  V30 45051 O 3251.53 -5.12391 -7.179 0
M  V30 45052 O 3252.07 -5.99158 -4.88404 0
M  V30 45053 C 3253.01 -6.60234 -3.96415 0
M  V30 45054 C 3252.28 -7.08259 -2.72856 0
M  V30 45055 O 3252.07 -5.9427 -1.83651 0
M  V30 45056 C 3250.88 -7.64886 -2.9555 0
M  V30 45057 O 3250.49 -8.53963 -1.90717 0
M  V30 45058 C 3250 -6.4116 -2.90739 0
M  V30 45059 C 3250.71 -5.55375 -1.86963 0
M  V30 45060 N 3250.66 -4.09664 -2.15742 0
M  V30 45061 H 3253.5 -7.45574 -4.45629 0
M  V30 45062 H 3253.77 -5.86232 -3.67314 0
M  V30 45063 H 3252.9 -7.84412 -2.24479 0
M  V30 45064 P 3248.94 -8.7635 -1.60911 0
M  V30 45065 O 3248.72 -10.1388 -1.11561 0
M  V30 45066 O 3248.15 -8.36503 -2.79617 0
M  V30 45067 O 3248.69 -7.71806 -0.42951 0
M  V30 45068 C 3249.63 -7.67148 0.673689 0
M  V30 45069 C 3248.9 -7.33374 1.95559 0
M  V30 45070 O 3248.69 -5.88721 2.00726 0
M  V30 45071 C 3247.5 -7.92526 2.10483 0
M  V30 45072 O 3247.11 -8.02971 3.47653 0
M  V30 45073 C 3246.62 -6.89602 1.41652 0
M  V30 45074 C 3247.33 -5.59201 1.75185 0
M  V30 45075 N 3247.28 -4.58301 0.657969 0
M  V30 45076 H 3250.12 -8.65116 0.777161 0
M  V30 45077 H 3250.39 -6.9022 0.46725 0
M  V30 45078 H 3249.52 -7.66548 2.79458 0
M  V30 45079 H 3246.87 -5.16165 2.65183 0
M  V30 45080 H 3246.59 -7.06433 0.329384 0
M  V30 45081 H 3245.6 -6.90926 1.82021 0
M  V30 45082 H 3247.43 -8.90873 1.62657 0
M  V30 45083 P 3245.56 -8.03563 3.84925 0
M  V30 45084 O 3245.34 -8.85821 5.0569 0
M  V30 45085 O 3244.77 -8.41101 2.65469 0
M  V30 45086 O 3245.31 -6.4965 4.18908 0
M  V30 45087 C 3246.25 -5.80886 5.05289 0
M  V30 45088 C 3245.52 -4.78366 5.89277 0
M  V30 45089 O 3245.31 -3.58302 5.08433 0
M  V30 45090 C 3244.12 -5.16748 6.36559 0
M  V30 45091 O 3243.73 -4.45271 7.53232 0
M  V30 45092 C 3243.24 -4.74572 5.19863 0
M  V30 45093 C 3243.95 -3.49373 4.70338 0
M  V30 45094 N 3243.9 -3.31704 3.22876 0
M  V30 45095 C 3243.75 -2.03326 2.74871 0
M  V30 45096 O 3243.66 -1.06486 3.48076 0
M  V30 45097 N 3243.71 -1.91838 1.37456 0
M  V30 45098 C 3243.8 -2.94295 0.462035 0
M  V30 45099 C 3243.95 -4.25064 1.05249 0
M  V30 45100 C 3244 -4.40214 2.39192 0
M  V30 45101 H 3246.74 -6.54063 5.71245 0
M  V30 45102 H 3247.01 -5.30339 4.43905 0
M  V30 45103 H 3246.14 -4.55889 6.76652 0
M  V30 45104 H 3243.49 -2.6167 5.17842 0
M  V30 45105 H 3243.21 -5.52155 4.41878 0
M  V30 45106 H 3242.22 -4.51918 5.53297 0
M  V30 45107 H 3244.05 -6.25055 6.55162 0
M  V30 45108 H 3244.12 -5.39798 2.81523 0
M  V30 45109 P 3242.18 -4.23843 7.83734 0
M  V30 45110 O 3241.96 -4.19407 9.29784 0
M  V30 45111 O 3241.39 -5.24426 7.09156 0
M  V30 45112 O 3241.93 -2.7935 7.20758 0
M  V30 45113 C 3242.87 -1.7299 7.50419 0
M  V30 45114 C 3242.14 -0.406376 7.57911 0
M  V30 45115 O 3241.93 0.0897726 6.21935 0
M  V30 45116 C 3240.74 -0.447224 8.1878 0
M  V30 45117 O 3240.35 0.825065 8.71101 0
M  V30 45118 C 3239.86 -0.783801 6.99623 0
M  V30 45119 C 3240.57 -0.0619192 5.85967 0
M  V30 45120 N 3240.52 -0.7859 4.56281 0
M  V30 45121 H 3243.36 -1.93423 8.4679 0
M  V30 45122 H 3243.63 -1.68181 6.71046 0
M  V30 45123 H 3242.76 0.289041 8.15388 0
M  V30 45124 P 3238.8 1.17771 8.83182 0
M  V30 45125 O 3238.58 2.07206 9.98732 0
M  V30 45126 O 3238.01 -0.0743816 8.81969 0
M  V30 45127 O 3238.55 1.97652 7.47304 0
M  V30 45128 C 3239.49 3.01055 7.08599 0
M  V30 45129 C 3238.76 4.12613 6.37049 0
M  V30 45130 O 3238.55 3.72827 4.97879 0
M  V30 45131 C 3237.36 4.45719 6.88164 0
M  V30 45132 O 3236.97 5.7877 6.5624 0
M  V30 45133 C 3236.48 3.47768 6.11991 0
M  V30 45134 C 3237.19 3.39356 4.77615 0
M  V30 45135 N 3237.14 2.04571 4.15244 0
M  V30 45136 C 3236.99 1.98587 2.78314 0
M  V30 45137 O 3236.9 2.98134 2.08835 0
M  V30 45138 N 3236.95 0.714467 2.24925 0
M  V30 45139 C 3237.04 -0.470001 2.94169 0
M  V30 45140 C 3237.19 -0.312541 4.36783 0
M  V30 45141 C 3237.24 0.914512 4.92583 0
M  V30 45142 H 3239.98 3.41169 7.98575 0
M  V30 45143 H 3240.25 2.58295 6.41556 0
M  V30 45144 H 3239.38 5.02657 6.42673 0
M  V30 45145 H 3236.73 4.11637 4.08885 0
M  V30 45146 H 3236.45 2.49626 6.61679 0
M  V30 45147 H 3235.46 3.86566 6.00778 0
M  V30 45148 H 3237.29 4.29943 7.96918 0
M  V30 45149 H 3237.36 1.00937 6.00374 0
M  V30 45150 P 3235.42 6.144 6.45285 0
M  V30 45151 O 3235.2 7.54673 6.86199 0
M  V30 45152 O 3234.63 5.12391 7.179 0
M  V30 45153 O 3235.17 5.99158 4.88404 0
M  V30 45154 C 3236.11 6.60234 3.96415 0
M  V30 45155 C 3235.38 7.08259 2.72856 0
M  V30 45156 O 3235.17 5.9427 1.83651 0
M  V30 45157 C 3233.98 7.64886 2.9555 0
M  V30 45158 O 3233.59 8.53963 1.90717 0
M  V30 45159 C 3233.1 6.4116 2.90739 0
M  V30 45160 C 3233.81 5.55375 1.86963 0
M  V30 45161 N 3233.76 4.09448 2.16152 0
M  V30 45162 H 3236.6 7.45574 4.45629 0
M  V30 45163 H 3236.87 5.85864 3.679 0
M  V30 45164 H 3236 7.84412 2.24479 0
M  V30 45165 H 3233.35 5.73457 0.888562 0
M  V30 45166 H 3233.07 5.90877 3.88583 0
M  V30 45167 H 3232.08 6.6596 2.58858 0
M  V30 45168 H 3233.91 8.16339 3.92049 0
M  V30 45169 P 3232.04 8.7635 1.60911 0
M  V30 45170 O 3231.82 10.1388 1.11561 0
M  V30 45171 O 3231.25 8.36503 2.79617 0
M  V30 45172 O 3231.79 7.71806 0.42951 0
M  V30 45173 C 3232.73 7.67148 -0.673689 0
M  V30 45174 C 3232 7.33374 -1.95559 0
M  V30 45175 O 3231.79 5.88721 -2.00726 0
M  V30 45176 C 3230.6 7.92526 -2.10483 0
M  V30 45177 O 3230.21 8.02971 -3.47653 0
M  V30 45178 C 3229.72 6.89602 -1.41652 0
M  V30 45179 C 3230.43 5.59201 -1.75185 0
M  V30 45180 N 3230.38 4.58235 -0.662552 0
M  V30 45181 H 3233.22 8.65116 -0.777161 0
M  V30 45182 H 3233.49 6.90173 -0.474152 0
M  V30 45183 H 3232.62 7.66548 -2.79458 0
M  V30 45184 P 3228.66 8.03563 -3.84925 0
M  V30 45185 O 3228.44 8.85821 -5.0569 0
M  V30 45186 O 3227.87 8.41101 -2.65469 0
M  V30 45187 O 3228.41 6.4965 -4.18908 0
M  V30 45188 C 3229.35 5.81037 -5.05421 0
M  V30 45189 C 3228.62 4.78366 -5.89277 0
M  V30 45190 O 3228.41 3.58302 -5.08433 0
M  V30 45191 C 3227.22 5.17448 -6.36119 0
M  V30 45192 O 3226.83 4.45271 -7.53232 0
M  V30 45193 C 3226.34 4.74639 -5.19936 0
M  V30 45194 C 3227.05 3.49432 -4.70418 0
M  V30 45195 N 3227 3.31776 -3.22945 0
M  V30 45196 H 3229.84 6.54213 -5.71376 0
M  V30 45197 H 3230.11 5.30492 -4.44033 0
M  V30 45198 H 3229.24 4.55889 -6.76652 0
M  V30 45199 P 3225.28 4.23843 -7.83734 0
M  V30 45200 O 3225.06 4.19407 -9.29784 0
M  V30 45201 O 3224.49 5.24426 -7.09156 0
M  V30 45202 O 3225.03 2.7935 -7.20758 0
M  V30 45203 C 3225.97 1.7299 -7.50419 0
M  V30 45204 C 3225.24 0.406376 -7.57911 0
M  V30 45205 O 3225.03 -0.0897726 -6.21935 0
M  V30 45206 C 3223.84 0.447224 -8.1878 0
M  V30 45207 O 3223.45 -0.825065 -8.71101 0
M  V30 45208 C 3222.96 0.783801 -6.99623 0
M  V30 45209 C 3223.67 0.0619192 -5.85967 0
M  V30 45210 N 3223.62 0.790462 -4.56202 0
M  V30 45211 H 3226.46 1.93423 -8.4679 0
M  V30 45212 H 3226.73 1.68852 -6.70877 0
M  V30 45213 H 3225.86 -0.289041 -8.15388 0
M  V30 45214 H 3223.21 -0.927006 -5.72848 0
M  V30 45215 H 3222.93 1.86973 -6.82036 0
M  V30 45216 H 3221.94 0.403953 -7.13357 0
M  V30 45217 H 3223.77 1.20599 -8.97534 0
M  V30 45218 P 3221.9 -1.17771 -8.83182 0
M  V30 45219 O 3221.68 -2.07206 -9.98732 0
M  V30 45220 O 3221.11 0.0743816 -8.81969 0
M  V30 45221 O 3221.65 -1.97652 -7.47304 0
M  V30 45222 C 3222.59 -3.01133 -7.08783 0
M  V30 45223 C 3221.86 -4.12613 -6.37049 0
M  V30 45224 O 3221.65 -3.72827 -4.97879 0
M  V30 45225 C 3220.46 -4.45085 -6.88694 0
M  V30 45226 O 3220.07 -5.7877 -6.5624 0
M  V30 45227 C 3219.58 -3.47817 -6.12078 0
M  V30 45228 C 3220.29 -3.39414 -4.77697 0
M  V30 45229 N 3220.24 -2.04199 -4.15538 0
M  V30 45230 H 3223.08 -3.41248 -7.98759 0
M  V30 45231 H 3223.35 -2.57728 -6.42 0
M  V30 45232 H 3222.48 -5.02657 -6.42673 0
M  V30 45233 H 3219.83 -4.11708 -4.08956 0
M  V30 45234 H 3219.55 -2.49626 -6.61679 0
M  V30 45235 H 3218.56 -3.8662 -6.00862 0
M  V30 45236 H 3220.39 -4.29991 -7.97006 0
M  V30 45237 P 3218.52 -6.144 -6.45285 0
M  V30 45238 O 3218.3 -7.54673 -6.86199 0
M  V30 45239 O 3217.73 -5.12391 -7.179 0
M  V30 45240 O 3218.27 -5.99158 -4.88404 0
M  V30 45241 C 3219.21 -6.60234 -3.96415 0
M  V30 45242 C 3218.48 -7.08259 -2.72856 0
M  V30 45243 O 3218.27 -5.9427 -1.83651 0
M  V30 45244 C 3217.08 -7.64886 -2.9555 0
M  V30 45245 O 3216.69 -8.53963 -1.90717 0
M  V30 45246 C 3216.2 -6.4116 -2.90739 0
M  V30 45247 C 3216.91 -5.55375 -1.86963 0
M  V30 45248 N 3216.86 -4.09664 -2.15742 0
M  V30 45249 H 3219.7 -7.45574 -4.45629 0
M  V30 45250 H 3219.97 -5.86232 -3.67314 0
M  V30 45251 H 3219.1 -7.84412 -2.24479 0
M  V30 45252 P 3215.14 -8.7635 -1.60911 0
M  V30 45253 O 3214.92 -10.1388 -1.11561 0
M  V30 45254 O 3214.35 -8.36503 -2.79617 0
M  V30 45255 O 3214.89 -7.71806 -0.42951 0
M  V30 45256 C 3215.83 -7.67148 0.673689 0
M  V30 45257 C 3215.1 -7.33374 1.95559 0
M  V30 45258 O 3214.89 -5.88721 2.00726 0
M  V30 45259 C 3213.7 -7.92526 2.10483 0
M  V30 45260 O 3213.31 -8.02971 3.47653 0
M  V30 45261 C 3212.82 -6.89602 1.41652 0
M  V30 45262 C 3213.53 -5.59201 1.75185 0
M  V30 45263 N 3213.48 -4.58301 0.657969 0
M  V30 45264 H 3216.32 -8.65116 0.777161 0
M  V30 45265 H 3216.59 -6.9022 0.46725 0
M  V30 45266 H 3215.72 -7.66548 2.79458 0
M  V30 45267 H 3213.07 -5.16165 2.65183 0
M  V30 45268 H 3212.79 -7.06433 0.329384 0
M  V30 45269 H 3211.8 -6.90926 1.82021 0
M  V30 45270 H 3213.63 -8.90873 1.62657 0
M  V30 45271 P 3211.76 -8.03563 3.84925 0
M  V30 45272 O 3211.54 -8.85821 5.0569 0
M  V30 45273 O 3210.97 -8.41101 2.65469 0
M  V30 45274 O 3211.51 -6.4965 4.18908 0
M  V30 45275 C 3212.45 -5.81037 5.05421 0
M  V30 45276 C 3211.72 -4.78366 5.89277 0
M  V30 45277 O 3211.51 -3.58302 5.08433 0
M  V30 45278 C 3210.32 -5.17448 6.36119 0
M  V30 45279 O 3209.93 -4.45271 7.53232 0
M  V30 45280 C 3209.44 -4.74639 5.19936 0
M  V30 45281 C 3210.15 -3.49432 4.70418 0
M  V30 45282 N 3210.1 -3.31776 3.22945 0
M  V30 45283 H 3212.94 -6.54213 5.71376 0
M  V30 45284 H 3213.21 -5.30492 4.44033 0
M  V30 45285 H 3212.34 -4.55889 6.76652 0
M  V30 45286 P 3208.38 -4.23843 7.83734 0
M  V30 45287 O 3208.16 -4.19407 9.29784 0
M  V30 45288 O 3207.59 -5.24426 7.09156 0
M  V30 45289 O 3208.13 -2.7935 7.20758 0
M  V30 45290 C 3209.07 -1.7299 7.50419 0
M  V30 45291 C 3208.34 -0.406376 7.57911 0
M  V30 45292 O 3208.13 0.0897726 6.21935 0
M  V30 45293 C 3206.94 -0.447224 8.1878 0
M  V30 45294 O 3206.55 0.825065 8.71101 0
M  V30 45295 C 3206.06 -0.783801 6.99623 0
M  V30 45296 C 3206.77 -0.0619192 5.85967 0
M  V30 45297 N 3206.72 -0.7859 4.56281 0
M  V30 45298 H 3209.56 -1.93423 8.4679 0
M  V30 45299 H 3209.83 -1.68181 6.71046 0
M  V30 45300 H 3208.96 0.289041 8.15388 0
M  V30 45301 P 3205 1.17771 8.83182 0
M  V30 45302 O 3204.78 2.07206 9.98732 0
M  V30 45303 O 3204.21 -0.0743816 8.81969 0
M  V30 45304 O 3204.75 1.97652 7.47304 0
M  V30 45305 C 3205.69 3.01133 7.08783 0
M  V30 45306 C 3204.96 4.12613 6.37049 0
M  V30 45307 O 3204.75 3.72827 4.97879 0
M  V30 45308 C 3203.56 4.45085 6.88694 0
M  V30 45309 O 3203.17 5.7877 6.5624 0
M  V30 45310 C 3202.68 3.47817 6.12078 0
M  V30 45311 C 3203.39 3.39414 4.77697 0
M  V30 45312 N 3203.34 2.04615 4.15333 0
M  V30 45313 H 3206.18 3.41248 7.98759 0
M  V30 45314 H 3206.45 2.5837 6.41742 0
M  V30 45315 H 3205.58 5.02657 6.42673 0
M  V30 45316 P 3201.62 6.144 6.45285 0
M  V30 45317 O 3201.4 7.54673 6.86199 0
M  V30 45318 O 3200.83 5.12391 7.179 0
M  V30 45319 O 3201.37 5.99158 4.88404 0
M  V30 45320 C 3202.31 6.60234 3.96415 0
M  V30 45321 C 3201.58 7.08259 2.72856 0
M  V30 45322 O 3201.37 5.9427 1.83651 0
M  V30 45323 C 3200.18 7.64886 2.9555 0
M  V30 45324 O 3199.79 8.53963 1.90717 0
M  V30 45325 C 3199.3 6.4116 2.90739 0
M  V30 45326 C 3200.01 5.55375 1.86963 0
M  V30 45327 N 3199.96 4.09448 2.16152 0
M  V30 45328 C 3200.04 3.46824 3.37593 0
M  V30 45329 N 3199.97 2.17422 3.29777 0
M  V30 45330 C 3199.82 1.93065 1.94427 0
M  V30 45331 C 3199.69 0.738053 1.20141 0
M  V30 45332 N 3199.68 -0.474256 1.74676 0
M  V30 45333 N 3199.57 0.850049 -0.13045 0
M  V30 45334 C 3199.58 2.06169 -0.676992 0
M  V30 45335 N 3199.7 3.23842 -0.101312 0
M  V30 45336 C 3199.82 3.09402 1.23122 0
M  V30 45337 H 3202.8 7.45574 4.45629 0
M  V30 45338 H 3203.07 5.85864 3.679 0
M  V30 45339 H 3202.2 7.84412 2.24479 0
M  V30 45340 H 3199.55 5.73457 0.888562 0
M  V30 45341 H 3199.27 5.90877 3.88583 0
M  V30 45342 H 3198.28 6.6596 2.58858 0
M  V30 45343 H 3200.11 8.16339 3.92049 0
M  V30 45344 H 3200.15 4.00505 4.3174 0
M  V30 45345 H 3199.77 -0.581337 2.76658 0
M  V30 45346 H 3199.58 -1.30811 1.14888 0
M  V30 45347 H 3199.48 2.08295 -1.75542 0
M  V30 45348 P 3198.24 8.7635 1.60911 0
M  V30 45349 O 3198.02 10.1388 1.11561 0
M  V30 45350 O 3197.45 8.36503 2.79617 0
M  V30 45351 O 3197.99 7.71806 0.42951 0
M  V30 45352 C 3198.93 7.67148 -0.673689 0
M  V30 45353 C 3198.2 7.33374 -1.95559 0
M  V30 45354 O 3197.99 5.88721 -2.00726 0
M  V30 45355 C 3196.8 7.92526 -2.10483 0
M  V30 45356 O 3196.41 8.02971 -3.47653 0
M  V30 45357 C 3195.92 6.89602 -1.41652 0
M  V30 45358 C 3196.63 5.59201 -1.75185 0
M  V30 45359 N 3196.58 4.58235 -0.662552 0
M  V30 45360 H 3199.42 8.65116 -0.777161 0
M  V30 45361 H 3199.69 6.90173 -0.474152 0
M  V30 45362 H 3198.82 7.66548 -2.79458 0
M  V30 45363 P 3194.86 8.03563 -3.84925 0
M  V30 45364 O 3194.64 8.85821 -5.0569 0
M  V30 45365 O 3194.07 8.41101 -2.65469 0
M  V30 45366 O 3194.61 6.4965 -4.18908 0
M  V30 45367 C 3195.55 5.80886 -5.05289 0
M  V30 45368 C 3194.82 4.78366 -5.89277 0
M  V30 45369 O 3194.61 3.58302 -5.08433 0
M  V30 45370 C 3193.42 5.16748 -6.36559 0
M  V30 45371 O 3193.03 4.45271 -7.53232 0
M  V30 45372 C 3192.54 4.74572 -5.19863 0
M  V30 45373 C 3193.25 3.49373 -4.70338 0
M  V30 45374 N 3193.2 3.31704 -3.22876 0
M  V30 45375 C 3193.05 2.03326 -2.74871 0
M  V30 45376 O 3192.96 1.06486 -3.48076 0
M  V30 45377 N 3193.01 1.91838 -1.37456 0
M  V30 45378 C 3193.1 2.94295 -0.462035 0
M  V30 45379 O 3193.05 2.71763 0.752928 0
M  V30 45380 C 3193.25 4.25064 -1.05249 0
M  V30 45381 C 3193.36 5.39815 -0.095697 0
M  V30 45382 C 3193.3 4.40214 -2.39192 0
M  V30 45383 H 3196.04 6.54063 -5.71245 0
M  V30 45384 H 3196.31 5.30339 -4.43905 0
M  V30 45385 H 3195.44 4.55889 -6.76652 0
M  V30 45386 H 3192.79 2.6167 -5.17842 0
M  V30 45387 H 3192.51 5.52155 -4.41878 0
M  V30 45388 H 3191.52 4.51918 -5.53297 0
M  V30 45389 H 3193.35 6.25055 -6.55162 0
M  V30 45390 H 3193.42 5.39798 -2.81523 0
M  V30 45391 H 3192.39 5.91593 -0.0279582 0
M  V30 45392 H 3194.13 6.10038 -0.450573 0
M  V30 45393 H 3193.64 5.02007 0.89937 0
M  V30 45394 H 3192.91 0.995326 -1.00435 0
M  V30 45395 P 3191.48 4.23843 -7.83734 0
M  V30 45396 O 3191.26 4.19407 -9.29784 0
M  V30 45397 O 3190.69 5.24426 -7.09156 0
M  V30 45398 O 3191.23 2.7935 -7.20758 0
M  V30 45399 C 3192.17 1.7299 -7.50419 0
M  V30 45400 C 3191.44 0.406376 -7.57911 0
M  V30 45401 O 3191.23 -0.0897726 -6.21935 0
M  V30 45402 C 3190.04 0.447224 -8.1878 0
M  V30 45403 O 3189.65 -0.825065 -8.71101 0
M  V30 45404 C 3189.16 0.783801 -6.99623 0
M  V30 45405 C 3189.87 0.0619192 -5.85967 0
M  V30 45406 N 3189.82 0.7859 -4.56281 0
M  V30 45407 H 3192.66 1.93423 -8.4679 0
M  V30 45408 H 3192.93 1.68181 -6.71046 0
M  V30 45409 H 3192.06 -0.289041 -8.15388 0
M  V30 45410 P 3188.1 -1.17771 -8.83182 0
M  V30 45411 O 3187.88 -2.07206 -9.98732 0
M  V30 45412 O 3187.31 0.0743816 -8.81969 0
M  V30 45413 O 3187.85 -1.97652 -7.47304 0
M  V30 45414 C 3188.79 -3.01133 -7.08783 0
M  V30 45415 C 3188.06 -4.12613 -6.37049 0
M  V30 45416 O 3187.85 -3.72827 -4.97879 0
M  V30 45417 C 3186.66 -4.45085 -6.88694 0
M  V30 45418 O 3186.27 -5.7877 -6.5624 0
M  V30 45419 C 3185.78 -3.47817 -6.12078 0
M  V30 45420 C 3186.49 -3.39414 -4.77697 0
M  V30 45421 N 3186.44 -2.04615 -4.15333 0
M  V30 45422 H 3189.28 -3.41248 -7.98759 0
M  V30 45423 H 3189.55 -2.5837 -6.41742 0
M  V30 45424 H 3188.68 -5.02657 -6.42673 0
M  V30 45425 P 3184.72 -6.144 -6.45285 0
M  V30 45426 O 3184.5 -7.54673 -6.86199 0
M  V30 45427 O 3183.93 -5.12391 -7.179 0
M  V30 45428 O 3184.47 -5.99158 -4.88404 0
M  V30 45429 C 3185.41 -6.60234 -3.96415 0
M  V30 45430 C 3184.68 -7.08259 -2.72856 0
M  V30 45431 O 3184.47 -5.9427 -1.83651 0
M  V30 45432 C 3183.28 -7.64886 -2.9555 0
M  V30 45433 O 3182.89 -8.53963 -1.90717 0
M  V30 45434 C 3182.4 -6.4116 -2.90739 0
M  V30 45435 C 3183.11 -5.55375 -1.86963 0
M  V30 45436 N 3183.06 -4.09664 -2.15742 0
M  V30 45437 H 3185.9 -7.45574 -4.45629 0
M  V30 45438 H 3186.17 -5.86232 -3.67314 0
M  V30 45439 H 3185.3 -7.84412 -2.24479 0
M  V30 45440 P 3181.34 -8.7635 -1.60911 0
M  V30 45441 O 3181.12 -10.1388 -1.11561 0
M  V30 45442 O 3180.55 -8.36503 -2.79617 0
M  V30 45443 O 3181.09 -7.71806 -0.42951 0
M  V30 45444 C 3182.03 -7.67148 0.673689 0
M  V30 45445 C 3181.3 -7.33374 1.95559 0
M  V30 45446 O 3181.09 -5.88721 2.00726 0
M  V30 45447 C 3179.9 -7.92526 2.10483 0
M  V30 45448 O 3179.51 -8.02971 3.47653 0
M  V30 45449 C 3179.02 -6.89602 1.41652 0
M  V30 45450 C 3179.73 -5.59201 1.75185 0
M  V30 45451 N 3179.68 -4.58235 0.662552 0
M  V30 45452 H 3182.52 -8.65116 0.777161 0
M  V30 45453 H 3182.79 -6.90173 0.474152 0
M  V30 45454 H 3181.92 -7.66548 2.79458 0
M  V30 45455 P 3177.96 -8.03563 3.84925 0
M  V30 45456 O 3177.74 -8.85821 5.0569 0
M  V30 45457 O 3177.17 -8.41101 2.65469 0
M  V30 45458 O 3177.71 -6.4965 4.18908 0
M  V30 45459 C 3178.65 -5.81037 5.05421 0
M  V30 45460 C 3177.92 -4.78366 5.89277 0
M  V30 45461 O 3177.71 -3.58302 5.08433 0
M  V30 45462 C 3176.52 -5.17448 6.36119 0
M  V30 45463 O 3176.13 -4.45271 7.53232 0
M  V30 45464 C 3175.64 -4.74639 5.19936 0
M  V30 45465 C 3176.35 -3.49432 4.70418 0
M  V30 45466 N 3176.3 -3.31776 3.22945 0
M  V30 45467 C 3176.38 -4.27147 2.23315 0
M  V30 45468 N 3176.3 -3.78447 1.02186 0
M  V30 45469 C 3176.16 -2.41001 1.21732 0
M  V30 45470 C 3176.03 -1.36111 0.27694 0
M  V30 45471 N 3175.91 -0.113683 0.912949 0
M  V30 45472 C 3175.91 0.0846396 2.27943 0
M  V30 45473 N 3175.78 1.34737 2.6916 0
M  V30 45474 N 3176.04 -0.902521 3.16379 0
M  V30 45475 C 3176.16 -2.11937 2.56849 0
M  V30 45476 H 3179.14 -6.54213 5.71376 0
M  V30 45477 H 3179.41 -5.30492 4.44033 0
M  V30 45478 H 3178.54 -4.55889 6.76652 0
M  V30 45479 P 3174.58 -4.23843 7.83734 0
M  V30 45480 O 3174.36 -4.19407 9.29784 0
M  V30 45481 O 3173.79 -5.24426 7.09156 0
M  V30 45482 O 3174.33 -2.7935 7.20758 0
M  V30 45483 C 3175.27 -1.7299 7.50419 0
M  V30 45484 C 3174.54 -0.406376 7.57911 0
M  V30 45485 O 3174.33 0.0897726 6.21935 0
M  V30 45486 C 3173.14 -0.447224 8.1878 0
M  V30 45487 O 3172.75 0.825065 8.71101 0
M  V30 45488 C 3172.26 -0.783801 6.99623 0
M  V30 45489 C 3172.97 -0.0619192 5.85967 0
M  V30 45490 N 3172.92 -0.7859 4.56281 0
M  V30 45491 H 3175.76 -1.93423 8.4679 0
M  V30 45492 H 3176.03 -1.68181 6.71046 0
M  V30 45493 H 3175.16 0.289041 8.15388 0
M  V30 45494 P 3171.2 1.17771 8.83182 0
M  V30 45495 O 3170.98 2.07206 9.98732 0
M  V30 45496 O 3170.41 -0.0743816 8.81969 0
M  V30 45497 O 3170.95 1.97678 7.474 0
M  V30 45498 C 3171.89 3.01133 7.08783 0
M  V30 45499 C 3171.16 4.1203 6.37546 0
M  V30 45500 O 3170.95 3.72887 4.9796 0
M  V30 45501 C 3169.76 4.45085 6.88694 0
M  V30 45502 O 3169.37 5.78836 6.56315 0
M  V30 45503 C 3168.88 3.47817 6.12078 0
M  V30 45504 C 3169.59 3.39414 4.77697 0
M  V30 45505 N 3169.54 2.04615 4.15333 0
M  V30 45506 C 3169.39 1.96929 2.77162 0
M  V30 45507 O 3169.3 3.02017 2.12006 0
M  V30 45508 N 3169.34 0.55485 2.24237 0
M  V30 45509 C 3169.44 -0.367808 2.9169 0
M  V30 45510 N 3169.39 -1.53426 2.29427 0
M  V30 45511 C 3169.59 -0.319148 4.33828 0
M  V30 45512 C 3169.64 0.920672 4.90433 0
M  V30 45513 H 3172.38 3.41209 7.98667 0
M  V30 45514 H 3172.65 2.5837 6.41742 0
M  V30 45515 H 3171.78 5.02718 6.42752 0
M  V30 45516 H 3169.13 4.11779 4.09026 0
M  V30 45517 H 3168.85 2.49661 6.61772 0
M  V30 45518 H 3167.86 3.86674 6.00946 0
M  V30 45519 H 3169.69 4.29991 7.97006 0
M  V30 45520 H 3169.76 1.00589 5.98303 0
M  V30 45521 H 3169.66 -1.22639 4.93799 0
M  V30 45522 H 3169.27 -1.56819 1.27167 0
M  V30 45523 H 3169.47 -2.41062 2.83063 0
M  V30 45524 P 3167.82 6.144 6.45285 0
M  V30 45525 O 3167.6 7.54673 6.86199 0
M  V30 45526 O 3167.03 5.12391 7.179 0
M  V30 45527 O 3167.57 5.99158 4.88404 0
M  V30 45528 C 3168.51 6.60234 3.96415 0
M  V30 45529 C 3167.78 7.08259 2.72856 0
M  V30 45530 O 3167.57 5.9427 1.83651 0
M  V30 45531 C 3166.38 7.64886 2.9555 0
M  V30 45532 O 3165.99 8.53963 1.90717 0
M  V30 45533 C 3165.5 6.4116 2.90739 0
M  V30 45534 C 3166.21 5.55375 1.86963 0
M  V30 45535 N 3166.16 4.09448 2.16152 0
M  V30 45536 H 3169 7.45574 4.45629 0
M  V30 45537 H 3169.27 5.85864 3.679 0
M  V30 45538 H 3168.4 7.84412 2.24479 0
M  V30 45539 H 3165.75 5.73457 0.888562 0
M  V30 45540 H 3165.47 5.90877 3.88583 0
M  V30 45541 H 3164.48 6.6596 2.58858 0
M  V30 45542 H 3166.31 8.16339 3.92049 0
M  V30 45543 P 3164.44 8.7635 1.60911 0
M  V30 45544 O 3164.22 10.1388 1.11561 0
M  V30 45545 O 3163.65 8.36503 2.79617 0
M  V30 45546 O 3164.19 7.71906 0.429565 0
M  V30 45547 C 3165.13 7.67148 -0.673689 0
M  V30 45548 C 3164.4 7.33666 -1.94851 0
M  V30 45549 O 3164.19 5.88816 -2.00759 0
M  V30 45550 C 3163 7.92526 -2.10483 0
M  V30 45551 O 3162.61 8.03063 -3.47693 0
M  V30 45552 C 3162.12 6.89602 -1.41652 0
M  V30 45553 C 3162.83 5.59201 -1.75185 0
M  V30 45554 N 3162.78 4.58235 -0.662552 0
M  V30 45555 C 3162.63 3.24451 -1.01643 0
M  V30 45556 O 3162.54 2.94958 -2.21722 0
M  V30 45557 N 3162.58 2.30408 0.165238 0
M  V30 45558 C 3162.68 2.66048 1.25118 0
M  V30 45559 N 3162.63 1.70787 2.16813 0
M  V30 45560 C 3162.83 4.02732 1.64413 0
M  V30 45561 C 3162.88 4.9488 0.63991 0
M  V30 45562 H 3165.62 8.65017 -0.777072 0
M  V30 45563 H 3165.89 6.90173 -0.474152 0
M  V30 45564 H 3165.02 7.66642 -2.79492 0
M  V30 45565 H 3162.37 5.16254 -2.65229 0
M  V30 45566 H 3162.09 7.06532 -0.329431 0
M  V30 45567 H 3161.1 6.91023 -1.82047 0
M  V30 45568 H 3162.93 8.90873 -1.62657 0
M  V30 45569 H 3163 6.00104 0.892197 0
M  V30 45570 H 3162.9 4.31733 2.69229 0
M  V30 45571 H 3162.51 0.724835 1.8844 0
M  V30 45572 H 3162.71 1.94716 3.16734 0
M  V30 45573 P 3161.06 8.03563 -3.84925 0
M  V30 45574 O 3160.84 8.85821 -5.0569 0
M  V30 45575 O 3160.27 8.41101 -2.65469 0
M  V30 45576 O 3160.81 6.4965 -4.18908 0
M  V30 45577 C 3161.75 5.81037 -5.05421 0
M  V30 45578 C 3161.02 4.78366 -5.89277 0
M  V30 45579 O 3160.81 3.58302 -5.08433 0
M  V30 45580 C 3159.62 5.17448 -6.36119 0
M  V30 45581 O 3159.23 4.45271 -7.53232 0
M  V30 45582 C 3158.74 4.74639 -5.19936 0
M  V30 45583 C 3159.45 3.49432 -4.70418 0
M  V30 45584 N 3159.4 3.31776 -3.22945 0
M  V30 45585 H 3162.24 6.54213 -5.71376 0
M  V30 45586 H 3162.51 5.30492 -4.44033 0
M  V30 45587 H 3161.64 4.55889 -6.76652 0
M  V30 45588 P 3157.68 4.23843 -7.83734 0
M  V30 45589 O 3157.46 4.19407 -9.29784 0
M  V30 45590 O 3156.89 5.24426 -7.09156 0
M  V30 45591 O 3157.43 2.7935 -7.20758 0
M  V30 45592 C 3158.37 1.72945 -7.50224 0
M  V30 45593 C 3157.64 0.406376 -7.57911 0
M  V30 45594 O 3157.43 -0.0897726 -6.21935 0
M  V30 45595 C 3156.24 0.438983 -8.18724 0
M  V30 45596 O 3155.85 -0.825065 -8.71101 0
M  V30 45597 C 3155.36 0.783689 -6.99524 0
M  V30 45598 C 3156.07 0.0619086 -5.85867 0
M  V30 45599 N 3156.02 0.78573 -4.56183 0
M  V30 45600 C 3155.87 0.0292889 -3.41887 0
M  V30 45601 O 3155.78 -1.18445 -3.4419 0
M  V30 45602 N 3155.83 0.744061 -2.23964 0
M  V30 45603 C 3155.92 2.10932 -2.10362 0
M  V30 45604 C 3156.07 2.8202 -3.34994 0
M  V30 45605 C 3156.12 2.15547 -4.52261 0
M  V30 45606 H 3158.86 1.93379 -8.46595 0
M  V30 45607 H 3159.13 1.68132 -6.70852 0
M  V30 45608 H 3158.26 -0.289041 -8.15388 0
M  V30 45609 H 3155.61 -0.926847 -5.72749 0
M  V30 45610 H 3155.33 1.86973 -6.82036 0
M  V30 45611 H 3154.34 0.403896 -7.13257 0
M  V30 45612 H 3156.17 1.20585 -8.97435 0
M  V30 45613 H 3156.24 2.71231 -5.45042 0
M  V30 45614 P 3154.3 -1.17771 -8.83182 0
M  V30 45615 O 3154.08 -2.07206 -9.98732 0
M  V30 45616 O 3153.51 0.0743816 -8.81969 0
M  V30 45617 O 3154.05 -1.97652 -7.47304 0
M  V30 45618 C 3154.99 -3.01133 -7.08783 0
M  V30 45619 C 3154.26 -4.12613 -6.37049 0
M  V30 45620 O 3154.05 -3.72827 -4.97879 0
M  V30 45621 C 3152.86 -4.45085 -6.88694 0
M  V30 45622 O 3152.47 -5.7877 -6.5624 0
M  V30 45623 C 3151.98 -3.47817 -6.12078 0
M  V30 45624 C 3152.69 -3.39414 -4.77697 0
M  V30 45625 N 3152.64 -2.04615 -4.15333 0
M  V30 45626 C 3152.72 -0.803897 -4.75249 0
M  V30 45627 N 3152.64 0.197615 -3.91502 0
M  V30 45628 C 3152.5 -0.413002 -2.66823 0
M  V30 45629 C 3152.37 0.157221 -1.38007 0
M  V30 45630 N 3152.25 -0.833136 -0.390236 0
M  V30 45631 C 3152.25 -2.19402 -0.623885 0
M  V30 45632 N 3152.12 -2.97622 0.449677 0
M  V30 45633 N 3152.38 -2.73005 -1.83601 0
M  V30 45634 C 3152.5 -1.78786 -2.80935 0
M  V30 45635 H 3155.48 -3.41248 -7.98759 0
M  V30 45636 H 3155.75 -2.5837 -6.41742 0
M  V30 45637 H 3154.88 -5.02657 -6.42673 0
M  V30 45638 P 3150.92 -6.144 -6.45285 0
M  V30 45639 O 3150.7 -7.54673 -6.86199 0
M  V30 45640 O 3150.13 -5.12391 -7.179 0
M  V30 45641 O 3150.67 -5.99158 -4.88404 0
M  V30 45642 C 3151.61 -6.60234 -3.96415 0
M  V30 45643 C 3150.88 -7.08259 -2.72856 0
M  V30 45644 O 3150.67 -5.9427 -1.83651 0
M  V30 45645 C 3149.48 -7.64886 -2.9555 0
M  V30 45646 O 3149.09 -8.53963 -1.90717 0
M  V30 45647 C 3148.6 -6.4116 -2.90739 0
M  V30 45648 C 3149.31 -5.55375 -1.86963 0
M  V30 45649 N 3149.26 -4.09664 -2.15742 0
M  V30 45650 H 3152.1 -7.45574 -4.45629 0
M  V30 45651 H 3152.37 -5.86232 -3.67314 0
M  V30 45652 H 3151.5 -7.84412 -2.24479 0
M  V30 45653 P 3147.54 -8.7635 -1.60911 0
M  V30 45654 O 3147.32 -10.1388 -1.11561 0
M  V30 45655 O 3146.75 -8.36503 -2.79617 0
M  V30 45656 O 3147.29 -7.71806 -0.42951 0
M  V30 45657 C 3148.23 -7.67148 0.673689 0
M  V30 45658 C 3147.5 -7.33374 1.95559 0
M  V30 45659 O 3147.29 -5.88721 2.00726 0
M  V30 45660 C 3146.1 -7.92526 2.10483 0
M  V30 45661 O 3145.71 -8.02971 3.47653 0
M  V30 45662 C 3145.22 -6.89602 1.41652 0
M  V30 45663 C 3145.93 -5.59201 1.75185 0
M  V30 45664 N 3145.88 -4.58235 0.662552 0
M  V30 45665 H 3148.72 -8.65116 0.777161 0
M  V30 45666 H 3148.99 -6.90173 0.474152 0
M  V30 45667 H 3148.12 -7.66548 2.79458 0
M  V30 45668 P 3144.16 -8.03563 3.84925 0
M  V30 45669 O 3143.94 -8.85821 5.0569 0
M  V30 45670 O 3143.37 -8.41101 2.65469 0
M  V30 45671 O 3143.91 -6.49734 4.18962 0
M  V30 45672 C 3144.85 -5.81037 5.05421 0
M  V30 45673 C 3144.12 -4.79018 5.88876 0
M  V30 45674 O 3143.91 -3.58359 5.08515 0
M  V30 45675 C 3142.72 -5.17448 6.36119 0
M  V30 45676 O 3142.33 -4.45322 7.53318 0
M  V30 45677 C 3141.84 -4.74639 5.19936 0
M  V30 45678 C 3142.55 -3.49432 4.70418 0
M  V30 45679 N 3142.5 -3.31776 3.22945 0
M  V30 45680 C 3142.35 -2.02742 2.72939 0
M  V30 45681 O 3142.26 -1.08301 3.52749 0
M  V30 45682 N 3142.3 -1.96117 1.22063 0
M  V30 45683 C 3142.4 -2.8878 0.551566 0
M  V30 45684 N 3142.35 -2.65609 -0.750198 0
M  V30 45685 C 3142.55 -4.22457 1.03707 0
M  V30 45686 C 3142.6 -4.37979 2.39113 0
M  V30 45687 H 3145.34 -6.54138 5.7131 0
M  V30 45688 H 3145.61 -5.30492 4.44033 0
M  V30 45689 H 3144.74 -4.55945 6.76735 0
M  V30 45690 H 3142.09 -2.6176 5.18021 0
M  V30 45691 H 3141.81 -5.52233 4.41941 0
M  V30 45692 H 3140.82 -4.52045 5.53452 0
M  V30 45693 H 3142.65 -6.25124 6.55234 0
M  V30 45694 H 3142.72 -5.37936 2.80552 0
M  V30 45695 H 3142.62 -5.07528 0.359553 0
M  V30 45696 H 3142.23 -1.69403 -1.09847 0
M  V30 45697 H 3142.43 -3.43701 -1.41792 0
M  V30 45698 P 3140.78 -4.23843 7.83734 0
M  V30 45699 O 3140.56 -4.19407 9.29784 0
M  V30 45700 O 3139.99 -5.24426 7.09156 0
M  V30 45701 O 3140.53 -2.7935 7.20758 0
M  V30 45702 C 3141.47 -1.7299 7.50419 0
M  V30 45703 C 3140.74 -0.406376 7.57911 0
M  V30 45704 O 3140.53 0.0897726 6.21935 0
M  V30 45705 C 3139.34 -0.447224 8.1878 0
M  V30 45706 O 3138.95 0.825065 8.71101 0
M  V30 45707 C 3138.46 -0.783801 6.99623 0
M  V30 45708 C 3139.17 -0.0619192 5.85967 0
M  V30 45709 N 3139.12 -0.7859 4.56281 0
M  V30 45710 H 3141.96 -1.93423 8.4679 0
M  V30 45711 H 3142.23 -1.68181 6.71046 0
M  V30 45712 H 3141.36 0.289041 8.15388 0
M  V30 45713 P 3137.4 1.17771 8.83182 0
M  V30 45714 O 3137.18 2.07206 9.98732 0
M  V30 45715 O 3136.61 -0.0743816 8.81969 0
M  V30 45716 O 3137.15 1.97652 7.47304 0
M  V30 45717 C 3138.09 3.01133 7.08783 0
M  V30 45718 C 3137.36 4.12613 6.37049 0
M  V30 45719 O 3137.15 3.72827 4.97879 0
M  V30 45720 C 3135.96 4.45085 6.88694 0
M  V30 45721 O 3135.57 5.7877 6.5624 0
M  V30 45722 C 3135.08 3.47817 6.12078 0
M  V30 45723 C 3135.79 3.39414 4.77697 0
M  V30 45724 N 3135.74 2.04199 4.15538 0
M  V30 45725 H 3138.58 3.41248 7.98759 0
M  V30 45726 H 3138.85 2.57728 6.42 0
M  V30 45727 H 3137.98 5.02657 6.42673 0
M  V30 45728 H 3135.33 4.11708 4.08956 0
M  V30 45729 H 3135.05 2.49626 6.61679 0
M  V30 45730 H 3134.06 3.8662 6.00862 0
M  V30 45731 H 3135.89 4.29991 7.97006 0
M  V30 45732 P 3134.02 6.144 6.45285 0
M  V30 45733 O 3133.8 7.54673 6.86199 0
M  V30 45734 O 3133.23 5.12391 7.179 0
M  V30 45735 O 3133.77 5.99158 4.88404 0
M  V30 45736 C 3134.71 6.60234 3.96415 0
M  V30 45737 C 3133.98 7.08259 2.72856 0
M  V30 45738 O 3133.77 5.9427 1.83651 0
M  V30 45739 C 3132.58 7.64886 2.9555 0
M  V30 45740 O 3132.19 8.53963 1.90717 0
M  V30 45741 C 3131.7 6.4116 2.90739 0
M  V30 45742 C 3132.41 5.55375 1.86963 0
M  V30 45743 N 3132.36 4.09448 2.16152 0
M  V30 45744 C 3132.44 3.46824 3.37593 0
M  V30 45745 N 3132.37 2.17422 3.29777 0
M  V30 45746 C 3132.22 1.93065 1.94427 0
M  V30 45747 C 3132.09 0.738053 1.20141 0
M  V30 45748 N 3132.08 -0.474256 1.74676 0
M  V30 45749 N 3131.97 0.850049 -0.13045 0
M  V30 45750 C 3131.98 2.06169 -0.676992 0
M  V30 45751 N 3132.1 3.23842 -0.101312 0
M  V30 45752 C 3132.22 3.09402 1.23122 0
M  V30 45753 H 3135.2 7.45574 4.45629 0
M  V30 45754 H 3135.47 5.85864 3.679 0
M  V30 45755 H 3134.6 7.84412 2.24479 0
M  V30 45756 H 3131.95 5.73457 0.888562 0
M  V30 45757 H 3131.67 5.90877 3.88583 0
M  V30 45758 H 3130.68 6.6596 2.58858 0
M  V30 45759 H 3132.51 8.16339 3.92049 0
M  V30 45760 H 3132.55 4.00505 4.3174 0
M  V30 45761 H 3132.17 -0.581337 2.76658 0
M  V30 45762 H 3131.98 -1.30811 1.14888 0
M  V30 45763 H 3131.88 2.08295 -1.75542 0
M  V30 45764 P 3130.64 8.7635 1.60911 0
M  V30 45765 O 3130.42 10.1388 1.11561 0
M  V30 45766 O 3129.85 8.36503 2.79617 0
M  V30 45767 O 3130.39 7.71806 0.42951 0
M  V30 45768 C 3131.33 7.66948 -0.673514 0
M  V30 45769 C 3130.6 7.33374 -1.95559 0
M  V30 45770 O 3130.39 5.88721 -2.00726 0
M  V30 45771 C 3129.2 7.92218 -2.1125 0
M  V30 45772 O 3128.81 8.02971 -3.47653 0
M  V30 45773 C 3128.32 6.89504 -1.41631 0
M  V30 45774 C 3129.03 5.59106 -1.75155 0
M  V30 45775 N 3128.98 4.58136 -0.662409 0
M  V30 45776 C 3128.83 3.26059 -1.02863 0
M  V30 45777 O 3128.74 2.90743 -2.19009 0
M  V30 45778 N 3128.79 2.35995 0.0155585 0
M  V30 45779 C 3128.88 2.65248 1.35603 0
M  V30 45780 O 3128.83 1.75605 2.20651 0
M  V30 45781 C 3129.03 4.05747 1.64698 0
M  V30 45782 C 3129.14 4.42345 3.09553 0
M  V30 45783 C 3129.08 4.96734 0.652411 0
M  V30 45784 H 3131.82 8.64917 -0.776982 0
M  V30 45785 H 3132.09 6.89974 -0.474015 0
M  V30 45786 H 3131.22 7.66548 -2.79458 0
M  V30 45787 H 3128.57 5.16076 -2.65138 0
M  V30 45788 H 3128.29 7.06433 -0.329384 0
M  V30 45789 H 3127.3 6.90829 -1.81996 0
M  V30 45790 H 3129.13 8.90774 -1.62639 0
M  V30 45791 H 3129.2 6.02181 0.895285 0
M  V30 45792 H 3128.17 4.80252 3.45468 0
M  V30 45793 H 3129.91 5.20015 3.22119 0
M  V30 45794 H 3129.42 3.53269 3.67833 0
M  V30 45795 H 3128.69 1.39558 -0.227499 0
M  V30 45796 P 3127.26 8.03563 -3.84925 0
M  V30 45797 O 3127.04 8.85821 -5.0569 0
M  V30 45798 O 3126.47 8.41101 -2.65469 0
M  V30 45799 O 3127.01 6.4965 -4.18908 0
M  V30 45800 C 3127.95 5.81037 -5.05421 0
M  V30 45801 C 3127.22 4.78366 -5.89277 0
M  V30 45802 O 3127.01 3.58302 -5.08433 0
M  V30 45803 C 3125.82 5.17448 -6.36119 0
M  V30 45804 O 3125.43 4.45271 -7.53232 0
M  V30 45805 C 3124.94 4.74639 -5.19936 0
M  V30 45806 C 3125.65 3.49432 -4.70418 0
M  V30 45807 N 3125.6 3.32099 -3.22613 0
M  V30 45808 H 3128.44 6.54213 -5.71376 0
M  V30 45809 H 3128.71 5.30936 -4.43503 0
M  V30 45810 H 3127.84 4.55889 -6.76652 0
M  V30 45811 H 3125.19 2.61715 -5.17932 0
M  V30 45812 H 3124.91 5.52155 -4.41878 0
M  V30 45813 H 3123.92 4.51981 -5.53374 0
M  V30 45814 H 3125.75 6.25124 -6.55234 0
M  V30 45815 P 3123.88 4.23843 -7.83734 0
M  V30 45816 O 3123.66 4.19407 -9.29784 0
M  V30 45817 O 3123.09 5.24426 -7.09156 0
M  V30 45818 O 3123.63 2.7935 -7.20758 0
M  V30 45819 C 3124.57 1.7299 -7.50419 0
M  V30 45820 C 3123.84 0.406376 -7.57911 0
M  V30 45821 O 3123.63 -0.0897726 -6.21935 0
M  V30 45822 C 3122.44 0.447224 -8.1878 0
M  V30 45823 O 3122.05 -0.825065 -8.71101 0
M  V30 45824 C 3121.56 0.783801 -6.99623 0
M  V30 45825 C 3122.27 0.0619192 -5.85967 0
M  V30 45826 N 3122.22 0.7859 -4.56281 0
M  V30 45827 C 3122.3 2.14308 -4.31736 0
M  V30 45828 N 3122.22 2.46106 -3.05116 0
M  V30 45829 C 3122.08 1.23422 -2.4014 0
M  V30 45830 C 3121.95 0.938381 -1.02409 0
M  V30 45831 N 3121.83 -0.444647 -0.805413 0
M  V30 45832 C 3121.83 -1.40829 -1.79435 0
M  V30 45833 N 3121.7 -2.67213 -1.38558 0
M  V30 45834 N 3121.96 -1.12947 -3.09005 0
M  V30 45835 C 3122.08 0.204887 -3.32369 0
M  V30 45836 H 3125.06 1.93423 -8.4679 0
M  V30 45837 H 3125.33 1.68181 -6.71046 0
M  V30 45838 H 3124.46 -0.289041 -8.15388 0
M  V30 45839 P 3120.5 -1.17771 -8.83182 0
M  V30 45840 O 3120.28 -2.07206 -9.98732 0
M  V30 45841 O 3119.71 0.0743816 -8.81969 0
M  V30 45842 O 3120.25 -1.97652 -7.47304 0
M  V30 45843 C 3121.19 -3.01133 -7.08783 0
M  V30 45844 C 3120.46 -4.12613 -6.37049 0
M  V30 45845 O 3120.25 -3.72827 -4.97879 0
M  V30 45846 C 3119.06 -4.45085 -6.88694 0
M  V30 45847 O 3118.67 -5.7877 -6.5624 0
M  V30 45848 C 3118.18 -3.47817 -6.12078 0
M  V30 45849 C 3118.89 -3.39414 -4.77697 0
M  V30 45850 N 3118.84 -2.04615 -4.15333 0
M  V30 45851 C 3118.92 -0.803897 -4.75249 0
M  V30 45852 N 3118.84 0.197615 -3.91502 0
M  V30 45853 C 3118.7 -0.413002 -2.66823 0
M  V30 45854 C 3118.57 0.157221 -1.38007 0
M  V30 45855 N 3118.45 -0.833136 -0.390236 0
M  V30 45856 C 3118.45 -2.19402 -0.623885 0
M  V30 45857 N 3118.32 -2.97622 0.449677 0
M  V30 45858 N 3118.58 -2.73005 -1.83601 0
M  V30 45859 C 3118.7 -1.78786 -2.80935 0
M  V30 45860 H 3121.68 -3.41248 -7.98759 0
M  V30 45861 H 3121.95 -2.5837 -6.41742 0
M  V30 45862 H 3121.08 -5.02657 -6.42673 0
M  V30 45863 P 3117.12 -6.144 -6.45285 0
M  V30 45864 O 3116.9 -7.54673 -6.86199 0
M  V30 45865 O 3116.33 -5.12391 -7.179 0
M  V30 45866 O 3116.87 -5.99158 -4.88404 0
M  V30 45867 C 3117.81 -6.60234 -3.96415 0
M  V30 45868 C 3117.08 -7.08259 -2.72856 0
M  V30 45869 O 3116.87 -5.9427 -1.83651 0
M  V30 45870 C 3115.68 -7.64886 -2.9555 0
M  V30 45871 O 3115.29 -8.53963 -1.90717 0
M  V30 45872 C 3114.8 -6.4116 -2.90739 0
M  V30 45873 C 3115.51 -5.55375 -1.86963 0
M  V30 45874 N 3115.46 -4.09664 -2.15742 0
M  V30 45875 H 3118.3 -7.45574 -4.45629 0
M  V30 45876 H 3118.57 -5.86232 -3.67314 0
M  V30 45877 H 3117.7 -7.84412 -2.24479 0
M  V30 45878 P 3113.74 -8.7635 -1.60911 0
M  V30 45879 O 3113.52 -10.1388 -1.11561 0
M  V30 45880 O 3112.95 -8.36503 -2.79617 0
M  V30 45881 O 3113.49 -7.71806 -0.42951 0
M  V30 45882 C 3114.43 -7.67148 0.673689 0
M  V30 45883 C 3113.7 -7.33374 1.95559 0
M  V30 45884 O 3113.49 -5.88721 2.00726 0
M  V30 45885 C 3112.3 -7.92526 2.10483 0
M  V30 45886 O 3111.91 -8.02971 3.47653 0
M  V30 45887 C 3111.42 -6.89602 1.41652 0
M  V30 45888 C 3112.13 -5.59201 1.75185 0
M  V30 45889 N 3112.08 -4.58235 0.662552 0
M  V30 45890 H 3114.92 -8.65116 0.777161 0
M  V30 45891 H 3115.19 -6.90173 0.474152 0
M  V30 45892 H 3114.32 -7.66548 2.79458 0
M  V30 45893 P 3110.36 -8.03563 3.84925 0
M  V30 45894 O 3110.14 -8.85821 5.0569 0
M  V30 45895 O 3109.57 -8.41101 2.65469 0
M  V30 45896 O 3110.11 -6.4965 4.18908 0
M  V30 45897 C 3111.05 -5.80886 5.05289 0
M  V30 45898 C 3110.32 -4.78366 5.89277 0
M  V30 45899 O 3110.11 -3.58302 5.08433 0
M  V30 45900 C 3108.92 -5.16748 6.36559 0
M  V30 45901 O 3108.53 -4.45271 7.53232 0
M  V30 45902 C 3108.04 -4.74572 5.19863 0
M  V30 45903 C 3108.75 -3.49373 4.70338 0
M  V30 45904 N 3108.7 -3.31704 3.22876 0
M  V30 45905 C 3108.55 -2.03326 2.74871 0
M  V30 45906 O 3108.46 -1.06486 3.48076 0
M  V30 45907 N 3108.51 -1.91838 1.37456 0
M  V30 45908 C 3108.6 -2.94295 0.462035 0
M  V30 45909 C 3108.75 -4.25064 1.05249 0
M  V30 45910 C 3108.8 -4.40214 2.39192 0
M  V30 45911 H 3111.54 -6.54063 5.71245 0
M  V30 45912 H 3111.81 -5.30339 4.43905 0
M  V30 45913 H 3110.94 -4.55889 6.76652 0
M  V30 45914 H 3108.29 -2.6167 5.17842 0
M  V30 45915 H 3108.01 -5.52155 4.41878 0
M  V30 45916 H 3107.02 -4.51918 5.53297 0
M  V30 45917 H 3108.85 -6.25055 6.55162 0
M  V30 45918 H 3108.92 -5.39798 2.81523 0
M  V30 45919 P 3106.98 -4.23843 7.83734 0
M  V30 45920 O 3106.76 -4.19407 9.29784 0
M  V30 45921 O 3106.19 -5.24426 7.09156 0
M  V30 45922 O 3106.73 -2.7935 7.20758 0
M  V30 45923 C 3107.67 -1.7299 7.50419 0
M  V30 45924 C 3106.94 -0.406376 7.57911 0
M  V30 45925 O 3106.73 0.0897726 6.21935 0
M  V30 45926 C 3105.54 -0.447224 8.1878 0
M  V30 45927 O 3105.15 0.825065 8.71101 0
M  V30 45928 C 3104.66 -0.783801 6.99623 0
M  V30 45929 C 3105.37 -0.0619192 5.85967 0
M  V30 45930 N 3105.32 -0.790462 4.56202 0
M  V30 45931 H 3108.16 -1.93423 8.4679 0
M  V30 45932 H 3108.43 -1.68852 6.70877 0
M  V30 45933 H 3107.56 0.289041 8.15388 0
M  V30 45934 H 3104.91 0.927006 5.72848 0
M  V30 45935 H 3104.63 -1.86973 6.82036 0
M  V30 45936 H 3103.64 -0.403953 7.13357 0
M  V30 45937 H 3105.47 -1.20599 8.97534 0
M  V30 45938 P 3103.6 1.17771 8.83182 0
M  V30 45939 O 3103.38 2.07206 9.98732 0
M  V30 45940 O 3102.81 -0.0743816 8.81969 0
M  V30 45941 O 3103.35 1.97652 7.47304 0
M  V30 45942 C 3104.29 3.01133 7.08783 0
M  V30 45943 C 3103.56 4.12613 6.37049 0
M  V30 45944 O 3103.35 3.72827 4.97879 0
M  V30 45945 C 3102.16 4.45085 6.88694 0
M  V30 45946 O 3101.77 5.7877 6.5624 0
M  V30 45947 C 3101.28 3.47817 6.12078 0
M  V30 45948 C 3101.99 3.39414 4.77697 0
M  V30 45949 N 3101.94 2.04199 4.15538 0
M  V30 45950 H 3104.78 3.41248 7.98759 0
M  V30 45951 H 3105.05 2.57728 6.42 0
M  V30 45952 H 3104.18 5.02657 6.42673 0
M  V30 45953 H 3101.53 4.11708 4.08956 0
M  V30 45954 H 3101.25 2.49626 6.61679 0
M  V30 45955 H 3100.26 3.8662 6.00862 0
M  V30 45956 H 3102.09 4.29991 7.97006 0
M  V30 45957 P 3100.22 6.144 6.45285 0
M  V30 45958 O 3100 7.54673 6.86199 0
M  V30 45959 O 3099.43 5.12391 7.179 0
M  V30 45960 O 3099.97 5.99158 4.88404 0
M  V30 45961 C 3100.91 6.60234 3.96415 0
M  V30 45962 C 3100.18 7.08259 2.72856 0
M  V30 45963 O 3099.97 5.9427 1.83651 0
M  V30 45964 C 3098.78 7.64886 2.9555 0
M  V30 45965 O 3098.39 8.53963 1.90717 0
M  V30 45966 C 3097.9 6.4116 2.90739 0
M  V30 45967 C 3098.61 5.55375 1.86963 0
M  V30 45968 N 3098.56 4.09664 2.15742 0
M  V30 45969 H 3101.4 7.45574 4.45629 0
M  V30 45970 H 3101.67 5.86232 3.67314 0
M  V30 45971 H 3100.8 7.84412 2.24479 0
M  V30 45972 P 3096.84 8.7635 1.60911 0
M  V30 45973 O 3096.62 10.1388 1.11561 0
M  V30 45974 O 3096.05 8.36503 2.79617 0
M  V30 45975 O 3096.59 7.71806 0.42951 0
M  V30 45976 C 3097.53 7.67148 -0.673689 0
M  V30 45977 C 3096.8 7.33374 -1.95559 0
M  V30 45978 O 3096.59 5.88721 -2.00726 0
M  V30 45979 C 3095.4 7.92526 -2.10483 0
M  V30 45980 O 3095.01 8.02971 -3.47653 0
M  V30 45981 C 3094.52 6.89602 -1.41652 0
M  V30 45982 C 3095.23 5.59201 -1.75185 0
M  V30 45983 N 3095.18 4.58301 -0.657969 0
M  V30 45984 H 3098.02 8.65116 -0.777161 0
M  V30 45985 H 3098.29 6.9022 -0.46725 0
M  V30 45986 H 3097.42 7.66548 -2.79458 0
M  V30 45987 H 3094.77 5.16165 -2.65183 0
M  V30 45988 H 3094.49 7.06433 -0.329384 0
M  V30 45989 H 3093.5 6.90926 -1.82021 0
M  V30 45990 H 3095.33 8.90873 -1.62657 0
M  V30 45991 P 3093.46 8.03563 -3.84925 0
M  V30 45992 O 3093.24 8.85821 -5.0569 0
M  V30 45993 O 3092.67 8.41101 -2.65469 0
M  V30 45994 O 3093.21 6.4965 -4.18908 0
M  V30 45995 C 3094.15 5.81037 -5.05421 0
M  V30 45996 C 3093.42 4.78366 -5.89277 0
M  V30 45997 O 3093.21 3.58302 -5.08433 0
M  V30 45998 C 3092.02 5.17448 -6.36119 0
M  V30 45999 O 3091.63 4.45271 -7.53232 0
M  V30 46000 C 3091.14 4.74639 -5.19936 0
M  V30 46001 C 3091.85 3.49432 -4.70418 0
M  V30 46002 N 3091.8 3.31776 -3.22945 0
M  V30 46003 H 3094.64 6.54213 -5.71376 0
M  V30 46004 H 3094.91 5.30492 -4.44033 0
M  V30 46005 H 3094.04 4.55889 -6.76652 0
M  V30 46006 P 3090.08 4.23843 -7.83734 0
M  V30 46007 O 3089.86 4.19407 -9.29784 0
M  V30 46008 O 3089.29 5.24426 -7.09156 0
M  V30 46009 O 3089.83 2.7935 -7.20758 0
M  V30 46010 C 3090.77 1.7299 -7.50419 0
M  V30 46011 C 3090.04 0.406376 -7.57911 0
M  V30 46012 O 3089.83 -0.0897726 -6.21935 0
M  V30 46013 C 3088.64 0.447224 -8.1878 0
M  V30 46014 O 3088.25 -0.825065 -8.71101 0
M  V30 46015 C 3087.76 0.783801 -6.99623 0
M  V30 46016 C 3088.47 0.0619192 -5.85967 0
M  V30 46017 N 3088.42 0.7859 -4.56281 0
M  V30 46018 H 3091.26 1.93423 -8.4679 0
M  V30 46019 H 3091.53 1.68181 -6.71046 0
M  V30 46020 H 3090.66 -0.289041 -8.15388 0
M  V30 46021 P 3086.7 -1.17771 -8.83182 0
M  V30 46022 O 3086.48 -2.07206 -9.98732 0
M  V30 46023 O 3085.91 0.0743816 -8.81969 0
M  V30 46024 O 3086.45 -1.97652 -7.47304 0
M  V30 46025 C 3087.39 -3.01133 -7.08783 0
M  V30 46026 C 3086.66 -4.12613 -6.37049 0
M  V30 46027 O 3086.45 -3.72827 -4.97879 0
M  V30 46028 C 3085.26 -4.45085 -6.88694 0
M  V30 46029 O 3084.87 -5.7877 -6.5624 0
M  V30 46030 C 3084.38 -3.47817 -6.12078 0
M  V30 46031 C 3085.09 -3.39414 -4.77697 0
M  V30 46032 N 3085.04 -2.04615 -4.15333 0
M  V30 46033 H 3087.88 -3.41248 -7.98759 0
M  V30 46034 H 3088.15 -2.5837 -6.41742 0
M  V30 46035 H 3087.28 -5.02657 -6.42673 0
M  V30 46036 P 3083.32 -6.144 -6.45285 0
M  V30 46037 O 3083.1 -7.54673 -6.86199 0
M  V30 46038 O 3082.53 -5.12391 -7.179 0
M  V30 46039 O 3083.07 -5.99158 -4.88404 0
M  V30 46040 C 3084.01 -6.60234 -3.96415 0
M  V30 46041 C 3083.28 -7.08259 -2.72856 0
M  V30 46042 O 3083.07 -5.9427 -1.83651 0
M  V30 46043 C 3081.88 -7.64886 -2.9555 0
M  V30 46044 O 3081.49 -8.53963 -1.90717 0
M  V30 46045 C 3081 -6.4116 -2.90739 0
M  V30 46046 C 3081.71 -5.55375 -1.86963 0
M  V30 46047 N 3081.66 -4.09664 -2.15742 0
M  V30 46048 H 3084.5 -7.45574 -4.45629 0
M  V30 46049 H 3084.77 -5.86232 -3.67314 0
M  V30 46050 H 3083.9 -7.84412 -2.24479 0
M  V30 46051 P 3079.94 -8.7635 -1.60911 0
M  V30 46052 O 3079.72 -10.1388 -1.11561 0
M  V30 46053 O 3079.15 -8.36503 -2.79617 0
M  V30 46054 O 3079.69 -7.71806 -0.42951 0
M  V30 46055 C 3080.63 -7.67148 0.673689 0
M  V30 46056 C 3079.9 -7.33374 1.95559 0
M  V30 46057 O 3079.69 -5.88721 2.00726 0
M  V30 46058 C 3078.5 -7.92526 2.10483 0
M  V30 46059 O 3078.11 -8.02971 3.47653 0
M  V30 46060 C 3077.62 -6.89602 1.41652 0
M  V30 46061 C 3078.33 -5.59201 1.75185 0
M  V30 46062 N 3078.28 -4.58235 0.662552 0
M  V30 46063 H 3081.12 -8.65116 0.777161 0
M  V30 46064 H 3081.39 -6.90173 0.474152 0
M  V30 46065 H 3080.52 -7.66548 2.79458 0
M  V30 46066 P 3076.56 -8.03563 3.84925 0
M  V30 46067 O 3076.34 -8.85821 5.0569 0
M  V30 46068 O 3075.77 -8.41101 2.65469 0
M  V30 46069 O 3076.31 -6.4965 4.18908 0
M  V30 46070 C 3077.25 -5.81037 5.05421 0
M  V30 46071 C 3076.52 -4.78366 5.89277 0
M  V30 46072 O 3076.31 -3.58302 5.08433 0
M  V30 46073 C 3075.12 -5.17448 6.36119 0
M  V30 46074 O 3074.73 -4.45271 7.53232 0
M  V30 46075 C 3074.24 -4.74639 5.19936 0
M  V30 46076 C 3074.95 -3.49432 4.70418 0
M  V30 46077 N 3074.9 -3.31776 3.22945 0
M  V30 46078 H 3077.74 -6.54213 5.71376 0
M  V30 46079 H 3078.01 -5.30492 4.44033 0
M  V30 46080 H 3077.14 -4.55889 6.76652 0
M  V30 46081 P 3073.18 -4.23843 7.83734 0
M  V30 46082 O 3072.96 -4.19407 9.29784 0
M  V30 46083 O 3072.39 -5.24426 7.09156 0
M  V30 46084 O 3072.93 -2.7935 7.20758 0
M  V30 46085 C 3073.87 -1.72945 7.50224 0
M  V30 46086 C 3073.14 -0.406376 7.57911 0
M  V30 46087 O 3072.93 0.0897726 6.21935 0
M  V30 46088 C 3071.74 -0.438983 8.18724 0
M  V30 46089 O 3071.35 0.825065 8.71101 0
M  V30 46090 C 3070.86 -0.783689 6.99524 0
M  V30 46091 C 3071.57 -0.0619086 5.85867 0
M  V30 46092 N 3071.52 -0.78573 4.56183 0
M  V30 46093 C 3071.37 -0.0292889 3.41887 0
M  V30 46094 O 3071.28 1.18445 3.4419 0
M  V30 46095 N 3071.33 -0.744061 2.23964 0
M  V30 46096 C 3071.42 -2.10932 2.10362 0
M  V30 46097 C 3071.57 -2.8202 3.34994 0
M  V30 46098 C 3071.62 -2.15547 4.52261 0
M  V30 46099 H 3074.36 -1.93379 8.46595 0
M  V30 46100 H 3074.63 -1.68132 6.70852 0
M  V30 46101 H 3073.76 0.289041 8.15388 0
M  V30 46102 H 3071.11 0.926847 5.72749 0
M  V30 46103 H 3070.83 -1.86973 6.82036 0
M  V30 46104 H 3069.84 -0.403896 7.13257 0
M  V30 46105 H 3071.67 -1.20585 8.97435 0
M  V30 46106 H 3071.74 -2.71231 5.45042 0
M  V30 46107 P 3069.8 1.17771 8.83182 0
M  V30 46108 O 3069.58 2.07206 9.98732 0
M  V30 46109 O 3069.01 -0.0743816 8.81969 0
M  V30 46110 O 3069.55 1.97652 7.47304 0
M  V30 46111 C 3070.49 3.01133 7.08783 0
M  V30 46112 C 3069.76 4.12613 6.37049 0
M  V30 46113 O 3069.55 3.72827 4.97879 0
M  V30 46114 C 3068.36 4.45085 6.88694 0
M  V30 46115 O 3067.97 5.7877 6.5624 0
M  V30 46116 C 3067.48 3.47817 6.12078 0
M  V30 46117 C 3068.19 3.39414 4.77697 0
M  V30 46118 N 3068.14 2.04615 4.15333 0
M  V30 46119 H 3070.98 3.41248 7.98759 0
M  V30 46120 H 3071.25 2.5837 6.41742 0
M  V30 46121 H 3070.38 5.02657 6.42673 0
M  V30 46122 P 3066.42 6.144 6.45285 0
M  V30 46123 O 3066.2 7.54673 6.86199 0
M  V30 46124 O 3065.63 5.12391 7.179 0
M  V30 46125 O 3066.17 5.99158 4.88404 0
M  V30 46126 C 3067.11 6.60234 3.96415 0
M  V30 46127 C 3066.38 7.08259 2.72856 0
M  V30 46128 O 3066.17 5.9427 1.83651 0
M  V30 46129 C 3064.98 7.64886 2.9555 0
M  V30 46130 O 3064.59 8.53963 1.90717 0
M  V30 46131 C 3064.1 6.4116 2.90739 0
M  V30 46132 C 3064.81 5.55375 1.86963 0
M  V30 46133 N 3064.76 4.09664 2.15742 0
M  V30 46134 H 3067.6 7.45574 4.45629 0
M  V30 46135 H 3067.87 5.86232 3.67314 0
M  V30 46136 H 3067 7.84412 2.24479 0
M  V30 46137 P 3063.04 8.7635 1.60911 0
M  V30 46138 O 3062.82 10.1388 1.11561 0
M  V30 46139 O 3062.25 8.36503 2.79617 0
M  V30 46140 O 3062.79 7.71806 0.42951 0
M  V30 46141 C 3063.73 7.67148 -0.673689 0
M  V30 46142 C 3063 7.33374 -1.95559 0
M  V30 46143 O 3062.79 5.88721 -2.00726 0
M  V30 46144 C 3061.6 7.92526 -2.10483 0
M  V30 46145 O 3061.21 8.02971 -3.47653 0
M  V30 46146 C 3060.72 6.89602 -1.41652 0
M  V30 46147 C 3061.43 5.59201 -1.75185 0
M  V30 46148 N 3061.38 4.58235 -0.662552 0
M  V30 46149 H 3064.22 8.65116 -0.777161 0
M  V30 46150 H 3064.49 6.90173 -0.474152 0
M  V30 46151 H 3063.62 7.66548 -2.79458 0
M  V30 46152 P 3059.66 8.03563 -3.84925 0
M  V30 46153 O 3059.44 8.85821 -5.0569 0
M  V30 46154 O 3058.87 8.41101 -2.65469 0
M  V30 46155 O 3059.41 6.4965 -4.18908 0
M  V30 46156 C 3060.35 5.81037 -5.05421 0
M  V30 46157 C 3059.62 4.78366 -5.89277 0
M  V30 46158 O 3059.41 3.58302 -5.08433 0
M  V30 46159 C 3058.22 5.17448 -6.36119 0
M  V30 46160 O 3057.83 4.45271 -7.53232 0
M  V30 46161 C 3057.34 4.74639 -5.19936 0
M  V30 46162 C 3058.05 3.49432 -4.70418 0
M  V30 46163 N 3058 3.32099 -3.22613 0
M  V30 46164 H 3060.84 6.54213 -5.71376 0
M  V30 46165 H 3061.11 5.30936 -4.43503 0
M  V30 46166 H 3060.24 4.55889 -6.76652 0
M  V30 46167 H 3057.59 2.61715 -5.17932 0
M  V30 46168 H 3057.31 5.52155 -4.41878 0
M  V30 46169 H 3056.32 4.51981 -5.53374 0
M  V30 46170 H 3058.15 6.25124 -6.55234 0
M  V30 46171 P 3056.28 4.23843 -7.83734 0
M  V30 46172 O 3056.06 4.19407 -9.29784 0
M  V30 46173 O 3055.49 5.24426 -7.09156 0
M  V30 46174 O 3056.03 2.7935 -7.20758 0
M  V30 46175 C 3056.97 1.7299 -7.50419 0
M  V30 46176 C 3056.24 0.406376 -7.57911 0
M  V30 46177 O 3056.03 -0.0897726 -6.21935 0
M  V30 46178 C 3054.84 0.447224 -8.1878 0
M  V30 46179 O 3054.45 -0.825065 -8.71101 0
M  V30 46180 C 3053.96 0.783801 -6.99623 0
M  V30 46181 C 3054.67 0.0619192 -5.85967 0
M  V30 46182 N 3054.62 0.7859 -4.56281 0
M  V30 46183 H 3057.46 1.93423 -8.4679 0
M  V30 46184 H 3057.73 1.68181 -6.71046 0
M  V30 46185 H 3056.86 -0.289041 -8.15388 0
M  V30 46186 P 3052.9 -1.17771 -8.83182 0
M  V30 46187 O 3052.68 -2.07206 -9.98732 0
M  V30 46188 O 3052.11 0.0743816 -8.81969 0
M  V30 46189 O 3052.65 -1.97652 -7.47304 0
M  V30 46190 C 3053.59 -3.01055 -7.08599 0
M  V30 46191 C 3052.86 -4.12613 -6.37049 0
M  V30 46192 O 3052.65 -3.72827 -4.97879 0
M  V30 46193 C 3051.46 -4.45719 -6.88164 0
M  V30 46194 O 3051.07 -5.7877 -6.5624 0
M  V30 46195 C 3050.58 -3.47768 -6.11991 0
M  V30 46196 C 3051.29 -3.39356 -4.77615 0
M  V30 46197 N 3051.24 -2.04571 -4.15244 0
M  V30 46198 C 3051.09 -1.98587 -2.78314 0
M  V30 46199 O 3051 -2.98134 -2.08835 0
M  V30 46200 N 3051.05 -0.714467 -2.24925 0
M  V30 46201 C 3051.14 0.470001 -2.94169 0
M  V30 46202 C 3051.29 0.312541 -4.36783 0
M  V30 46203 C 3051.34 -0.914512 -4.92583 0
M  V30 46204 H 3054.08 -3.41169 -7.98575 0
M  V30 46205 H 3054.35 -2.58295 -6.41556 0
M  V30 46206 H 3053.48 -5.02657 -6.42673 0
M  V30 46207 H 3050.83 -4.11637 -4.08885 0
M  V30 46208 H 3050.55 -2.49626 -6.61679 0
M  V30 46209 H 3049.56 -3.86566 -6.00778 0
M  V30 46210 H 3051.39 -4.29943 -7.96918 0
M  V30 46211 H 3051.46 -1.00937 -6.00374 0
M  V30 46212 P 3049.52 -6.144 -6.45285 0
M  V30 46213 O 3049.3 -7.54673 -6.86199 0
M  V30 46214 O 3048.73 -5.12391 -7.179 0
M  V30 46215 O 3049.27 -5.99158 -4.88404 0
M  V30 46216 C 3050.21 -6.60234 -3.96415 0
M  V30 46217 C 3049.48 -7.08259 -2.72856 0
M  V30 46218 O 3049.27 -5.9427 -1.83651 0
M  V30 46219 C 3048.08 -7.64886 -2.9555 0
M  V30 46220 O 3047.69 -8.53963 -1.90717 0
M  V30 46221 C 3047.2 -6.4116 -2.90739 0
M  V30 46222 C 3047.91 -5.55375 -1.86963 0
M  V30 46223 N 3047.86 -4.09664 -2.15742 0
M  V30 46224 H 3050.7 -7.45574 -4.45629 0
M  V30 46225 H 3050.97 -5.86232 -3.67314 0
M  V30 46226 H 3050.1 -7.84412 -2.24479 0
M  V30 46227 P 3046.14 -8.7635 -1.60911 0
M  V30 46228 O 3045.92 -10.1388 -1.11561 0
M  V30 46229 O 3045.35 -8.36503 -2.79617 0
M  V30 46230 O 3045.89 -7.71806 -0.42951 0
M  V30 46231 C 3046.83 -7.67148 0.673689 0
M  V30 46232 C 3046.1 -7.33374 1.95559 0
M  V30 46233 O 3045.89 -5.88721 2.00726 0
M  V30 46234 C 3044.7 -7.92526 2.10483 0
M  V30 46235 O 3044.31 -8.02971 3.47653 0
M  V30 46236 C 3043.82 -6.89602 1.41652 0
M  V30 46237 C 3044.53 -5.59201 1.75185 0
M  V30 46238 N 3044.48 -4.58235 0.662552 0
M  V30 46239 H 3047.32 -8.65116 0.777161 0
M  V30 46240 H 3047.59 -6.90173 0.474152 0
M  V30 46241 H 3046.73 -7.66548 2.79458 0
M  V30 46242 P 3042.76 -8.03563 3.84925 0
M  V30 46243 O 3042.54 -8.85821 5.0569 0
M  V30 46244 O 3041.97 -8.41101 2.65469 0
M  V30 46245 O 3042.51 -6.4965 4.18908 0
M  V30 46246 C 3043.45 -5.80886 5.05289 0
M  V30 46247 C 3042.72 -4.78366 5.89277 0
M  V30 46248 O 3042.51 -3.58302 5.08433 0
M  V30 46249 C 3041.32 -5.16748 6.36559 0
M  V30 46250 O 3040.93 -4.45271 7.53232 0
M  V30 46251 C 3040.44 -4.74572 5.19863 0
M  V30 46252 C 3041.15 -3.49373 4.70338 0
M  V30 46253 N 3041.1 -3.31704 3.22876 0
M  V30 46254 C 3040.95 -2.03326 2.74871 0
M  V30 46255 O 3040.86 -1.06486 3.48076 0
M  V30 46256 N 3040.91 -1.91838 1.37456 0
M  V30 46257 C 3041 -2.94295 0.462035 0
M  V30 46258 O 3040.95 -2.71763 -0.752928 0
M  V30 46259 C 3041.15 -4.25064 1.05249 0
M  V30 46260 C 3041.26 -5.39815 0.095697 0
M  V30 46261 C 3041.2 -4.40214 2.39192 0
M  V30 46262 H 3043.94 -6.54063 5.71245 0
M  V30 46263 H 3044.21 -5.30339 4.43905 0
M  V30 46264 H 3043.35 -4.55889 6.76652 0
M  V30 46265 H 3040.69 -2.6167 5.17842 0
M  V30 46266 H 3040.41 -5.52155 4.41878 0
M  V30 46267 H 3039.42 -4.51918 5.53297 0
M  V30 46268 H 3041.25 -6.25055 6.55162 0
M  V30 46269 H 3041.32 -5.39798 2.81523 0
M  V30 46270 H 3040.29 -5.91593 0.0279582 0
M  V30 46271 H 3042.03 -6.10038 0.450573 0
M  V30 46272 H 3041.54 -5.02007 -0.89937 0
M  V30 46273 H 3040.81 -0.995326 1.00435 0
M  V30 46274 P 3039.38 -4.23843 7.83734 0
M  V30 46275 O 3039.16 -4.19407 9.29784 0
M  V30 46276 O 3038.59 -5.24426 7.09156 0
M  V30 46277 O 3039.13 -2.7935 7.20758 0
M  V30 46278 C 3040.07 -1.7299 7.50419 0
M  V30 46279 C 3039.34 -0.406376 7.57911 0
M  V30 46280 O 3039.13 0.0897726 6.21935 0
M  V30 46281 C 3037.94 -0.447224 8.1878 0
M  V30 46282 O 3037.55 0.825065 8.71101 0
M  V30 46283 C 3037.06 -0.783801 6.99623 0
M  V30 46284 C 3037.77 -0.0619192 5.85967 0
M  V30 46285 N 3037.72 -0.7859 4.56281 0
M  V30 46286 H 3040.56 -1.93423 8.4679 0
M  V30 46287 H 3040.83 -1.68181 6.71046 0
M  V30 46288 H 3039.97 0.289041 8.15388 0
M  V30 46289 P 3036 1.17771 8.83182 0
M  V30 46290 O 3035.78 2.07206 9.98732 0
M  V30 46291 O 3035.21 -0.0743816 8.81969 0
M  V30 46292 O 3035.75 1.97652 7.47304 0
M  V30 46293 C 3036.69 3.01055 7.08599 0
M  V30 46294 C 3035.96 4.12613 6.37049 0
M  V30 46295 O 3035.75 3.72827 4.97879 0
M  V30 46296 C 3034.56 4.45719 6.88164 0
M  V30 46297 O 3034.17 5.7877 6.5624 0
M  V30 46298 C 3033.68 3.47768 6.11991 0
M  V30 46299 C 3034.39 3.39356 4.77615 0
M  V30 46300 N 3034.34 2.04571 4.15244 0
M  V30 46301 C 3034.19 1.98587 2.78314 0
M  V30 46302 O 3034.1 2.98134 2.08835 0
M  V30 46303 N 3034.15 0.714467 2.24925 0
M  V30 46304 C 3034.24 -0.470001 2.94169 0
M  V30 46305 C 3034.39 -0.312541 4.36783 0
M  V30 46306 C 3034.44 0.914512 4.92583 0
M  V30 46307 H 3037.18 3.41169 7.98575 0
M  V30 46308 H 3037.45 2.58295 6.41556 0
M  V30 46309 H 3036.59 5.02657 6.42673 0
M  V30 46310 H 3033.93 4.11637 4.08885 0
M  V30 46311 H 3033.65 2.49626 6.61679 0
M  V30 46312 H 3032.66 3.86566 6.00778 0
M  V30 46313 H 3034.49 4.29943 7.96918 0
M  V30 46314 H 3034.56 1.00937 6.00374 0
M  V30 46315 P 3032.62 6.144 6.45285 0
M  V30 46316 O 3032.4 7.54673 6.86199 0
M  V30 46317 O 3031.83 5.12391 7.179 0
M  V30 46318 O 3032.37 5.99158 4.88404 0
M  V30 46319 C 3033.31 6.60062 3.96313 0
M  V30 46320 C 3032.58 7.08259 2.72856 0
M  V30 46321 O 3032.37 5.9427 1.83651 0
M  V30 46322 C 3031.18 7.65087 2.94749 0
M  V30 46323 O 3030.79 8.53963 1.90717 0
M  V30 46324 C 3030.3 6.41069 2.90698 0
M  V30 46325 C 3031.01 5.5528 1.86931 0
M  V30 46326 N 3030.96 4.09575 2.15696 0
M  V30 46327 C 3030.81 3.24249 1.08435 0
M  V30 46328 O 3030.72 3.63946 -0.0628747 0
M  V30 46329 N 3030.77 1.90009 1.39973 0
M  V30 46330 C 3030.86 1.34884 2.65614 0
M  V30 46331 O 3030.81 0.123716 2.81728 0
M  V30 46332 C 3031.01 2.3145 3.71736 0
M  V30 46333 C 3031.12 1.75913 5.10438 0
M  V30 46334 C 3031.06 3.63518 3.44754 0
M  V30 46335 H 3033.8 7.45402 4.45526 0
M  V30 46336 H 3034.07 5.86062 3.67208 0
M  V30 46337 H 3033.21 7.84412 2.24479 0
M  V30 46338 H 3030.55 5.73358 0.888409 0
M  V30 46339 H 3030.27 5.90877 3.88583 0
M  V30 46340 H 3029.28 6.65867 2.58821 0
M  V30 46341 H 3031.11 8.16248 3.92006 0
M  V30 46342 H 3031.18 4.34551 4.26383 0
M  V30 46343 H 3030.15 1.85471 5.61775 0
M  V30 46344 H 3031.89 2.31364 5.66257 0
M  V30 46345 H 3031.4 0.695936 5.05229 0
M  V30 46346 H 3030.67 1.26277 0.63625 0
M  V30 46347 P 3029.24 8.7635 1.60911 0
M  V30 46348 O 3029.02 10.1388 1.11561 0
M  V30 46349 O 3028.45 8.36503 2.79617 0
M  V30 46350 O 3028.99 7.71806 0.42951 0
M  V30 46351 C 3029.93 7.67148 -0.673689 0
M  V30 46352 C 3029.2 7.33374 -1.95559 0
M  V30 46353 O 3028.99 5.88721 -2.00726 0
M  V30 46354 C 3027.8 7.92526 -2.10483 0
M  V30 46355 O 3027.41 8.02971 -3.47653 0
M  V30 46356 C 3026.92 6.89602 -1.41652 0
M  V30 46357 C 3027.63 5.59201 -1.75185 0
M  V30 46358 N 3027.58 4.58235 -0.662552 0
M  V30 46359 C 3027.66 4.7683 0.704049 0
M  V30 46360 N 3027.58 3.66233 1.39775 0
M  V30 46361 C 3027.44 2.66526 0.431739 0
M  V30 46362 C 3027.31 1.26394 0.575992 0
M  V30 46363 O 3027.29 0.589894 1.60503 0
M  V30 46364 N 3027.19 0.62859 -0.67177 0
M  V30 46365 C 3027.19 1.27134 -1.89385 0
M  V30 46366 N 3027.06 0.492035 -2.96951 0
M  V30 46367 N 3027.32 2.58978 -2.02907 0
M  V30 46368 C 3027.44 3.22433 -0.832218 0
M  V30 46369 H 3030.42 8.65116 -0.777161 0
M  V30 46370 H 3030.69 6.90173 -0.474152 0
M  V30 46371 H 3029.83 7.66548 -2.79458 0
M  V30 46372 H 3027.17 5.16254 -2.65229 0
M  V30 46373 H 3026.89 7.06532 -0.329431 0
M  V30 46374 H 3025.9 6.91023 -1.82047 0
M  V30 46375 H 3027.73 8.90971 -1.62675 0
M  V30 46376 H 3027.78 5.74954 1.16305 0
M  V30 46377 H 3027.1 -0.366713 -0.674793 0
M  V30 46378 H 3027.06 0.908532 -3.91188 0
M  V30 46379 H 3026.96 -0.528253 -2.85758 0
M  V30 46380 P 3025.86 8.03563 -3.84925 0
M  V30 46381 O 3025.64 8.85821 -5.0569 0
M  V30 46382 O 3025.07 8.41101 -2.65469 0
M  V30 46383 O 3025.61 6.4965 -4.18908 0
M  V30 46384 C 3026.55 5.81037 -5.05421 0
M  V30 46385 C 3025.82 4.78366 -5.89277 0
M  V30 46386 O 3025.61 3.58302 -5.08433 0
M  V30 46387 C 3024.42 5.17448 -6.36119 0
M  V30 46388 O 3024.03 4.45271 -7.53232 0
M  V30 46389 C 3023.54 4.74639 -5.19936 0
M  V30 46390 C 3024.25 3.49432 -4.70418 0
M  V30 46391 N 3024.2 3.32099 -3.22613 0
M  V30 46392 H 3027.04 6.54213 -5.71376 0
M  V30 46393 H 3027.31 5.30936 -4.43503 0
M  V30 46394 H 3026.45 4.55889 -6.76652 0
M  V30 46395 H 3023.79 2.61715 -5.17932 0
M  V30 46396 H 3023.51 5.52155 -4.41878 0
M  V30 46397 H 3022.52 4.51981 -5.53374 0
M  V30 46398 H 3024.35 6.25124 -6.55234 0
M  V30 46399 P 3022.48 4.23843 -7.83734 0
M  V30 46400 O 3022.26 4.19407 -9.29784 0
M  V30 46401 O 3021.69 5.24426 -7.09156 0
M  V30 46402 O 3022.23 2.7935 -7.20758 0
M  V30 46403 C 3023.17 1.7299 -7.50419 0
M  V30 46404 C 3022.44 0.406376 -7.57911 0
M  V30 46405 O 3022.23 -0.0897726 -6.21935 0
M  V30 46406 C 3021.04 0.447224 -8.1878 0
M  V30 46407 O 3020.65 -0.825065 -8.71101 0
M  V30 46408 C 3020.16 0.783801 -6.99623 0
M  V30 46409 C 3020.87 0.0619192 -5.85967 0
M  V30 46410 N 3020.82 0.7859 -4.56281 0
M  V30 46411 H 3023.66 1.93423 -8.4679 0
M  V30 46412 H 3023.93 1.68181 -6.71046 0
M  V30 46413 H 3023.07 -0.289041 -8.15388 0
M  V30 46414 P 3019.1 -1.17771 -8.83182 0
M  V30 46415 O 3018.88 -2.07206 -9.98732 0
M  V30 46416 O 3018.31 0.0743816 -8.81969 0
M  V30 46417 O 3018.85 -1.97652 -7.47304 0
M  V30 46418 C 3019.79 -3.01133 -7.08783 0
M  V30 46419 C 3019.06 -4.12613 -6.37049 0
M  V30 46420 O 3018.85 -3.72827 -4.97879 0
M  V30 46421 C 3017.66 -4.45085 -6.88694 0
M  V30 46422 O 3017.27 -5.7877 -6.5624 0
M  V30 46423 C 3016.78 -3.47817 -6.12078 0
M  V30 46424 C 3017.49 -3.39414 -4.77697 0
M  V30 46425 N 3017.44 -2.04615 -4.15333 0
M  V30 46426 C 3017.52 -0.803897 -4.75249 0
M  V30 46427 N 3017.44 0.197615 -3.91502 0
M  V30 46428 C 3017.3 -0.413002 -2.66823 0
M  V30 46429 C 3017.17 0.157221 -1.38007 0
M  V30 46430 O 3017.15 1.34419 -1.057 0
M  V30 46431 N 3017.05 -0.833136 -0.390236 0
M  V30 46432 C 3017.05 -2.19402 -0.623885 0
M  V30 46433 N 3016.92 -2.97622 0.449677 0
M  V30 46434 N 3017.18 -2.73005 -1.83601 0
M  V30 46435 C 3017.3 -1.78786 -2.80935 0
M  V30 46436 H 3020.28 -3.41248 -7.98759 0
M  V30 46437 H 3020.55 -2.5837 -6.41742 0
M  V30 46438 H 3019.69 -5.02657 -6.42673 0
M  V30 46439 H 3017.03 -4.11779 -4.09026 0
M  V30 46440 H 3016.75 -2.49661 -6.61772 0
M  V30 46441 H 3015.76 -3.86674 -6.00946 0
M  V30 46442 H 3017.59 -4.30038 -7.97094 0
M  V30 46443 H 3017.64 -0.670579 -5.82754 0
M  V30 46444 H 3016.96 -0.528446 0.557287 0
M  V30 46445 H 3016.92 -4.00117 0.344773 0
M  V30 46446 H 3016.82 -2.55448 1.38544 0
M  V30 46447 P 3015.72 -6.144 -6.45285 0
M  V30 46448 O 3015.5 -7.54673 -6.86199 0
M  V30 46449 O 3014.93 -5.12391 -7.179 0
M  V30 46450 O 3015.47 -5.99158 -4.88404 0
M  V30 46451 C 3016.41 -6.60234 -3.96415 0
M  V30 46452 C 3015.68 -7.08259 -2.72856 0
M  V30 46453 O 3015.47 -5.9427 -1.83651 0
M  V30 46454 C 3014.28 -7.64886 -2.9555 0
M  V30 46455 O 3013.89 -8.53963 -1.90717 0
M  V30 46456 C 3013.4 -6.4116 -2.90739 0
M  V30 46457 C 3014.11 -5.55375 -1.86963 0
M  V30 46458 N 3014.06 -4.09664 -2.15742 0
M  V30 46459 H 3016.9 -7.45574 -4.45629 0
M  V30 46460 H 3017.17 -5.86232 -3.67314 0
M  V30 46461 H 3016.31 -7.84412 -2.24479 0
M  V30 46462 P 3012.34 -8.7635 -1.60911 0
M  V30 46463 O 3012.12 -10.1388 -1.11561 0
M  V30 46464 O 3011.55 -8.36503 -2.79617 0
M  V30 46465 O 3012.09 -7.71806 -0.42951 0
M  V30 46466 C 3013.03 -7.67148 0.673689 0
M  V30 46467 C 3012.3 -7.33374 1.95559 0
M  V30 46468 O 3012.09 -5.88721 2.00726 0
M  V30 46469 C 3010.9 -7.92526 2.10483 0
M  V30 46470 O 3010.51 -8.02971 3.47653 0
M  V30 46471 C 3010.02 -6.89602 1.41652 0
M  V30 46472 C 3010.73 -5.59201 1.75185 0
M  V30 46473 N 3010.68 -4.58301 0.657969 0
M  V30 46474 H 3013.52 -8.65116 0.777161 0
M  V30 46475 H 3013.79 -6.9022 0.46725 0
M  V30 46476 H 3012.93 -7.66548 2.79458 0
M  V30 46477 H 3010.27 -5.16165 2.65183 0
M  V30 46478 H 3009.99 -7.06433 0.329384 0
M  V30 46479 H 3009 -6.90926 1.82021 0
M  V30 46480 H 3010.83 -8.90873 1.62657 0
M  V30 46481 P 3008.96 -8.03563 3.84925 0
M  V30 46482 O 3008.74 -8.85821 5.0569 0
M  V30 46483 O 3008.17 -8.41101 2.65469 0
M  V30 46484 O 3008.71 -6.4965 4.18908 0
M  V30 46485 C 3009.65 -5.81037 5.05421 0
M  V30 46486 C 3008.92 -4.78366 5.89277 0
M  V30 46487 O 3008.71 -3.58302 5.08433 0
M  V30 46488 C 3007.52 -5.17448 6.36119 0
M  V30 46489 O 3007.13 -4.45271 7.53232 0
M  V30 46490 C 3006.64 -4.74639 5.19936 0
M  V30 46491 C 3007.35 -3.49432 4.70418 0
M  V30 46492 N 3007.3 -3.31776 3.22945 0
M  V30 46493 H 3010.14 -6.54213 5.71376 0
M  V30 46494 H 3010.41 -5.30492 4.44033 0
M  V30 46495 H 3009.55 -4.55889 6.76652 0
M  V30 46496 P 3005.58 -4.23843 7.83734 0
M  V30 46497 O 3005.36 -4.19407 9.29784 0
M  V30 46498 O 3004.79 -5.24426 7.09156 0
M  V30 46499 O 3005.33 -2.7935 7.20758 0
M  V30 46500 C 3006.27 -1.7299 7.50419 0
M  V30 46501 C 3005.54 -0.406376 7.57911 0
M  V30 46502 O 3005.33 0.0897726 6.21935 0
M  V30 46503 C 3004.14 -0.447224 8.1878 0
M  V30 46504 O 3003.75 0.825065 8.71101 0
M  V30 46505 C 3003.26 -0.783801 6.99623 0
M  V30 46506 C 3003.97 -0.0619192 5.85967 0
M  V30 46507 N 3003.92 -0.790462 4.56202 0
M  V30 46508 H 3006.76 -1.93423 8.4679 0
M  V30 46509 H 3007.03 -1.68852 6.70877 0
M  V30 46510 H 3006.17 0.289041 8.15388 0
M  V30 46511 H 3003.51 0.927006 5.72848 0
M  V30 46512 H 3003.23 -1.86973 6.82036 0
M  V30 46513 H 3002.24 -0.403953 7.13357 0
M  V30 46514 H 3004.07 -1.20599 8.97534 0
M  V30 46515 P 3002.2 1.17771 8.83182 0
M  V30 46516 O 3001.98 2.07206 9.98732 0
M  V30 46517 O 3001.41 -0.0743816 8.81969 0
M  V30 46518 O 3001.95 1.97652 7.47304 0
M  V30 46519 C 3002.89 3.01133 7.08783 0
M  V30 46520 C 3002.16 4.12613 6.37049 0
M  V30 46521 O 3001.95 3.72827 4.97879 0
M  V30 46522 C 3000.76 4.45085 6.88694 0
M  V30 46523 O 3000.37 5.7877 6.5624 0
M  V30 46524 C 2999.88 3.47817 6.12078 0
M  V30 46525 C 3000.59 3.39414 4.77697 0
M  V30 46526 N 3000.54 2.04615 4.15333 0
M  V30 46527 H 3003.38 3.41248 7.98759 0
M  V30 46528 H 3003.65 2.5837 6.41742 0
M  V30 46529 H 3002.79 5.02657 6.42673 0
M  V30 46530 P 2998.82 6.144 6.45285 0
M  V30 46531 O 2998.6 7.54673 6.86199 0
M  V30 46532 O 2998.03 5.12391 7.179 0
M  V30 46533 O 2998.57 5.99158 4.88404 0
M  V30 46534 C 2999.51 6.60234 3.96415 0
M  V30 46535 C 2998.78 7.08259 2.72856 0
M  V30 46536 O 2998.57 5.9427 1.83651 0
M  V30 46537 C 2997.38 7.64886 2.9555 0
M  V30 46538 O 2996.99 8.53963 1.90717 0
M  V30 46539 C 2996.5 6.4116 2.90739 0
M  V30 46540 C 2997.21 5.55375 1.86963 0
M  V30 46541 N 2997.16 4.09448 2.16152 0
M  V30 46542 H 3000 7.45574 4.45629 0
M  V30 46543 H 3000.27 5.85864 3.679 0
M  V30 46544 H 2999.41 7.84412 2.24479 0
M  V30 46545 H 2996.75 5.73457 0.888562 0
M  V30 46546 H 2996.47 5.90877 3.88583 0
M  V30 46547 H 2995.48 6.6596 2.58858 0
M  V30 46548 H 2997.31 8.16339 3.92049 0
M  V30 46549 P 2995.44 8.7635 1.60911 0
M  V30 46550 O 2995.22 10.1388 1.11561 0
M  V30 46551 O 2994.65 8.36503 2.79617 0
M  V30 46552 O 2995.19 7.71806 0.42951 0
M  V30 46553 C 2996.13 7.67148 -0.673689 0
M  V30 46554 C 2995.4 7.33374 -1.95559 0
M  V30 46555 O 2995.19 5.88721 -2.00726 0
M  V30 46556 C 2994 7.92526 -2.10483 0
M  V30 46557 O 2993.61 8.02971 -3.47653 0
M  V30 46558 C 2993.12 6.89602 -1.41652 0
M  V30 46559 C 2993.83 5.59201 -1.75185 0
M  V30 46560 N 2993.78 4.58235 -0.662552 0
M  V30 46561 H 2996.62 8.65116 -0.777161 0
M  V30 46562 H 2996.89 6.90173 -0.474152 0
M  V30 46563 H 2996.03 7.66548 -2.79458 0
M  V30 46564 P 2992.06 8.03563 -3.84925 0
M  V30 46565 O 2991.84 8.85821 -5.0569 0
M  V30 46566 O 2991.27 8.41101 -2.65469 0
M  V30 46567 O 2991.81 6.4965 -4.18908 0
M  V30 46568 C 2992.75 5.81037 -5.05421 0
M  V30 46569 C 2992.02 4.78366 -5.89277 0
M  V30 46570 O 2991.81 3.58302 -5.08433 0
M  V30 46571 C 2990.62 5.17448 -6.36119 0
M  V30 46572 O 2990.23 4.45271 -7.53232 0
M  V30 46573 C 2989.74 4.74639 -5.19936 0
M  V30 46574 C 2990.45 3.49432 -4.70418 0
M  V30 46575 N 2990.4 3.32099 -3.22613 0
M  V30 46576 C 2990.48 4.28245 -2.25527 0
M  V30 46577 N 2990.41 3.80823 -1.04874 0
M  V30 46578 C 2990.26 2.44571 -1.23535 0
M  V30 46579 C 2990.13 1.37068 -0.330675 0
M  V30 46580 N 2990.12 1.51472 0.990824 0
M  V30 46581 N 2990.01 0.138614 -0.848756 0
M  V30 46582 C 2990.02 -0.00675923 -2.16999 0
M  V30 46583 N 2990.14 0.904372 -3.11122 0
M  V30 46584 C 2990.26 2.12707 -2.56212 0
M  V30 46585 H 2993.24 6.54213 -5.71376 0
M  V30 46586 H 2993.51 5.30936 -4.43503 0
M  V30 46587 H 2992.65 4.55889 -6.76652 0
M  V30 46588 H 2989.99 2.61715 -5.17932 0
M  V30 46589 H 2989.71 5.52155 -4.41878 0
M  V30 46590 H 2988.72 4.51981 -5.53374 0
M  V30 46591 H 2990.55 6.25124 -6.55234 0
M  V30 46592 H 2990.59 5.34372 -2.47488 0
M  V30 46593 H 2990.21 2.45153 1.4078 0
M  V30 46594 H 2990.02 0.688422 1.59911 0
M  V30 46595 H 2989.92 -1.02584 -2.52346 0
M  V30 46596 P 2988.68 4.23843 -7.83734 0
M  V30 46597 O 2988.46 4.19407 -9.29784 0
M  V30 46598 O 2987.89 5.24426 -7.09156 0
M  V30 46599 O 2988.43 2.7935 -7.20758 0
M  V30 46600 C 2989.37 1.7299 -7.50419 0
M  V30 46601 C 2988.64 0.406376 -7.57911 0
M  V30 46602 O 2988.43 -0.0897726 -6.21935 0
M  V30 46603 C 2987.24 0.447224 -8.1878 0
M  V30 46604 O 2986.85 -0.825065 -8.71101 0
M  V30 46605 C 2986.36 0.783801 -6.99623 0
M  V30 46606 C 2987.07 0.0619192 -5.85967 0
M  V30 46607 N 2987.02 0.7859 -4.56281 0
M  V30 46608 H 2989.86 1.93423 -8.4679 0
M  V30 46609 H 2990.13 1.68181 -6.71046 0
M  V30 46610 H 2989.27 -0.289041 -8.15388 0
M  V30 46611 P 2985.3 -1.17771 -8.83182 0
M  V30 46612 O 2985.08 -2.07206 -9.98732 0
M  V30 46613 O 2984.51 0.0743816 -8.81969 0
M  V30 46614 O 2985.05 -1.97652 -7.47304 0
M  V30 46615 C 2985.99 -3.01133 -7.08783 0
M  V30 46616 C 2985.26 -4.12613 -6.37049 0
M  V30 46617 O 2985.05 -3.72827 -4.97879 0
M  V30 46618 C 2983.86 -4.45085 -6.88694 0
M  V30 46619 O 2983.47 -5.7877 -6.5624 0
M  V30 46620 C 2982.98 -3.47817 -6.12078 0
M  V30 46621 C 2983.69 -3.39414 -4.77697 0
M  V30 46622 N 2983.64 -2.04615 -4.15333 0
M  V30 46623 H 2986.48 -3.41248 -7.98759 0
M  V30 46624 H 2986.75 -2.5837 -6.41742 0
M  V30 46625 H 2985.89 -5.02657 -6.42673 0
M  V30 46626 P 2981.92 -6.144 -6.45285 0
M  V30 46627 O 2981.7 -7.54673 -6.86199 0
M  V30 46628 O 2981.13 -5.12391 -7.179 0
M  V30 46629 O 2981.67 -5.99158 -4.88404 0
M  V30 46630 C 2982.61 -6.60234 -3.96415 0
M  V30 46631 C 2981.88 -7.08259 -2.72856 0
M  V30 46632 O 2981.67 -5.9427 -1.83651 0
M  V30 46633 C 2980.48 -7.64886 -2.9555 0
M  V30 46634 O 2980.09 -8.53963 -1.90717 0
M  V30 46635 C 2979.6 -6.4116 -2.90739 0
M  V30 46636 C 2980.31 -5.55375 -1.86963 0
M  V30 46637 N 2980.26 -4.09448 -2.16152 0
M  V30 46638 C 2980.34 -3.46824 -3.37593 0
M  V30 46639 N 2980.27 -2.17422 -3.29777 0
M  V30 46640 C 2980.12 -1.93065 -1.94427 0
M  V30 46641 C 2979.99 -0.738053 -1.20141 0
M  V30 46642 N 2979.98 0.474256 -1.74676 0
M  V30 46643 N 2979.87 -0.850049 0.13045 0
M  V30 46644 C 2979.88 -2.06169 0.676992 0
M  V30 46645 N 2980 -3.23842 0.101312 0
M  V30 46646 C 2980.12 -3.09402 -1.23122 0
M  V30 46647 H 2983.1 -7.45574 -4.45629 0
M  V30 46648 H 2983.37 -5.85864 -3.679 0
M  V30 46649 H 2982.51 -7.84412 -2.24479 0
M  V30 46650 H 2979.85 -5.73457 -0.888562 0
M  V30 46651 H 2979.57 -5.90877 -3.88583 0
M  V30 46652 H 2978.58 -6.6596 -2.58858 0
M  V30 46653 H 2980.41 -8.16339 -3.92049 0
M  V30 46654 H 2980.45 -4.00505 -4.3174 0
M  V30 46655 H 2980.07 0.581337 -2.76658 0
M  V30 46656 H 2979.88 1.30811 -1.14888 0
M  V30 46657 H 2979.78 -2.08295 1.75542 0
M  V30 46658 P 2978.54 -8.7635 -1.60911 0
M  V30 46659 O 2978.32 -10.1388 -1.11561 0
M  V30 46660 O 2977.75 -8.36503 -2.79617 0
M  V30 46661 O 2978.29 -7.71806 -0.42951 0
M  V30 46662 C 2979.23 -7.67148 0.673689 0
M  V30 46663 C 2978.5 -7.33374 1.95559 0
M  V30 46664 O 2978.29 -5.88721 2.00726 0
M  V30 46665 C 2977.1 -7.92526 2.10483 0
M  V30 46666 O 2976.71 -8.02971 3.47653 0
M  V30 46667 C 2976.22 -6.89602 1.41652 0
M  V30 46668 C 2976.93 -5.59201 1.75185 0
M  V30 46669 N 2976.88 -4.58301 0.657969 0
M  V30 46670 H 2979.72 -8.65116 0.777161 0
M  V30 46671 H 2979.99 -6.9022 0.46725 0
M  V30 46672 H 2979.13 -7.66548 2.79458 0
M  V30 46673 H 2976.47 -5.16165 2.65183 0
M  V30 46674 H 2976.19 -7.06433 0.329384 0
M  V30 46675 H 2975.2 -6.90926 1.82021 0
M  V30 46676 H 2977.03 -8.90873 1.62657 0
M  V30 46677 P 2975.16 -8.03563 3.84925 0
M  V30 46678 O 2974.94 -8.85821 5.0569 0
M  V30 46679 O 2974.37 -8.41101 2.65469 0
M  V30 46680 O 2974.91 -6.4965 4.18908 0
M  V30 46681 C 2975.85 -5.81037 5.05421 0
M  V30 46682 C 2975.12 -4.78366 5.89277 0
M  V30 46683 O 2974.91 -3.58302 5.08433 0
M  V30 46684 C 2973.72 -5.17448 6.36119 0
M  V30 46685 O 2973.33 -4.45271 7.53232 0
M  V30 46686 C 2972.84 -4.74639 5.19936 0
M  V30 46687 C 2973.55 -3.49432 4.70418 0
M  V30 46688 N 2973.5 -3.31776 3.22945 0
M  V30 46689 H 2976.34 -6.54213 5.71376 0
M  V30 46690 H 2976.61 -5.30492 4.44033 0
M  V30 46691 H 2975.75 -4.55889 6.76652 0
M  V30 46692 P 2971.78 -4.23843 7.83734 0
M  V30 46693 O 2971.56 -4.19407 9.29784 0
M  V30 46694 O 2970.99 -5.24426 7.09156 0
M  V30 46695 O 2971.53 -2.7935 7.20758 0
M  V30 46696 C 2972.47 -1.7299 7.50419 0
M  V30 46697 C 2971.74 -0.406376 7.57911 0
M  V30 46698 O 2971.53 0.0897726 6.21935 0
M  V30 46699 C 2970.34 -0.447224 8.1878 0
M  V30 46700 O 2969.95 0.825065 8.71101 0
M  V30 46701 C 2969.46 -0.783801 6.99623 0
M  V30 46702 C 2970.17 -0.0619192 5.85967 0
M  V30 46703 N 2970.12 -0.7859 4.56281 0
M  V30 46704 H 2972.96 -1.93423 8.4679 0
M  V30 46705 H 2973.23 -1.68181 6.71046 0
M  V30 46706 H 2972.37 0.289041 8.15388 0
M  V30 46707 P 2968.4 1.17771 8.83182 0
M  V30 46708 O 2968.18 2.07206 9.98732 0
M  V30 46709 O 2967.61 -0.0743816 8.81969 0
M  V30 46710 O 2968.15 1.97652 7.47304 0
M  V30 46711 C 2969.09 3.01133 7.08783 0
M  V30 46712 C 2968.36 4.12613 6.37049 0
M  V30 46713 O 2968.15 3.72827 4.97879 0
M  V30 46714 C 2966.96 4.45085 6.88694 0
M  V30 46715 O 2966.57 5.7877 6.5624 0
M  V30 46716 C 2966.08 3.47817 6.12078 0
M  V30 46717 C 2966.79 3.39414 4.77697 0
M  V30 46718 N 2966.74 2.04199 4.15538 0
M  V30 46719 H 2969.58 3.41248 7.98759 0
M  V30 46720 H 2969.85 2.57728 6.42 0
M  V30 46721 H 2968.99 5.02657 6.42673 0
M  V30 46722 H 2966.33 4.11708 4.08956 0
M  V30 46723 H 2966.05 2.49626 6.61679 0
M  V30 46724 H 2965.06 3.8662 6.00862 0
M  V30 46725 H 2966.89 4.29991 7.97006 0
M  V30 46726 P 2965.02 6.144 6.45285 0
M  V30 46727 O 2964.8 7.54673 6.86199 0
M  V30 46728 O 2964.23 5.12391 7.179 0
M  V30 46729 O 2964.77 5.99158 4.88404 0
M  V30 46730 C 2965.71 6.60234 3.96415 0
M  V30 46731 C 2964.98 7.08259 2.72856 0
M  V30 46732 O 2964.77 5.9427 1.83651 0
M  V30 46733 C 2963.58 7.64886 2.9555 0
M  V30 46734 O 2963.19 8.53963 1.90717 0
M  V30 46735 C 2962.7 6.4116 2.90739 0
M  V30 46736 C 2963.41 5.55375 1.86963 0
M  V30 46737 N 2963.36 4.09664 2.15742 0
M  V30 46738 H 2966.2 7.45574 4.45629 0
M  V30 46739 H 2966.47 5.86232 3.67314 0
M  V30 46740 H 2965.61 7.84412 2.24479 0
M  V30 46741 P 2961.64 8.7635 1.60911 0
M  V30 46742 O 2961.42 10.1388 1.11561 0
M  V30 46743 O 2960.85 8.36503 2.79617 0
M  V30 46744 O 2961.39 7.71806 0.42951 0
M  V30 46745 C 2962.33 7.67148 -0.673689 0
M  V30 46746 C 2961.6 7.33374 -1.95559 0
M  V30 46747 O 2961.39 5.88721 -2.00726 0
M  V30 46748 C 2960.2 7.92526 -2.10483 0
M  V30 46749 O 2959.81 8.02971 -3.47653 0
M  V30 46750 C 2959.32 6.89602 -1.41652 0
M  V30 46751 C 2960.03 5.59201 -1.75185 0
M  V30 46752 N 2959.98 4.58235 -0.662552 0
M  V30 46753 H 2962.82 8.65116 -0.777161 0
M  V30 46754 H 2963.09 6.90173 -0.474152 0
M  V30 46755 H 2962.23 7.66548 -2.79458 0
M  V30 46756 P 2958.26 8.03563 -3.84925 0
M  V30 46757 O 2958.04 8.85821 -5.0569 0
M  V30 46758 O 2957.47 8.41101 -2.65469 0
M  V30 46759 O 2958.01 6.4965 -4.18908 0
M  V30 46760 C 2958.95 5.80886 -5.05289 0
M  V30 46761 C 2958.22 4.78366 -5.89277 0
M  V30 46762 O 2958.01 3.58302 -5.08433 0
M  V30 46763 C 2956.82 5.16748 -6.36559 0
M  V30 46764 O 2956.43 4.45271 -7.53232 0
M  V30 46765 C 2955.94 4.74572 -5.19863 0
M  V30 46766 C 2956.65 3.49373 -4.70338 0
M  V30 46767 N 2956.6 3.31704 -3.22876 0
M  V30 46768 C 2956.45 2.03326 -2.74871 0
M  V30 46769 O 2956.36 1.06486 -3.48076 0
M  V30 46770 N 2956.41 1.91838 -1.37456 0
M  V30 46771 C 2956.5 2.94295 -0.462035 0
M  V30 46772 C 2956.65 4.25064 -1.05249 0
M  V30 46773 C 2956.7 4.40214 -2.39192 0
M  V30 46774 H 2959.44 6.54063 -5.71245 0
M  V30 46775 H 2959.71 5.30339 -4.43905 0
M  V30 46776 H 2958.85 4.55889 -6.76652 0
M  V30 46777 H 2956.19 2.6167 -5.17842 0
M  V30 46778 H 2955.91 5.52155 -4.41878 0
M  V30 46779 H 2954.92 4.51918 -5.53297 0
M  V30 46780 H 2956.75 6.25055 -6.55162 0
M  V30 46781 H 2956.82 5.39798 -2.81523 0
M  V30 46782 P 2954.88 4.23843 -7.83734 0
M  V30 46783 O 2954.66 4.19407 -9.29784 0
M  V30 46784 O 2954.09 5.24426 -7.09156 0
M  V30 46785 O 2954.63 2.7935 -7.20758 0
M  V30 46786 C 2955.57 1.72945 -7.50224 0
M  V30 46787 C 2954.84 0.406376 -7.57911 0
M  V30 46788 O 2954.63 -0.0897726 -6.21935 0
M  V30 46789 C 2953.44 0.438983 -8.18724 0
M  V30 46790 O 2953.05 -0.825065 -8.71101 0
M  V30 46791 C 2952.56 0.783689 -6.99524 0
M  V30 46792 C 2953.27 0.0619086 -5.85867 0
M  V30 46793 N 2953.22 0.78573 -4.56183 0
M  V30 46794 C 2953.07 0.0292889 -3.41887 0
M  V30 46795 O 2952.98 -1.18445 -3.4419 0
M  V30 46796 N 2953.03 0.744061 -2.23964 0
M  V30 46797 C 2953.12 2.10932 -2.10362 0
M  V30 46798 O 2953.07 2.64117 -0.98825 0
M  V30 46799 C 2953.27 2.8202 -3.34994 0
M  V30 46800 C 2953.38 4.31095 -3.25037 0
M  V30 46801 C 2953.32 2.15547 -4.52261 0
M  V30 46802 H 2956.06 1.93379 -8.46595 0
M  V30 46803 H 2956.33 1.68132 -6.70852 0
M  V30 46804 H 2955.47 -0.289041 -8.15388 0
M  V30 46805 H 2952.81 -0.926847 -5.72749 0
M  V30 46806 H 2952.53 1.86973 -6.82036 0
M  V30 46807 H 2951.54 0.403896 -7.13257 0
M  V30 46808 H 2953.37 1.20585 -8.97435 0
M  V30 46809 H 2953.44 2.71231 -5.45042 0
M  V30 46810 H 2952.41 4.76966 -3.49992 0
M  V30 46811 H 2954.15 4.67047 -3.95024 0
M  V30 46812 H 2953.66 4.58996 -2.22312 0
M  V30 46813 H 2952.93 0.214893 -1.39758 0
M  V30 46814 P 2951.5 -1.17771 -8.83182 0
M  V30 46815 O 2951.28 -2.07206 -9.98732 0
M  V30 46816 O 2950.71 0.0743816 -8.81969 0
M  V30 46817 O 2951.25 -1.97652 -7.47304 0
M  V30 46818 C 2952.19 -3.01133 -7.08783 0
M  V30 46819 C 2951.46 -4.12613 -6.37049 0
M  V30 46820 O 2951.25 -3.72827 -4.97879 0
M  V30 46821 C 2950.06 -4.45085 -6.88694 0
M  V30 46822 O 2949.67 -5.7877 -6.5624 0
M  V30 46823 C 2949.18 -3.47817 -6.12078 0
M  V30 46824 C 2949.89 -3.39414 -4.77697 0
M  V30 46825 N 2949.84 -2.04615 -4.15333 0
M  V30 46826 C 2949.92 -0.803897 -4.75249 0
M  V30 46827 N 2949.84 0.197615 -3.91502 0
M  V30 46828 C 2949.7 -0.413002 -2.66823 0
M  V30 46829 C 2949.57 0.157221 -1.38007 0
M  V30 46830 N 2949.45 -0.833136 -0.390236 0
M  V30 46831 C 2949.45 -2.19402 -0.623885 0
M  V30 46832 N 2949.32 -2.97622 0.449677 0
M  V30 46833 N 2949.58 -2.73005 -1.83601 0
M  V30 46834 C 2949.7 -1.78786 -2.80935 0
M  V30 46835 H 2952.68 -3.41248 -7.98759 0
M  V30 46836 H 2952.95 -2.5837 -6.41742 0
M  V30 46837 H 2952.09 -5.02657 -6.42673 0
M  V30 46838 P 2948.12 -6.144 -6.45285 0
M  V30 46839 O 2947.9 -7.54673 -6.86199 0
M  V30 46840 O 2947.33 -5.12391 -7.179 0
M  V30 46841 O 2947.87 -5.99158 -4.88404 0
M  V30 46842 C 2948.81 -6.60234 -3.96415 0
M  V30 46843 C 2948.08 -7.08259 -2.72856 0
M  V30 46844 O 2947.87 -5.9427 -1.83651 0
M  V30 46845 C 2946.68 -7.64886 -2.9555 0
M  V30 46846 O 2946.29 -8.53963 -1.90717 0
M  V30 46847 C 2945.8 -6.4116 -2.90739 0
M  V30 46848 C 2946.51 -5.55375 -1.86963 0
M  V30 46849 N 2946.46 -4.09448 -2.16152 0
M  V30 46850 H 2949.3 -7.45574 -4.45629 0
M  V30 46851 H 2949.57 -5.85864 -3.679 0
M  V30 46852 H 2948.71 -7.84412 -2.24479 0
M  V30 46853 H 2946.05 -5.73457 -0.888562 0
M  V30 46854 H 2945.77 -5.90877 -3.88583 0
M  V30 46855 H 2944.78 -6.6596 -2.58858 0
M  V30 46856 H 2946.61 -8.16339 -3.92049 0
M  V30 46857 P 2944.74 -8.7635 -1.60911 0
M  V30 46858 O 2944.52 -10.1388 -1.11561 0
M  V30 46859 O 2943.95 -8.36503 -2.79617 0
M  V30 46860 O 2944.49 -7.71806 -0.42951 0
M  V30 46861 C 2945.43 -7.67148 0.673689 0
M  V30 46862 C 2944.7 -7.33374 1.95559 0
M  V30 46863 O 2944.49 -5.88721 2.00726 0
M  V30 46864 C 2943.3 -7.92526 2.10483 0
M  V30 46865 O 2942.91 -8.02971 3.47653 0
M  V30 46866 C 2942.42 -6.89602 1.41652 0
M  V30 46867 C 2943.13 -5.59201 1.75185 0
M  V30 46868 N 2943.08 -4.58235 0.662552 0
M  V30 46869 H 2945.92 -8.65116 0.777161 0
M  V30 46870 H 2946.19 -6.90173 0.474152 0
M  V30 46871 H 2945.33 -7.66548 2.79458 0
M  V30 46872 P 2941.36 -8.03563 3.84925 0
M  V30 46873 O 2941.14 -8.85821 5.0569 0
M  V30 46874 O 2940.57 -8.41101 2.65469 0
M  V30 46875 O 2941.11 -6.4965 4.18908 0
M  V30 46876 C 2942.05 -5.81037 5.05421 0
M  V30 46877 C 2941.32 -4.78366 5.89277 0
M  V30 46878 O 2941.11 -3.58302 5.08433 0
M  V30 46879 C 2939.92 -5.17448 6.36119 0
M  V30 46880 O 2939.53 -4.45271 7.53232 0
M  V30 46881 C 2939.04 -4.74639 5.19936 0
M  V30 46882 C 2939.75 -3.49432 4.70418 0
M  V30 46883 N 2939.7 -3.32099 3.22613 0
M  V30 46884 H 2942.54 -6.54213 5.71376 0
M  V30 46885 H 2942.81 -5.30936 4.43503 0
M  V30 46886 H 2941.95 -4.55889 6.76652 0
M  V30 46887 H 2939.29 -2.61715 5.17932 0
M  V30 46888 H 2939.01 -5.52155 4.41878 0
M  V30 46889 H 2938.02 -4.51981 5.53374 0
M  V30 46890 H 2939.85 -6.25124 6.55234 0
M  V30 46891 P 2937.98 -4.23843 7.83734 0
M  V30 46892 O 2937.76 -4.19407 9.29784 0
M  V30 46893 O 2937.19 -5.24426 7.09156 0
M  V30 46894 O 2937.73 -2.7935 7.20758 0
M  V30 46895 C 2938.67 -1.7299 7.50419 0
M  V30 46896 C 2937.94 -0.406376 7.57911 0
M  V30 46897 O 2937.73 0.0897726 6.21935 0
M  V30 46898 C 2936.54 -0.447224 8.1878 0
M  V30 46899 O 2936.15 0.825065 8.71101 0
M  V30 46900 C 2935.66 -0.783801 6.99623 0
M  V30 46901 C 2936.37 -0.0619192 5.85967 0
M  V30 46902 N 2936.32 -0.7859 4.56281 0
M  V30 46903 C 2936.4 -2.14308 4.31736 0
M  V30 46904 N 2936.32 -2.46106 3.05116 0
M  V30 46905 C 2936.18 -1.23422 2.4014 0
M  V30 46906 C 2936.05 -0.938381 1.02409 0
M  V30 46907 N 2935.93 0.444647 0.805413 0
M  V30 46908 C 2935.93 1.40829 1.79435 0
M  V30 46909 N 2935.8 2.67213 1.38558 0
M  V30 46910 N 2936.06 1.12947 3.09005 0
M  V30 46911 C 2936.18 -0.204887 3.32369 0
M  V30 46912 H 2939.16 -1.93423 8.4679 0
M  V30 46913 H 2939.43 -1.68181 6.71046 0
M  V30 46914 H 2938.57 0.289041 8.15388 0
M  V30 46915 P 2934.6 1.17771 8.83182 0
M  V30 46916 O 2934.38 2.07206 9.98732 0
M  V30 46917 O 2933.81 -0.0743816 8.81969 0
M  V30 46918 O 2934.35 1.97652 7.47304 0
M  V30 46919 C 2935.29 3.01133 7.08783 0
M  V30 46920 C 2934.56 4.12613 6.37049 0
M  V30 46921 O 2934.35 3.72827 4.97879 0
M  V30 46922 C 2933.16 4.45085 6.88694 0
M  V30 46923 O 2932.77 5.7877 6.5624 0
M  V30 46924 C 2932.28 3.47817 6.12078 0
M  V30 46925 C 2932.99 3.39414 4.77697 0
M  V30 46926 N 2932.94 2.04615 4.15333 0
M  V30 46927 H 2935.78 3.41248 7.98759 0
M  V30 46928 H 2936.05 2.5837 6.41742 0
M  V30 46929 H 2935.19 5.02657 6.42673 0
M  V30 46930 P 2931.22 6.144 6.45285 0
M  V30 46931 O 2931 7.54673 6.86199 0
M  V30 46932 O 2930.43 5.12391 7.179 0
M  V30 46933 O 2930.97 5.99158 4.88404 0
M  V30 46934 C 2931.91 6.60234 3.96415 0
M  V30 46935 C 2931.18 7.08259 2.72856 0
M  V30 46936 O 2930.97 5.9427 1.83651 0
M  V30 46937 C 2929.78 7.64886 2.9555 0
M  V30 46938 O 2929.39 8.53963 1.90717 0
M  V30 46939 C 2928.9 6.4116 2.90739 0
M  V30 46940 C 2929.61 5.55375 1.86963 0
M  V30 46941 N 2929.56 4.09664 2.15742 0
M  V30 46942 H 2932.4 7.45574 4.45629 0
M  V30 46943 H 2932.67 5.86232 3.67314 0
M  V30 46944 H 2931.81 7.84412 2.24479 0
M  V30 46945 P 2927.84 8.7635 1.60911 0
M  V30 46946 O 2927.62 10.1388 1.11561 0
M  V30 46947 O 2927.05 8.36503 2.79617 0
M  V30 46948 O 2927.59 7.71806 0.42951 0
M  V30 46949 C 2928.53 7.67148 -0.673689 0
M  V30 46950 C 2927.8 7.33374 -1.95559 0
M  V30 46951 O 2927.59 5.88721 -2.00726 0
M  V30 46952 C 2926.4 7.92526 -2.10483 0
M  V30 46953 O 2926.01 8.02971 -3.47653 0
M  V30 46954 C 2925.52 6.89602 -1.41652 0
M  V30 46955 C 2926.23 5.59201 -1.75185 0
M  V30 46956 N 2926.18 4.58235 -0.662552 0
M  V30 46957 H 2929.02 8.65116 -0.777161 0
M  V30 46958 H 2929.29 6.90173 -0.474152 0
M  V30 46959 H 2928.43 7.66548 -2.79458 0
M  V30 46960 P 2924.46 8.03563 -3.84925 0
M  V30 46961 O 2924.24 8.85821 -5.0569 0
M  V30 46962 O 2923.67 8.41101 -2.65469 0
M  V30 46963 O 2924.21 6.4965 -4.18908 0
M  V30 46964 C 2925.15 5.81037 -5.05421 0
M  V30 46965 C 2924.42 4.78366 -5.89277 0
M  V30 46966 O 2924.21 3.58302 -5.08433 0
M  V30 46967 C 2923.02 5.17448 -6.36119 0
M  V30 46968 O 2922.63 4.45271 -7.53232 0
M  V30 46969 C 2922.14 4.74639 -5.19936 0
M  V30 46970 C 2922.85 3.49432 -4.70418 0
M  V30 46971 N 2922.8 3.31776 -3.22945 0
M  V30 46972 C 2922.88 4.27147 -2.23315 0
M  V30 46973 N 2922.8 3.78447 -1.02186 0
M  V30 46974 C 2922.66 2.41001 -1.21732 0
M  V30 46975 C 2922.53 1.36111 -0.27694 0
M  V30 46976 N 2922.41 0.113683 -0.912949 0
M  V30 46977 C 2922.41 -0.0846396 -2.27943 0
M  V30 46978 N 2922.28 -1.34737 -2.6916 0
M  V30 46979 N 2922.54 0.902521 -3.16379 0
M  V30 46980 C 2922.66 2.11937 -2.56849 0
M  V30 46981 H 2925.64 6.54213 -5.71376 0
M  V30 46982 H 2925.91 5.30492 -4.44033 0
M  V30 46983 H 2925.05 4.55889 -6.76652 0
M  V30 46984 P 2921.08 4.23843 -7.83734 0
M  V30 46985 O 2920.86 4.19407 -9.29784 0
M  V30 46986 O 2920.29 5.24426 -7.09156 0
M  V30 46987 O 2920.83 2.7935 -7.20758 0
M  V30 46988 C 2921.77 1.7299 -7.50419 0
M  V30 46989 C 2921.04 0.406376 -7.57911 0
M  V30 46990 O 2920.83 -0.0897726 -6.21935 0
M  V30 46991 C 2919.64 0.447224 -8.1878 0
M  V30 46992 O 2919.25 -0.825065 -8.71101 0
M  V30 46993 C 2918.76 0.783801 -6.99623 0
M  V30 46994 C 2919.47 0.0619192 -5.85967 0
M  V30 46995 N 2919.42 0.7859 -4.56281 0
M  V30 46996 H 2922.26 1.93423 -8.4679 0
M  V30 46997 H 2922.53 1.68181 -6.71046 0
M  V30 46998 H 2921.67 -0.289041 -8.15388 0
M  V30 46999 P 2917.7 -1.17771 -8.83182 0
M  V30 47000 O 2917.48 -2.07206 -9.98732 0
M  V30 47001 O 2916.91 0.0743816 -8.81969 0
M  V30 47002 O 2917.45 -1.97652 -7.47304 0
M  V30 47003 C 2918.39 -3.01133 -7.08783 0
M  V30 47004 C 2917.66 -4.12613 -6.37049 0
M  V30 47005 O 2917.45 -3.72827 -4.97879 0
M  V30 47006 C 2916.26 -4.45085 -6.88694 0
M  V30 47007 O 2915.87 -5.7877 -6.5624 0
M  V30 47008 C 2915.38 -3.47817 -6.12078 0
M  V30 47009 C 2916.09 -3.39414 -4.77697 0
M  V30 47010 N 2916.04 -2.04615 -4.15333 0
M  V30 47011 C 2916.12 -0.803897 -4.75249 0
M  V30 47012 N 2916.04 0.197615 -3.91502 0
M  V30 47013 C 2915.9 -0.413002 -2.66823 0
M  V30 47014 C 2915.77 0.157221 -1.38007 0
M  V30 47015 N 2915.65 -0.833136 -0.390236 0
M  V30 47016 C 2915.65 -2.19402 -0.623885 0
M  V30 47017 N 2915.52 -2.97622 0.449677 0
M  V30 47018 N 2915.78 -2.73005 -1.83601 0
M  V30 47019 C 2915.9 -1.78786 -2.80935 0
M  V30 47020 H 2918.88 -3.41248 -7.98759 0
M  V30 47021 H 2919.15 -2.5837 -6.41742 0
M  V30 47022 H 2918.29 -5.02657 -6.42673 0
M  V30 47023 P 2914.32 -6.144 -6.45285 0
M  V30 47024 O 2914.1 -7.54673 -6.86199 0
M  V30 47025 O 2913.53 -5.12391 -7.179 0
M  V30 47026 O 2914.07 -5.99158 -4.88404 0
M  V30 47027 C 2915.01 -6.60234 -3.96415 0
M  V30 47028 C 2914.28 -7.08259 -2.72856 0
M  V30 47029 O 2914.07 -5.9427 -1.83651 0
M  V30 47030 C 2912.88 -7.64886 -2.9555 0
M  V30 47031 O 2912.49 -8.53963 -1.90717 0
M  V30 47032 C 2912 -6.4116 -2.90739 0
M  V30 47033 C 2912.71 -5.55375 -1.86963 0
M  V30 47034 N 2912.66 -4.09448 -2.16152 0
M  V30 47035 C 2912.74 -3.46824 -3.37593 0
M  V30 47036 N 2912.67 -2.17422 -3.29777 0
M  V30 47037 C 2912.52 -1.93065 -1.94427 0
M  V30 47038 C 2912.39 -0.738053 -1.20141 0
M  V30 47039 N 2912.38 0.474256 -1.74676 0
M  V30 47040 N 2912.27 -0.850049 0.13045 0
M  V30 47041 C 2912.28 -2.06169 0.676992 0
M  V30 47042 N 2912.4 -3.23842 0.101312 0
M  V30 47043 C 2912.52 -3.09402 -1.23122 0
M  V30 47044 H 2915.5 -7.45574 -4.45629 0
M  V30 47045 H 2915.77 -5.85864 -3.679 0
M  V30 47046 H 2914.91 -7.84412 -2.24479 0
M  V30 47047 H 2912.25 -5.73457 -0.888562 0
M  V30 47048 H 2911.97 -5.90877 -3.88583 0
M  V30 47049 H 2910.98 -6.6596 -2.58858 0
M  V30 47050 H 2912.81 -8.16339 -3.92049 0
M  V30 47051 H 2912.85 -4.00505 -4.3174 0
M  V30 47052 H 2912.47 0.581337 -2.76658 0
M  V30 47053 H 2912.28 1.30811 -1.14888 0
M  V30 47054 H 2912.18 -2.08295 1.75542 0
M  V30 47055 P 2910.94 -8.7635 -1.60911 0
M  V30 47056 O 2910.72 -10.1388 -1.11561 0
M  V30 47057 O 2910.15 -8.36503 -2.79617 0
M  V30 47058 O 2910.69 -7.71806 -0.42951 0
M  V30 47059 C 2911.63 -7.67148 0.673689 0
M  V30 47060 C 2910.9 -7.33374 1.95559 0
M  V30 47061 O 2910.69 -5.88721 2.00726 0
M  V30 47062 C 2909.5 -7.92526 2.10483 0
M  V30 47063 O 2909.11 -8.02971 3.47653 0
M  V30 47064 C 2908.62 -6.89602 1.41652 0
M  V30 47065 C 2909.33 -5.59201 1.75185 0
M  V30 47066 N 2909.28 -4.58301 0.657969 0
M  V30 47067 H 2912.12 -8.65116 0.777161 0
M  V30 47068 H 2912.39 -6.9022 0.46725 0
M  V30 47069 H 2911.53 -7.66548 2.79458 0
M  V30 47070 H 2908.87 -5.16165 2.65183 0
M  V30 47071 H 2908.59 -7.06433 0.329384 0
M  V30 47072 H 2907.6 -6.90926 1.82021 0
M  V30 47073 H 2909.43 -8.90873 1.62657 0
M  V30 47074 P 2907.56 -8.03563 3.84925 0
M  V30 47075 O 2907.34 -8.85821 5.0569 0
M  V30 47076 O 2906.77 -8.41101 2.65469 0
M  V30 47077 O 2907.31 -6.49734 4.18962 0
M  V30 47078 C 2908.25 -5.81037 5.05421 0
M  V30 47079 C 2907.52 -4.79018 5.88876 0
M  V30 47080 O 2907.31 -3.58359 5.08515 0
M  V30 47081 C 2906.12 -5.17448 6.36119 0
M  V30 47082 O 2905.73 -4.45322 7.53318 0
M  V30 47083 C 2905.24 -4.74639 5.19936 0
M  V30 47084 C 2905.95 -3.49432 4.70418 0
M  V30 47085 N 2905.9 -3.31776 3.22945 0
M  V30 47086 C 2905.75 -2.02742 2.72939 0
M  V30 47087 O 2905.66 -1.08301 3.52749 0
M  V30 47088 N 2905.7 -1.96117 1.22063 0
M  V30 47089 C 2905.8 -2.8878 0.551566 0
M  V30 47090 N 2905.75 -2.65609 -0.750198 0
M  V30 47091 C 2905.95 -4.22457 1.03707 0
M  V30 47092 C 2906 -4.37979 2.39113 0
M  V30 47093 H 2908.74 -6.54138 5.7131 0
M  V30 47094 H 2909.01 -5.30492 4.44033 0
M  V30 47095 H 2908.15 -4.55945 6.76735 0
M  V30 47096 H 2905.49 -2.6176 5.18021 0
M  V30 47097 H 2905.21 -5.52233 4.41941 0
M  V30 47098 H 2904.22 -4.52045 5.53452 0
M  V30 47099 H 2906.05 -6.25124 6.55234 0
M  V30 47100 H 2906.13 -5.37936 2.80552 0
M  V30 47101 H 2906.02 -5.07528 0.359553 0
M  V30 47102 H 2905.64 -1.69403 -1.09847 0
M  V30 47103 H 2905.83 -3.43701 -1.41792 0
M  V30 47104 P 2904.18 -4.23843 7.83734 0
M  V30 47105 O 2903.96 -4.19407 9.29784 0
M  V30 47106 O 2903.39 -5.24426 7.09156 0
M  V30 47107 O 2903.93 -2.7935 7.20758 0
M  V30 47108 C 2904.87 -1.7299 7.50419 0
M  V30 47109 C 2904.14 -0.406376 7.57911 0
M  V30 47110 O 2903.93 0.0897726 6.21935 0
M  V30 47111 C 2902.74 -0.447224 8.1878 0
M  V30 47112 O 2902.35 0.825065 8.71101 0
M  V30 47113 C 2901.86 -0.783801 6.99623 0
M  V30 47114 C 2902.57 -0.0619192 5.85967 0
M  V30 47115 N 2902.52 -0.790462 4.56202 0
M  V30 47116 H 2905.36 -1.93423 8.4679 0
M  V30 47117 H 2905.63 -1.68852 6.70877 0
M  V30 47118 H 2904.77 0.289041 8.15388 0
M  V30 47119 H 2902.11 0.927006 5.72848 0
M  V30 47120 H 2901.83 -1.86973 6.82036 0
M  V30 47121 H 2900.84 -0.403953 7.13357 0
M  V30 47122 H 2902.67 -1.20599 8.97534 0
M  V30 47123 P 2900.8 1.17771 8.83182 0
M  V30 47124 O 2900.58 2.07206 9.98732 0
M  V30 47125 O 2900.01 -0.0743816 8.81969 0
M  V30 47126 O 2900.55 1.97652 7.47304 0
M  V30 47127 C 2901.49 3.01133 7.08783 0
M  V30 47128 C 2900.76 4.12613 6.37049 0
M  V30 47129 O 2900.55 3.72827 4.97879 0
M  V30 47130 C 2899.36 4.45085 6.88694 0
M  V30 47131 O 2898.97 5.7877 6.5624 0
M  V30 47132 C 2898.48 3.47817 6.12078 0
M  V30 47133 C 2899.19 3.39414 4.77697 0
M  V30 47134 N 2899.14 2.04199 4.15538 0
M  V30 47135 H 2901.98 3.41248 7.98759 0
M  V30 47136 H 2902.25 2.57728 6.42 0
M  V30 47137 H 2901.39 5.02657 6.42673 0
M  V30 47138 H 2898.73 4.11708 4.08956 0
M  V30 47139 H 2898.45 2.49626 6.61679 0
M  V30 47140 H 2897.46 3.8662 6.00862 0
M  V30 47141 H 2899.29 4.29991 7.97006 0
M  V30 47142 P 2897.42 6.144 6.45285 0
M  V30 47143 O 2897.2 7.54673 6.86199 0
M  V30 47144 O 2896.63 5.12391 7.179 0
M  V30 47145 O 2897.17 5.99236 4.88467 0
M  V30 47146 C 2898.11 6.60234 3.96415 0
M  V30 47147 C 2897.38 7.08079 2.736 0
M  V30 47148 O 2897.17 5.94365 1.8368 0
M  V30 47149 C 2895.98 7.64886 2.9555 0
M  V30 47150 O 2895.59 8.5406 1.90739 0
M  V30 47151 C 2895.1 6.4116 2.90739 0
M  V30 47152 C 2895.81 5.55375 1.86963 0
M  V30 47153 N 2895.76 4.09664 2.15742 0
M  V30 47154 C 2895.61 3.22231 1.08477 0
M  V30 47155 O 2895.52 3.68951 -0.0600489 0
M  V30 47156 N 2895.56 1.76692 1.48799 0
M  V30 47157 C 2895.66 1.41695 2.57602 0
M  V30 47158 N 2895.61 0.107296 2.75791 0
M  V30 47159 C 2895.81 2.29178 3.69733 0
M  V30 47160 C 2895.86 3.62753 3.42653 0
M  V30 47161 H 2898.6 7.45488 4.45578 0
M  V30 47162 H 2898.87 5.86232 3.67314 0
M  V30 47163 H 2898.01 7.84508 2.24507 0
M  V30 47164 H 2895.35 5.73556 0.888715 0
M  V30 47165 H 2895.07 5.9096 3.88638 0
M  V30 47166 H 2894.08 6.66053 2.58894 0
M  V30 47167 H 2895.91 8.16339 3.92049 0
M  V30 47168 H 2895.99 4.33052 4.24913 0
M  V30 47169 H 2895.88 1.9103 4.71577 0
M  V30 47170 H 2895.5 -0.521221 1.95056 0
M  V30 47171 H 2895.69 -0.286429 3.70695 0
M  V30 47172 P 2894.04 8.7635 1.60911 0
M  V30 47173 O 2893.82 10.1388 1.11561 0
M  V30 47174 O 2893.25 8.36503 2.79617 0
M  V30 47175 O 2893.79 7.71806 0.42951 0
M  V30 47176 C 2894.73 7.67148 -0.673689 0
M  V30 47177 C 2894 7.33374 -1.95559 0
M  V30 47178 O 2893.79 5.88721 -2.00726 0
M  V30 47179 C 2892.6 7.92526 -2.10483 0
M  V30 47180 O 2892.21 8.02971 -3.47653 0
M  V30 47181 C 2891.72 6.89602 -1.41652 0
M  V30 47182 C 2892.43 5.59201 -1.75185 0
M  V30 47183 N 2892.38 4.58235 -0.662552 0
M  V30 47184 H 2895.22 8.65116 -0.777161 0
M  V30 47185 H 2895.49 6.90173 -0.474152 0
M  V30 47186 H 2894.63 7.66548 -2.79458 0
M  V30 47187 P 2890.66 8.03563 -3.84925 0
M  V30 47188 O 2890.44 8.85821 -5.0569 0
M  V30 47189 O 2889.87 8.41101 -2.65469 0
M  V30 47190 O 2890.41 6.4965 -4.18908 0
M  V30 47191 C 2891.35 5.81037 -5.05421 0
M  V30 47192 C 2890.62 4.78366 -5.89277 0
M  V30 47193 O 2890.41 3.58302 -5.08433 0
M  V30 47194 C 2889.22 5.17448 -6.36119 0
M  V30 47195 O 2888.83 4.45271 -7.53232 0
M  V30 47196 C 2888.34 4.74639 -5.19936 0
M  V30 47197 C 2889.05 3.49432 -4.70418 0
M  V30 47198 N 2889 3.31776 -3.22945 0
M  V30 47199 H 2891.84 6.54213 -5.71376 0
M  V30 47200 H 2892.11 5.30492 -4.44033 0
M  V30 47201 H 2891.25 4.55889 -6.76652 0
M  V30 47202 P 2887.28 4.23843 -7.83734 0
M  V30 47203 O 2887.06 4.19407 -9.29784 0
M  V30 47204 O 2886.49 5.24426 -7.09156 0
M  V30 47205 O 2887.03 2.7935 -7.20758 0
M  V30 47206 C 2887.97 1.7299 -7.50419 0
M  V30 47207 C 2887.24 0.406376 -7.57911 0
M  V30 47208 O 2887.03 -0.0897726 -6.21935 0
M  V30 47209 C 2885.84 0.447224 -8.1878 0
M  V30 47210 O 2885.45 -0.825065 -8.71101 0
M  V30 47211 C 2884.96 0.783801 -6.99623 0
M  V30 47212 C 2885.67 0.0619192 -5.85967 0
M  V30 47213 N 2885.62 0.7859 -4.56281 0
M  V30 47214 H 2888.46 1.93423 -8.4679 0
M  V30 47215 H 2888.73 1.68181 -6.71046 0
M  V30 47216 H 2887.87 -0.289041 -8.15388 0
M  V30 47217 P 2883.9 -1.17771 -8.83182 0
M  V30 47218 O 2883.68 -2.07206 -9.98732 0
M  V30 47219 O 2883.11 0.0743816 -8.81969 0
M  V30 47220 O 2883.65 -1.97652 -7.47304 0
M  V30 47221 C 2884.59 -3.01133 -7.08783 0
M  V30 47222 C 2883.86 -4.12613 -6.37049 0
M  V30 47223 O 2883.65 -3.72827 -4.97879 0
M  V30 47224 C 2882.46 -4.45085 -6.88694 0
M  V30 47225 O 2882.07 -5.7877 -6.5624 0
M  V30 47226 C 2881.58 -3.47817 -6.12078 0
M  V30 47227 C 2882.29 -3.39414 -4.77697 0
M  V30 47228 N 2882.24 -2.04199 -4.15538 0
M  V30 47229 H 2885.08 -3.41248 -7.98759 0
M  V30 47230 H 2885.35 -2.57728 -6.42 0
M  V30 47231 H 2884.49 -5.02657 -6.42673 0
M  V30 47232 H 2881.83 -4.11708 -4.08956 0
M  V30 47233 H 2881.55 -2.49626 -6.61679 0
M  V30 47234 H 2880.56 -3.8662 -6.00862 0
M  V30 47235 H 2882.39 -4.29991 -7.97006 0
M  V30 47236 P 2880.52 -6.144 -6.45285 0
M  V30 47237 O 2880.3 -7.54673 -6.86199 0
M  V30 47238 O 2879.73 -5.12391 -7.179 0
M  V30 47239 O 2880.27 -5.99158 -4.88404 0
M  V30 47240 C 2881.21 -6.60234 -3.96415 0
M  V30 47241 C 2880.48 -7.08259 -2.72856 0
M  V30 47242 O 2880.27 -5.9427 -1.83651 0
M  V30 47243 C 2879.08 -7.64886 -2.9555 0
M  V30 47244 O 2878.69 -8.53963 -1.90717 0
M  V30 47245 C 2878.2 -6.4116 -2.90739 0
M  V30 47246 C 2878.91 -5.55375 -1.86963 0
M  V30 47247 N 2878.86 -4.09664 -2.15742 0
M  V30 47248 H 2881.7 -7.45574 -4.45629 0
M  V30 47249 H 2881.97 -5.86232 -3.67314 0
M  V30 47250 H 2881.11 -7.84412 -2.24479 0
M  V30 47251 P 2877.14 -8.7635 -1.60911 0
M  V30 47252 O 2876.92 -10.1388 -1.11561 0
M  V30 47253 O 2876.35 -8.36503 -2.79617 0
M  V30 47254 O 2876.89 -7.71806 -0.42951 0
M  V30 47255 C 2877.83 -7.67148 0.673689 0
M  V30 47256 C 2877.1 -7.33374 1.95559 0
M  V30 47257 O 2876.89 -5.88721 2.00726 0
M  V30 47258 C 2875.7 -7.92526 2.10483 0
M  V30 47259 O 2875.31 -8.02971 3.47653 0
M  V30 47260 C 2874.82 -6.89602 1.41652 0
M  V30 47261 C 2875.53 -5.59201 1.75185 0
M  V30 47262 N 2875.48 -4.58235 0.662552 0
M  V30 47263 H 2878.32 -8.65116 0.777161 0
M  V30 47264 H 2878.59 -6.90173 0.474152 0
M  V30 47265 H 2877.73 -7.66548 2.79458 0
M  V30 47266 P 2873.76 -8.03563 3.84925 0
M  V30 47267 O 2873.54 -8.85821 5.0569 0
M  V30 47268 O 2872.97 -8.41101 2.65469 0
M  V30 47269 O 2873.51 -6.4965 4.18908 0
M  V30 47270 C 2874.45 -5.81037 5.05421 0
M  V30 47271 C 2873.72 -4.78366 5.89277 0
M  V30 47272 O 2873.51 -3.58302 5.08433 0
M  V30 47273 C 2872.32 -5.17448 6.36119 0
M  V30 47274 O 2871.93 -4.45271 7.53232 0
M  V30 47275 C 2871.44 -4.74639 5.19936 0
M  V30 47276 C 2872.15 -3.49432 4.70418 0
M  V30 47277 N 2872.1 -3.32099 3.22613 0
M  V30 47278 H 2874.94 -6.54213 5.71376 0
M  V30 47279 H 2875.21 -5.30936 4.43503 0
M  V30 47280 H 2874.35 -4.55889 6.76652 0
M  V30 47281 H 2871.69 -2.61715 5.17932 0
M  V30 47282 H 2871.41 -5.52155 4.41878 0
M  V30 47283 H 2870.42 -4.51981 5.53374 0
M  V30 47284 H 2872.25 -6.25124 6.55234 0
M  V30 47285 P 2870.38 -4.23843 7.83734 0
M  V30 47286 O 2870.16 -4.19407 9.29784 0
M  V30 47287 O 2869.59 -5.24426 7.09156 0
M  V30 47288 O 2870.13 -2.7935 7.20758 0
M  V30 47289 C 2871.07 -1.7299 7.50419 0
M  V30 47290 C 2870.34 -0.406376 7.57911 0
M  V30 47291 O 2870.13 0.0897726 6.21935 0
M  V30 47292 C 2868.94 -0.447224 8.1878 0
M  V30 47293 O 2868.55 0.825065 8.71101 0
M  V30 47294 C 2868.06 -0.783801 6.99623 0
M  V30 47295 C 2868.77 -0.0619192 5.85967 0
M  V30 47296 N 2868.72 -0.7859 4.56281 0
M  V30 47297 H 2871.56 -1.93423 8.4679 0
M  V30 47298 H 2871.83 -1.68181 6.71046 0
M  V30 47299 H 2870.97 0.289041 8.15388 0
M  V30 47300 P 2867 1.17771 8.83182 0
M  V30 47301 O 2866.78 2.07206 9.98732 0
M  V30 47302 O 2866.21 -0.0743816 8.81969 0
M  V30 47303 O 2866.75 1.97678 7.474 0
M  V30 47304 C 2867.69 3.01133 7.08783 0
M  V30 47305 C 2866.96 4.1203 6.37546 0
M  V30 47306 O 2866.75 3.72887 4.9796 0
M  V30 47307 C 2865.56 4.45085 6.88694 0
M  V30 47308 O 2865.17 5.78836 6.56315 0
M  V30 47309 C 2864.68 3.47817 6.12078 0
M  V30 47310 C 2865.39 3.39414 4.77697 0
M  V30 47311 N 2865.34 2.04615 4.15333 0
M  V30 47312 C 2865.19 1.96929 2.77162 0
M  V30 47313 O 2865.1 3.02017 2.12006 0
M  V30 47314 N 2865.14 0.55485 2.24237 0
M  V30 47315 C 2865.24 -0.367808 2.9169 0
M  V30 47316 N 2865.19 -1.53426 2.29427 0
M  V30 47317 C 2865.39 -0.319148 4.33828 0
M  V30 47318 C 2865.44 0.920672 4.90433 0
M  V30 47319 H 2868.18 3.41209 7.98667 0
M  V30 47320 H 2868.45 2.5837 6.41742 0
M  V30 47321 H 2867.59 5.02718 6.42752 0
M  V30 47322 H 2864.93 4.11779 4.09026 0
M  V30 47323 H 2864.65 2.49661 6.61772 0
M  V30 47324 H 2863.66 3.86674 6.00946 0
M  V30 47325 H 2865.49 4.29991 7.97006 0
M  V30 47326 H 2865.57 1.00589 5.98303 0
M  V30 47327 H 2865.46 -1.22639 4.93799 0
M  V30 47328 H 2865.08 -1.56819 1.27167 0
M  V30 47329 H 2865.27 -2.41062 2.83063 0
M  V30 47330 P 2863.62 6.144 6.45285 0
M  V30 47331 O 2863.4 7.54673 6.86199 0
M  V30 47332 O 2862.83 5.12391 7.179 0
M  V30 47333 O 2863.37 5.99236 4.88467 0
M  V30 47334 C 2864.31 6.60234 3.96415 0
M  V30 47335 C 2863.58 7.08079 2.736 0
M  V30 47336 O 2863.37 5.94365 1.8368 0
M  V30 47337 C 2862.18 7.64886 2.9555 0
M  V30 47338 O 2861.79 8.5406 1.90739 0
M  V30 47339 C 2861.3 6.4116 2.90739 0
M  V30 47340 C 2862.01 5.55375 1.86963 0
M  V30 47341 N 2861.96 4.09664 2.15742 0
M  V30 47342 C 2861.81 3.22231 1.08477 0
M  V30 47343 O 2861.72 3.68951 -0.0600489 0
M  V30 47344 N 2861.76 1.76692 1.48799 0
M  V30 47345 C 2861.86 1.41695 2.57602 0
M  V30 47346 N 2861.81 0.107296 2.75791 0
M  V30 47347 C 2862.01 2.29178 3.69733 0
M  V30 47348 C 2862.06 3.62753 3.42653 0
M  V30 47349 H 2864.8 7.45488 4.45578 0
M  V30 47350 H 2865.07 5.86232 3.67314 0
M  V30 47351 H 2864.21 7.84508 2.24507 0
M  V30 47352 H 2861.55 5.73556 0.888715 0
M  V30 47353 H 2861.27 5.9096 3.88638 0
M  V30 47354 H 2860.28 6.66053 2.58894 0
M  V30 47355 H 2862.11 8.16339 3.92049 0
M  V30 47356 H 2862.19 4.33052 4.24913 0
M  V30 47357 H 2862.08 1.9103 4.71577 0
M  V30 47358 H 2861.7 -0.521221 1.95056 0
M  V30 47359 H 2861.89 -0.286429 3.70695 0
M  V30 47360 P 2860.24 8.7635 1.60911 0
M  V30 47361 O 2860.02 10.1388 1.11561 0
M  V30 47362 O 2859.45 8.36503 2.79617 0
M  V30 47363 O 2859.99 7.71806 0.42951 0
M  V30 47364 C 2860.93 7.67148 -0.673689 0
M  V30 47365 C 2860.2 7.33374 -1.95559 0
M  V30 47366 O 2859.99 5.88721 -2.00726 0
M  V30 47367 C 2858.8 7.92526 -2.10483 0
M  V30 47368 O 2858.41 8.02971 -3.47653 0
M  V30 47369 C 2857.92 6.89602 -1.41652 0
M  V30 47370 C 2858.63 5.59201 -1.75185 0
M  V30 47371 N 2858.58 4.58235 -0.662552 0
M  V30 47372 H 2861.42 8.65116 -0.777161 0
M  V30 47373 H 2861.69 6.90173 -0.474152 0
M  V30 47374 H 2860.83 7.66548 -2.79458 0
M  V30 47375 P 2856.86 8.03563 -3.84925 0
M  V30 47376 O 2856.64 8.85821 -5.0569 0
M  V30 47377 O 2856.07 8.41101 -2.65469 0
M  V30 47378 O 2856.61 6.4965 -4.18908 0
M  V30 47379 C 2857.55 5.81037 -5.05421 0
M  V30 47380 C 2856.82 4.78366 -5.89277 0
M  V30 47381 O 2856.61 3.58302 -5.08433 0
M  V30 47382 C 2855.42 5.17448 -6.36119 0
M  V30 47383 O 2855.03 4.45271 -7.53232 0
M  V30 47384 C 2854.54 4.74639 -5.19936 0
M  V30 47385 C 2855.25 3.49432 -4.70418 0
M  V30 47386 N 2855.2 3.31776 -3.22945 0
M  V30 47387 H 2858.04 6.54213 -5.71376 0
M  V30 47388 H 2858.31 5.30492 -4.44033 0
M  V30 47389 H 2857.45 4.55889 -6.76652 0
M  V30 47390 P 2853.48 4.23843 -7.83734 0
M  V30 47391 O 2853.26 4.19407 -9.29784 0
M  V30 47392 O 2852.69 5.24426 -7.09156 0
M  V30 47393 O 2853.23 2.7935 -7.20758 0
M  V30 47394 C 2854.17 1.72945 -7.50224 0
M  V30 47395 C 2853.44 0.406376 -7.57911 0
M  V30 47396 O 2853.23 -0.0897726 -6.21935 0
M  V30 47397 C 2852.04 0.438983 -8.18724 0
M  V30 47398 O 2851.65 -0.825065 -8.71101 0
M  V30 47399 C 2851.16 0.783689 -6.99524 0
M  V30 47400 C 2851.87 0.0619086 -5.85867 0
M  V30 47401 N 2851.82 0.78573 -4.56183 0
M  V30 47402 C 2851.67 0.0292889 -3.41887 0
M  V30 47403 O 2851.58 -1.18445 -3.4419 0
M  V30 47404 N 2851.63 0.744061 -2.23964 0
M  V30 47405 C 2851.72 2.10932 -2.10362 0
M  V30 47406 O 2851.67 2.64117 -0.98825 0
M  V30 47407 C 2851.87 2.8202 -3.34994 0
M  V30 47408 C 2851.98 4.31095 -3.25037 0
M  V30 47409 C 2851.92 2.15547 -4.52261 0
M  V30 47410 H 2854.66 1.93379 -8.46595 0
M  V30 47411 H 2854.93 1.68132 -6.70852 0
M  V30 47412 H 2854.07 -0.289041 -8.15388 0
M  V30 47413 H 2851.41 -0.926847 -5.72749 0
M  V30 47414 H 2851.13 1.86973 -6.82036 0
M  V30 47415 H 2850.14 0.403896 -7.13257 0
M  V30 47416 H 2851.97 1.20585 -8.97435 0
M  V30 47417 H 2852.05 2.71231 -5.45042 0
M  V30 47418 H 2851.02 4.76966 -3.49992 0
M  V30 47419 H 2852.75 4.67047 -3.95024 0
M  V30 47420 H 2852.26 4.58996 -2.22312 0
M  V30 47421 H 2851.53 0.214893 -1.39758 0
M  V30 47422 P 2850.1 -1.17771 -8.83182 0
M  V30 47423 O 2849.88 -2.07206 -9.98732 0
M  V30 47424 O 2849.31 0.0743816 -8.81969 0
M  V30 47425 O 2849.85 -1.97652 -7.47304 0
M  V30 47426 C 2850.79 -3.01133 -7.08783 0
M  V30 47427 C 2850.06 -4.12613 -6.37049 0
M  V30 47428 O 2849.85 -3.72827 -4.97879 0
M  V30 47429 C 2848.66 -4.45085 -6.88694 0
M  V30 47430 O 2848.27 -5.7877 -6.5624 0
M  V30 47431 C 2847.78 -3.47817 -6.12078 0
M  V30 47432 C 2848.49 -3.39414 -4.77697 0
M  V30 47433 N 2848.44 -2.04615 -4.15333 0
M  V30 47434 H 2851.28 -3.41248 -7.98759 0
M  V30 47435 H 2851.55 -2.5837 -6.41742 0
M  V30 47436 H 2850.69 -5.02657 -6.42673 0
M  V30 47437 P 2846.72 -6.144 -6.45285 0
M  V30 47438 O 2846.5 -7.54673 -6.86199 0
M  V30 47439 O 2845.93 -5.12391 -7.179 0
M  V30 47440 O 2846.47 -5.99158 -4.88404 0
M  V30 47441 C 2847.41 -6.60234 -3.96415 0
M  V30 47442 C 2846.68 -7.08259 -2.72856 0
M  V30 47443 O 2846.47 -5.9427 -1.83651 0
M  V30 47444 C 2845.28 -7.64886 -2.9555 0
M  V30 47445 O 2844.89 -8.53963 -1.90717 0
M  V30 47446 C 2844.4 -6.4116 -2.90739 0
M  V30 47447 C 2845.11 -5.55375 -1.86963 0
M  V30 47448 N 2845.06 -4.09664 -2.15742 0
M  V30 47449 H 2847.9 -7.45574 -4.45629 0
M  V30 47450 H 2848.17 -5.86232 -3.67314 0
M  V30 47451 H 2847.31 -7.84412 -2.24479 0
M  V30 47452 P 2843.34 -8.7635 -1.60911 0
M  V30 47453 O 2843.12 -10.1388 -1.11561 0
M  V30 47454 O 2842.55 -8.36503 -2.79617 0
M  V30 47455 O 2843.09 -7.71806 -0.42951 0
M  V30 47456 C 2844.03 -7.67148 0.673689 0
M  V30 47457 C 2843.3 -7.33374 1.95559 0
M  V30 47458 O 2843.09 -5.88721 2.00726 0
M  V30 47459 C 2841.9 -7.92526 2.10483 0
M  V30 47460 O 2841.51 -8.02971 3.47653 0
M  V30 47461 C 2841.02 -6.89602 1.41652 0
M  V30 47462 C 2841.73 -5.59201 1.75185 0
M  V30 47463 N 2841.68 -4.58235 0.662552 0
M  V30 47464 H 2844.52 -8.65116 0.777161 0
M  V30 47465 H 2844.79 -6.90173 0.474152 0
M  V30 47466 H 2843.93 -7.66548 2.79458 0
M  V30 47467 P 2839.96 -8.03563 3.84925 0
M  V30 47468 O 2839.74 -8.85821 5.0569 0
M  V30 47469 O 2839.17 -8.41101 2.65469 0
M  V30 47470 O 2839.71 -6.4965 4.18908 0
M  V30 47471 C 2840.65 -5.81037 5.05421 0
M  V30 47472 C 2839.92 -4.78366 5.89277 0
M  V30 47473 O 2839.71 -3.58302 5.08433 0
M  V30 47474 C 2838.52 -5.17448 6.36119 0
M  V30 47475 O 2838.13 -4.45271 7.53232 0
M  V30 47476 C 2837.64 -4.74639 5.19936 0
M  V30 47477 C 2838.35 -3.49432 4.70418 0
M  V30 47478 N 2838.3 -3.32099 3.22613 0
M  V30 47479 H 2841.14 -6.54213 5.71376 0
M  V30 47480 H 2841.41 -5.30936 4.43503 0
M  V30 47481 H 2840.55 -4.55889 6.76652 0
M  V30 47482 H 2837.89 -2.61715 5.17932 0
M  V30 47483 H 2837.61 -5.52155 4.41878 0
M  V30 47484 H 2836.62 -4.51981 5.53374 0
M  V30 47485 H 2838.45 -6.25124 6.55234 0
M  V30 47486 P 2836.58 -4.23843 7.83734 0
M  V30 47487 O 2836.36 -4.19407 9.29784 0
M  V30 47488 O 2835.79 -5.24426 7.09156 0
M  V30 47489 O 2836.33 -2.7935 7.20758 0
M  V30 47490 C 2837.27 -1.7299 7.50419 0
M  V30 47491 C 2836.54 -0.406376 7.57911 0
M  V30 47492 O 2836.33 0.0897726 6.21935 0
M  V30 47493 C 2835.14 -0.447224 8.1878 0
M  V30 47494 O 2834.75 0.825065 8.71101 0
M  V30 47495 C 2834.26 -0.783801 6.99623 0
M  V30 47496 C 2834.97 -0.0619192 5.85967 0
M  V30 47497 N 2834.92 -0.7859 4.56281 0
M  V30 47498 H 2837.76 -1.93423 8.4679 0
M  V30 47499 H 2838.03 -1.68181 6.71046 0
M  V30 47500 H 2837.17 0.289041 8.15388 0
M  V30 47501 P 2833.2 1.17771 8.83182 0
M  V30 47502 O 2832.98 2.07206 9.98732 0
M  V30 47503 O 2832.41 -0.0743816 8.81969 0
M  V30 47504 O 2832.95 1.97652 7.47304 0
M  V30 47505 C 2833.89 3.01055 7.08599 0
M  V30 47506 C 2833.16 4.12613 6.37049 0
M  V30 47507 O 2832.95 3.72827 4.97879 0
M  V30 47508 C 2831.76 4.45719 6.88164 0
M  V30 47509 O 2831.37 5.7877 6.5624 0
M  V30 47510 C 2830.88 3.47768 6.11991 0
M  V30 47511 C 2831.59 3.39356 4.77615 0
M  V30 47512 N 2831.54 2.04571 4.15244 0
M  V30 47513 C 2831.39 1.98587 2.78314 0
M  V30 47514 O 2831.3 2.98134 2.08835 0
M  V30 47515 N 2831.35 0.714467 2.24925 0
M  V30 47516 C 2831.44 -0.470001 2.94169 0
M  V30 47517 O 2831.39 -1.55587 2.35195 0
M  V30 47518 C 2831.59 -0.312541 4.36783 0
M  V30 47519 C 2831.7 -1.57711 5.16352 0
M  V30 47520 C 2831.64 0.914512 4.92583 0
M  V30 47521 H 2834.38 3.41169 7.98575 0
M  V30 47522 H 2834.65 2.58295 6.41556 0
M  V30 47523 H 2833.79 5.02657 6.42673 0
M  V30 47524 H 2831.13 4.11637 4.08885 0
M  V30 47525 H 2830.85 2.49626 6.61679 0
M  V30 47526 H 2829.86 3.86566 6.00778 0
M  V30 47527 H 2831.69 4.29943 7.96918 0
M  V30 47528 H 2831.77 1.00937 6.00374 0
M  V30 47529 H 2830.74 -1.80153 5.63503 0
M  V30 47530 H 2832.47 -1.4566 5.94104 0
M  V30 47531 H 2831.98 -2.40664 4.49645 0
M  V30 47532 H 2831.25 0.647622 1.25697 0
M  V30 47533 P 2829.82 6.144 6.45285 0
M  V30 47534 O 2829.6 7.54673 6.86199 0
M  V30 47535 O 2829.03 5.12391 7.179 0
M  V30 47536 O 2829.57 5.99158 4.88404 0
M  V30 47537 C 2830.51 6.60234 3.96415 0
M  V30 47538 C 2829.78 7.08259 2.72856 0
M  V30 47539 O 2829.57 5.9427 1.83651 0
M  V30 47540 C 2828.38 7.64886 2.9555 0
M  V30 47541 O 2827.99 8.53963 1.90717 0
M  V30 47542 C 2827.5 6.4116 2.90739 0
M  V30 47543 C 2828.21 5.55375 1.86963 0
M  V30 47544 N 2828.16 4.09448 2.16152 0
M  V30 47545 H 2831 7.45574 4.45629 0
M  V30 47546 H 2831.27 5.85864 3.679 0
M  V30 47547 H 2830.41 7.84412 2.24479 0
M  V30 47548 H 2827.75 5.73457 0.888562 0
M  V30 47549 H 2827.47 5.90877 3.88583 0
M  V30 47550 H 2826.48 6.6596 2.58858 0
M  V30 47551 H 2828.31 8.16339 3.92049 0
M  V30 47552 P 2826.44 8.7635 1.60911 0
M  V30 47553 O 2826.22 10.1388 1.11561 0
M  V30 47554 O 2825.65 8.36503 2.79617 0
M  V30 47555 O 2826.19 7.71806 0.42951 0
M  V30 47556 C 2827.13 7.67148 -0.673689 0
M  V30 47557 C 2826.4 7.33374 -1.95559 0
M  V30 47558 O 2826.19 5.88721 -2.00726 0
M  V30 47559 C 2825 7.92526 -2.10483 0
M  V30 47560 O 2824.61 8.02971 -3.47653 0
M  V30 47561 C 2824.12 6.89602 -1.41652 0
M  V30 47562 C 2824.83 5.59201 -1.75185 0
M  V30 47563 N 2824.78 4.58235 -0.662552 0
M  V30 47564 C 2824.86 4.7683 0.704049 0
M  V30 47565 N 2824.78 3.66233 1.39775 0
M  V30 47566 C 2824.64 2.66526 0.431739 0
M  V30 47567 C 2824.51 1.26394 0.575992 0
M  V30 47568 N 2824.39 0.62859 -0.67177 0
M  V30 47569 C 2824.39 1.27134 -1.89385 0
M  V30 47570 N 2824.26 0.492035 -2.96951 0
M  V30 47571 N 2824.52 2.58978 -2.02907 0
M  V30 47572 C 2824.64 3.22433 -0.832218 0
M  V30 47573 H 2827.62 8.65116 -0.777161 0
M  V30 47574 H 2827.89 6.90173 -0.474152 0
M  V30 47575 H 2827.03 7.66548 -2.79458 0
M  V30 47576 P 2823.06 8.03563 -3.84925 0
M  V30 47577 O 2822.84 8.85821 -5.0569 0
M  V30 47578 O 2822.27 8.41101 -2.65469 0
M  V30 47579 O 2822.81 6.4965 -4.18908 0
M  V30 47580 C 2823.75 5.81037 -5.05421 0
M  V30 47581 C 2823.02 4.78366 -5.89277 0
M  V30 47582 O 2822.81 3.58302 -5.08433 0
M  V30 47583 C 2821.62 5.17448 -6.36119 0
M  V30 47584 O 2821.23 4.45271 -7.53232 0
M  V30 47585 C 2820.74 4.74639 -5.19936 0
M  V30 47586 C 2821.45 3.49432 -4.70418 0
M  V30 47587 N 2821.4 3.31776 -3.22945 0
M  V30 47588 H 2824.24 6.54213 -5.71376 0
M  V30 47589 H 2824.51 5.30492 -4.44033 0
M  V30 47590 H 2823.65 4.55889 -6.76652 0
M  V30 47591 P 2819.68 4.23843 -7.83734 0
M  V30 47592 O 2819.46 4.19407 -9.29784 0
M  V30 47593 O 2818.89 5.24426 -7.09156 0
M  V30 47594 O 2819.43 2.7935 -7.20758 0
M  V30 47595 C 2820.37 1.7299 -7.50419 0
M  V30 47596 C 2819.64 0.406376 -7.57911 0
M  V30 47597 O 2819.43 -0.0897726 -6.21935 0
M  V30 47598 C 2818.24 0.447224 -8.1878 0
M  V30 47599 O 2817.85 -0.825065 -8.71101 0
M  V30 47600 C 2817.36 0.783801 -6.99623 0
M  V30 47601 C 2818.07 0.0619192 -5.85967 0
M  V30 47602 N 2818.02 0.7859 -4.56281 0
M  V30 47603 H 2820.86 1.93423 -8.4679 0
M  V30 47604 H 2821.13 1.68181 -6.71046 0
M  V30 47605 H 2820.27 -0.289041 -8.15388 0
M  V30 47606 P 2816.3 -1.17771 -8.83182 0
M  V30 47607 O 2816.08 -2.07206 -9.98732 0
M  V30 47608 O 2815.51 0.0743816 -8.81969 0
M  V30 47609 O 2816.05 -1.97652 -7.47304 0
M  V30 47610 C 2816.99 -3.01133 -7.08783 0
M  V30 47611 C 2816.26 -4.12613 -6.37049 0
M  V30 47612 O 2816.05 -3.72827 -4.97879 0
M  V30 47613 C 2814.86 -4.45085 -6.88694 0
M  V30 47614 O 2814.47 -5.7877 -6.5624 0
M  V30 47615 C 2813.98 -3.47817 -6.12078 0
M  V30 47616 C 2814.69 -3.39414 -4.77697 0
M  V30 47617 N 2814.64 -2.04199 -4.15538 0
M  V30 47618 H 2817.48 -3.41248 -7.98759 0
M  V30 47619 H 2817.75 -2.57728 -6.42 0
M  V30 47620 H 2816.89 -5.02657 -6.42673 0
M  V30 47621 H 2814.23 -4.11708 -4.08956 0
M  V30 47622 H 2813.95 -2.49626 -6.61679 0
M  V30 47623 H 2812.96 -3.8662 -6.00862 0
M  V30 47624 H 2814.79 -4.29991 -7.97006 0
M  V30 47625 P 2812.92 -6.144 -6.45285 0
M  V30 47626 O 2812.7 -7.54673 -6.86199 0
M  V30 47627 O 2812.13 -5.12391 -7.179 0
M  V30 47628 O 2812.67 -5.99158 -4.88404 0
M  V30 47629 C 2813.61 -6.60234 -3.96415 0
M  V30 47630 C 2812.88 -7.08259 -2.72856 0
M  V30 47631 O 2812.67 -5.9427 -1.83651 0
M  V30 47632 C 2811.48 -7.64886 -2.9555 0
M  V30 47633 O 2811.09 -8.53963 -1.90717 0
M  V30 47634 C 2810.6 -6.4116 -2.90739 0
M  V30 47635 C 2811.31 -5.55375 -1.86963 0
M  V30 47636 N 2811.26 -4.09664 -2.15742 0
M  V30 47637 H 2814.1 -7.45574 -4.45629 0
M  V30 47638 H 2814.37 -5.86232 -3.67314 0
M  V30 47639 H 2813.51 -7.84412 -2.24479 0
M  V30 47640 P 2809.54 -8.7635 -1.60911 0
M  V30 47641 O 2809.32 -10.1388 -1.11561 0
M  V30 47642 O 2808.75 -8.36503 -2.79617 0
M  V30 47643 O 2809.29 -7.71806 -0.42951 0
M  V30 47644 C 2810.23 -7.67148 0.673689 0
M  V30 47645 C 2809.5 -7.33374 1.95559 0
M  V30 47646 O 2809.29 -5.88721 2.00726 0
M  V30 47647 C 2808.1 -7.92526 2.10483 0
M  V30 47648 O 2807.71 -8.02971 3.47653 0
M  V30 47649 C 2807.22 -6.89602 1.41652 0
M  V30 47650 C 2807.93 -5.59201 1.75185 0
M  V30 47651 N 2807.88 -4.58301 0.657969 0
M  V30 47652 H 2810.72 -8.65116 0.777161 0
M  V30 47653 H 2810.99 -6.9022 0.46725 0
M  V30 47654 H 2810.13 -7.66548 2.79458 0
M  V30 47655 H 2807.47 -5.16165 2.65183 0
M  V30 47656 H 2807.19 -7.06433 0.329384 0
M  V30 47657 H 2806.2 -6.90926 1.82021 0
M  V30 47658 H 2808.03 -8.90873 1.62657 0
M  V30 47659 P 2806.16 -8.03563 3.84925 0
M  V30 47660 O 2805.94 -8.85821 5.0569 0
M  V30 47661 O 2805.37 -8.41101 2.65469 0
M  V30 47662 O 2805.91 -6.4965 4.18908 0
M  V30 47663 C 2806.85 -5.81037 5.05421 0
M  V30 47664 C 2806.12 -4.78366 5.89277 0
M  V30 47665 O 2805.91 -3.58302 5.08433 0
M  V30 47666 C 2804.72 -5.17448 6.36119 0
M  V30 47667 O 2804.33 -4.45271 7.53232 0
M  V30 47668 C 2803.84 -4.74639 5.19936 0
M  V30 47669 C 2804.55 -3.49432 4.70418 0
M  V30 47670 N 2804.5 -3.32099 3.22613 0
M  V30 47671 H 2807.34 -6.54213 5.71376 0
M  V30 47672 H 2807.61 -5.30936 4.43503 0
M  V30 47673 H 2806.75 -4.55889 6.76652 0
M  V30 47674 H 2804.09 -2.61715 5.17932 0
M  V30 47675 H 2803.81 -5.52155 4.41878 0
M  V30 47676 H 2802.82 -4.51981 5.53374 0
M  V30 47677 H 2804.65 -6.25124 6.55234 0
M  V30 47678 P 2802.78 -4.23843 7.83734 0
M  V30 47679 O 2802.56 -4.19407 9.29784 0
M  V30 47680 O 2801.99 -5.24426 7.09156 0
M  V30 47681 O 2802.53 -2.7935 7.20758 0
M  V30 47682 C 2803.47 -1.7299 7.50419 0
M  V30 47683 C 2802.74 -0.406376 7.57911 0
M  V30 47684 O 2802.53 0.0897726 6.21935 0
M  V30 47685 C 2801.34 -0.447224 8.1878 0
M  V30 47686 O 2800.95 0.825065 8.71101 0
M  V30 47687 C 2800.46 -0.783801 6.99623 0
M  V30 47688 C 2801.17 -0.0619192 5.85967 0
M  V30 47689 N 2801.12 -0.7859 4.56281 0
M  V30 47690 H 2803.96 -1.93423 8.4679 0
M  V30 47691 H 2804.23 -1.68181 6.71046 0
M  V30 47692 H 2803.37 0.289041 8.15388 0
M  V30 47693 P 2799.4 1.17771 8.83182 0
M  V30 47694 O 2799.18 2.07206 9.98732 0
M  V30 47695 O 2798.61 -0.0743816 8.81969 0
M  V30 47696 O 2799.15 1.97652 7.47304 0
M  V30 47697 C 2800.09 3.01133 7.08783 0
M  V30 47698 C 2799.36 4.12613 6.37049 0
M  V30 47699 O 2799.15 3.72827 4.97879 0
M  V30 47700 C 2797.96 4.45085 6.88694 0
M  V30 47701 O 2797.57 5.7877 6.5624 0
M  V30 47702 C 2797.08 3.47817 6.12078 0
M  V30 47703 C 2797.79 3.39414 4.77697 0
M  V30 47704 N 2797.74 2.04615 4.15333 0
M  V30 47705 H 2800.58 3.41248 7.98759 0
M  V30 47706 H 2800.85 2.5837 6.41742 0
M  V30 47707 H 2799.99 5.02657 6.42673 0
M  V30 47708 P 2796.02 6.144 6.45285 0
M  V30 47709 O 2795.8 7.54673 6.86199 0
M  V30 47710 O 2795.23 5.12391 7.179 0
M  V30 47711 O 2795.77 5.99158 4.88404 0
M  V30 47712 C 2796.71 6.60234 3.96415 0
M  V30 47713 C 2795.98 7.08259 2.72856 0
M  V30 47714 O 2795.77 5.9427 1.83651 0
M  V30 47715 C 2794.58 7.64886 2.9555 0
M  V30 47716 O 2794.19 8.53963 1.90717 0
M  V30 47717 C 2793.7 6.4116 2.90739 0
M  V30 47718 C 2794.41 5.55375 1.86963 0
M  V30 47719 N 2794.36 4.09664 2.15742 0
M  V30 47720 C 2794.44 3.44381 3.37233 0
M  V30 47721 N 2794.36 2.14131 3.28347 0
M  V30 47722 C 2794.22 1.90247 1.91588 0
M  V30 47723 C 2794.09 0.683992 1.20892 0
M  V30 47724 N 2793.97 0.903396 -0.173998 0
M  V30 47725 C 2793.97 2.14171 -0.784879 0
M  V30 47726 N 2793.84 2.1435 -2.11317 0
M  V30 47727 N 2794.1 3.28784 -0.119316 0
M  V30 47728 C 2794.22 3.0977 1.22194 0
M  V30 47729 H 2797.2 7.45574 4.45629 0
M  V30 47730 H 2797.47 5.86232 3.67314 0
M  V30 47731 H 2796.61 7.84412 2.24479 0
M  V30 47732 P 2792.64 8.7635 1.60911 0
M  V30 47733 O 2792.42 10.1388 1.11561 0
M  V30 47734 O 2791.85 8.36503 2.79617 0
M  V30 47735 O 2792.39 7.71806 0.42951 0
M  V30 47736 C 2793.33 7.67148 -0.673689 0
M  V30 47737 C 2792.6 7.33374 -1.95559 0
M  V30 47738 O 2792.39 5.88721 -2.00726 0
M  V30 47739 C 2791.2 7.92526 -2.10483 0
M  V30 47740 O 2790.81 8.02971 -3.47653 0
M  V30 47741 C 2790.32 6.89602 -1.41652 0
M  V30 47742 C 2791.03 5.59201 -1.75185 0
M  V30 47743 N 2790.98 4.58301 -0.657969 0
M  V30 47744 H 2793.82 8.65116 -0.777161 0
M  V30 47745 H 2794.09 6.9022 -0.46725 0
M  V30 47746 H 2793.23 7.66548 -2.79458 0
M  V30 47747 H 2790.57 5.16165 -2.65183 0
M  V30 47748 H 2790.29 7.06433 -0.329384 0
M  V30 47749 H 2789.3 6.90926 -1.82021 0
M  V30 47750 H 2791.13 8.90873 -1.62657 0
M  V30 47751 P 2789.26 8.03563 -3.84925 0
M  V30 47752 O 2789.04 8.85821 -5.0569 0
M  V30 47753 O 2788.47 8.41101 -2.65469 0
M  V30 47754 O 2789.01 6.4965 -4.18908 0
M  V30 47755 C 2789.95 5.81037 -5.05421 0
M  V30 47756 C 2789.22 4.78366 -5.89277 0
M  V30 47757 O 2789.01 3.58302 -5.08433 0
M  V30 47758 C 2787.82 5.17448 -6.36119 0
M  V30 47759 O 2787.43 4.45271 -7.53232 0
M  V30 47760 C 2786.94 4.74639 -5.19936 0
M  V30 47761 C 2787.65 3.49432 -4.70418 0
M  V30 47762 N 2787.6 3.31776 -3.22945 0
M  V30 47763 H 2790.44 6.54213 -5.71376 0
M  V30 47764 H 2790.71 5.30492 -4.44033 0
M  V30 47765 H 2789.85 4.55889 -6.76652 0
M  V30 47766 P 2785.88 4.23843 -7.83734 0
M  V30 47767 O 2785.66 4.19407 -9.29784 0
M  V30 47768 O 2785.09 5.24426 -7.09156 0
M  V30 47769 O 2785.63 2.7935 -7.20758 0
M  V30 47770 C 2786.57 1.7299 -7.50419 0
M  V30 47771 C 2785.84 0.406376 -7.57911 0
M  V30 47772 O 2785.63 -0.0897726 -6.21935 0
M  V30 47773 C 2784.44 0.447224 -8.1878 0
M  V30 47774 O 2784.05 -0.825065 -8.71101 0
M  V30 47775 C 2783.56 0.783801 -6.99623 0
M  V30 47776 C 2784.27 0.0619192 -5.85967 0
M  V30 47777 N 2784.22 0.7859 -4.56281 0
M  V30 47778 H 2787.06 1.93423 -8.4679 0
M  V30 47779 H 2787.33 1.68181 -6.71046 0
M  V30 47780 H 2786.47 -0.289041 -8.15388 0
M  V30 47781 P 2782.5 -1.17771 -8.83182 0
M  V30 47782 O 2782.28 -2.07206 -9.98732 0
M  V30 47783 O 2781.71 0.0743816 -8.81969 0
M  V30 47784 O 2782.25 -1.97652 -7.47304 0
M  V30 47785 C 2783.19 -3.01133 -7.08783 0
M  V30 47786 C 2782.46 -4.12613 -6.37049 0
M  V30 47787 O 2782.25 -3.72827 -4.97879 0
M  V30 47788 C 2781.06 -4.45085 -6.88694 0
M  V30 47789 O 2780.67 -5.7877 -6.5624 0
M  V30 47790 C 2780.18 -3.47817 -6.12078 0
M  V30 47791 C 2780.89 -3.39414 -4.77697 0
M  V30 47792 N 2780.84 -2.04615 -4.15333 0
M  V30 47793 H 2783.68 -3.41248 -7.98759 0
M  V30 47794 H 2783.95 -2.5837 -6.41742 0
M  V30 47795 H 2783.09 -5.02657 -6.42673 0
M  V30 47796 P 2779.12 -6.144 -6.45285 0
M  V30 47797 O 2778.9 -7.54673 -6.86199 0
M  V30 47798 O 2778.33 -5.12391 -7.179 0
M  V30 47799 O 2778.87 -5.99158 -4.88404 0
M  V30 47800 C 2779.81 -6.60234 -3.96415 0
M  V30 47801 C 2779.08 -7.08259 -2.72856 0
M  V30 47802 O 2778.87 -5.9427 -1.83651 0
M  V30 47803 C 2777.68 -7.64886 -2.9555 0
M  V30 47804 O 2777.29 -8.53963 -1.90717 0
M  V30 47805 C 2776.8 -6.4116 -2.90739 0
M  V30 47806 C 2777.51 -5.55375 -1.86963 0
M  V30 47807 N 2777.46 -4.09448 -2.16152 0
M  V30 47808 H 2780.3 -7.45574 -4.45629 0
M  V30 47809 H 2780.57 -5.85864 -3.679 0
M  V30 47810 H 2779.71 -7.84412 -2.24479 0
M  V30 47811 H 2777.05 -5.73457 -0.888562 0
M  V30 47812 H 2776.77 -5.90877 -3.88583 0
M  V30 47813 H 2775.78 -6.6596 -2.58858 0
M  V30 47814 H 2777.61 -8.16339 -3.92049 0
M  V30 47815 P 2775.74 -8.7635 -1.60911 0
M  V30 47816 O 2775.52 -10.1388 -1.11561 0
M  V30 47817 O 2774.95 -8.36503 -2.79617 0
M  V30 47818 O 2775.49 -7.71806 -0.42951 0
M  V30 47819 C 2776.43 -7.67148 0.673689 0
M  V30 47820 C 2775.7 -7.33374 1.95559 0
M  V30 47821 O 2775.49 -5.88721 2.00726 0
M  V30 47822 C 2774.3 -7.92526 2.10483 0
M  V30 47823 O 2773.91 -8.02971 3.47653 0
M  V30 47824 C 2773.42 -6.89602 1.41652 0
M  V30 47825 C 2774.13 -5.59201 1.75185 0
M  V30 47826 N 2774.08 -4.58235 0.662552 0
M  V30 47827 H 2776.92 -8.65116 0.777161 0
M  V30 47828 H 2777.19 -6.90173 0.474152 0
M  V30 47829 H 2776.33 -7.66548 2.79458 0
M  V30 47830 P 2772.36 -8.03563 3.84925 0
M  V30 47831 O 2772.14 -8.85821 5.0569 0
M  V30 47832 O 2771.57 -8.41101 2.65469 0
M  V30 47833 O 2772.11 -6.4965 4.18908 0
M  V30 47834 C 2773.05 -5.81037 5.05421 0
M  V30 47835 C 2772.32 -4.78366 5.89277 0
M  V30 47836 O 2772.11 -3.58302 5.08433 0
M  V30 47837 C 2770.92 -5.17448 6.36119 0
M  V30 47838 O 2770.53 -4.45271 7.53232 0
M  V30 47839 C 2770.04 -4.74639 5.19936 0
M  V30 47840 C 2770.75 -3.49432 4.70418 0
M  V30 47841 N 2770.7 -3.31776 3.22945 0
M  V30 47842 C 2770.78 -4.27147 2.23315 0
M  V30 47843 N 2770.7 -3.78447 1.02186 0
M  V30 47844 C 2770.56 -2.41001 1.21732 0
M  V30 47845 C 2770.43 -1.36111 0.27694 0
M  V30 47846 O 2770.41 -1.42065 -0.951767 0
M  V30 47847 N 2770.31 -0.113683 0.912949 0
M  V30 47848 C 2770.31 0.0846396 2.27943 0
M  V30 47849 N 2770.18 1.34737 2.6916 0
M  V30 47850 N 2770.44 -0.902521 3.16379 0
M  V30 47851 C 2770.56 -2.11937 2.56849 0
M  V30 47852 H 2773.54 -6.54213 5.71376 0
M  V30 47853 H 2773.81 -5.30492 4.44033 0
M  V30 47854 H 2772.95 -4.55889 6.76652 0
M  V30 47855 H 2770.29 -2.6176 5.18021 0
M  V30 47856 H 2770.01 -5.52233 4.41941 0
M  V30 47857 H 2769.02 -4.52045 5.53452 0
M  V30 47858 H 2770.85 -6.25193 6.55307 0
M  V30 47859 H 2770.9 -5.3351 2.43857 0
M  V30 47860 H 2770.22 0.69331 0.330371 0
M  V30 47861 H 2770.18 1.56433 3.6988 0
M  V30 47862 H 2770.08 2.10701 2.00133 0
M  V30 47863 P 2768.98 -4.23843 7.83734 0
M  V30 47864 O 2768.76 -4.19407 9.29784 0
M  V30 47865 O 2768.19 -5.24426 7.09156 0
M  V30 47866 O 2768.73 -2.7935 7.20758 0
M  V30 47867 C 2769.67 -1.7299 7.50419 0
M  V30 47868 C 2768.94 -0.406376 7.57911 0
M  V30 47869 O 2768.73 0.0897726 6.21935 0
M  V30 47870 C 2767.54 -0.447224 8.1878 0
M  V30 47871 O 2767.15 0.825065 8.71101 0
M  V30 47872 C 2766.66 -0.783801 6.99623 0
M  V30 47873 C 2767.37 -0.0619192 5.85967 0
M  V30 47874 N 2767.32 -0.7859 4.56281 0
M  V30 47875 H 2770.16 -1.93423 8.4679 0
M  V30 47876 H 2770.43 -1.68181 6.71046 0
M  V30 47877 H 2769.57 0.289041 8.15388 0
M  V30 47878 P 2765.6 1.17771 8.83182 0
M  V30 47879 O 2765.38 2.07206 9.98732 0
M  V30 47880 O 2764.81 -0.0743816 8.81969 0
M  V30 47881 O 2765.35 1.97652 7.47304 0
M  V30 47882 C 2766.29 3.01133 7.08783 0
M  V30 47883 C 2765.56 4.12613 6.37049 0
M  V30 47884 O 2765.35 3.72827 4.97879 0
M  V30 47885 C 2764.16 4.45085 6.88694 0
M  V30 47886 O 2763.77 5.7877 6.5624 0
M  V30 47887 C 2763.28 3.47817 6.12078 0
M  V30 47888 C 2763.99 3.39414 4.77697 0
M  V30 47889 N 2763.94 2.04199 4.15538 0
M  V30 47890 H 2766.78 3.41248 7.98759 0
M  V30 47891 H 2767.05 2.57728 6.42 0
M  V30 47892 H 2766.19 5.02657 6.42673 0
M  V30 47893 H 2763.53 4.11708 4.08956 0
M  V30 47894 H 2763.25 2.49626 6.61679 0
M  V30 47895 H 2762.26 3.8662 6.00862 0
M  V30 47896 H 2764.09 4.29991 7.97006 0
M  V30 47897 P 2762.22 6.144 6.45285 0
M  V30 47898 O 2762 7.54673 6.86199 0
M  V30 47899 O 2761.43 5.12391 7.179 0
M  V30 47900 O 2761.97 5.99158 4.88404 0
M  V30 47901 C 2762.91 6.60234 3.96415 0
M  V30 47902 C 2762.18 7.08259 2.72856 0
M  V30 47903 O 2761.97 5.9427 1.83651 0
M  V30 47904 C 2760.78 7.64886 2.9555 0
M  V30 47905 O 2760.39 8.53963 1.90717 0
M  V30 47906 C 2759.9 6.4116 2.90739 0
M  V30 47907 C 2760.61 5.55375 1.86963 0
M  V30 47908 N 2760.56 4.09664 2.15742 0
M  V30 47909 H 2763.4 7.45574 4.45629 0
M  V30 47910 H 2763.67 5.86232 3.67314 0
M  V30 47911 H 2762.81 7.84412 2.24479 0
M  V30 47912 P 2758.84 8.7635 1.60911 0
M  V30 47913 O 2758.62 10.1388 1.11561 0
M  V30 47914 O 2758.05 8.36503 2.79617 0
M  V30 47915 O 2758.59 7.71806 0.42951 0
M  V30 47916 C 2759.53 7.67148 -0.673689 0
M  V30 47917 C 2758.8 7.33374 -1.95559 0
M  V30 47918 O 2758.59 5.88721 -2.00726 0
M  V30 47919 C 2757.4 7.92526 -2.10483 0
M  V30 47920 O 2757.01 8.02971 -3.47653 0
M  V30 47921 C 2756.52 6.89602 -1.41652 0
M  V30 47922 C 2757.23 5.59201 -1.75185 0
M  V30 47923 N 2757.18 4.58235 -0.662552 0
M  V30 47924 H 2760.02 8.65116 -0.777161 0
M  V30 47925 H 2760.29 6.90173 -0.474152 0
M  V30 47926 H 2759.43 7.66548 -2.79458 0
M  V30 47927 P 2755.46 8.03563 -3.84925 0
M  V30 47928 O 2755.24 8.85821 -5.0569 0
M  V30 47929 O 2754.67 8.41101 -2.65469 0
M  V30 47930 O 2755.21 6.4965 -4.18908 0
M  V30 47931 C 2756.15 5.81037 -5.05421 0
M  V30 47932 C 2755.42 4.78366 -5.89277 0
M  V30 47933 O 2755.21 3.58302 -5.08433 0
M  V30 47934 C 2754.02 5.17448 -6.36119 0
M  V30 47935 O 2753.63 4.45271 -7.53232 0
M  V30 47936 C 2753.14 4.74639 -5.19936 0
M  V30 47937 C 2753.85 3.49432 -4.70418 0
M  V30 47938 N 2753.8 3.31776 -3.22945 0
M  V30 47939 H 2756.64 6.54213 -5.71376 0
M  V30 47940 H 2756.91 5.30492 -4.44033 0
M  V30 47941 H 2756.05 4.55889 -6.76652 0
M  V30 47942 P 2752.08 4.23843 -7.83734 0
M  V30 47943 O 2751.86 4.19407 -9.29784 0
M  V30 47944 O 2751.29 5.24426 -7.09156 0
M  V30 47945 O 2751.83 2.7935 -7.20758 0
M  V30 47946 C 2752.77 1.7299 -7.50419 0
M  V30 47947 C 2752.04 0.406376 -7.57911 0
M  V30 47948 O 2751.83 -0.0897726 -6.21935 0
M  V30 47949 C 2750.64 0.447224 -8.1878 0
M  V30 47950 O 2750.25 -0.825065 -8.71101 0
M  V30 47951 C 2749.76 0.783801 -6.99623 0
M  V30 47952 C 2750.47 0.0619192 -5.85967 0
M  V30 47953 N 2750.42 0.7859 -4.56281 0
M  V30 47954 H 2753.26 1.93423 -8.4679 0
M  V30 47955 H 2753.53 1.68181 -6.71046 0
M  V30 47956 H 2752.67 -0.289041 -8.15388 0
M  V30 47957 P 2748.7 -1.17771 -8.83182 0
M  V30 47958 O 2748.48 -2.07206 -9.98732 0
M  V30 47959 O 2747.91 0.0743816 -8.81969 0
M  V30 47960 O 2748.45 -1.97652 -7.47304 0
M  V30 47961 C 2749.39 -3.01133 -7.08783 0
M  V30 47962 C 2748.66 -4.12613 -6.37049 0
M  V30 47963 O 2748.45 -3.72827 -4.97879 0
M  V30 47964 C 2747.26 -4.45085 -6.88694 0
M  V30 47965 O 2746.87 -5.7877 -6.5624 0
M  V30 47966 C 2746.38 -3.47817 -6.12078 0
M  V30 47967 C 2747.09 -3.39414 -4.77697 0
M  V30 47968 N 2747.04 -2.04615 -4.15333 0
M  V30 47969 H 2749.88 -3.41248 -7.98759 0
M  V30 47970 H 2750.15 -2.5837 -6.41742 0
M  V30 47971 H 2749.29 -5.02657 -6.42673 0
M  V30 47972 P 2745.32 -6.144 -6.45285 0
M  V30 47973 O 2745.1 -7.54673 -6.86199 0
M  V30 47974 O 2744.53 -5.12391 -7.179 0
M  V30 47975 O 2745.07 -5.99158 -4.88404 0
M  V30 47976 C 2746.01 -6.60234 -3.96415 0
M  V30 47977 C 2745.28 -7.08259 -2.72856 0
M  V30 47978 O 2745.07 -5.9427 -1.83651 0
M  V30 47979 C 2743.88 -7.64886 -2.9555 0
M  V30 47980 O 2743.49 -8.53963 -1.90717 0
M  V30 47981 C 2743 -6.4116 -2.90739 0
M  V30 47982 C 2743.71 -5.55375 -1.86963 0
M  V30 47983 N 2743.66 -4.09664 -2.15742 0
M  V30 47984 H 2746.5 -7.45574 -4.45629 0
M  V30 47985 H 2746.77 -5.86232 -3.67314 0
M  V30 47986 H 2745.91 -7.84412 -2.24479 0
M  V30 47987 P 2741.94 -8.7635 -1.60911 0
M  V30 47988 O 2741.72 -10.1388 -1.11561 0
M  V30 47989 O 2741.15 -8.36503 -2.79617 0
M  V30 47990 O 2741.69 -7.71806 -0.42951 0
M  V30 47991 C 2742.63 -7.67148 0.673689 0
M  V30 47992 C 2741.9 -7.33374 1.95559 0
M  V30 47993 O 2741.69 -5.88721 2.00726 0
M  V30 47994 C 2740.5 -7.92526 2.10483 0
M  V30 47995 O 2740.11 -8.02971 3.47653 0
M  V30 47996 C 2739.62 -6.89602 1.41652 0
M  V30 47997 C 2740.33 -5.59201 1.75185 0
M  V30 47998 N 2740.28 -4.58235 0.662552 0
M  V30 47999 H 2743.12 -8.65116 0.777161 0
M  V30 48000 H 2743.39 -6.90173 0.474152 0
M  V30 48001 H 2742.53 -7.66548 2.79458 0
M  V30 48002 P 2738.56 -8.03563 3.84925 0
M  V30 48003 O 2738.34 -8.85821 5.0569 0
M  V30 48004 O 2737.77 -8.41101 2.65469 0
M  V30 48005 O 2738.31 -6.4965 4.18908 0
M  V30 48006 C 2739.25 -5.81037 5.05421 0
M  V30 48007 C 2738.52 -4.78366 5.89277 0
M  V30 48008 O 2738.31 -3.58302 5.08433 0
M  V30 48009 C 2737.12 -5.17448 6.36119 0
M  V30 48010 O 2736.73 -4.45271 7.53232 0
M  V30 48011 C 2736.24 -4.74639 5.19936 0
M  V30 48012 C 2736.95 -3.49432 4.70418 0
M  V30 48013 N 2736.9 -3.32099 3.22613 0
M  V30 48014 H 2739.74 -6.54213 5.71376 0
M  V30 48015 H 2740.01 -5.30936 4.43503 0
M  V30 48016 H 2739.15 -4.55889 6.76652 0
M  V30 48017 H 2736.49 -2.61715 5.17932 0
M  V30 48018 H 2736.21 -5.52155 4.41878 0
M  V30 48019 H 2735.22 -4.51981 5.53374 0
M  V30 48020 H 2737.05 -6.25124 6.55234 0
M  V30 48021 P 2735.18 -4.23843 7.83734 0
M  V30 48022 O 2734.96 -4.19407 9.29784 0
M  V30 48023 O 2734.39 -5.24426 7.09156 0
M  V30 48024 O 2734.93 -2.7935 7.20758 0
M  V30 48025 C 2735.87 -1.7299 7.50419 0
M  V30 48026 C 2735.14 -0.406376 7.57911 0
M  V30 48027 O 2734.93 0.0897726 6.21935 0
M  V30 48028 C 2733.74 -0.447224 8.1878 0
M  V30 48029 O 2733.35 0.825065 8.71101 0
M  V30 48030 C 2732.86 -0.783801 6.99623 0
M  V30 48031 C 2733.57 -0.0619192 5.85967 0
M  V30 48032 N 2733.52 -0.790462 4.56202 0
M  V30 48033 H 2736.36 -1.93423 8.4679 0
M  V30 48034 H 2736.63 -1.68852 6.70877 0
M  V30 48035 H 2735.77 0.289041 8.15388 0
M  V30 48036 H 2733.11 0.927006 5.72848 0
M  V30 48037 H 2732.83 -1.86973 6.82036 0
M  V30 48038 H 2731.84 -0.403953 7.13357 0
M  V30 48039 H 2733.67 -1.20599 8.97534 0
M  V30 48040 P 2731.8 1.17771 8.83182 0
M  V30 48041 O 2731.58 2.07206 9.98732 0
M  V30 48042 O 2731.01 -0.0743816 8.81969 0
M  V30 48043 O 2731.55 1.97652 7.47304 0
M  V30 48044 C 2732.49 3.01133 7.08783 0
M  V30 48045 C 2731.76 4.12613 6.37049 0
M  V30 48046 O 2731.55 3.72827 4.97879 0
M  V30 48047 C 2730.36 4.45085 6.88694 0
M  V30 48048 O 2729.97 5.7877 6.5624 0
M  V30 48049 C 2729.48 3.47817 6.12078 0
M  V30 48050 C 2730.19 3.39414 4.77697 0
M  V30 48051 N 2730.14 2.04199 4.15538 0
M  V30 48052 C 2730.22 0.821545 4.76977 0
M  V30 48053 N 2730.15 -0.1794 3.94592 0
M  V30 48054 C 2730 0.419121 2.70776 0
M  V30 48055 C 2729.87 -0.109072 1.40577 0
M  V30 48056 N 2729.86 -1.4104 1.1344 0
M  V30 48057 N 2729.75 0.764381 0.39411 0
M  V30 48058 C 2729.76 2.06587 0.664135 0
M  V30 48059 N 2729.88 2.67948 1.82153 0
M  V30 48060 C 2730 1.77942 2.8147 0
M  V30 48061 H 2732.98 3.41248 7.98759 0
M  V30 48062 H 2733.25 2.57728 6.42 0
M  V30 48063 H 2732.39 5.02657 6.42673 0
M  V30 48064 H 2729.73 4.11708 4.08956 0
M  V30 48065 H 2729.45 2.49626 6.61679 0
M  V30 48066 H 2728.46 3.8662 6.00862 0
M  V30 48067 H 2730.29 4.29991 7.97006 0
M  V30 48068 H 2730.34 0.702451 5.84696 0
M  V30 48069 H 2729.95 -2.09647 1.89651 0
M  V30 48070 H 2729.77 -1.73358 0.160575 0
M  V30 48071 H 2729.66 2.71695 -0.195838 0
M  V30 48072 P 2728.42 6.144 6.45285 0
M  V30 48073 O 2728.2 7.54673 6.86199 0
M  V30 48074 O 2727.63 5.12391 7.179 0
M  V30 48075 O 2728.17 5.99158 4.88404 0
M  V30 48076 C 2729.11 6.60062 3.96313 0
M  V30 48077 C 2728.38 7.08259 2.72856 0
M  V30 48078 O 2728.17 5.9427 1.83651 0
M  V30 48079 C 2726.98 7.65087 2.94749 0
M  V30 48080 O 2726.59 8.53963 1.90717 0
M  V30 48081 C 2726.1 6.41069 2.90698 0
M  V30 48082 C 2726.81 5.5528 1.86931 0
M  V30 48083 N 2726.76 4.09575 2.15696 0
M  V30 48084 C 2726.61 3.24249 1.08435 0
M  V30 48085 O 2726.52 3.63946 -0.0628747 0
M  V30 48086 N 2726.57 1.90009 1.39973 0
M  V30 48087 C 2726.66 1.34884 2.65614 0
M  V30 48088 O 2726.61 0.123716 2.81728 0
M  V30 48089 C 2726.81 2.3145 3.71736 0
M  V30 48090 C 2726.92 1.75913 5.10438 0
M  V30 48091 C 2726.86 3.63518 3.44754 0
M  V30 48092 H 2729.6 7.45402 4.45526 0
M  V30 48093 H 2729.87 5.86062 3.67208 0
M  V30 48094 H 2729.01 7.84412 2.24479 0
M  V30 48095 H 2726.35 5.73358 0.888409 0
M  V30 48096 H 2726.07 5.90877 3.88583 0
M  V30 48097 H 2725.08 6.65867 2.58821 0
M  V30 48098 H 2726.91 8.16248 3.92006 0
M  V30 48099 H 2726.99 4.34551 4.26383 0
M  V30 48100 H 2725.96 1.85471 5.61775 0
M  V30 48101 H 2727.69 2.31364 5.66257 0
M  V30 48102 H 2727.2 0.695936 5.05229 0
M  V30 48103 H 2726.47 1.26277 0.63625 0
M  V30 48104 P 2725.04 8.7635 1.60911 0
M  V30 48105 O 2724.82 10.1388 1.11561 0
M  V30 48106 O 2724.25 8.36503 2.79617 0
M  V30 48107 O 2724.79 7.71906 0.429565 0
M  V30 48108 C 2725.73 7.67148 -0.673689 0
M  V30 48109 C 2725 7.33666 -1.94851 0
M  V30 48110 O 2724.79 5.88816 -2.00759 0
M  V30 48111 C 2723.6 7.92526 -2.10483 0
M  V30 48112 O 2723.21 8.03063 -3.47693 0
M  V30 48113 C 2722.72 6.89602 -1.41652 0
M  V30 48114 C 2723.43 5.59201 -1.75185 0
M  V30 48115 N 2723.38 4.58235 -0.662552 0
M  V30 48116 C 2723.23 3.24451 -1.01643 0
M  V30 48117 O 2723.14 2.94958 -2.21722 0
M  V30 48118 N 2723.18 2.30408 0.165238 0
M  V30 48119 C 2723.28 2.66048 1.25118 0
M  V30 48120 N 2723.23 1.70787 2.16813 0
M  V30 48121 C 2723.43 4.02732 1.64413 0
M  V30 48122 C 2723.48 4.9488 0.63991 0
M  V30 48123 H 2726.22 8.65017 -0.777072 0
M  V30 48124 H 2726.49 6.90173 -0.474152 0
M  V30 48125 H 2725.63 7.66642 -2.79492 0
M  V30 48126 H 2722.97 5.16254 -2.65229 0
M  V30 48127 H 2722.69 7.06532 -0.329431 0
M  V30 48128 H 2721.7 6.91023 -1.82047 0
M  V30 48129 H 2723.53 8.90873 -1.62657 0
M  V30 48130 H 2723.61 6.00104 0.892197 0
M  V30 48131 H 2723.5 4.31733 2.69229 0
M  V30 48132 H 2723.12 0.724835 1.8844 0
M  V30 48133 H 2723.31 1.94716 3.16734 0
M  V30 48134 P 2721.66 8.03563 -3.84925 0
M  V30 48135 O 2721.44 8.85821 -5.0569 0
M  V30 48136 O 2720.87 8.41101 -2.65469 0
M  V30 48137 O 2721.41 6.4965 -4.18908 0
M  V30 48138 C 2722.35 5.81037 -5.05421 0
M  V30 48139 C 2721.62 4.78366 -5.89277 0
M  V30 48140 O 2721.41 3.58302 -5.08433 0
M  V30 48141 C 2720.22 5.17448 -6.36119 0
M  V30 48142 O 2719.83 4.45271 -7.53232 0
M  V30 48143 C 2719.34 4.74639 -5.19936 0
M  V30 48144 C 2720.05 3.49432 -4.70418 0
M  V30 48145 N 2720 3.31776 -3.22945 0
M  V30 48146 H 2722.84 6.54213 -5.71376 0
M  V30 48147 H 2723.11 5.30492 -4.44033 0
M  V30 48148 H 2722.25 4.55889 -6.76652 0
M  V30 48149 P 2718.28 4.23843 -7.83734 0
M  V30 48150 O 2718.06 4.19407 -9.29784 0
M  V30 48151 O 2717.49 5.24426 -7.09156 0
M  V30 48152 O 2718.03 2.7935 -7.20758 0
M  V30 48153 C 2718.97 1.7299 -7.50419 0
M  V30 48154 C 2718.24 0.406376 -7.57911 0
M  V30 48155 O 2718.03 -0.0897726 -6.21935 0
M  V30 48156 C 2716.84 0.447224 -8.1878 0
M  V30 48157 O 2716.45 -0.825065 -8.71101 0
M  V30 48158 C 2715.96 0.783801 -6.99623 0
M  V30 48159 C 2716.67 0.0619192 -5.85967 0
M  V30 48160 N 2716.62 0.7859 -4.56281 0
M  V30 48161 H 2719.46 1.93423 -8.4679 0
M  V30 48162 H 2719.73 1.68181 -6.71046 0
M  V30 48163 H 2718.87 -0.289041 -8.15388 0
M  V30 48164 P 2714.9 -1.17771 -8.83182 0
M  V30 48165 O 2714.68 -2.07206 -9.98732 0
M  V30 48166 O 2714.11 0.0743816 -8.81969 0
M  V30 48167 O 2714.65 -1.97652 -7.47304 0
M  V30 48168 C 2715.59 -3.01133 -7.08783 0
M  V30 48169 C 2714.86 -4.12613 -6.37049 0
M  V30 48170 O 2714.65 -3.72827 -4.97879 0
M  V30 48171 C 2713.46 -4.45085 -6.88694 0
M  V30 48172 O 2713.07 -5.7877 -6.5624 0
M  V30 48173 C 2712.58 -3.47817 -6.12078 0
M  V30 48174 C 2713.29 -3.39414 -4.77697 0
M  V30 48175 N 2713.24 -2.04199 -4.15538 0
M  V30 48176 C 2713.32 -0.821545 -4.76977 0
M  V30 48177 N 2713.25 0.1794 -3.94592 0
M  V30 48178 C 2713.1 -0.419121 -2.70776 0
M  V30 48179 C 2712.97 0.109072 -1.40577 0
M  V30 48180 N 2712.96 1.4104 -1.1344 0
M  V30 48181 N 2712.85 -0.764381 -0.39411 0
M  V30 48182 C 2712.86 -2.06587 -0.664135 0
M  V30 48183 N 2712.98 -2.67948 -1.82153 0
M  V30 48184 C 2713.1 -1.77942 -2.8147 0
M  V30 48185 H 2716.08 -3.41248 -7.98759 0
M  V30 48186 H 2716.35 -2.57728 -6.42 0
M  V30 48187 H 2715.49 -5.02657 -6.42673 0
M  V30 48188 H 2712.83 -4.11708 -4.08956 0
M  V30 48189 H 2712.55 -2.49626 -6.61679 0
M  V30 48190 H 2711.56 -3.8662 -6.00862 0
M  V30 48191 H 2713.39 -4.29991 -7.97006 0
M  V30 48192 H 2713.44 -0.702451 -5.84696 0
M  V30 48193 H 2713.05 2.09647 -1.89651 0
M  V30 48194 H 2712.87 1.73358 -0.160575 0
M  V30 48195 H 2712.76 -2.71695 0.195838 0
M  V30 48196 P 2711.52 -6.144 -6.45285 0
M  V30 48197 O 2711.3 -7.54673 -6.86199 0
M  V30 48198 O 2710.73 -5.12391 -7.179 0
M  V30 48199 O 2711.27 -5.99158 -4.88404 0
M  V30 48200 C 2712.21 -6.60234 -3.96415 0
M  V30 48201 C 2711.48 -7.08259 -2.72856 0
M  V30 48202 O 2711.27 -5.9427 -1.83651 0
M  V30 48203 C 2710.08 -7.64886 -2.9555 0
M  V30 48204 O 2709.69 -8.53963 -1.90717 0
M  V30 48205 C 2709.2 -6.4116 -2.90739 0
M  V30 48206 C 2709.91 -5.55375 -1.86963 0
M  V30 48207 N 2709.86 -4.09448 -2.16152 0
M  V30 48208 H 2712.7 -7.45574 -4.45629 0
M  V30 48209 H 2712.97 -5.85864 -3.679 0
M  V30 48210 H 2712.11 -7.84412 -2.24479 0
M  V30 48211 H 2709.45 -5.73457 -0.888562 0
M  V30 48212 H 2709.17 -5.90877 -3.88583 0
M  V30 48213 H 2708.18 -6.6596 -2.58858 0
M  V30 48214 H 2710.01 -8.16339 -3.92049 0
M  V30 48215 P 2708.14 -8.7635 -1.60911 0
M  V30 48216 O 2707.92 -10.1388 -1.11561 0
M  V30 48217 O 2707.35 -8.36503 -2.79617 0
M  V30 48218 O 2707.89 -7.71806 -0.42951 0
M  V30 48219 C 2708.83 -7.67148 0.673689 0
M  V30 48220 C 2708.1 -7.33374 1.95559 0
M  V30 48221 O 2707.89 -5.88721 2.00726 0
M  V30 48222 C 2706.7 -7.92526 2.10483 0
M  V30 48223 O 2706.31 -8.02971 3.47653 0
M  V30 48224 C 2705.82 -6.89602 1.41652 0
M  V30 48225 C 2706.53 -5.59201 1.75185 0
M  V30 48226 N 2706.48 -4.58301 0.657969 0
M  V30 48227 C 2706.56 -4.79019 -0.692603 0
M  V30 48228 N 2706.49 -3.69736 -1.38998 0
M  V30 48229 C 2706.34 -2.70474 -0.438135 0
M  V30 48230 C 2706.21 -1.30327 -0.538142 0
M  V30 48231 N 2706.2 -0.64304 -1.69192 0
M  V30 48232 N 2706.09 -0.611027 0.605183 0
M  V30 48233 C 2706.1 -1.27002 1.75953 0
M  V30 48234 N 2706.22 -2.56038 1.98546 0
M  V30 48235 C 2706.34 -3.22681 0.822541 0
M  V30 48236 H 2709.32 -8.65116 0.777161 0
M  V30 48237 H 2709.6 -6.9022 0.46725 0
M  V30 48238 H 2708.73 -7.66548 2.79458 0
M  V30 48239 H 2706.07 -5.16165 2.65183 0
M  V30 48240 H 2705.79 -7.06433 0.329384 0
M  V30 48241 H 2704.8 -6.90926 1.82021 0
M  V30 48242 H 2706.64 -8.90873 1.62657 0
M  V30 48243 H 2706.68 -5.77785 -1.13874 0
M  V30 48244 H 2706.3 -1.15585 -2.57991 0
M  V30 48245 H 2706.11 0.382989 -1.69835 0
M  V30 48246 H 2706 -0.653331 2.64449 0
M  V30 48247 P 2704.76 -8.03563 3.84925 0
M  V30 48248 O 2704.54 -8.85821 5.0569 0
M  V30 48249 O 2703.97 -8.41101 2.65469 0
M  V30 48250 O 2704.51 -6.49734 4.18962 0
M  V30 48251 C 2705.45 -5.81037 5.05421 0
M  V30 48252 C 2704.72 -4.79018 5.88876 0
M  V30 48253 O 2704.51 -3.58359 5.08515 0
M  V30 48254 C 2703.32 -5.17448 6.36119 0
M  V30 48255 O 2702.93 -4.45322 7.53318 0
M  V30 48256 C 2702.44 -4.74639 5.19936 0
M  V30 48257 C 2703.15 -3.49432 4.70418 0
M  V30 48258 N 2703.1 -3.31776 3.22945 0
M  V30 48259 C 2702.95 -2.02742 2.72939 0
M  V30 48260 O 2702.86 -1.08301 3.52749 0
M  V30 48261 N 2702.9 -1.96117 1.22063 0
M  V30 48262 C 2703 -2.8878 0.551566 0
M  V30 48263 N 2702.95 -2.65609 -0.750198 0
M  V30 48264 C 2703.15 -4.22457 1.03707 0
M  V30 48265 C 2703.2 -4.37979 2.39113 0
M  V30 48266 H 2705.94 -6.54138 5.7131 0
M  V30 48267 H 2706.21 -5.30492 4.44033 0
M  V30 48268 H 2705.35 -4.55945 6.76735 0
M  V30 48269 H 2702.69 -2.6176 5.18021 0
M  V30 48270 H 2702.41 -5.52233 4.41941 0
M  V30 48271 H 2701.42 -4.52045 5.53452 0
M  V30 48272 H 2703.26 -6.25124 6.55234 0
M  V30 48273 H 2703.33 -5.37936 2.80552 0
M  V30 48274 H 2703.23 -5.07528 0.359553 0
M  V30 48275 H 2702.84 -1.69403 -1.09847 0
M  V30 48276 H 2703.03 -3.43701 -1.41792 0
M  V30 48277 P 2701.38 -4.23843 7.83734 0
M  V30 48278 O 2701.16 -4.19407 9.29784 0
M  V30 48279 O 2700.59 -5.24426 7.09156 0
M  V30 48280 O 2701.13 -2.7935 7.20758 0
M  V30 48281 C 2702.07 -1.72945 7.50224 0
M  V30 48282 C 2701.34 -0.406376 7.57911 0
M  V30 48283 O 2701.13 0.0897726 6.21935 0
M  V30 48284 C 2699.94 -0.438983 8.18724 0
M  V30 48285 O 2699.55 0.825065 8.71101 0
M  V30 48286 C 2699.06 -0.783689 6.99524 0
M  V30 48287 C 2699.77 -0.0619086 5.85867 0
M  V30 48288 N 2699.72 -0.78573 4.56183 0
M  V30 48289 C 2699.57 -0.0292889 3.41887 0
M  V30 48290 O 2699.48 1.18445 3.4419 0
M  V30 48291 N 2699.53 -0.744061 2.23964 0
M  V30 48292 C 2699.62 -2.10932 2.10362 0
M  V30 48293 O 2699.57 -2.64117 0.98825 0
M  V30 48294 C 2699.77 -2.8202 3.34994 0
M  V30 48295 C 2699.88 -4.31095 3.25037 0
M  V30 48296 C 2699.82 -2.15547 4.52261 0
M  V30 48297 H 2702.57 -1.93379 8.46595 0
M  V30 48298 H 2702.83 -1.68132 6.70852 0
M  V30 48299 H 2701.97 0.289041 8.15388 0
M  V30 48300 H 2699.31 0.926847 5.72749 0
M  V30 48301 H 2699.03 -1.86973 6.82036 0
M  V30 48302 H 2698.04 -0.403896 7.13257 0
M  V30 48303 H 2699.88 -1.20585 8.97435 0
M  V30 48304 H 2699.95 -2.71231 5.45042 0
M  V30 48305 H 2698.92 -4.76966 3.49992 0
M  V30 48306 H 2700.65 -4.67047 3.95024 0
M  V30 48307 H 2700.17 -4.58996 2.22312 0
M  V30 48308 H 2699.43 -0.214893 1.39758 0
M  V30 48309 P 2698 1.17771 8.83182 0
M  V30 48310 O 2697.78 2.07206 9.98732 0
M  V30 48311 O 2697.21 -0.0743816 8.81969 0
M  V30 48312 O 2697.75 1.97652 7.47304 0
M  V30 48313 C 2698.69 3.01133 7.08783 0
M  V30 48314 C 2697.96 4.12613 6.37049 0
M  V30 48315 O 2697.75 3.72827 4.97879 0
M  V30 48316 C 2696.56 4.45085 6.88694 0
M  V30 48317 O 2696.17 5.7877 6.5624 0
M  V30 48318 C 2695.68 3.47817 6.12078 0
M  V30 48319 C 2696.39 3.39414 4.77697 0
M  V30 48320 N 2696.34 2.04615 4.15333 0
M  V30 48321 C 2696.42 0.803897 4.75249 0
M  V30 48322 N 2696.34 -0.197615 3.91502 0
M  V30 48323 C 2696.2 0.413002 2.66823 0
M  V30 48324 C 2696.07 -0.157221 1.38007 0
M  V30 48325 O 2696.05 -1.34419 1.057 0
M  V30 48326 N 2695.95 0.833136 0.390236 0
M  V30 48327 C 2695.95 2.19402 0.623885 0
M  V30 48328 N 2695.82 2.97622 -0.449677 0
M  V30 48329 N 2696.08 2.73005 1.83601 0
M  V30 48330 C 2696.2 1.78786 2.80935 0
M  V30 48331 H 2699.18 3.41248 7.98759 0
M  V30 48332 H 2699.46 2.5837 6.41742 0
M  V30 48333 H 2698.59 5.02657 6.42673 0
M  V30 48334 H 2695.93 4.11779 4.09026 0
M  V30 48335 H 2695.65 2.49661 6.61772 0
M  V30 48336 H 2694.66 3.86674 6.00946 0
M  V30 48337 H 2696.5 4.30038 7.97094 0
M  V30 48338 H 2696.54 0.670579 5.82754 0
M  V30 48339 H 2695.86 0.528446 -0.557287 0
M  V30 48340 H 2695.83 4.00117 -0.344773 0
M  V30 48341 H 2695.72 2.55448 -1.38544 0
M  V30 48342 P 2694.62 6.144 6.45285 0
M  V30 48343 O 2694.4 7.54673 6.86199 0
M  V30 48344 O 2693.83 5.12391 7.179 0
M  V30 48345 O 2694.37 5.99158 4.88404 0
M  V30 48346 C 2695.31 6.60234 3.96415 0
M  V30 48347 C 2694.58 7.08259 2.72856 0
M  V30 48348 O 2694.37 5.9427 1.83651 0
M  V30 48349 C 2693.18 7.64886 2.9555 0
M  V30 48350 O 2692.79 8.53963 1.90717 0
M  V30 48351 C 2692.3 6.4116 2.90739 0
M  V30 48352 C 2693.01 5.55375 1.86963 0
M  V30 48353 N 2692.96 4.09664 2.15742 0
M  V30 48354 H 2695.8 7.45574 4.45629 0
M  V30 48355 H 2696.08 5.86232 3.67314 0
M  V30 48356 H 2695.21 7.84412 2.24479 0
M  V30 48357 P 2691.24 8.7635 1.60911 0
M  V30 48358 O 2691.02 10.1388 1.11561 0
M  V30 48359 O 2690.45 8.36503 2.79617 0
M  V30 48360 O 2690.99 7.71806 0.42951 0
M  V30 48361 C 2691.93 7.67148 -0.673689 0
M  V30 48362 C 2691.2 7.33374 -1.95559 0
M  V30 48363 O 2690.99 5.88721 -2.00726 0
M  V30 48364 C 2689.8 7.92526 -2.10483 0
M  V30 48365 O 2689.41 8.02971 -3.47653 0
M  V30 48366 C 2688.92 6.89602 -1.41652 0
M  V30 48367 C 2689.63 5.59201 -1.75185 0
M  V30 48368 N 2689.58 4.58235 -0.662552 0
M  V30 48369 H 2692.42 8.65116 -0.777161 0
M  V30 48370 H 2692.7 6.90173 -0.474152 0
M  V30 48371 H 2691.83 7.66548 -2.79458 0
M  V30 48372 P 2687.86 8.03563 -3.84925 0
M  V30 48373 O 2687.64 8.85821 -5.0569 0
M  V30 48374 O 2687.07 8.41101 -2.65469 0
M  V30 48375 O 2687.61 6.4965 -4.18908 0
M  V30 48376 C 2688.55 5.81037 -5.05421 0
M  V30 48377 C 2687.82 4.78366 -5.89277 0
M  V30 48378 O 2687.61 3.58302 -5.08433 0
M  V30 48379 C 2686.42 5.17448 -6.36119 0
M  V30 48380 O 2686.03 4.45271 -7.53232 0
M  V30 48381 C 2685.54 4.74639 -5.19936 0
M  V30 48382 C 2686.25 3.49432 -4.70418 0
M  V30 48383 N 2686.2 3.31776 -3.22945 0
M  V30 48384 H 2689.04 6.54213 -5.71376 0
M  V30 48385 H 2689.32 5.30492 -4.44033 0
M  V30 48386 H 2688.45 4.55889 -6.76652 0
M  V30 48387 P 2684.48 4.23843 -7.83734 0
M  V30 48388 O 2684.26 4.19407 -9.29784 0
M  V30 48389 O 2683.69 5.24426 -7.09156 0
M  V30 48390 O 2684.23 2.7935 -7.20758 0
M  V30 48391 C 2685.17 1.72945 -7.50224 0
M  V30 48392 C 2684.44 0.406376 -7.57911 0
M  V30 48393 O 2684.23 -0.0897726 -6.21935 0
M  V30 48394 C 2683.04 0.438983 -8.18724 0
M  V30 48395 O 2682.65 -0.825065 -8.71101 0
M  V30 48396 C 2682.16 0.783689 -6.99524 0
M  V30 48397 C 2682.87 0.0619086 -5.85867 0
M  V30 48398 N 2682.82 0.78573 -4.56183 0
M  V30 48399 C 2682.67 0.0292889 -3.41887 0
M  V30 48400 O 2682.58 -1.18445 -3.4419 0
M  V30 48401 N 2682.63 0.744061 -2.23964 0
M  V30 48402 C 2682.72 2.10932 -2.10362 0
M  V30 48403 O 2682.67 2.64117 -0.98825 0
M  V30 48404 C 2682.87 2.8202 -3.34994 0
M  V30 48405 C 2682.98 4.31095 -3.25037 0
M  V30 48406 C 2682.92 2.15547 -4.52261 0
M  V30 48407 H 2685.67 1.93379 -8.46595 0
M  V30 48408 H 2685.93 1.68132 -6.70852 0
M  V30 48409 H 2685.07 -0.289041 -8.15388 0
M  V30 48410 H 2682.41 -0.926847 -5.72749 0
M  V30 48411 H 2682.13 1.86973 -6.82036 0
M  V30 48412 H 2681.14 0.403896 -7.13257 0
M  V30 48413 H 2682.98 1.20585 -8.97435 0
M  V30 48414 H 2683.05 2.71231 -5.45042 0
M  V30 48415 H 2682.02 4.76966 -3.49992 0
M  V30 48416 H 2683.75 4.67047 -3.95024 0
M  V30 48417 H 2683.27 4.58996 -2.22312 0
M  V30 48418 H 2682.53 0.214893 -1.39758 0
M  V30 48419 P 2681.1 -1.17771 -8.83182 0
M  V30 48420 O 2680.88 -2.07206 -9.98732 0
M  V30 48421 O 2680.31 0.0743816 -8.81969 0
M  V30 48422 O 2680.85 -1.97652 -7.47304 0
M  V30 48423 C 2681.79 -3.01133 -7.08783 0
M  V30 48424 C 2681.06 -4.12613 -6.37049 0
M  V30 48425 O 2680.85 -3.72827 -4.97879 0
M  V30 48426 C 2679.66 -4.45085 -6.88694 0
M  V30 48427 O 2679.27 -5.7877 -6.5624 0
M  V30 48428 C 2678.78 -3.47817 -6.12078 0
M  V30 48429 C 2679.49 -3.39414 -4.77697 0
M  V30 48430 N 2679.44 -2.04615 -4.15333 0
M  V30 48431 H 2682.28 -3.41248 -7.98759 0
M  V30 48432 H 2682.56 -2.5837 -6.41742 0
M  V30 48433 H 2681.69 -5.02657 -6.42673 0
M  V30 48434 P 2677.72 -6.144 -6.45285 0
M  V30 48435 O 2677.5 -7.54673 -6.86199 0
M  V30 48436 O 2676.93 -5.12391 -7.179 0
M  V30 48437 O 2677.47 -5.99158 -4.88404 0
M  V30 48438 C 2678.41 -6.60234 -3.96415 0
M  V30 48439 C 2677.68 -7.08259 -2.72856 0
M  V30 48440 O 2677.47 -5.9427 -1.83651 0
M  V30 48441 C 2676.28 -7.64886 -2.9555 0
M  V30 48442 O 2675.89 -8.53963 -1.90717 0
M  V30 48443 C 2675.4 -6.4116 -2.90739 0
M  V30 48444 C 2676.11 -5.55375 -1.86963 0
M  V30 48445 N 2676.06 -4.09664 -2.15742 0
M  V30 48446 H 2678.9 -7.45574 -4.45629 0
M  V30 48447 H 2679.18 -5.86232 -3.67314 0
M  V30 48448 H 2678.31 -7.84412 -2.24479 0
M  V30 48449 P 2674.34 -8.7635 -1.60911 0
M  V30 48450 O 2674.12 -10.1388 -1.11561 0
M  V30 48451 O 2673.55 -8.36503 -2.79617 0
M  V30 48452 O 2674.09 -7.71806 -0.42951 0
M  V30 48453 C 2675.03 -7.67148 0.673689 0
M  V30 48454 C 2674.3 -7.33374 1.95559 0
M  V30 48455 O 2674.09 -5.88721 2.00726 0
M  V30 48456 C 2672.9 -7.92526 2.10483 0
M  V30 48457 O 2672.51 -8.02971 3.47653 0
M  V30 48458 C 2672.02 -6.89602 1.41652 0
M  V30 48459 C 2672.73 -5.59201 1.75185 0
M  V30 48460 N 2672.68 -4.58235 0.662552 0
M  V30 48461 H 2675.52 -8.65116 0.777161 0
M  V30 48462 H 2675.8 -6.90173 0.474152 0
M  V30 48463 H 2674.93 -7.66548 2.79458 0
M  V30 48464 P 2670.96 -8.03563 3.84925 0
M  V30 48465 O 2670.74 -8.85821 5.0569 0
M  V30 48466 O 2670.17 -8.41101 2.65469 0
M  V30 48467 O 2670.71 -6.4965 4.18908 0
M  V30 48468 C 2671.65 -5.81037 5.05421 0
M  V30 48469 C 2670.92 -4.78366 5.89277 0
M  V30 48470 O 2670.71 -3.58302 5.08433 0
M  V30 48471 C 2669.52 -5.17448 6.36119 0
M  V30 48472 O 2669.13 -4.45271 7.53232 0
M  V30 48473 C 2668.64 -4.74639 5.19936 0
M  V30 48474 C 2669.35 -3.49432 4.70418 0
M  V30 48475 N 2669.3 -3.31776 3.22945 0
M  V30 48476 H 2672.14 -6.54213 5.71376 0
M  V30 48477 H 2672.42 -5.30492 4.44033 0
M  V30 48478 H 2671.55 -4.55889 6.76652 0
M  V30 48479 P 2667.58 -4.23843 7.83734 0
M  V30 48480 O 2667.36 -4.19407 9.29784 0
M  V30 48481 O 2666.79 -5.24426 7.09156 0
M  V30 48482 O 2667.33 -2.79386 7.20852 0
M  V30 48483 C 2668.27 -1.7299 7.50419 0
M  V30 48484 C 2667.54 -0.41401 7.5797 0
M  V30 48485 O 2667.33 0.089787 6.22035 0
M  V30 48486 C 2666.14 -0.447224 8.1878 0
M  V30 48487 O 2665.75 0.825159 8.71201 0
M  V30 48488 C 2665.26 -0.783801 6.99623 0
M  V30 48489 C 2665.97 -0.0619192 5.85967 0
M  V30 48490 N 2665.92 -0.7859 4.56281 0
M  V30 48491 C 2665.77 -0.0359258 3.39981 0
M  V30 48492 O 2665.68 1.19723 3.49038 0
M  V30 48493 N 2665.72 -0.869151 2.14025 0
M  V30 48494 C 2665.82 -2.01207 2.14363 0
M  V30 48495 N 2665.77 -2.58978 0.954287 0
M  V30 48496 C 2665.97 -2.80817 3.32215 0
M  V30 48497 C 2666.02 -2.13785 4.50884 0
M  V30 48498 H 2668.76 -1.93401 8.46693 0
M  V30 48499 H 2669.03 -1.68181 6.71046 0
M  V30 48500 H 2668.17 0.289076 8.15488 0
M  V30 48501 H 2665.51 0.927166 5.72947 0
M  V30 48502 H 2665.23 -1.87 6.82132 0
M  V30 48503 H 2664.24 -0.404009 7.13457 0
M  V30 48504 H 2666.08 -1.20599 8.97534 0
M  V30 48505 H 2666.15 -2.70295 5.43162 0
M  V30 48506 H 2666.05 -3.89465 3.27406 0
M  V30 48507 H 2665.66 -2.01616 0.107046 0
M  V30 48508 H 2665.85 -3.61403 0.873101 0
M  V30 48509 P 2664.2 1.17771 8.83182 0
M  V30 48510 O 2663.98 2.07206 9.98732 0
M  V30 48511 O 2663.41 -0.0743816 8.81969 0
M  V30 48512 O 2663.95 1.97652 7.47304 0
M  V30 48513 C 2664.89 3.01133 7.08783 0
M  V30 48514 C 2664.16 4.12613 6.37049 0
M  V30 48515 O 2663.95 3.72827 4.97879 0
M  V30 48516 C 2662.76 4.45085 6.88694 0
M  V30 48517 O 2662.37 5.7877 6.5624 0
M  V30 48518 C 2661.88 3.47817 6.12078 0
M  V30 48519 C 2662.59 3.39414 4.77697 0
M  V30 48520 N 2662.54 2.04615 4.15333 0
M  V30 48521 H 2665.38 3.41248 7.98759 0
M  V30 48522 H 2665.66 2.5837 6.41742 0
M  V30 48523 H 2664.79 5.02657 6.42673 0
M  V30 48524 P 2660.82 6.144 6.45285 0
M  V30 48525 O 2660.6 7.54673 6.86199 0
M  V30 48526 O 2660.03 5.12391 7.179 0
M  V30 48527 O 2660.57 5.99158 4.88404 0
M  V30 48528 C 2661.51 6.60234 3.96415 0
M  V30 48529 C 2660.78 7.08259 2.72856 0
M  V30 48530 O 2660.57 5.9427 1.83651 0
M  V30 48531 C 2659.38 7.64886 2.9555 0
M  V30 48532 O 2658.99 8.53963 1.90717 0
M  V30 48533 C 2658.5 6.4116 2.90739 0
M  V30 48534 C 2659.21 5.55375 1.86963 0
M  V30 48535 N 2659.16 4.09448 2.16152 0
M  V30 48536 H 2662 7.45574 4.45629 0
M  V30 48537 H 2662.28 5.85864 3.679 0
M  V30 48538 H 2661.41 7.84412 2.24479 0
M  V30 48539 H 2658.75 5.73457 0.888562 0
M  V30 48540 H 2658.47 5.90877 3.88583 0
M  V30 48541 H 2657.48 6.6596 2.58858 0
M  V30 48542 H 2659.32 8.16339 3.92049 0
M  V30 48543 P 2657.44 8.7635 1.60911 0
M  V30 48544 O 2657.22 10.1388 1.11561 0
M  V30 48545 O 2656.65 8.36503 2.79617 0
M  V30 48546 O 2657.19 7.71806 0.42951 0
M  V30 48547 C 2658.13 7.67148 -0.673689 0
M  V30 48548 C 2657.4 7.33374 -1.95559 0
M  V30 48549 O 2657.19 5.88721 -2.00726 0
M  V30 48550 C 2656 7.92526 -2.10483 0
M  V30 48551 O 2655.61 8.02971 -3.47653 0
M  V30 48552 C 2655.12 6.89602 -1.41652 0
M  V30 48553 C 2655.83 5.59201 -1.75185 0
M  V30 48554 N 2655.78 4.58301 -0.657969 0
M  V30 48555 H 2658.62 8.65116 -0.777161 0
M  V30 48556 H 2658.9 6.9022 -0.46725 0
M  V30 48557 H 2658.03 7.66548 -2.79458 0
M  V30 48558 H 2655.37 5.16165 -2.65183 0
M  V30 48559 H 2655.09 7.06433 -0.329384 0
M  V30 48560 H 2654.1 6.90926 -1.82021 0
M  V30 48561 H 2655.94 8.90873 -1.62657 0
M  V30 48562 P 2654.06 8.03563 -3.84925 0
M  V30 48563 O 2653.84 8.85821 -5.0569 0
M  V30 48564 O 2653.27 8.41101 -2.65469 0
M  V30 48565 O 2653.81 6.4965 -4.18908 0
M  V30 48566 C 2654.75 5.81037 -5.05421 0
M  V30 48567 C 2654.02 4.78366 -5.89277 0
M  V30 48568 O 2653.81 3.58302 -5.08433 0
M  V30 48569 C 2652.62 5.17448 -6.36119 0
M  V30 48570 O 2652.23 4.45271 -7.53232 0
M  V30 48571 C 2651.74 4.74639 -5.19936 0
M  V30 48572 C 2652.45 3.49432 -4.70418 0
M  V30 48573 N 2652.4 3.32099 -3.22613 0
M  V30 48574 H 2655.24 6.54213 -5.71376 0
M  V30 48575 H 2655.52 5.30936 -4.43503 0
M  V30 48576 H 2654.65 4.55889 -6.76652 0
M  V30 48577 H 2651.99 2.61715 -5.17932 0
M  V30 48578 H 2651.71 5.52155 -4.41878 0
M  V30 48579 H 2650.72 4.51981 -5.53374 0
M  V30 48580 H 2652.56 6.25124 -6.55234 0
M  V30 48581 P 2650.68 4.23843 -7.83734 0
M  V30 48582 O 2650.46 4.19407 -9.29784 0
M  V30 48583 O 2649.89 5.24426 -7.09156 0
M  V30 48584 O 2650.43 2.7935 -7.20758 0
M  V30 48585 C 2651.37 1.7299 -7.50419 0
M  V30 48586 C 2650.64 0.406376 -7.57911 0
M  V30 48587 O 2650.43 -0.0897726 -6.21935 0
M  V30 48588 C 2649.24 0.447224 -8.1878 0
M  V30 48589 O 2648.85 -0.825065 -8.71101 0
M  V30 48590 C 2648.36 0.783801 -6.99623 0
M  V30 48591 C 2649.07 0.0619192 -5.85967 0
M  V30 48592 N 2649.02 0.7859 -4.56281 0
M  V30 48593 H 2651.86 1.93423 -8.4679 0
M  V30 48594 H 2652.14 1.68181 -6.71046 0
M  V30 48595 H 2651.27 -0.289041 -8.15388 0
M  V30 48596 P 2647.3 -1.17771 -8.83182 0
M  V30 48597 O 2647.08 -2.07206 -9.98732 0
M  V30 48598 O 2646.51 0.0743816 -8.81969 0
M  V30 48599 O 2647.05 -1.97652 -7.47304 0
M  V30 48600 C 2647.99 -3.01133 -7.08783 0
M  V30 48601 C 2647.26 -4.12613 -6.37049 0
M  V30 48602 O 2647.05 -3.72827 -4.97879 0
M  V30 48603 C 2645.86 -4.45085 -6.88694 0
M  V30 48604 O 2645.47 -5.7877 -6.5624 0
M  V30 48605 C 2644.98 -3.47817 -6.12078 0
M  V30 48606 C 2645.69 -3.39414 -4.77697 0
M  V30 48607 N 2645.64 -2.04615 -4.15333 0
M  V30 48608 H 2648.48 -3.41248 -7.98759 0
M  V30 48609 H 2648.76 -2.5837 -6.41742 0
M  V30 48610 H 2647.89 -5.02657 -6.42673 0
M  V30 48611 P 2643.92 -6.144 -6.45285 0
M  V30 48612 O 2643.7 -7.54673 -6.86199 0
M  V30 48613 O 2643.13 -5.12391 -7.179 0
M  V30 48614 O 2643.67 -5.99158 -4.88404 0
M  V30 48615 C 2644.61 -6.60234 -3.96415 0
M  V30 48616 C 2643.88 -7.08259 -2.72856 0
M  V30 48617 O 2643.67 -5.9427 -1.83651 0
M  V30 48618 C 2642.48 -7.64886 -2.9555 0
M  V30 48619 O 2642.09 -8.53963 -1.90717 0
M  V30 48620 C 2641.6 -6.4116 -2.90739 0
M  V30 48621 C 2642.31 -5.55375 -1.86963 0
M  V30 48622 N 2642.26 -4.09664 -2.15742 0
M  V30 48623 H 2645.1 -7.45574 -4.45629 0
M  V30 48624 H 2645.38 -5.86232 -3.67314 0
M  V30 48625 H 2644.51 -7.84412 -2.24479 0
M  V30 48626 P 2640.54 -8.7635 -1.60911 0
M  V30 48627 O 2640.32 -10.1388 -1.11561 0
M  V30 48628 O 2639.75 -8.36503 -2.79617 0
M  V30 48629 O 2640.29 -7.71806 -0.42951 0
M  V30 48630 C 2641.23 -7.66948 0.673514 0
M  V30 48631 C 2640.5 -7.33374 1.95559 0
M  V30 48632 O 2640.29 -5.88721 2.00726 0
M  V30 48633 C 2639.1 -7.92218 2.1125 0
M  V30 48634 O 2638.71 -8.02971 3.47653 0
M  V30 48635 C 2638.22 -6.89504 1.41631 0
M  V30 48636 C 2638.93 -5.59106 1.75155 0
M  V30 48637 N 2638.88 -4.58136 0.662409 0
M  V30 48638 C 2638.73 -3.26059 1.02863 0
M  V30 48639 O 2638.64 -2.90743 2.19009 0
M  V30 48640 N 2638.69 -2.35995 -0.0155585 0
M  V30 48641 C 2638.78 -2.65248 -1.35603 0
M  V30 48642 O 2638.73 -1.75605 -2.20651 0
M  V30 48643 C 2638.93 -4.05747 -1.64698 0
M  V30 48644 C 2639.04 -4.42345 -3.09553 0
M  V30 48645 C 2638.98 -4.96734 -0.652411 0
M  V30 48646 H 2641.73 -8.64917 0.776982 0
M  V30 48647 H 2641.99 -6.89974 0.474015 0
M  V30 48648 H 2641.13 -7.66548 2.79458 0
M  V30 48649 H 2638.47 -5.16076 2.65138 0
M  V30 48650 H 2638.19 -7.06433 0.329384 0
M  V30 48651 H 2637.2 -6.90829 1.81996 0
M  V30 48652 H 2639.04 -8.90774 1.62639 0
M  V30 48653 H 2639.11 -6.02181 -0.895285 0
M  V30 48654 H 2638.08 -4.80252 -3.45468 0
M  V30 48655 H 2639.81 -5.20015 -3.22119 0
M  V30 48656 H 2639.33 -3.53269 -3.67833 0
M  V30 48657 H 2638.59 -1.39558 0.227499 0
M  V30 48658 P 2637.16 -8.03563 3.84925 0
M  V30 48659 O 2636.94 -8.85821 5.0569 0
M  V30 48660 O 2636.37 -8.41101 2.65469 0
M  V30 48661 O 2636.91 -6.4965 4.18908 0
M  V30 48662 C 2637.85 -5.81037 5.05421 0
M  V30 48663 C 2637.12 -4.78366 5.89277 0
M  V30 48664 O 2636.91 -3.58302 5.08433 0
M  V30 48665 C 2635.72 -5.17448 6.36119 0
M  V30 48666 O 2635.33 -4.45271 7.53232 0
M  V30 48667 C 2634.84 -4.74639 5.19936 0
M  V30 48668 C 2635.55 -3.49432 4.70418 0
M  V30 48669 N 2635.5 -3.32099 3.22613 0
M  V30 48670 C 2635.58 -4.28245 2.25527 0
M  V30 48671 N 2635.51 -3.80823 1.04874 0
M  V30 48672 C 2635.36 -2.44571 1.23535 0
M  V30 48673 C 2635.23 -1.37068 0.330675 0
M  V30 48674 N 2635.22 -1.51472 -0.990824 0
M  V30 48675 N 2635.11 -0.138614 0.848756 0
M  V30 48676 C 2635.12 0.00675923 2.16999 0
M  V30 48677 N 2635.24 -0.904372 3.11122 0
M  V30 48678 C 2635.36 -2.12707 2.56212 0
M  V30 48679 H 2638.34 -6.54213 5.71376 0
M  V30 48680 H 2638.62 -5.30936 4.43503 0
M  V30 48681 H 2637.75 -4.55889 6.76652 0
M  V30 48682 H 2635.09 -2.61715 5.17932 0
M  V30 48683 H 2634.81 -5.52155 4.41878 0
M  V30 48684 H 2633.82 -4.51981 5.53374 0
M  V30 48685 H 2635.66 -6.25124 6.55234 0
M  V30 48686 H 2635.7 -5.34372 2.47488 0
M  V30 48687 H 2635.32 -2.45153 -1.4078 0
M  V30 48688 H 2635.13 -0.688422 -1.59911 0
M  V30 48689 H 2635.02 1.02584 2.52346 0
M  V30 48690 P 2633.78 -4.23843 7.83734 0
M  V30 48691 O 2633.56 -4.19407 9.29784 0
M  V30 48692 O 2632.99 -5.24426 7.09156 0
M  V30 48693 O 2633.53 -2.7935 7.20758 0
M  V30 48694 C 2634.47 -1.7299 7.50419 0
M  V30 48695 C 2633.74 -0.406376 7.57911 0
M  V30 48696 O 2633.53 0.0897726 6.21935 0
M  V30 48697 C 2632.34 -0.447224 8.1878 0
M  V30 48698 O 2631.95 0.825065 8.71101 0
M  V30 48699 C 2631.46 -0.783801 6.99623 0
M  V30 48700 C 2632.17 -0.0619192 5.85967 0
M  V30 48701 N 2632.12 -0.7859 4.56281 0
M  V30 48702 H 2634.96 -1.93423 8.4679 0
M  V30 48703 H 2635.24 -1.68181 6.71046 0
M  V30 48704 H 2634.37 0.289041 8.15388 0
M  V30 48705 P 2630.4 1.17771 8.83182 0
M  V30 48706 O 2630.18 2.07206 9.98732 0
M  V30 48707 O 2629.61 -0.0743816 8.81969 0
M  V30 48708 O 2630.15 1.97652 7.47304 0
M  V30 48709 C 2631.09 3.01055 7.08599 0
M  V30 48710 C 2630.36 4.12613 6.37049 0
M  V30 48711 O 2630.15 3.72827 4.97879 0
M  V30 48712 C 2628.96 4.45719 6.88164 0
M  V30 48713 O 2628.57 5.7877 6.5624 0
M  V30 48714 C 2628.08 3.47768 6.11991 0
M  V30 48715 C 2628.79 3.39356 4.77615 0
M  V30 48716 N 2628.74 2.04571 4.15244 0
M  V30 48717 C 2628.59 1.98587 2.78314 0
M  V30 48718 O 2628.5 2.98134 2.08835 0
M  V30 48719 N 2628.55 0.714467 2.24925 0
M  V30 48720 C 2628.64 -0.470001 2.94169 0
M  V30 48721 C 2628.79 -0.312541 4.36783 0
M  V30 48722 C 2628.84 0.914512 4.92583 0
M  V30 48723 H 2631.59 3.41169 7.98575 0
M  V30 48724 H 2631.85 2.58295 6.41556 0
M  V30 48725 H 2630.99 5.02657 6.42673 0
M  V30 48726 H 2628.33 4.11637 4.08885 0
M  V30 48727 H 2628.05 2.49626 6.61679 0
M  V30 48728 H 2627.06 3.86566 6.00778 0
M  V30 48729 H 2628.9 4.29943 7.96918 0
M  V30 48730 H 2628.97 1.00937 6.00374 0
M  V30 48731 P 2627.02 6.144 6.45285 0
M  V30 48732 O 2626.8 7.54673 6.86199 0
M  V30 48733 O 2626.23 5.12391 7.179 0
M  V30 48734 O 2626.77 5.99158 4.88404 0
M  V30 48735 C 2627.71 6.60062 3.96313 0
M  V30 48736 C 2626.98 7.08259 2.72856 0
M  V30 48737 O 2626.77 5.9427 1.83651 0
M  V30 48738 C 2625.58 7.65087 2.94749 0
M  V30 48739 O 2625.19 8.53963 1.90717 0
M  V30 48740 C 2624.7 6.41069 2.90698 0
M  V30 48741 C 2625.41 5.5528 1.86931 0
M  V30 48742 N 2625.36 4.09575 2.15696 0
M  V30 48743 C 2625.21 3.24249 1.08435 0
M  V30 48744 O 2625.12 3.63946 -0.0628747 0
M  V30 48745 N 2625.17 1.90009 1.39973 0
M  V30 48746 C 2625.26 1.34884 2.65614 0
M  V30 48747 O 2625.21 0.123716 2.81728 0
M  V30 48748 C 2625.41 2.3145 3.71736 0
M  V30 48749 C 2625.52 1.75913 5.10438 0
M  V30 48750 C 2625.46 3.63518 3.44754 0
M  V30 48751 H 2628.21 7.45402 4.45526 0
M  V30 48752 H 2628.47 5.86062 3.67208 0
M  V30 48753 H 2627.61 7.84412 2.24479 0
M  V30 48754 H 2624.95 5.73358 0.888409 0
M  V30 48755 H 2624.67 5.90877 3.88583 0
M  V30 48756 H 2623.68 6.65867 2.58821 0
M  V30 48757 H 2625.52 8.16248 3.92006 0
M  V30 48758 H 2625.59 4.34551 4.26383 0
M  V30 48759 H 2624.56 1.85471 5.61775 0
M  V30 48760 H 2626.29 2.31364 5.66257 0
M  V30 48761 H 2625.81 0.695936 5.05229 0
M  V30 48762 H 2625.07 1.26277 0.63625 0
M  V30 48763 P 2623.64 8.7635 1.60911 0
M  V30 48764 O 2623.42 10.1388 1.11561 0
M  V30 48765 O 2622.85 8.36503 2.79617 0
M  V30 48766 O 2623.39 7.71806 0.42951 0
M  V30 48767 C 2624.33 7.67148 -0.673689 0
M  V30 48768 C 2623.6 7.33374 -1.95559 0
M  V30 48769 O 2623.39 5.88721 -2.00726 0
M  V30 48770 C 2622.2 7.92526 -2.10483 0
M  V30 48771 O 2621.81 8.02971 -3.47653 0
M  V30 48772 C 2621.32 6.89602 -1.41652 0
M  V30 48773 C 2622.03 5.59201 -1.75185 0
M  V30 48774 N 2621.98 4.58235 -0.662552 0
M  V30 48775 H 2624.82 8.65116 -0.777161 0
M  V30 48776 H 2625.1 6.90173 -0.474152 0
M  V30 48777 H 2624.23 7.66548 -2.79458 0
M  V30 48778 P 2620.26 8.03563 -3.84925 0
M  V30 48779 O 2620.04 8.85821 -5.0569 0
M  V30 48780 O 2619.47 8.41101 -2.65469 0
M  V30 48781 O 2620.01 6.4965 -4.18908 0
M  V30 48782 C 2620.95 5.81037 -5.05421 0
M  V30 48783 C 2620.22 4.78366 -5.89277 0
M  V30 48784 O 2620.01 3.58302 -5.08433 0
M  V30 48785 C 2618.82 5.17448 -6.36119 0
M  V30 48786 O 2618.43 4.45271 -7.53232 0
M  V30 48787 C 2617.94 4.74639 -5.19936 0
M  V30 48788 C 2618.65 3.49432 -4.70418 0
M  V30 48789 N 2618.6 3.31776 -3.22945 0
M  V30 48790 C 2618.68 4.27147 -2.23315 0
M  V30 48791 N 2618.6 3.78447 -1.02186 0
M  V30 48792 C 2618.46 2.41001 -1.21732 0
M  V30 48793 C 2618.33 1.36111 -0.27694 0
M  V30 48794 N 2618.21 0.113683 -0.912949 0
M  V30 48795 C 2618.21 -0.0846396 -2.27943 0
M  V30 48796 N 2618.08 -1.34737 -2.6916 0
M  V30 48797 N 2618.34 0.902521 -3.16379 0
M  V30 48798 C 2618.46 2.11937 -2.56849 0
M  V30 48799 H 2621.44 6.54213 -5.71376 0
M  V30 48800 H 2621.72 5.30492 -4.44033 0
M  V30 48801 H 2620.85 4.55889 -6.76652 0
M  V30 48802 P 2616.88 4.23843 -7.83734 0
M  V30 48803 O 2616.66 4.19407 -9.29784 0
M  V30 48804 O 2616.09 5.24426 -7.09156 0
M  V30 48805 O 2616.63 2.7935 -7.20758 0
M  V30 48806 C 2617.57 1.7299 -7.50419 0
M  V30 48807 C 2616.84 0.406376 -7.57911 0
M  V30 48808 O 2616.63 -0.0897726 -6.21935 0
M  V30 48809 C 2615.44 0.447224 -8.1878 0
M  V30 48810 O 2615.05 -0.825065 -8.71101 0
M  V30 48811 C 2614.56 0.783801 -6.99623 0
M  V30 48812 C 2615.27 0.0619192 -5.85967 0
M  V30 48813 N 2615.22 0.7859 -4.56281 0
M  V30 48814 H 2618.06 1.93423 -8.4679 0
M  V30 48815 H 2618.34 1.68181 -6.71046 0
M  V30 48816 H 2617.47 -0.289041 -8.15388 0
M  V30 48817 P 2613.5 -1.17771 -8.83182 0
M  V30 48818 O 2613.28 -2.07206 -9.98732 0
M  V30 48819 O 2612.71 0.0743816 -8.81969 0
M  V30 48820 O 2613.25 -1.97652 -7.47304 0
M  V30 48821 C 2614.19 -3.01133 -7.08783 0
M  V30 48822 C 2613.46 -4.12613 -6.37049 0
M  V30 48823 O 2613.25 -3.72827 -4.97879 0
M  V30 48824 C 2612.06 -4.45085 -6.88694 0
M  V30 48825 O 2611.67 -5.7877 -6.5624 0
M  V30 48826 C 2611.18 -3.47817 -6.12078 0
M  V30 48827 C 2611.89 -3.39414 -4.77697 0
M  V30 48828 N 2611.84 -2.04615 -4.15333 0
M  V30 48829 H 2614.68 -3.41248 -7.98759 0
M  V30 48830 H 2614.96 -2.5837 -6.41742 0
M  V30 48831 H 2614.09 -5.02657 -6.42673 0
M  V30 48832 P 2610.12 -6.144 -6.45285 0
M  V30 48833 O 2609.9 -7.54673 -6.86199 0
M  V30 48834 O 2609.33 -5.12391 -7.179 0
M  V30 48835 O 2609.87 -5.99158 -4.88404 0
M  V30 48836 C 2610.81 -6.60234 -3.96415 0
M  V30 48837 C 2610.08 -7.08259 -2.72856 0
M  V30 48838 O 2609.87 -5.9427 -1.83651 0
M  V30 48839 C 2608.68 -7.64886 -2.9555 0
M  V30 48840 O 2608.29 -8.53963 -1.90717 0
M  V30 48841 C 2607.8 -6.4116 -2.90739 0
M  V30 48842 C 2608.51 -5.55375 -1.86963 0
M  V30 48843 N 2608.46 -4.09448 -2.16152 0
M  V30 48844 H 2611.3 -7.45574 -4.45629 0
M  V30 48845 H 2611.58 -5.85864 -3.679 0
M  V30 48846 H 2610.71 -7.84412 -2.24479 0
M  V30 48847 H 2608.05 -5.73457 -0.888562 0
M  V30 48848 H 2607.77 -5.90877 -3.88583 0
M  V30 48849 H 2606.78 -6.6596 -2.58858 0
M  V30 48850 H 2608.62 -8.16339 -3.92049 0
M  V30 48851 P 2606.74 -8.7635 -1.60911 0
M  V30 48852 O 2606.52 -10.1388 -1.11561 0
M  V30 48853 O 2605.95 -8.36503 -2.79617 0
M  V30 48854 O 2606.49 -7.71806 -0.42951 0
M  V30 48855 C 2607.43 -7.67148 0.673689 0
M  V30 48856 C 2606.7 -7.33374 1.95559 0
M  V30 48857 O 2606.49 -5.88721 2.00726 0
M  V30 48858 C 2605.3 -7.92526 2.10483 0
M  V30 48859 O 2604.91 -8.02971 3.47653 0
M  V30 48860 C 2604.42 -6.89602 1.41652 0
M  V30 48861 C 2605.13 -5.59201 1.75185 0
M  V30 48862 N 2605.08 -4.58301 0.657969 0
M  V30 48863 H 2607.92 -8.65116 0.777161 0
M  V30 48864 H 2608.2 -6.9022 0.46725 0
M  V30 48865 H 2607.33 -7.66548 2.79458 0
M  V30 48866 H 2604.67 -5.16165 2.65183 0
M  V30 48867 H 2604.39 -7.06433 0.329384 0
M  V30 48868 H 2603.4 -6.90926 1.82021 0
M  V30 48869 H 2605.24 -8.90873 1.62657 0
M  V30 48870 P 2603.36 -8.03563 3.84925 0
M  V30 48871 O 2603.14 -8.85821 5.0569 0
M  V30 48872 O 2602.57 -8.41101 2.65469 0
M  V30 48873 O 2603.11 -6.4965 4.18908 0
M  V30 48874 C 2604.05 -5.81037 5.05421 0
M  V30 48875 C 2603.32 -4.78366 5.89277 0
M  V30 48876 O 2603.11 -3.58302 5.08433 0
M  V30 48877 C 2601.92 -5.17448 6.36119 0
M  V30 48878 O 2601.53 -4.45271 7.53232 0
M  V30 48879 C 2601.04 -4.74639 5.19936 0
M  V30 48880 C 2601.75 -3.49432 4.70418 0
M  V30 48881 N 2601.7 -3.32099 3.22613 0
M  V30 48882 H 2604.54 -6.54213 5.71376 0
M  V30 48883 H 2604.82 -5.30936 4.43503 0
M  V30 48884 H 2603.95 -4.55889 6.76652 0
M  V30 48885 H 2601.29 -2.61715 5.17932 0
M  V30 48886 H 2601.01 -5.52155 4.41878 0
M  V30 48887 H 2600.02 -4.51981 5.53374 0
M  V30 48888 H 2601.86 -6.25124 6.55234 0
M  V30 48889 P 2599.98 -4.23843 7.83734 0
M  V30 48890 O 2599.76 -4.19407 9.29784 0
M  V30 48891 O 2599.19 -5.24426 7.09156 0
M  V30 48892 O 2599.73 -2.7935 7.20758 0
M  V30 48893 C 2600.67 -1.7299 7.50419 0
M  V30 48894 C 2599.94 -0.406376 7.57911 0
M  V30 48895 O 2599.73 0.0897726 6.21935 0
M  V30 48896 C 2598.54 -0.447224 8.1878 0
M  V30 48897 O 2598.15 0.825065 8.71101 0
M  V30 48898 C 2597.66 -0.783801 6.99623 0
M  V30 48899 C 2598.37 -0.0619192 5.85967 0
M  V30 48900 N 2598.32 -0.790462 4.56202 0
M  V30 48901 H 2601.16 -1.93423 8.4679 0
M  V30 48902 H 2601.44 -1.68852 6.70877 0
M  V30 48903 H 2600.57 0.289041 8.15388 0
M  V30 48904 H 2597.91 0.927006 5.72848 0
M  V30 48905 H 2597.63 -1.86973 6.82036 0
M  V30 48906 H 2596.64 -0.403953 7.13357 0
M  V30 48907 H 2598.48 -1.20599 8.97534 0
M  V30 48908 P 2596.6 1.17771 8.83182 0
M  V30 48909 O 2596.38 2.07206 9.98732 0
M  V30 48910 O 2595.81 -0.0743816 8.81969 0
M  V30 48911 O 2596.35 1.97652 7.47304 0
M  V30 48912 C 2597.29 3.01133 7.08783 0
M  V30 48913 C 2596.56 4.12613 6.37049 0
M  V30 48914 O 2596.35 3.72827 4.97879 0
M  V30 48915 C 2595.16 4.45085 6.88694 0
M  V30 48916 O 2594.77 5.7877 6.5624 0
M  V30 48917 C 2594.28 3.47817 6.12078 0
M  V30 48918 C 2594.99 3.39414 4.77697 0
M  V30 48919 N 2594.94 2.04199 4.15538 0
M  V30 48920 H 2597.78 3.41248 7.98759 0
M  V30 48921 H 2598.06 2.57728 6.42 0
M  V30 48922 H 2597.19 5.02657 6.42673 0
M  V30 48923 H 2594.53 4.11708 4.08956 0
M  V30 48924 H 2594.25 2.49626 6.61679 0
M  V30 48925 H 2593.26 3.8662 6.00862 0
M  V30 48926 H 2595.1 4.29991 7.97006 0
M  V30 48927 P 2593.22 6.144 6.45285 0
M  V30 48928 O 2593 7.54673 6.86199 0
M  V30 48929 O 2592.43 5.12391 7.179 0
M  V30 48930 O 2592.97 5.99158 4.88404 0
M  V30 48931 C 2593.91 6.60234 3.96415 0
M  V30 48932 C 2593.18 7.08259 2.72856 0
M  V30 48933 O 2592.97 5.9427 1.83651 0
M  V30 48934 C 2591.78 7.64886 2.9555 0
M  V30 48935 O 2591.39 8.53963 1.90717 0
M  V30 48936 C 2590.9 6.4116 2.90739 0
M  V30 48937 C 2591.61 5.55375 1.86963 0
M  V30 48938 N 2591.56 4.09664 2.15742 0
M  V30 48939 H 2594.4 7.45574 4.45629 0
M  V30 48940 H 2594.68 5.86232 3.67314 0
M  V30 48941 H 2593.81 7.84412 2.24479 0
M  V30 48942 P 2589.84 8.7635 1.60911 0
M  V30 48943 O 2589.62 10.1388 1.11561 0
M  V30 48944 O 2589.05 8.36503 2.79617 0
M  V30 48945 O 2589.59 7.71806 0.42951 0
M  V30 48946 C 2590.53 7.67148 -0.673689 0
M  V30 48947 C 2589.8 7.33374 -1.95559 0
M  V30 48948 O 2589.59 5.88721 -2.00726 0
M  V30 48949 C 2588.4 7.92526 -2.10483 0
M  V30 48950 O 2588.01 8.02971 -3.47653 0
M  V30 48951 C 2587.52 6.89602 -1.41652 0
M  V30 48952 C 2588.23 5.59201 -1.75185 0
M  V30 48953 N 2588.18 4.58235 -0.662552 0
M  V30 48954 H 2591.02 8.65116 -0.777161 0
M  V30 48955 H 2591.3 6.90173 -0.474152 0
M  V30 48956 H 2590.43 7.66548 -2.79458 0
M  V30 48957 P 2586.46 8.03563 -3.84925 0
M  V30 48958 O 2586.24 8.85821 -5.0569 0
M  V30 48959 O 2585.67 8.41101 -2.65469 0
M  V30 48960 O 2586.21 6.4965 -4.18908 0
M  V30 48961 C 2587.15 5.81037 -5.05421 0
M  V30 48962 C 2586.42 4.78366 -5.89277 0
M  V30 48963 O 2586.21 3.58302 -5.08433 0
M  V30 48964 C 2585.02 5.17448 -6.36119 0
M  V30 48965 O 2584.63 4.45271 -7.53232 0
M  V30 48966 C 2584.14 4.74639 -5.19936 0
M  V30 48967 C 2584.85 3.49432 -4.70418 0
M  V30 48968 N 2584.8 3.31776 -3.22945 0
M  V30 48969 H 2587.64 6.54213 -5.71376 0
M  V30 48970 H 2587.92 5.30492 -4.44033 0
M  V30 48971 H 2587.05 4.55889 -6.76652 0
M  V30 48972 P 2583.08 4.23843 -7.83734 0
M  V30 48973 O 2582.86 4.19407 -9.29784 0
M  V30 48974 O 2582.29 5.24426 -7.09156 0
M  V30 48975 O 2582.83 2.7935 -7.20758 0
M  V30 48976 C 2583.77 1.7299 -7.50419 0
M  V30 48977 C 2583.04 0.406376 -7.57911 0
M  V30 48978 O 2582.83 -0.0897726 -6.21935 0
M  V30 48979 C 2581.64 0.447224 -8.1878 0
M  V30 48980 O 2581.25 -0.825065 -8.71101 0
M  V30 48981 C 2580.76 0.783801 -6.99623 0
M  V30 48982 C 2581.47 0.0619192 -5.85967 0
M  V30 48983 N 2581.42 0.790462 -4.56202 0
M  V30 48984 H 2584.26 1.93423 -8.4679 0
M  V30 48985 H 2584.54 1.68852 -6.70877 0
M  V30 48986 H 2583.67 -0.289041 -8.15388 0
M  V30 48987 H 2581.01 -0.927006 -5.72848 0
M  V30 48988 H 2580.73 1.86973 -6.82036 0
M  V30 48989 H 2579.74 0.403953 -7.13357 0
M  V30 48990 H 2581.58 1.20599 -8.97534 0
M  V30 48991 P 2579.7 -1.17771 -8.83182 0
M  V30 48992 O 2579.48 -2.07206 -9.98732 0
M  V30 48993 O 2578.91 0.0743816 -8.81969 0
M  V30 48994 O 2579.45 -1.97652 -7.47304 0
M  V30 48995 C 2580.39 -3.01133 -7.08783 0
M  V30 48996 C 2579.66 -4.12613 -6.37049 0
M  V30 48997 O 2579.45 -3.72827 -4.97879 0
M  V30 48998 C 2578.26 -4.45085 -6.88694 0
M  V30 48999 O 2577.87 -5.7877 -6.5624 0
M  V30 49000 C 2577.38 -3.47817 -6.12078 0
M  V30 49001 C 2578.09 -3.39414 -4.77697 0
M  V30 49002 N 2578.04 -2.04615 -4.15333 0
M  V30 49003 H 2580.88 -3.41248 -7.98759 0
M  V30 49004 H 2581.16 -2.5837 -6.41742 0
M  V30 49005 H 2580.29 -5.02657 -6.42673 0
M  V30 49006 P 2576.32 -6.144 -6.45285 0
M  V30 49007 O 2576.1 -7.54673 -6.86199 0
M  V30 49008 O 2575.53 -5.12391 -7.179 0
M  V30 49009 O 2576.07 -5.99158 -4.88404 0
M  V30 49010 C 2577.01 -6.60234 -3.96415 0
M  V30 49011 C 2576.28 -7.08259 -2.72856 0
M  V30 49012 O 2576.07 -5.9427 -1.83651 0
M  V30 49013 C 2574.88 -7.64886 -2.9555 0
M  V30 49014 O 2574.49 -8.53963 -1.90717 0
M  V30 49015 C 2574 -6.4116 -2.90739 0
M  V30 49016 C 2574.71 -5.55375 -1.86963 0
M  V30 49017 N 2574.66 -4.09664 -2.15742 0
M  V30 49018 C 2574.74 -3.44381 -3.37233 0
M  V30 49019 N 2574.66 -2.14131 -3.28347 0
M  V30 49020 C 2574.52 -1.90247 -1.91588 0
M  V30 49021 C 2574.39 -0.683992 -1.20892 0
M  V30 49022 O 2574.37 0.46618 -1.64523 0
M  V30 49023 N 2574.27 -0.903396 0.173998 0
M  V30 49024 C 2574.27 -2.14171 0.784879 0
M  V30 49025 N 2574.14 -2.1435 2.11317 0
M  V30 49026 N 2574.4 -3.28784 0.119316 0
M  V30 49027 C 2574.52 -3.0977 -1.22194 0
M  V30 49028 H 2577.5 -7.45574 -4.45629 0
M  V30 49029 H 2577.78 -5.86232 -3.67314 0
M  V30 49030 H 2576.91 -7.84412 -2.24479 0
M  V30 49031 H 2574.25 -5.73556 -0.888715 0
M  V30 49032 H 2573.97 -5.9096 -3.88638 0
M  V30 49033 H 2572.98 -6.66053 -2.58894 0
M  V30 49034 H 2574.82 -8.16429 -3.92093 0
M  V30 49035 H 2574.86 -3.96785 -4.32043 0
M  V30 49036 H 2574.18 -0.0999567 0.761467 0
M  V30 49037 H 2574.15 -3.03436 2.63076 0
M  V30 49038 H 2574.04 -1.25228 2.62233 0
M  V30 49039 P 2572.94 -8.7635 -1.60911 0
M  V30 49040 O 2572.72 -10.1388 -1.11561 0
M  V30 49041 O 2572.15 -8.36503 -2.79617 0
M  V30 49042 O 2572.69 -7.71806 -0.42951 0
M  V30 49043 C 2573.63 -7.67148 0.673689 0
M  V30 49044 C 2572.9 -7.33374 1.95559 0
M  V30 49045 O 2572.69 -5.88721 2.00726 0
M  V30 49046 C 2571.5 -7.92526 2.10483 0
M  V30 49047 O 2571.11 -8.02971 3.47653 0
M  V30 49048 C 2570.62 -6.89602 1.41652 0
M  V30 49049 C 2571.33 -5.59201 1.75185 0
M  V30 49050 N 2571.28 -4.58301 0.657969 0
M  V30 49051 H 2574.12 -8.65116 0.777161 0
M  V30 49052 H 2574.4 -6.9022 0.46725 0
M  V30 49053 H 2573.53 -7.66548 2.79458 0
M  V30 49054 H 2570.87 -5.16165 2.65183 0
M  V30 49055 H 2570.59 -7.06433 0.329384 0
M  V30 49056 H 2569.6 -6.90926 1.82021 0
M  V30 49057 H 2571.44 -8.90873 1.62657 0
M  V30 49058 P 2569.56 -8.03563 3.84925 0
M  V30 49059 O 2569.34 -8.85821 5.0569 0
M  V30 49060 O 2568.77 -8.41101 2.65469 0
M  V30 49061 O 2569.31 -6.49734 4.18962 0
M  V30 49062 C 2570.25 -5.81037 5.05421 0
M  V30 49063 C 2569.52 -4.79018 5.88876 0
M  V30 49064 O 2569.31 -3.58359 5.08515 0
M  V30 49065 C 2568.12 -5.17448 6.36119 0
M  V30 49066 O 2567.73 -4.45322 7.53318 0
M  V30 49067 C 2567.24 -4.74639 5.19936 0
M  V30 49068 C 2567.95 -3.49432 4.70418 0
M  V30 49069 N 2567.9 -3.31776 3.22945 0
M  V30 49070 C 2567.75 -2.02742 2.72939 0
M  V30 49071 O 2567.66 -1.08301 3.52749 0
M  V30 49072 N 2567.7 -1.96117 1.22063 0
M  V30 49073 C 2567.8 -2.8878 0.551566 0
M  V30 49074 N 2567.75 -2.65609 -0.750198 0
M  V30 49075 C 2567.95 -4.22457 1.03707 0
M  V30 49076 C 2568 -4.37979 2.39113 0
M  V30 49077 H 2570.74 -6.54138 5.7131 0
M  V30 49078 H 2571.01 -5.30492 4.44033 0
M  V30 49079 H 2570.15 -4.55945 6.76735 0
M  V30 49080 H 2567.49 -2.6176 5.18021 0
M  V30 49081 H 2567.21 -5.52233 4.41941 0
M  V30 49082 H 2566.22 -4.52045 5.53452 0
M  V30 49083 H 2568.06 -6.25124 6.55234 0
M  V30 49084 H 2568.13 -5.37936 2.80552 0
M  V30 49085 H 2568.03 -5.07528 0.359553 0
M  V30 49086 H 2567.64 -1.69403 -1.09847 0
M  V30 49087 H 2567.83 -3.43701 -1.41792 0
M  V30 49088 P 2566.18 -4.23843 7.83734 0
M  V30 49089 O 2565.96 -4.19407 9.29784 0
M  V30 49090 O 2565.39 -5.24426 7.09156 0
M  V30 49091 O 2565.93 -2.7935 7.20758 0
M  V30 49092 C 2566.87 -1.7299 7.50419 0
M  V30 49093 C 2566.14 -0.406376 7.57911 0
M  V30 49094 O 2565.93 0.0897726 6.21935 0
M  V30 49095 C 2564.74 -0.447224 8.1878 0
M  V30 49096 O 2564.35 0.825065 8.71101 0
M  V30 49097 C 2563.86 -0.783801 6.99623 0
M  V30 49098 C 2564.57 -0.0619192 5.85967 0
M  V30 49099 N 2564.52 -0.7859 4.56281 0
M  V30 49100 H 2567.36 -1.93423 8.4679 0
M  V30 49101 H 2567.64 -1.68181 6.71046 0
M  V30 49102 H 2566.77 0.289041 8.15388 0
M  V30 49103 P 2562.8 1.17771 8.83182 0
M  V30 49104 O 2562.58 2.07206 9.98732 0
M  V30 49105 O 2562.01 -0.0743816 8.81969 0
M  V30 49106 O 2562.55 1.97652 7.47304 0
M  V30 49107 C 2563.49 3.01133 7.08783 0
M  V30 49108 C 2562.76 4.12613 6.37049 0
M  V30 49109 O 2562.55 3.72827 4.97879 0
M  V30 49110 C 2561.36 4.45085 6.88694 0
M  V30 49111 O 2560.97 5.7877 6.5624 0
M  V30 49112 C 2560.48 3.47817 6.12078 0
M  V30 49113 C 2561.19 3.39414 4.77697 0
M  V30 49114 N 2561.14 2.04615 4.15333 0
M  V30 49115 H 2563.98 3.41248 7.98759 0
M  V30 49116 H 2564.26 2.5837 6.41742 0
M  V30 49117 H 2563.39 5.02657 6.42673 0
M  V30 49118 P 2559.42 6.144 6.45285 0
M  V30 49119 O 2559.2 7.54673 6.86199 0
M  V30 49120 O 2558.63 5.12391 7.179 0
M  V30 49121 O 2559.17 5.99158 4.88404 0
M  V30 49122 C 2560.11 6.60234 3.96415 0
M  V30 49123 C 2559.38 7.08259 2.72856 0
M  V30 49124 O 2559.17 5.9427 1.83651 0
M  V30 49125 C 2557.98 7.64886 2.9555 0
M  V30 49126 O 2557.59 8.53963 1.90717 0
M  V30 49127 C 2557.1 6.4116 2.90739 0
M  V30 49128 C 2557.81 5.55375 1.86963 0
M  V30 49129 N 2557.76 4.09664 2.15742 0
M  V30 49130 H 2560.6 7.45574 4.45629 0
M  V30 49131 H 2560.88 5.86232 3.67314 0
M  V30 49132 H 2560.01 7.84412 2.24479 0
M  V30 49133 P 2556.04 8.7635 1.60911 0
M  V30 49134 O 2555.82 10.1388 1.11561 0
M  V30 49135 O 2555.25 8.36503 2.79617 0
M  V30 49136 O 2555.79 7.71806 0.42951 0
M  V30 49137 C 2556.73 7.67148 -0.673689 0
M  V30 49138 C 2556 7.33374 -1.95559 0
M  V30 49139 O 2555.79 5.88721 -2.00726 0
M  V30 49140 C 2554.6 7.92526 -2.10483 0
M  V30 49141 O 2554.21 8.02971 -3.47653 0
M  V30 49142 C 2553.72 6.89602 -1.41652 0
M  V30 49143 C 2554.43 5.59201 -1.75185 0
M  V30 49144 N 2554.38 4.58301 -0.657969 0
M  V30 49145 C 2554.46 4.79019 0.692603 0
M  V30 49146 N 2554.39 3.69736 1.38998 0
M  V30 49147 C 2554.24 2.70474 0.438135 0
M  V30 49148 C 2554.11 1.30327 0.538142 0
M  V30 49149 N 2554.1 0.64304 1.69192 0
M  V30 49150 N 2553.99 0.611027 -0.605183 0
M  V30 49151 C 2554 1.27002 -1.75953 0
M  V30 49152 N 2554.12 2.56038 -1.98546 0
M  V30 49153 C 2554.24 3.22681 -0.822541 0
M  V30 49154 H 2557.22 8.65116 -0.777161 0
M  V30 49155 H 2557.5 6.9022 -0.46725 0
M  V30 49156 H 2556.63 7.66548 -2.79458 0
M  V30 49157 H 2553.97 5.16165 -2.65183 0
M  V30 49158 H 2553.69 7.06433 -0.329384 0
M  V30 49159 H 2552.7 6.90926 -1.82021 0
M  V30 49160 H 2554.54 8.90873 -1.62657 0
M  V30 49161 H 2554.58 5.77785 1.13874 0
M  V30 49162 H 2554.2 1.15585 2.57991 0
M  V30 49163 H 2554.01 -0.382989 1.69835 0
M  V30 49164 H 2553.9 0.653331 -2.64449 0
M  V30 49165 P 2552.66 8.03563 -3.84925 0
M  V30 49166 O 2552.44 8.85821 -5.0569 0
M  V30 49167 O 2551.87 8.41101 -2.65469 0
M  V30 49168 O 2552.41 6.4965 -4.18908 0
M  V30 49169 C 2553.35 5.81037 -5.05421 0
M  V30 49170 C 2552.62 4.78366 -5.89277 0
M  V30 49171 O 2552.41 3.58302 -5.08433 0
M  V30 49172 C 2551.22 5.17448 -6.36119 0
M  V30 49173 O 2550.83 4.45271 -7.53232 0
M  V30 49174 C 2550.34 4.74639 -5.19936 0
M  V30 49175 C 2551.05 3.49432 -4.70418 0
M  V30 49176 N 2551 3.31776 -3.22945 0
M  V30 49177 H 2553.84 6.54213 -5.71376 0
M  V30 49178 H 2554.12 5.30492 -4.44033 0
M  V30 49179 H 2553.25 4.55889 -6.76652 0
M  V30 49180 P 2549.28 4.23843 -7.83734 0
M  V30 49181 O 2549.06 4.19407 -9.29784 0
M  V30 49182 O 2548.49 5.24426 -7.09156 0
M  V30 49183 O 2549.03 2.7935 -7.20758 0
M  V30 49184 C 2549.97 1.72945 -7.50224 0
M  V30 49185 C 2549.24 0.406376 -7.57911 0
M  V30 49186 O 2549.03 -0.0897726 -6.21935 0
M  V30 49187 C 2547.84 0.438983 -8.18724 0
M  V30 49188 O 2547.45 -0.825065 -8.71101 0
M  V30 49189 C 2546.96 0.783689 -6.99524 0
M  V30 49190 C 2547.67 0.0619086 -5.85867 0
M  V30 49191 N 2547.62 0.78573 -4.56183 0
M  V30 49192 C 2547.47 0.0292889 -3.41887 0
M  V30 49193 O 2547.38 -1.18445 -3.4419 0
M  V30 49194 N 2547.43 0.744061 -2.23964 0
M  V30 49195 C 2547.52 2.10932 -2.10362 0
M  V30 49196 O 2547.47 2.64117 -0.98825 0
M  V30 49197 C 2547.67 2.8202 -3.34994 0
M  V30 49198 C 2547.78 4.31095 -3.25037 0
M  V30 49199 C 2547.72 2.15547 -4.52261 0
M  V30 49200 H 2550.47 1.93379 -8.46595 0
M  V30 49201 H 2550.73 1.68132 -6.70852 0
M  V30 49202 H 2549.87 -0.289041 -8.15388 0
M  V30 49203 H 2547.21 -0.926847 -5.72749 0
M  V30 49204 H 2546.93 1.86973 -6.82036 0
M  V30 49205 H 2545.94 0.403896 -7.13257 0
M  V30 49206 H 2547.78 1.20585 -8.97435 0
M  V30 49207 H 2547.85 2.71231 -5.45042 0
M  V30 49208 H 2546.82 4.76966 -3.49992 0
M  V30 49209 H 2548.55 4.67047 -3.95024 0
M  V30 49210 H 2548.07 4.58996 -2.22312 0
M  V30 49211 H 2547.33 0.214893 -1.39758 0
M  V30 49212 P 2545.9 -1.17771 -8.83182 0
M  V30 49213 O 2545.68 -2.07206 -9.98732 0
M  V30 49214 O 2545.11 0.0743816 -8.81969 0
M  V30 49215 O 2545.65 -1.97652 -7.47304 0
M  V30 49216 C 2546.59 -3.01133 -7.08783 0
M  V30 49217 C 2545.86 -4.12613 -6.37049 0
M  V30 49218 O 2545.65 -3.72827 -4.97879 0
M  V30 49219 C 2544.46 -4.45085 -6.88694 0
M  V30 49220 O 2544.07 -5.7877 -6.5624 0
M  V30 49221 C 2543.58 -3.47817 -6.12078 0
M  V30 49222 C 2544.29 -3.39414 -4.77697 0
M  V30 49223 N 2544.24 -2.04199 -4.15538 0
M  V30 49224 H 2547.08 -3.41248 -7.98759 0
M  V30 49225 H 2547.36 -2.57728 -6.42 0
M  V30 49226 H 2546.49 -5.02657 -6.42673 0
M  V30 49227 H 2543.83 -4.11708 -4.08956 0
M  V30 49228 H 2543.55 -2.49626 -6.61679 0
M  V30 49229 H 2542.56 -3.8662 -6.00862 0
M  V30 49230 H 2544.4 -4.29991 -7.97006 0
M  V30 49231 P 2542.52 -6.144 -6.45285 0
M  V30 49232 O 2542.3 -7.54673 -6.86199 0
M  V30 49233 O 2541.73 -5.12391 -7.179 0
M  V30 49234 O 2542.27 -5.99158 -4.88404 0
M  V30 49235 C 2543.21 -6.60234 -3.96415 0
M  V30 49236 C 2542.48 -7.08259 -2.72856 0
M  V30 49237 O 2542.27 -5.9427 -1.83651 0
M  V30 49238 C 2541.08 -7.64886 -2.9555 0
M  V30 49239 O 2540.69 -8.53963 -1.90717 0
M  V30 49240 C 2540.2 -6.4116 -2.90739 0
M  V30 49241 C 2540.91 -5.55375 -1.86963 0
M  V30 49242 N 2540.86 -4.09664 -2.15742 0
M  V30 49243 H 2543.7 -7.45574 -4.45629 0
M  V30 49244 H 2543.98 -5.86232 -3.67314 0
M  V30 49245 H 2543.11 -7.84412 -2.24479 0
M  V30 49246 P 2539.15 -8.7635 -1.60911 0
M  V30 49247 O 2538.93 -10.1388 -1.11561 0
M  V30 49248 O 2538.36 -8.36503 -2.79617 0
M  V30 49249 O 2538.9 -7.71806 -0.42951 0
M  V30 49250 C 2539.84 -7.67148 0.673689 0
M  V30 49251 C 2539.11 -7.33374 1.95559 0
M  V30 49252 O 2538.9 -5.88721 2.00726 0
M  V30 49253 C 2537.71 -7.92526 2.10483 0
M  V30 49254 O 2537.32 -8.02971 3.47653 0
M  V30 49255 C 2536.83 -6.89602 1.41652 0
M  V30 49256 C 2537.54 -5.59201 1.75185 0
M  V30 49257 N 2537.49 -4.58235 0.662552 0
M  V30 49258 C 2537.57 -4.7683 -0.704049 0
M  V30 49259 N 2537.49 -3.66233 -1.39775 0
M  V30 49260 C 2537.35 -2.66526 -0.431739 0
M  V30 49261 C 2537.22 -1.26394 -0.575992 0
M  V30 49262 O 2537.2 -0.589894 -1.60503 0
M  V30 49263 N 2537.1 -0.62859 0.67177 0
M  V30 49264 C 2537.1 -1.27134 1.89385 0
M  V30 49265 N 2536.97 -0.492035 2.96951 0
M  V30 49266 N 2537.23 -2.58978 2.02907 0
M  V30 49267 C 2537.35 -3.22433 0.832218 0
M  V30 49268 H 2540.32 -8.65116 0.777161 0
M  V30 49269 H 2540.6 -6.90173 0.474152 0
M  V30 49270 H 2539.73 -7.66548 2.79458 0
M  V30 49271 H 2537.07 -5.16254 2.65229 0
M  V30 49272 H 2536.79 -7.06532 0.329431 0
M  V30 49273 H 2535.8 -6.91023 1.82047 0
M  V30 49274 H 2537.64 -8.90971 1.62675 0
M  V30 49275 H 2537.69 -5.74954 -1.16305 0
M  V30 49276 H 2537 0.366713 0.674793 0
M  V30 49277 H 2536.97 -0.908532 3.91188 0
M  V30 49278 H 2536.87 0.528253 2.85758 0
M  V30 49279 P 2535.77 -8.03563 3.84925 0
M  V30 49280 O 2535.55 -8.85821 5.0569 0
M  V30 49281 O 2534.98 -8.41101 2.65469 0
M  V30 49282 O 2535.52 -6.4965 4.18908 0
M  V30 49283 C 2536.46 -5.81037 5.05421 0
M  V30 49284 C 2535.73 -4.78366 5.89277 0
M  V30 49285 O 2535.52 -3.58302 5.08433 0
M  V30 49286 C 2534.33 -5.17448 6.36119 0
M  V30 49287 O 2533.94 -4.45271 7.53232 0
M  V30 49288 C 2533.45 -4.74639 5.19936 0
M  V30 49289 C 2534.16 -3.49432 4.70418 0
M  V30 49290 N 2534.11 -3.31776 3.22945 0
M  V30 49291 H 2536.94 -6.54213 5.71376 0
M  V30 49292 H 2537.22 -5.30492 4.44033 0
M  V30 49293 H 2536.35 -4.55889 6.76652 0
M  V30 49294 P 2532.39 -4.23843 7.83734 0
M  V30 49295 O 2532.17 -4.19407 9.29784 0
M  V30 49296 O 2531.6 -5.24426 7.09156 0
M  V30 49297 O 2532.14 -2.7935 7.20758 0
M  V30 49298 C 2533.08 -1.7299 7.50419 0
M  V30 49299 C 2532.35 -0.406376 7.57911 0
M  V30 49300 O 2532.14 0.0897726 6.21935 0
M  V30 49301 C 2530.95 -0.447224 8.1878 0
M  V30 49302 O 2530.56 0.825065 8.71101 0
M  V30 49303 C 2530.07 -0.783801 6.99623 0
M  V30 49304 C 2530.78 -0.0619192 5.85967 0
M  V30 49305 N 2530.73 -0.790462 4.56202 0
M  V30 49306 H 2533.56 -1.93423 8.4679 0
M  V30 49307 H 2533.84 -1.68852 6.70877 0
M  V30 49308 H 2532.97 0.289041 8.15388 0
M  V30 49309 H 2530.31 0.927006 5.72848 0
M  V30 49310 H 2530.03 -1.86973 6.82036 0
M  V30 49311 H 2529.04 -0.403953 7.13357 0
M  V30 49312 H 2530.88 -1.20599 8.97534 0
M  V30 49313 P 2529.01 1.17771 8.83182 0
M  V30 49314 O 2528.79 2.07206 9.98732 0
M  V30 49315 O 2528.22 -0.0743816 8.81969 0
M  V30 49316 O 2528.76 1.97652 7.47304 0
M  V30 49317 C 2529.7 3.01133 7.08783 0
M  V30 49318 C 2528.97 4.12613 6.37049 0
M  V30 49319 O 2528.76 3.72827 4.97879 0
M  V30 49320 C 2527.57 4.45085 6.88694 0
M  V30 49321 O 2527.18 5.7877 6.5624 0
M  V30 49322 C 2526.69 3.47817 6.12078 0
M  V30 49323 C 2527.4 3.39414 4.77697 0
M  V30 49324 N 2527.35 2.04199 4.15538 0
M  V30 49325 H 2530.18 3.41248 7.98759 0
M  V30 49326 H 2530.46 2.57728 6.42 0
M  V30 49327 H 2529.59 5.02657 6.42673 0
M  V30 49328 H 2526.93 4.11708 4.08956 0
M  V30 49329 H 2526.65 2.49626 6.61679 0
M  V30 49330 H 2525.66 3.8662 6.00862 0
M  V30 49331 H 2527.5 4.29991 7.97006 0
M  V30 49332 P 2525.63 6.144 6.45285 0
M  V30 49333 O 2525.41 7.54673 6.86199 0
M  V30 49334 O 2524.84 5.12391 7.179 0
M  V30 49335 O 2525.38 5.99158 4.88404 0
M  V30 49336 C 2526.32 6.60234 3.96415 0
M  V30 49337 C 2525.59 7.08259 2.72856 0
M  V30 49338 O 2525.38 5.9427 1.83651 0
M  V30 49339 C 2524.19 7.64886 2.9555 0
M  V30 49340 O 2523.8 8.53963 1.90717 0
M  V30 49341 C 2523.31 6.4116 2.90739 0
M  V30 49342 C 2524.02 5.55375 1.86963 0
M  V30 49343 N 2523.97 4.09664 2.15742 0
M  V30 49344 C 2524.05 3.44381 3.37233 0
M  V30 49345 N 2523.97 2.14131 3.28347 0
M  V30 49346 C 2523.83 1.90247 1.91588 0
M  V30 49347 C 2523.7 0.683992 1.20892 0
M  V30 49348 N 2523.58 0.903396 -0.173998 0
M  V30 49349 C 2523.58 2.14171 -0.784879 0
M  V30 49350 N 2523.45 2.1435 -2.11317 0
M  V30 49351 N 2523.71 3.28784 -0.119316 0
M  V30 49352 C 2523.83 3.0977 1.22194 0
M  V30 49353 H 2526.8 7.45574 4.45629 0
M  V30 49354 H 2527.08 5.86232 3.67314 0
M  V30 49355 H 2526.21 7.84412 2.24479 0
M  V30 49356 P 2522.25 8.7635 1.60911 0
M  V30 49357 O 2522.03 10.1388 1.11561 0
M  V30 49358 O 2521.46 8.36503 2.79617 0
M  V30 49359 O 2522 7.71806 0.42951 0
M  V30 49360 C 2522.94 7.67148 -0.673689 0
M  V30 49361 C 2522.21 7.33374 -1.95559 0
M  V30 49362 O 2522 5.88721 -2.00726 0
M  V30 49363 C 2520.81 7.92526 -2.10483 0
M  V30 49364 O 2520.42 8.02971 -3.47653 0
M  V30 49365 C 2519.93 6.89602 -1.41652 0
M  V30 49366 C 2520.64 5.59201 -1.75185 0
M  V30 49367 N 2520.59 4.58235 -0.662552 0
M  V30 49368 C 2520.67 4.7683 0.704049 0
M  V30 49369 N 2520.59 3.66233 1.39775 0
M  V30 49370 C 2520.45 2.66526 0.431739 0
M  V30 49371 C 2520.32 1.26394 0.575992 0
M  V30 49372 N 2520.2 0.62859 -0.67177 0
M  V30 49373 C 2520.2 1.27134 -1.89385 0
M  V30 49374 N 2520.07 0.492035 -2.96951 0
M  V30 49375 N 2520.33 2.58978 -2.02907 0
M  V30 49376 C 2520.45 3.22433 -0.832218 0
M  V30 49377 H 2523.42 8.65116 -0.777161 0
M  V30 49378 H 2523.7 6.90173 -0.474152 0
M  V30 49379 H 2522.83 7.66548 -2.79458 0
M  V30 49380 P 2518.87 8.03563 -3.84925 0
M  V30 49381 O 2518.65 8.85821 -5.0569 0
M  V30 49382 O 2518.08 8.41101 -2.65469 0
M  V30 49383 O 2518.62 6.4965 -4.18908 0
M  V30 49384 C 2519.56 5.81037 -5.05421 0
M  V30 49385 C 2518.83 4.78366 -5.89277 0
M  V30 49386 O 2518.62 3.58302 -5.08433 0
M  V30 49387 C 2517.43 5.17448 -6.36119 0
M  V30 49388 O 2517.04 4.45271 -7.53232 0
M  V30 49389 C 2516.55 4.74639 -5.19936 0
M  V30 49390 C 2517.26 3.49432 -4.70418 0
M  V30 49391 N 2517.21 3.32099 -3.22613 0
M  V30 49392 H 2520.04 6.54213 -5.71376 0
M  V30 49393 H 2520.32 5.30936 -4.43503 0
M  V30 49394 H 2519.45 4.55889 -6.76652 0
M  V30 49395 H 2516.79 2.61715 -5.17932 0
M  V30 49396 H 2516.51 5.52155 -4.41878 0
M  V30 49397 H 2515.52 4.51981 -5.53374 0
M  V30 49398 H 2517.36 6.25124 -6.55234 0
M  V30 49399 P 2515.49 4.23843 -7.83734 0
M  V30 49400 O 2515.27 4.19407 -9.29784 0
M  V30 49401 O 2514.7 5.24426 -7.09156 0
M  V30 49402 O 2515.24 2.7935 -7.20758 0
M  V30 49403 C 2516.18 1.7299 -7.50419 0
M  V30 49404 C 2515.45 0.406376 -7.57911 0
M  V30 49405 O 2515.24 -0.0897726 -6.21935 0
M  V30 49406 C 2514.05 0.447224 -8.1878 0
M  V30 49407 O 2513.66 -0.825065 -8.71101 0
M  V30 49408 C 2513.17 0.783801 -6.99623 0
M  V30 49409 C 2513.88 0.0619192 -5.85967 0
M  V30 49410 N 2513.83 0.790462 -4.56202 0
M  V30 49411 H 2516.66 1.93423 -8.4679 0
M  V30 49412 H 2516.94 1.68852 -6.70877 0
M  V30 49413 H 2516.07 -0.289041 -8.15388 0
M  V30 49414 H 2513.41 -0.927006 -5.72848 0
M  V30 49415 H 2513.13 1.86973 -6.82036 0
M  V30 49416 H 2512.14 0.403953 -7.13357 0
M  V30 49417 H 2513.98 1.20599 -8.97534 0
M  V30 49418 P 2512.11 -1.17771 -8.83182 0
M  V30 49419 O 2511.89 -2.07206 -9.98732 0
M  V30 49420 O 2511.32 0.0743816 -8.81969 0
M  V30 49421 O 2511.86 -1.97652 -7.47304 0
M  V30 49422 C 2512.8 -3.01133 -7.08783 0
M  V30 49423 C 2512.07 -4.12613 -6.37049 0
M  V30 49424 O 2511.86 -3.72827 -4.97879 0
M  V30 49425 C 2510.67 -4.45085 -6.88694 0
M  V30 49426 O 2510.28 -5.7877 -6.5624 0
M  V30 49427 C 2509.79 -3.47817 -6.12078 0
M  V30 49428 C 2510.5 -3.39414 -4.77697 0
M  V30 49429 N 2510.45 -2.04199 -4.15538 0
M  V30 49430 H 2513.28 -3.41248 -7.98759 0
M  V30 49431 H 2513.56 -2.57728 -6.42 0
M  V30 49432 H 2512.69 -5.02657 -6.42673 0
M  V30 49433 H 2510.03 -4.11708 -4.08956 0
M  V30 49434 H 2509.75 -2.49626 -6.61679 0
M  V30 49435 H 2508.76 -3.8662 -6.00862 0
M  V30 49436 H 2510.6 -4.29991 -7.97006 0
M  V30 49437 P 2508.73 -6.144 -6.45285 0
M  V30 49438 O 2508.51 -7.54673 -6.86199 0
M  V30 49439 O 2507.94 -5.12391 -7.179 0
M  V30 49440 O 2508.48 -5.99236 -4.88467 0
M  V30 49441 C 2509.42 -6.60234 -3.96415 0
M  V30 49442 C 2508.69 -7.08079 -2.736 0
M  V30 49443 O 2508.48 -5.94365 -1.8368 0
M  V30 49444 C 2507.29 -7.64886 -2.9555 0
M  V30 49445 O 2506.9 -8.5406 -1.90739 0
M  V30 49446 C 2506.41 -6.4116 -2.90739 0
M  V30 49447 C 2507.12 -5.55375 -1.86963 0
M  V30 49448 N 2507.07 -4.09664 -2.15742 0
M  V30 49449 C 2506.92 -3.22231 -1.08477 0
M  V30 49450 O 2506.83 -3.68951 0.0600489 0
M  V30 49451 N 2506.87 -1.76692 -1.48799 0
M  V30 49452 C 2506.97 -1.41695 -2.57602 0
M  V30 49453 N 2506.92 -0.107296 -2.75791 0
M  V30 49454 C 2507.12 -2.29178 -3.69733 0
M  V30 49455 C 2507.17 -3.62753 -3.42653 0
M  V30 49456 H 2509.91 -7.45488 -4.45578 0
M  V30 49457 H 2510.18 -5.86232 -3.67314 0
M  V30 49458 H 2509.31 -7.84508 -2.24507 0
M  V30 49459 H 2506.65 -5.73556 -0.888715 0
M  V30 49460 H 2506.37 -5.9096 -3.88638 0
M  V30 49461 H 2505.38 -6.66053 -2.58894 0
M  V30 49462 H 2507.22 -8.16339 -3.92049 0
M  V30 49463 H 2507.29 -4.33052 -4.24913 0
M  V30 49464 H 2507.19 -1.9103 -4.71577 0
M  V30 49465 H 2506.8 0.521221 -1.95056 0
M  V30 49466 H 2506.99 0.286429 -3.70695 0
M  V30 49467 P 2505.35 -8.7635 -1.60911 0
M  V30 49468 O 2505.13 -10.1388 -1.11561 0
M  V30 49469 O 2504.56 -8.36503 -2.79617 0
M  V30 49470 O 2505.1 -7.71806 -0.42951 0
M  V30 49471 C 2506.04 -7.67148 0.673689 0
M  V30 49472 C 2505.31 -7.33374 1.95559 0
M  V30 49473 O 2505.1 -5.88721 2.00726 0
M  V30 49474 C 2503.91 -7.92526 2.10483 0
M  V30 49475 O 2503.52 -8.02971 3.47653 0
M  V30 49476 C 2503.03 -6.89602 1.41652 0
M  V30 49477 C 2503.74 -5.59201 1.75185 0
M  V30 49478 N 2503.69 -4.58301 0.657969 0
M  V30 49479 H 2506.52 -8.65116 0.777161 0
M  V30 49480 H 2506.8 -6.9022 0.46725 0
M  V30 49481 H 2505.93 -7.66548 2.79458 0
M  V30 49482 H 2503.27 -5.16165 2.65183 0
M  V30 49483 H 2502.99 -7.06433 0.329384 0
M  V30 49484 H 2502 -6.90926 1.82021 0
M  V30 49485 H 2503.84 -8.90873 1.62657 0
M  V30 49486 P 2501.97 -8.03563 3.84925 0
M  V30 49487 O 2501.75 -8.85821 5.0569 0
M  V30 49488 O 2501.18 -8.41101 2.65469 0
M  V30 49489 O 2501.72 -6.4965 4.18908 0
M  V30 49490 C 2502.66 -5.81037 5.05421 0
M  V30 49491 C 2501.93 -4.78366 5.89277 0
M  V30 49492 O 2501.72 -3.58302 5.08433 0
M  V30 49493 C 2500.53 -5.17448 6.36119 0
M  V30 49494 O 2500.14 -4.45271 7.53232 0
M  V30 49495 C 2499.65 -4.74639 5.19936 0
M  V30 49496 C 2500.36 -3.49432 4.70418 0
M  V30 49497 N 2500.31 -3.32099 3.22613 0
M  V30 49498 C 2500.39 -4.28245 2.25527 0
M  V30 49499 N 2500.32 -3.80823 1.04874 0
M  V30 49500 C 2500.17 -2.44571 1.23535 0
M  V30 49501 C 2500.04 -1.37068 0.330675 0
M  V30 49502 N 2500.03 -1.51472 -0.990824 0
M  V30 49503 N 2499.92 -0.138614 0.848756 0
M  V30 49504 C 2499.93 0.00675923 2.16999 0
M  V30 49505 N 2500.05 -0.904372 3.11122 0
M  V30 49506 C 2500.17 -2.12707 2.56212 0
M  V30 49507 H 2503.14 -6.54213 5.71376 0
M  V30 49508 H 2503.42 -5.30936 4.43503 0
M  V30 49509 H 2502.55 -4.55889 6.76652 0
M  V30 49510 H 2499.89 -2.61715 5.17932 0
M  V30 49511 H 2499.61 -5.52155 4.41878 0
M  V30 49512 H 2498.62 -4.51981 5.53374 0
M  V30 49513 H 2500.46 -6.25124 6.55234 0
M  V30 49514 H 2500.5 -5.34372 2.47488 0
M  V30 49515 H 2500.12 -2.45153 -1.4078 0
M  V30 49516 H 2499.93 -0.688422 -1.59911 0
M  V30 49517 H 2499.82 1.02584 2.52346 0
M  V30 49518 P 2498.59 -4.23843 7.83734 0
M  V30 49519 O 2498.37 -4.19407 9.29784 0
M  V30 49520 O 2497.8 -5.24426 7.09156 0
M  V30 49521 O 2498.34 -2.7935 7.20758 0
M  V30 49522 C 2499.28 -1.7299 7.50419 0
M  V30 49523 C 2498.55 -0.406376 7.57911 0
M  V30 49524 O 2498.34 0.0897726 6.21935 0
M  V30 49525 C 2497.15 -0.447224 8.1878 0
M  V30 49526 O 2496.76 0.825065 8.71101 0
M  V30 49527 C 2496.27 -0.783801 6.99623 0
M  V30 49528 C 2496.98 -0.0619192 5.85967 0
M  V30 49529 N 2496.93 -0.790462 4.56202 0
M  V30 49530 H 2499.76 -1.93423 8.4679 0
M  V30 49531 H 2500.04 -1.68852 6.70877 0
M  V30 49532 H 2499.17 0.289041 8.15388 0
M  V30 49533 H 2496.51 0.927006 5.72848 0
M  V30 49534 H 2496.23 -1.86973 6.82036 0
M  V30 49535 H 2495.24 -0.403953 7.13357 0
M  V30 49536 H 2497.08 -1.20599 8.97534 0
M  V30 49537 P 2495.21 1.17771 8.83182 0
M  V30 49538 O 2494.99 2.07206 9.98732 0
M  V30 49539 O 2494.42 -0.0743816 8.81969 0
M  V30 49540 O 2494.96 1.97652 7.47304 0
M  V30 49541 C 2495.9 3.01133 7.08783 0
M  V30 49542 C 2495.17 4.12613 6.37049 0
M  V30 49543 O 2494.96 3.72827 4.97879 0
M  V30 49544 C 2493.77 4.45085 6.88694 0
M  V30 49545 O 2493.38 5.7877 6.5624 0
M  V30 49546 C 2492.89 3.47817 6.12078 0
M  V30 49547 C 2493.6 3.39414 4.77697 0
M  V30 49548 N 2493.55 2.04615 4.15333 0
M  V30 49549 H 2496.38 3.41248 7.98759 0
M  V30 49550 H 2496.66 2.5837 6.41742 0
M  V30 49551 H 2495.79 5.02657 6.42673 0
M  V30 49552 P 2491.83 6.144 6.45285 0
M  V30 49553 O 2491.61 7.54673 6.86199 0
M  V30 49554 O 2491.04 5.12391 7.179 0
M  V30 49555 O 2491.58 5.99158 4.88404 0
M  V30 49556 C 2492.52 6.60062 3.96313 0
M  V30 49557 C 2491.79 7.08259 2.72856 0
M  V30 49558 O 2491.58 5.9427 1.83651 0
M  V30 49559 C 2490.39 7.65087 2.94749 0
M  V30 49560 O 2490 8.53963 1.90717 0
M  V30 49561 C 2489.51 6.41069 2.90698 0
M  V30 49562 C 2490.22 5.5528 1.86931 0
M  V30 49563 N 2490.17 4.09575 2.15696 0
M  V30 49564 C 2490.02 3.24249 1.08435 0
M  V30 49565 O 2489.93 3.63946 -0.0628747 0
M  V30 49566 N 2489.98 1.90009 1.39973 0
M  V30 49567 C 2490.07 1.34884 2.65614 0
M  V30 49568 O 2490.02 0.123716 2.81728 0
M  V30 49569 C 2490.22 2.3145 3.71736 0
M  V30 49570 C 2490.33 1.75913 5.10438 0
M  V30 49571 C 2490.27 3.63518 3.44754 0
M  V30 49572 H 2493.01 7.45402 4.45526 0
M  V30 49573 H 2493.28 5.86062 3.67208 0
M  V30 49574 H 2492.41 7.84412 2.24479 0
M  V30 49575 H 2489.75 5.73358 0.888409 0
M  V30 49576 H 2489.47 5.90877 3.88583 0
M  V30 49577 H 2488.48 6.65867 2.58821 0
M  V30 49578 H 2490.32 8.16248 3.92006 0
M  V30 49579 H 2490.39 4.34551 4.26383 0
M  V30 49580 H 2489.36 1.85471 5.61775 0
M  V30 49581 H 2491.09 2.31364 5.66257 0
M  V30 49582 H 2490.61 0.695936 5.05229 0
M  V30 49583 H 2489.87 1.26277 0.63625 0
M  V30 49584 P 2488.45 8.7635 1.60911 0
M  V30 49585 O 2488.23 10.1388 1.11561 0
M  V30 49586 O 2487.66 8.36503 2.79617 0
M  V30 49587 O 2488.2 7.71806 0.42951 0
M  V30 49588 C 2489.14 7.67148 -0.673689 0
M  V30 49589 C 2488.41 7.33374 -1.95559 0
M  V30 49590 O 2488.2 5.88721 -2.00726 0
M  V30 49591 C 2487.01 7.92526 -2.10483 0
M  V30 49592 O 2486.62 8.02971 -3.47653 0
M  V30 49593 C 2486.13 6.89602 -1.41652 0
M  V30 49594 C 2486.84 5.59201 -1.75185 0
M  V30 49595 N 2486.79 4.58235 -0.662552 0
M  V30 49596 H 2489.62 8.65116 -0.777161 0
M  V30 49597 H 2489.9 6.90173 -0.474152 0
M  V30 49598 H 2489.03 7.66548 -2.79458 0
M  V30 49599 P 2485.07 8.03563 -3.84925 0
M  V30 49600 O 2484.85 8.85821 -5.0569 0
M  V30 49601 O 2484.28 8.41101 -2.65469 0
M  V30 49602 O 2484.82 6.49734 -4.18962 0
M  V30 49603 C 2485.76 5.81037 -5.05421 0
M  V30 49604 C 2485.03 4.79018 -5.88876 0
M  V30 49605 O 2484.82 3.58359 -5.08515 0
M  V30 49606 C 2483.63 5.17448 -6.36119 0
M  V30 49607 O 2483.24 4.45322 -7.53318 0
M  V30 49608 C 2482.75 4.74639 -5.19936 0
M  V30 49609 C 2483.46 3.49432 -4.70418 0
M  V30 49610 N 2483.41 3.31776 -3.22945 0
M  V30 49611 C 2483.26 2.02742 -2.72939 0
M  V30 49612 O 2483.17 1.08301 -3.52749 0
M  V30 49613 N 2483.21 1.96117 -1.22063 0
M  V30 49614 C 2483.31 2.8878 -0.551566 0
M  V30 49615 N 2483.26 2.65609 0.750198 0
M  V30 49616 C 2483.46 4.22457 -1.03707 0
M  V30 49617 C 2483.51 4.37979 -2.39113 0
M  V30 49618 H 2486.25 6.54138 -5.7131 0
M  V30 49619 H 2486.52 5.30492 -4.44033 0
M  V30 49620 H 2485.65 4.55945 -6.76735 0
M  V30 49621 H 2482.99 2.6176 -5.18021 0
M  V30 49622 H 2482.71 5.52233 -4.41941 0
M  V30 49623 H 2481.72 4.52045 -5.53452 0
M  V30 49624 H 2483.56 6.25124 -6.55234 0
M  V30 49625 H 2483.63 5.37936 -2.80552 0
M  V30 49626 H 2483.53 5.07528 -0.359553 0
M  V30 49627 H 2483.14 1.69403 1.09847 0
M  V30 49628 H 2483.33 3.43701 1.41792 0
M  V30 49629 P 2481.69 4.23843 -7.83734 0
M  V30 49630 O 2481.47 4.19407 -9.29784 0
M  V30 49631 O 2480.9 5.24426 -7.09156 0
M  V30 49632 O 2481.44 2.7935 -7.20758 0
M  V30 49633 C 2482.38 1.7299 -7.50419 0
M  V30 49634 C 2481.65 0.406376 -7.57911 0
M  V30 49635 O 2481.44 -0.0897726 -6.21935 0
M  V30 49636 C 2480.25 0.447224 -8.1878 0
M  V30 49637 O 2479.86 -0.825065 -8.71101 0
M  V30 49638 C 2479.37 0.783801 -6.99623 0
M  V30 49639 C 2480.08 0.0619192 -5.85967 0
M  V30 49640 N 2480.03 0.7859 -4.56281 0
M  V30 49641 H 2482.86 1.93423 -8.4679 0
M  V30 49642 H 2483.14 1.68181 -6.71046 0
M  V30 49643 H 2482.27 -0.289041 -8.15388 0
M  V30 49644 P 2478.31 -1.17771 -8.83182 0
M  V30 49645 O 2478.09 -2.07206 -9.98732 0
M  V30 49646 O 2477.52 0.0743816 -8.81969 0
M  V30 49647 O 2478.06 -1.97652 -7.47304 0
M  V30 49648 C 2479 -3.01133 -7.08783 0
M  V30 49649 C 2478.27 -4.12613 -6.37049 0
M  V30 49650 O 2478.06 -3.72827 -4.97879 0
M  V30 49651 C 2476.87 -4.45085 -6.88694 0
M  V30 49652 O 2476.48 -5.7877 -6.5624 0
M  V30 49653 C 2475.99 -3.47817 -6.12078 0
M  V30 49654 C 2476.7 -3.39414 -4.77697 0
M  V30 49655 N 2476.65 -2.04615 -4.15333 0
M  V30 49656 H 2479.48 -3.41248 -7.98759 0
M  V30 49657 H 2479.76 -2.5837 -6.41742 0
M  V30 49658 H 2478.89 -5.02657 -6.42673 0
M  V30 49659 P 2474.93 -6.144 -6.45285 0
M  V30 49660 O 2474.71 -7.54673 -6.86199 0
M  V30 49661 O 2474.14 -5.12391 -7.179 0
M  V30 49662 O 2474.68 -5.99158 -4.88404 0
M  V30 49663 C 2475.62 -6.60234 -3.96415 0
M  V30 49664 C 2474.89 -7.08259 -2.72856 0
M  V30 49665 O 2474.68 -5.9427 -1.83651 0
M  V30 49666 C 2473.49 -7.64886 -2.9555 0
M  V30 49667 O 2473.1 -8.53963 -1.90717 0
M  V30 49668 C 2472.61 -6.4116 -2.90739 0
M  V30 49669 C 2473.32 -5.55375 -1.86963 0
M  V30 49670 N 2473.27 -4.09448 -2.16152 0
M  V30 49671 H 2476.1 -7.45574 -4.45629 0
M  V30 49672 H 2476.38 -5.85864 -3.679 0
M  V30 49673 H 2475.51 -7.84412 -2.24479 0
M  V30 49674 H 2472.85 -5.73457 -0.888562 0
M  V30 49675 H 2472.57 -5.90877 -3.88583 0
M  V30 49676 H 2471.58 -6.6596 -2.58858 0
M  V30 49677 H 2473.42 -8.16339 -3.92049 0
M  V30 49678 P 2471.55 -8.7635 -1.60911 0
M  V30 49679 O 2471.33 -10.1388 -1.11561 0
M  V30 49680 O 2470.76 -8.36503 -2.79617 0
M  V30 49681 O 2471.3 -7.71806 -0.42951 0
M  V30 49682 C 2472.24 -7.67148 0.673689 0
M  V30 49683 C 2471.51 -7.33374 1.95559 0
M  V30 49684 O 2471.3 -5.88721 2.00726 0
M  V30 49685 C 2470.11 -7.92526 2.10483 0
M  V30 49686 O 2469.72 -8.02971 3.47653 0
M  V30 49687 C 2469.23 -6.89602 1.41652 0
M  V30 49688 C 2469.94 -5.59201 1.75185 0
M  V30 49689 N 2469.89 -4.58235 0.662552 0
M  V30 49690 H 2472.72 -8.65116 0.777161 0
M  V30 49691 H 2473 -6.90173 0.474152 0
M  V30 49692 H 2472.13 -7.66548 2.79458 0
M  V30 49693 P 2468.17 -8.03563 3.84925 0
M  V30 49694 O 2467.95 -8.85821 5.0569 0
M  V30 49695 O 2467.38 -8.41101 2.65469 0
M  V30 49696 O 2467.92 -6.4965 4.18908 0
M  V30 49697 C 2468.86 -5.80886 5.05289 0
M  V30 49698 C 2468.13 -4.78366 5.89277 0
M  V30 49699 O 2467.92 -3.58302 5.08433 0
M  V30 49700 C 2466.73 -5.16748 6.36559 0
M  V30 49701 O 2466.34 -4.45271 7.53232 0
M  V30 49702 C 2465.85 -4.74572 5.19863 0
M  V30 49703 C 2466.56 -3.49373 4.70338 0
M  V30 49704 N 2466.51 -3.31704 3.22876 0
M  V30 49705 C 2466.36 -2.03326 2.74871 0
M  V30 49706 O 2466.27 -1.06486 3.48076 0
M  V30 49707 N 2466.32 -1.91838 1.37456 0
M  V30 49708 C 2466.41 -2.94295 0.462035 0
M  V30 49709 C 2466.56 -4.25064 1.05249 0
M  V30 49710 C 2466.61 -4.40214 2.39192 0
M  V30 49711 H 2469.35 -6.54063 5.71245 0
M  V30 49712 H 2469.62 -5.30339 4.43905 0
M  V30 49713 H 2468.75 -4.55889 6.76652 0
M  V30 49714 H 2466.09 -2.6167 5.17842 0
M  V30 49715 H 2465.81 -5.52155 4.41878 0
M  V30 49716 H 2464.82 -4.51918 5.53297 0
M  V30 49717 H 2466.66 -6.25055 6.55162 0
M  V30 49718 H 2466.73 -5.39798 2.81523 0
M  V30 49719 P 2464.79 -4.23843 7.83734 0
M  V30 49720 O 2464.57 -4.19407 9.29784 0
M  V30 49721 O 2464 -5.24426 7.09156 0
M  V30 49722 O 2464.54 -2.7935 7.20758 0
M  V30 49723 C 2465.48 -1.7299 7.50419 0
M  V30 49724 C 2464.75 -0.406376 7.57911 0
M  V30 49725 O 2464.54 0.0897726 6.21935 0
M  V30 49726 C 2463.35 -0.447224 8.1878 0
M  V30 49727 O 2462.96 0.825065 8.71101 0
M  V30 49728 C 2462.47 -0.783801 6.99623 0
M  V30 49729 C 2463.18 -0.0619192 5.85967 0
M  V30 49730 N 2463.13 -0.7859 4.56281 0
M  V30 49731 H 2465.96 -1.93423 8.4679 0
M  V30 49732 H 2466.24 -1.68181 6.71046 0
M  V30 49733 H 2465.37 0.289041 8.15388 0
M  V30 49734 P 2461.41 1.17771 8.83182 0
M  V30 49735 O 2461.19 2.07206 9.98732 0
M  V30 49736 O 2460.62 -0.0743816 8.81969 0
M  V30 49737 O 2461.16 1.97652 7.47304 0
M  V30 49738 C 2462.1 3.01133 7.08783 0
M  V30 49739 C 2461.37 4.12613 6.37049 0
M  V30 49740 O 2461.16 3.72827 4.97879 0
M  V30 49741 C 2459.97 4.45085 6.88694 0
M  V30 49742 O 2459.58 5.7877 6.5624 0
M  V30 49743 C 2459.09 3.47817 6.12078 0
M  V30 49744 C 2459.8 3.39414 4.77697 0
M  V30 49745 N 2459.75 2.04199 4.15538 0
M  V30 49746 H 2462.58 3.41248 7.98759 0
M  V30 49747 H 2462.86 2.57728 6.42 0
M  V30 49748 H 2461.99 5.02657 6.42673 0
M  V30 49749 H 2459.33 4.11708 4.08956 0
M  V30 49750 H 2459.05 2.49626 6.61679 0
M  V30 49751 H 2458.06 3.8662 6.00862 0
M  V30 49752 H 2459.9 4.29991 7.97006 0
M  V30 49753 P 2458.03 6.144 6.45285 0
M  V30 49754 O 2457.81 7.54673 6.86199 0
M  V30 49755 O 2457.24 5.12391 7.179 0
M  V30 49756 O 2457.78 5.99158 4.88404 0
M  V30 49757 C 2458.72 6.60234 3.96415 0
M  V30 49758 C 2457.99 7.08259 2.72856 0
M  V30 49759 O 2457.78 5.9427 1.83651 0
M  V30 49760 C 2456.59 7.64886 2.9555 0
M  V30 49761 O 2456.2 8.53963 1.90717 0
M  V30 49762 C 2455.71 6.4116 2.90739 0
M  V30 49763 C 2456.42 5.55375 1.86963 0
M  V30 49764 N 2456.37 4.09664 2.15742 0
M  V30 49765 H 2459.2 7.45574 4.45629 0
M  V30 49766 H 2459.48 5.86232 3.67314 0
M  V30 49767 H 2458.61 7.84412 2.24479 0
M  V30 49768 P 2454.65 8.7635 1.60911 0
M  V30 49769 O 2454.43 10.1388 1.11561 0
M  V30 49770 O 2453.86 8.36503 2.79617 0
M  V30 49771 O 2454.4 7.71806 0.42951 0
M  V30 49772 C 2455.34 7.67148 -0.673689 0
M  V30 49773 C 2454.61 7.33374 -1.95559 0
M  V30 49774 O 2454.4 5.88721 -2.00726 0
M  V30 49775 C 2453.21 7.92526 -2.10483 0
M  V30 49776 O 2452.82 8.02971 -3.47653 0
M  V30 49777 C 2452.33 6.89602 -1.41652 0
M  V30 49778 C 2453.04 5.59201 -1.75185 0
M  V30 49779 N 2452.99 4.58235 -0.662552 0
M  V30 49780 H 2455.82 8.65116 -0.777161 0
M  V30 49781 H 2456.1 6.90173 -0.474152 0
M  V30 49782 H 2455.23 7.66548 -2.79458 0
M  V30 49783 P 2451.27 8.03563 -3.84925 0
M  V30 49784 O 2451.05 8.85821 -5.0569 0
M  V30 49785 O 2450.48 8.41101 -2.65469 0
M  V30 49786 O 2451.02 6.4965 -4.18908 0
M  V30 49787 C 2451.96 5.81037 -5.05421 0
M  V30 49788 C 2451.23 4.78366 -5.89277 0
M  V30 49789 O 2451.02 3.58302 -5.08433 0
M  V30 49790 C 2449.83 5.17448 -6.36119 0
M  V30 49791 O 2449.44 4.45271 -7.53232 0
M  V30 49792 C 2448.95 4.74639 -5.19936 0
M  V30 49793 C 2449.66 3.49432 -4.70418 0
M  V30 49794 N 2449.61 3.32099 -3.22613 0
M  V30 49795 H 2452.44 6.54213 -5.71376 0
M  V30 49796 H 2452.72 5.30936 -4.43503 0
M  V30 49797 H 2451.85 4.55889 -6.76652 0
M  V30 49798 H 2449.19 2.61715 -5.17932 0
M  V30 49799 H 2448.91 5.52155 -4.41878 0
M  V30 49800 H 2447.92 4.51981 -5.53374 0
M  V30 49801 H 2449.76 6.25124 -6.55234 0
M  V30 49802 P 2447.89 4.23843 -7.83734 0
M  V30 49803 O 2447.67 4.19407 -9.29784 0
M  V30 49804 O 2447.1 5.24426 -7.09156 0
M  V30 49805 O 2447.64 2.7935 -7.20758 0
M  V30 49806 C 2448.58 1.7299 -7.50419 0
M  V30 49807 C 2447.85 0.406376 -7.57911 0
M  V30 49808 O 2447.64 -0.0897726 -6.21935 0
M  V30 49809 C 2446.45 0.447224 -8.1878 0
M  V30 49810 O 2446.06 -0.825065 -8.71101 0
M  V30 49811 C 2445.57 0.783801 -6.99623 0
M  V30 49812 C 2446.28 0.0619192 -5.85967 0
M  V30 49813 N 2446.23 0.790462 -4.56202 0
M  V30 49814 H 2449.06 1.93423 -8.4679 0
M  V30 49815 H 2449.34 1.68852 -6.70877 0
M  V30 49816 H 2448.47 -0.289041 -8.15388 0
M  V30 49817 H 2445.81 -0.927006 -5.72848 0
M  V30 49818 H 2445.53 1.86973 -6.82036 0
M  V30 49819 H 2444.54 0.403953 -7.13357 0
M  V30 49820 H 2446.38 1.20599 -8.97534 0
M  V30 49821 P 2444.51 -1.17771 -8.83182 0
M  V30 49822 O 2444.29 -2.07206 -9.98732 0
M  V30 49823 O 2443.72 0.0743816 -8.81969 0
M  V30 49824 O 2444.26 -1.97652 -7.47304 0
M  V30 49825 C 2445.2 -3.01133 -7.08783 0
M  V30 49826 C 2444.47 -4.12613 -6.37049 0
M  V30 49827 O 2444.26 -3.72827 -4.97879 0
M  V30 49828 C 2443.07 -4.45085 -6.88694 0
M  V30 49829 O 2442.68 -5.7877 -6.5624 0
M  V30 49830 C 2442.19 -3.47817 -6.12078 0
M  V30 49831 C 2442.9 -3.39414 -4.77697 0
M  V30 49832 N 2442.85 -2.04199 -4.15538 0
M  V30 49833 H 2445.68 -3.41248 -7.98759 0
M  V30 49834 H 2445.96 -2.57728 -6.42 0
M  V30 49835 H 2445.09 -5.02657 -6.42673 0
M  V30 49836 H 2442.43 -4.11708 -4.08956 0
M  V30 49837 H 2442.15 -2.49626 -6.61679 0
M  V30 49838 H 2441.16 -3.8662 -6.00862 0
M  V30 49839 H 2443 -4.29991 -7.97006 0
M  V30 49840 P 2441.13 -6.144 -6.45285 0
M  V30 49841 O 2440.91 -7.54673 -6.86199 0
M  V30 49842 O 2440.34 -5.12391 -7.179 0
M  V30 49843 O 2440.88 -5.99158 -4.88404 0
M  V30 49844 C 2441.82 -6.60234 -3.96415 0
M  V30 49845 C 2441.09 -7.08259 -2.72856 0
M  V30 49846 O 2440.88 -5.9427 -1.83651 0
M  V30 49847 C 2439.69 -7.64886 -2.9555 0
M  V30 49848 O 2439.3 -8.53963 -1.90717 0
M  V30 49849 C 2438.81 -6.4116 -2.90739 0
M  V30 49850 C 2439.52 -5.55375 -1.86963 0
M  V30 49851 N 2439.47 -4.09448 -2.16152 0
M  V30 49852 H 2442.3 -7.45574 -4.45629 0
M  V30 49853 H 2442.58 -5.85864 -3.679 0
M  V30 49854 H 2441.71 -7.84412 -2.24479 0
M  V30 49855 H 2439.05 -5.73457 -0.888562 0
M  V30 49856 H 2438.77 -5.90877 -3.88583 0
M  V30 49857 H 2437.78 -6.6596 -2.58858 0
M  V30 49858 H 2439.62 -8.16339 -3.92049 0
M  V30 49859 P 2437.75 -8.7635 -1.60911 0
M  V30 49860 O 2437.53 -10.1388 -1.11561 0
M  V30 49861 O 2436.96 -8.36503 -2.79617 0
M  V30 49862 O 2437.5 -7.71906 -0.429565 0
M  V30 49863 C 2438.44 -7.67148 0.673689 0
M  V30 49864 C 2437.71 -7.33666 1.94851 0
M  V30 49865 O 2437.5 -5.88816 2.00759 0
M  V30 49866 C 2436.31 -7.92526 2.10483 0
M  V30 49867 O 2435.92 -8.03063 3.47693 0
M  V30 49868 C 2435.43 -6.89602 1.41652 0
M  V30 49869 C 2436.14 -5.59201 1.75185 0
M  V30 49870 N 2436.09 -4.58235 0.662552 0
M  V30 49871 C 2435.94 -3.24451 1.01643 0
M  V30 49872 O 2435.85 -2.94958 2.21722 0
M  V30 49873 N 2435.89 -2.30408 -0.165238 0
M  V30 49874 C 2435.99 -2.66048 -1.25118 0
M  V30 49875 N 2435.94 -1.70787 -2.16813 0
M  V30 49876 C 2436.14 -4.02732 -1.64413 0
M  V30 49877 C 2436.19 -4.9488 -0.63991 0
M  V30 49878 H 2438.93 -8.65017 0.777072 0
M  V30 49879 H 2439.2 -6.90173 0.474152 0
M  V30 49880 H 2438.33 -7.66642 2.79492 0
M  V30 49881 H 2435.67 -5.16254 2.65229 0
M  V30 49882 H 2435.39 -7.06532 0.329431 0
M  V30 49883 H 2434.4 -6.91023 1.82047 0
M  V30 49884 H 2436.24 -8.90873 1.62657 0
M  V30 49885 H 2436.31 -6.00104 -0.892197 0
M  V30 49886 H 2436.21 -4.31733 -2.69229 0
M  V30 49887 H 2435.82 -0.724835 -1.8844 0
M  V30 49888 H 2436.01 -1.94716 -3.16734 0
M  V30 49889 P 2434.37 -8.03563 3.84925 0
M  V30 49890 O 2434.15 -8.85821 5.0569 0
M  V30 49891 O 2433.58 -8.41101 2.65469 0
M  V30 49892 O 2434.12 -6.4965 4.18908 0
M  V30 49893 C 2435.06 -5.81037 5.05421 0
M  V30 49894 C 2434.33 -4.78366 5.89277 0
M  V30 49895 O 2434.12 -3.58302 5.08433 0
M  V30 49896 C 2432.93 -5.17448 6.36119 0
M  V30 49897 O 2432.54 -4.45271 7.53232 0
M  V30 49898 C 2432.05 -4.74639 5.19936 0
M  V30 49899 C 2432.76 -3.49432 4.70418 0
M  V30 49900 N 2432.71 -3.31776 3.22945 0
M  V30 49901 H 2435.54 -6.54213 5.71376 0
M  V30 49902 H 2435.82 -5.30492 4.44033 0
M  V30 49903 H 2434.95 -4.55889 6.76652 0
M  V30 49904 P 2430.99 -4.23843 7.83734 0
M  V30 49905 O 2430.77 -4.19407 9.29784 0
M  V30 49906 O 2430.2 -5.24426 7.09156 0
M  V30 49907 O 2430.74 -2.7935 7.20758 0
M  V30 49908 C 2431.68 -1.7299 7.50419 0
M  V30 49909 C 2430.95 -0.406376 7.57911 0
M  V30 49910 O 2430.74 0.0897726 6.21935 0
M  V30 49911 C 2429.55 -0.447224 8.1878 0
M  V30 49912 O 2429.16 0.825065 8.71101 0
M  V30 49913 C 2428.67 -0.783801 6.99623 0
M  V30 49914 C 2429.38 -0.0619192 5.85967 0
M  V30 49915 N 2429.33 -0.7859 4.56281 0
M  V30 49916 H 2432.16 -1.93423 8.4679 0
M  V30 49917 H 2432.44 -1.68181 6.71046 0
M  V30 49918 H 2431.57 0.289041 8.15388 0
M  V30 49919 P 2427.61 1.17771 8.83182 0
M  V30 49920 O 2427.39 2.07206 9.98732 0
M  V30 49921 O 2426.82 -0.0743816 8.81969 0
M  V30 49922 O 2427.36 1.97652 7.47304 0
M  V30 49923 C 2428.3 3.01133 7.08783 0
M  V30 49924 C 2427.57 4.12613 6.37049 0
M  V30 49925 O 2427.36 3.72827 4.97879 0
M  V30 49926 C 2426.17 4.45085 6.88694 0
M  V30 49927 O 2425.78 5.7877 6.5624 0
M  V30 49928 C 2425.29 3.47817 6.12078 0
M  V30 49929 C 2426 3.39414 4.77697 0
M  V30 49930 N 2425.95 2.04615 4.15333 0
M  V30 49931 H 2428.78 3.41248 7.98759 0
M  V30 49932 H 2429.06 2.5837 6.41742 0
M  V30 49933 H 2428.19 5.02657 6.42673 0
M  V30 49934 P 2424.23 6.144 6.45285 0
M  V30 49935 O 2424.01 7.54673 6.86199 0
M  V30 49936 O 2423.44 5.12391 7.179 0
M  V30 49937 O 2423.98 5.99158 4.88404 0
M  V30 49938 C 2424.92 6.60234 3.96415 0
M  V30 49939 C 2424.19 7.08259 2.72856 0
M  V30 49940 O 2423.98 5.9427 1.83651 0
M  V30 49941 C 2422.79 7.64886 2.9555 0
M  V30 49942 O 2422.4 8.53963 1.90717 0
M  V30 49943 C 2421.91 6.4116 2.90739 0
M  V30 49944 C 2422.62 5.55375 1.86963 0
M  V30 49945 N 2422.57 4.09448 2.16152 0
M  V30 49946 H 2425.4 7.45574 4.45629 0
M  V30 49947 H 2425.68 5.85864 3.679 0
M  V30 49948 H 2424.81 7.84412 2.24479 0
M  V30 49949 H 2422.15 5.73457 0.888562 0
M  V30 49950 H 2421.87 5.90877 3.88583 0
M  V30 49951 H 2420.88 6.6596 2.58858 0
M  V30 49952 H 2422.72 8.16339 3.92049 0
M  V30 49953 P 2420.85 8.7635 1.60911 0
M  V30 49954 O 2420.63 10.1388 1.11561 0
M  V30 49955 O 2420.06 8.36503 2.79617 0
M  V30 49956 O 2420.6 7.71806 0.42951 0
M  V30 49957 C 2421.54 7.67148 -0.673689 0
M  V30 49958 C 2420.81 7.33374 -1.95559 0
M  V30 49959 O 2420.6 5.88721 -2.00726 0
M  V30 49960 C 2419.41 7.92526 -2.10483 0
M  V30 49961 O 2419.02 8.02971 -3.47653 0
M  V30 49962 C 2418.53 6.89602 -1.41652 0
M  V30 49963 C 2419.24 5.59201 -1.75185 0
M  V30 49964 N 2419.19 4.58301 -0.657969 0
M  V30 49965 H 2422.02 8.65116 -0.777161 0
M  V30 49966 H 2422.3 6.9022 -0.46725 0
M  V30 49967 H 2421.43 7.66548 -2.79458 0
M  V30 49968 H 2418.77 5.16165 -2.65183 0
M  V30 49969 H 2418.49 7.06433 -0.329384 0
M  V30 49970 H 2417.5 6.90926 -1.82021 0
M  V30 49971 H 2419.34 8.90873 -1.62657 0
M  V30 49972 P 2417.47 8.03563 -3.84925 0
M  V30 49973 O 2417.25 8.85821 -5.0569 0
M  V30 49974 O 2416.68 8.41101 -2.65469 0
M  V30 49975 O 2417.22 6.4965 -4.18908 0
M  V30 49976 C 2418.16 5.81037 -5.05421 0
M  V30 49977 C 2417.43 4.78366 -5.89277 0
M  V30 49978 O 2417.22 3.58302 -5.08433 0
M  V30 49979 C 2416.03 5.17448 -6.36119 0
M  V30 49980 O 2415.64 4.45271 -7.53232 0
M  V30 49981 C 2415.15 4.74639 -5.19936 0
M  V30 49982 C 2415.86 3.49432 -4.70418 0
M  V30 49983 N 2415.81 3.31776 -3.22945 0
M  V30 49984 H 2418.64 6.54213 -5.71376 0
M  V30 49985 H 2418.92 5.30492 -4.44033 0
M  V30 49986 H 2418.05 4.55889 -6.76652 0
M  V30 49987 P 2414.09 4.23843 -7.83734 0
M  V30 49988 O 2413.87 4.19407 -9.29784 0
M  V30 49989 O 2413.3 5.24426 -7.09156 0
M  V30 49990 O 2413.84 2.7935 -7.20758 0
M  V30 49991 C 2414.78 1.7299 -7.50419 0
M  V30 49992 C 2414.05 0.406376 -7.57911 0
M  V30 49993 O 2413.84 -0.0897726 -6.21935 0
M  V30 49994 C 2412.65 0.447224 -8.1878 0
M  V30 49995 O 2412.26 -0.825065 -8.71101 0
M  V30 49996 C 2411.77 0.783801 -6.99623 0
M  V30 49997 C 2412.48 0.0619192 -5.85967 0
M  V30 49998 N 2412.43 0.790462 -4.56202 0
M  V30 49999 H 2415.26 1.93423 -8.4679 0
M  V30 50000 H 2415.54 1.68852 -6.70877 0
M  V30 50001 H 2414.67 -0.289041 -8.15388 0
M  V30 50002 H 2412.01 -0.927006 -5.72848 0
M  V30 50003 H 2411.73 1.86973 -6.82036 0
M  V30 50004 H 2410.74 0.403953 -7.13357 0
M  V30 50005 H 2412.58 1.20599 -8.97534 0
M  V30 50006 P 2410.71 -1.17771 -8.83182 0
M  V30 50007 O 2410.49 -2.07206 -9.98732 0
M  V30 50008 O 2409.92 0.0743816 -8.81969 0
M  V30 50009 O 2410.46 -1.97652 -7.47304 0
M  V30 50010 C 2411.4 -3.01133 -7.08783 0
M  V30 50011 C 2410.67 -4.12613 -6.37049 0
M  V30 50012 O 2410.46 -3.72827 -4.97879 0
M  V30 50013 C 2409.27 -4.45085 -6.88694 0
M  V30 50014 O 2408.88 -5.7877 -6.5624 0
M  V30 50015 C 2408.39 -3.47817 -6.12078 0
M  V30 50016 C 2409.1 -3.39414 -4.77697 0
M  V30 50017 N 2409.05 -2.04615 -4.15333 0
M  V30 50018 H 2411.88 -3.41248 -7.98759 0
M  V30 50019 H 2412.16 -2.5837 -6.41742 0
M  V30 50020 H 2411.29 -5.02657 -6.42673 0
M  V30 50021 P 2407.33 -6.144 -6.45285 0
M  V30 50022 O 2407.11 -7.54673 -6.86199 0
M  V30 50023 O 2406.54 -5.12391 -7.179 0
M  V30 50024 O 2407.08 -5.99158 -4.88404 0
M  V30 50025 C 2408.02 -6.60234 -3.96415 0
M  V30 50026 C 2407.29 -7.08259 -2.72856 0
M  V30 50027 O 2407.08 -5.9427 -1.83651 0
M  V30 50028 C 2405.89 -7.64886 -2.9555 0
M  V30 50029 O 2405.5 -8.53963 -1.90717 0
M  V30 50030 C 2405.01 -6.4116 -2.90739 0
M  V30 50031 C 2405.72 -5.55375 -1.86963 0
M  V30 50032 N 2405.67 -4.09664 -2.15742 0
M  V30 50033 H 2408.5 -7.45574 -4.45629 0
M  V30 50034 H 2408.78 -5.86232 -3.67314 0
M  V30 50035 H 2407.91 -7.84412 -2.24479 0
M  V30 50036 P 2403.95 -8.7635 -1.60911 0
M  V30 50037 O 2403.73 -10.1388 -1.11561 0
M  V30 50038 O 2403.16 -8.36503 -2.79617 0
M  V30 50039 O 2403.7 -7.71806 -0.42951 0
M  V30 50040 C 2404.64 -7.67148 0.673689 0
M  V30 50041 C 2403.91 -7.33374 1.95559 0
M  V30 50042 O 2403.7 -5.88721 2.00726 0
M  V30 50043 C 2402.51 -7.92526 2.10483 0
M  V30 50044 O 2402.12 -8.02971 3.47653 0
M  V30 50045 C 2401.63 -6.89602 1.41652 0
M  V30 50046 C 2402.34 -5.59201 1.75185 0
M  V30 50047 N 2402.29 -4.58235 0.662552 0
M  V30 50048 H 2405.12 -8.65116 0.777161 0
M  V30 50049 H 2405.4 -6.90173 0.474152 0
M  V30 50050 H 2404.53 -7.66548 2.79458 0
M  V30 50051 P 2400.57 -8.03563 3.84925 0
M  V30 50052 O 2400.35 -8.85821 5.0569 0
M  V30 50053 O 2399.78 -8.41101 2.65469 0
M  V30 50054 O 2400.32 -6.4965 4.18908 0
M  V30 50055 C 2401.26 -5.81037 5.05421 0
M  V30 50056 C 2400.53 -4.78366 5.89277 0
M  V30 50057 O 2400.32 -3.58302 5.08433 0
M  V30 50058 C 2399.13 -5.17448 6.36119 0
M  V30 50059 O 2398.74 -4.45271 7.53232 0
M  V30 50060 C 2398.25 -4.74639 5.19936 0
M  V30 50061 C 2398.96 -3.49432 4.70418 0
M  V30 50062 N 2398.91 -3.31776 3.22945 0
M  V30 50063 H 2401.74 -6.54213 5.71376 0
M  V30 50064 H 2402.02 -5.30492 4.44033 0
M  V30 50065 H 2401.15 -4.55889 6.76652 0
M  V30 50066 P 2397.19 -4.23843 7.83734 0
M  V30 50067 O 2396.97 -4.19407 9.29784 0
M  V30 50068 O 2396.4 -5.24426 7.09156 0
M  V30 50069 O 2396.94 -2.7935 7.20758 0
M  V30 50070 C 2397.88 -1.7299 7.50419 0
M  V30 50071 C 2397.15 -0.406376 7.57911 0
M  V30 50072 O 2396.94 0.0897726 6.21935 0
M  V30 50073 C 2395.75 -0.447224 8.1878 0
M  V30 50074 O 2395.36 0.825065 8.71101 0
M  V30 50075 C 2394.87 -0.783801 6.99623 0
M  V30 50076 C 2395.58 -0.0619192 5.85967 0
M  V30 50077 N 2395.53 -0.7859 4.56281 0
M  V30 50078 H 2398.36 -1.93423 8.4679 0
M  V30 50079 H 2398.64 -1.68181 6.71046 0
M  V30 50080 H 2397.77 0.289041 8.15388 0
M  V30 50081 P 2393.81 1.17771 8.83182 0
M  V30 50082 O 2393.59 2.07206 9.98732 0
M  V30 50083 O 2393.02 -0.0743816 8.81969 0
M  V30 50084 O 2393.56 1.97652 7.47304 0
M  V30 50085 C 2394.5 3.01133 7.08783 0
M  V30 50086 C 2393.77 4.12613 6.37049 0
M  V30 50087 O 2393.56 3.72827 4.97879 0
M  V30 50088 C 2392.37 4.45085 6.88694 0
M  V30 50089 O 2391.98 5.7877 6.5624 0
M  V30 50090 C 2391.49 3.47817 6.12078 0
M  V30 50091 C 2392.2 3.39414 4.77697 0
M  V30 50092 N 2392.15 2.04615 4.15333 0
M  V30 50093 H 2394.98 3.41248 7.98759 0
M  V30 50094 H 2395.26 2.5837 6.41742 0
M  V30 50095 H 2394.39 5.02657 6.42673 0
M  V30 50096 P 2390.43 6.144 6.45285 0
M  V30 50097 O 2390.21 7.54673 6.86199 0
M  V30 50098 O 2389.64 5.12391 7.179 0
M  V30 50099 O 2390.18 5.99158 4.88404 0
M  V30 50100 C 2391.12 6.60234 3.96415 0
M  V30 50101 C 2390.39 7.08259 2.72856 0
M  V30 50102 O 2390.18 5.9427 1.83651 0
M  V30 50103 C 2388.99 7.64886 2.9555 0
M  V30 50104 O 2388.6 8.53963 1.90717 0
M  V30 50105 C 2388.11 6.4116 2.90739 0
M  V30 50106 C 2388.82 5.55375 1.86963 0
M  V30 50107 N 2388.77 4.09448 2.16152 0
M  V30 50108 H 2391.6 7.45574 4.45629 0
M  V30 50109 H 2391.88 5.85864 3.679 0
M  V30 50110 H 2391.01 7.84412 2.24479 0
M  V30 50111 H 2388.35 5.73457 0.888562 0
M  V30 50112 H 2388.07 5.90877 3.88583 0
M  V30 50113 H 2387.08 6.6596 2.58858 0
M  V30 50114 H 2388.92 8.16339 3.92049 0
M  V30 50115 P 2387.05 8.7635 1.60911 0
M  V30 50116 O 2386.83 10.1388 1.11561 0
M  V30 50117 O 2386.26 8.36503 2.79617 0
M  V30 50118 O 2386.8 7.71806 0.42951 0
M  V30 50119 C 2387.74 7.67148 -0.673689 0
M  V30 50120 C 2387.01 7.33374 -1.95559 0
M  V30 50121 O 2386.8 5.88721 -2.00726 0
M  V30 50122 C 2385.61 7.92526 -2.10483 0
M  V30 50123 O 2385.22 8.02971 -3.47653 0
M  V30 50124 C 2384.73 6.89602 -1.41652 0
M  V30 50125 C 2385.44 5.59201 -1.75185 0
M  V30 50126 N 2385.39 4.58301 -0.657969 0
M  V30 50127 H 2388.22 8.65116 -0.777161 0
M  V30 50128 H 2388.5 6.9022 -0.46725 0
M  V30 50129 H 2387.63 7.66548 -2.79458 0
M  V30 50130 H 2384.97 5.16165 -2.65183 0
M  V30 50131 H 2384.69 7.06433 -0.329384 0
M  V30 50132 H 2383.7 6.90926 -1.82021 0
M  V30 50133 H 2385.54 8.90873 -1.62657 0
M  V30 50134 P 2383.67 8.03563 -3.84925 0
M  V30 50135 O 2383.45 8.85821 -5.0569 0
M  V30 50136 O 2382.88 8.41101 -2.65469 0
M  V30 50137 O 2383.42 6.4965 -4.18908 0
M  V30 50138 C 2384.36 5.81037 -5.05421 0
M  V30 50139 C 2383.63 4.78366 -5.89277 0
M  V30 50140 O 2383.42 3.58302 -5.08433 0
M  V30 50141 C 2382.23 5.17448 -6.36119 0
M  V30 50142 O 2381.84 4.45271 -7.53232 0
M  V30 50143 C 2381.35 4.74639 -5.19936 0
M  V30 50144 C 2382.06 3.49432 -4.70418 0
M  V30 50145 N 2382.01 3.31776 -3.22945 0
M  V30 50146 H 2384.84 6.54213 -5.71376 0
M  V30 50147 H 2385.12 5.30492 -4.44033 0
M  V30 50148 H 2384.25 4.55889 -6.76652 0
M  V30 50149 P 2380.29 4.23843 -7.83734 0
M  V30 50150 O 2380.07 4.19407 -9.29784 0
M  V30 50151 O 2379.5 5.24426 -7.09156 0
M  V30 50152 O 2380.04 2.7935 -7.20758 0
M  V30 50153 C 2380.98 1.7299 -7.50419 0
M  V30 50154 C 2380.25 0.406376 -7.57911 0
M  V30 50155 O 2380.04 -0.0897726 -6.21935 0
M  V30 50156 C 2378.85 0.447224 -8.1878 0
M  V30 50157 O 2378.46 -0.825065 -8.71101 0
M  V30 50158 C 2377.97 0.783801 -6.99623 0
M  V30 50159 C 2378.68 0.0619192 -5.85967 0
M  V30 50160 N 2378.63 0.7859 -4.56281 0
M  V30 50161 H 2381.46 1.93423 -8.4679 0
M  V30 50162 H 2381.74 1.68181 -6.71046 0
M  V30 50163 H 2380.87 -0.289041 -8.15388 0
M  V30 50164 P 2376.91 -1.17771 -8.83182 0
M  V30 50165 O 2376.69 -2.07206 -9.98732 0
M  V30 50166 O 2376.12 0.0743816 -8.81969 0
M  V30 50167 O 2376.66 -1.97652 -7.47304 0
M  V30 50168 C 2377.6 -3.01133 -7.08783 0
M  V30 50169 C 2376.87 -4.12613 -6.37049 0
M  V30 50170 O 2376.66 -3.72827 -4.97879 0
M  V30 50171 C 2375.47 -4.45085 -6.88694 0
M  V30 50172 O 2375.08 -5.7877 -6.5624 0
M  V30 50173 C 2374.59 -3.47817 -6.12078 0
M  V30 50174 C 2375.3 -3.39414 -4.77697 0
M  V30 50175 N 2375.25 -2.04615 -4.15333 0
M  V30 50176 H 2378.08 -3.41248 -7.98759 0
M  V30 50177 H 2378.36 -2.5837 -6.41742 0
M  V30 50178 H 2377.49 -5.02657 -6.42673 0
M  V30 50179 P 2373.53 -6.144 -6.45285 0
M  V30 50180 O 2373.31 -7.54673 -6.86199 0
M  V30 50181 O 2372.74 -5.12391 -7.179 0
M  V30 50182 O 2373.28 -5.99158 -4.88404 0
M  V30 50183 C 2374.22 -6.60234 -3.96415 0
M  V30 50184 C 2373.49 -7.08259 -2.72856 0
M  V30 50185 O 2373.28 -5.9427 -1.83651 0
M  V30 50186 C 2372.09 -7.64886 -2.9555 0
M  V30 50187 O 2371.7 -8.53963 -1.90717 0
M  V30 50188 C 2371.21 -6.4116 -2.90739 0
M  V30 50189 C 2371.92 -5.55375 -1.86963 0
M  V30 50190 N 2371.87 -4.09448 -2.16152 0
M  V30 50191 H 2374.7 -7.45574 -4.45629 0
M  V30 50192 H 2374.98 -5.85864 -3.679 0
M  V30 50193 H 2374.11 -7.84412 -2.24479 0
M  V30 50194 H 2371.45 -5.73457 -0.888562 0
M  V30 50195 H 2371.17 -5.90877 -3.88583 0
M  V30 50196 H 2370.18 -6.6596 -2.58858 0
M  V30 50197 H 2372.02 -8.16339 -3.92049 0
M  V30 50198 P 2370.15 -8.7635 -1.60911 0
M  V30 50199 O 2369.93 -10.1388 -1.11561 0
M  V30 50200 O 2369.36 -8.36503 -2.79617 0
M  V30 50201 O 2369.9 -7.71806 -0.42951 0
M  V30 50202 C 2370.84 -7.67148 0.673689 0
M  V30 50203 C 2370.11 -7.33374 1.95559 0
M  V30 50204 O 2369.9 -5.88721 2.00726 0
M  V30 50205 C 2368.71 -7.92526 2.10483 0
M  V30 50206 O 2368.32 -8.02971 3.47653 0
M  V30 50207 C 2367.83 -6.89602 1.41652 0
M  V30 50208 C 2368.54 -5.59201 1.75185 0
M  V30 50209 N 2368.49 -4.58301 0.657969 0
M  V30 50210 H 2371.32 -8.65116 0.777161 0
M  V30 50211 H 2371.6 -6.9022 0.46725 0
M  V30 50212 H 2370.73 -7.66548 2.79458 0
M  V30 50213 H 2368.07 -5.16165 2.65183 0
M  V30 50214 H 2367.79 -7.06433 0.329384 0
M  V30 50215 H 2366.8 -6.90926 1.82021 0
M  V30 50216 H 2368.64 -8.90873 1.62657 0
M  V30 50217 P 2366.77 -8.03563 3.84925 0
M  V30 50218 O 2366.55 -8.85821 5.0569 0
M  V30 50219 O 2365.98 -8.41101 2.65469 0
M  V30 50220 O 2366.52 -6.4965 4.18908 0
M  V30 50221 C 2367.46 -5.81037 5.05421 0
M  V30 50222 C 2366.73 -4.78366 5.89277 0
M  V30 50223 O 2366.52 -3.58302 5.08433 0
M  V30 50224 C 2365.33 -5.17448 6.36119 0
M  V30 50225 O 2364.94 -4.45271 7.53232 0
M  V30 50226 C 2364.45 -4.74639 5.19936 0
M  V30 50227 C 2365.16 -3.49432 4.70418 0
M  V30 50228 N 2365.11 -3.32099 3.22613 0
M  V30 50229 H 2367.95 -6.54213 5.71376 0
M  V30 50230 H 2368.22 -5.30936 4.43503 0
M  V30 50231 H 2367.35 -4.55889 6.76652 0
M  V30 50232 H 2364.69 -2.61715 5.17932 0
M  V30 50233 H 2364.41 -5.52155 4.41878 0
M  V30 50234 H 2363.42 -4.51981 5.53374 0
M  V30 50235 H 2365.26 -6.25124 6.55234 0
M  V30 50236 P 2363.39 -4.23843 7.83734 0
M  V30 50237 O 2363.17 -4.19407 9.29784 0
M  V30 50238 O 2362.6 -5.24426 7.09156 0
M  V30 50239 O 2363.14 -2.7935 7.20758 0
M  V30 50240 C 2364.08 -1.72945 7.50224 0
M  V30 50241 C 2363.35 -0.406376 7.57911 0
M  V30 50242 O 2363.14 0.0897726 6.21935 0
M  V30 50243 C 2361.95 -0.438983 8.18724 0
M  V30 50244 O 2361.56 0.825065 8.71101 0
M  V30 50245 C 2361.07 -0.783689 6.99524 0
M  V30 50246 C 2361.78 -0.0619086 5.85867 0
M  V30 50247 N 2361.73 -0.78573 4.56183 0
M  V30 50248 C 2361.58 -0.0292889 3.41887 0
M  V30 50249 O 2361.49 1.18445 3.4419 0
M  V30 50250 N 2361.54 -0.744061 2.23964 0
M  V30 50251 C 2361.63 -2.10932 2.10362 0
M  V30 50252 O 2361.58 -2.64117 0.98825 0
M  V30 50253 C 2361.78 -2.8202 3.34994 0
M  V30 50254 C 2361.89 -4.31095 3.25037 0
M  V30 50255 C 2361.83 -2.15547 4.52261 0
M  V30 50256 H 2364.57 -1.93379 8.46595 0
M  V30 50257 H 2364.84 -1.68132 6.70852 0
M  V30 50258 H 2363.97 0.289041 8.15388 0
M  V30 50259 H 2361.31 0.926847 5.72749 0
M  V30 50260 H 2361.04 -1.86973 6.82036 0
M  V30 50261 H 2360.04 -0.403896 7.13257 0
M  V30 50262 H 2361.88 -1.20585 8.97435 0
M  V30 50263 H 2361.95 -2.71231 5.45042 0
M  V30 50264 H 2360.92 -4.76966 3.49992 0
M  V30 50265 H 2362.66 -4.67047 3.95024 0
M  V30 50266 H 2362.17 -4.58996 2.22312 0
M  V30 50267 H 2361.43 -0.214893 1.39758 0
M  V30 50268 P 2360.01 1.17771 8.83182 0
M  V30 50269 O 2359.79 2.07206 9.98732 0
M  V30 50270 O 2359.22 -0.0743816 8.81969 0
M  V30 50271 O 2359.76 1.97652 7.47304 0
M  V30 50272 C 2360.7 3.01133 7.08783 0
M  V30 50273 C 2359.97 4.12613 6.37049 0
M  V30 50274 O 2359.76 3.72827 4.97879 0
M  V30 50275 C 2358.57 4.45085 6.88694 0
M  V30 50276 O 2358.18 5.7877 6.5624 0
M  V30 50277 C 2357.69 3.47817 6.12078 0
M  V30 50278 C 2358.4 3.39414 4.77697 0
M  V30 50279 N 2358.35 2.04615 4.15333 0
M  V30 50280 H 2361.19 3.41248 7.98759 0
M  V30 50281 H 2361.46 2.5837 6.41742 0
M  V30 50282 H 2360.59 5.02657 6.42673 0
M  V30 50283 P 2356.63 6.144 6.45285 0
M  V30 50284 O 2356.41 7.54673 6.86199 0
M  V30 50285 O 2355.84 5.12391 7.179 0
M  V30 50286 O 2356.38 5.99158 4.88404 0
M  V30 50287 C 2357.32 6.60234 3.96415 0
M  V30 50288 C 2356.59 7.08259 2.72856 0
M  V30 50289 O 2356.38 5.9427 1.83651 0
M  V30 50290 C 2355.19 7.64886 2.9555 0
M  V30 50291 O 2354.8 8.53963 1.90717 0
M  V30 50292 C 2354.31 6.4116 2.90739 0
M  V30 50293 C 2355.02 5.55375 1.86963 0
M  V30 50294 N 2354.97 4.09448 2.16152 0
M  V30 50295 H 2357.81 7.45574 4.45629 0
M  V30 50296 H 2358.08 5.85864 3.679 0
M  V30 50297 H 2357.21 7.84412 2.24479 0
M  V30 50298 H 2354.55 5.73457 0.888562 0
M  V30 50299 H 2354.27 5.90877 3.88583 0
M  V30 50300 H 2353.28 6.6596 2.58858 0
M  V30 50301 H 2355.12 8.16339 3.92049 0
M  V30 50302 P 2353.25 8.7635 1.60911 0
M  V30 50303 O 2353.03 10.1388 1.11561 0
M  V30 50304 O 2352.46 8.36503 2.79617 0
M  V30 50305 O 2353 7.71806 0.42951 0
M  V30 50306 C 2353.94 7.67148 -0.673689 0
M  V30 50307 C 2353.21 7.33374 -1.95559 0
M  V30 50308 O 2353 5.88721 -2.00726 0
M  V30 50309 C 2351.81 7.92526 -2.10483 0
M  V30 50310 O 2351.42 8.02971 -3.47653 0
M  V30 50311 C 2350.93 6.89602 -1.41652 0
M  V30 50312 C 2351.64 5.59201 -1.75185 0
M  V30 50313 N 2351.59 4.58235 -0.662552 0
M  V30 50314 H 2354.43 8.65116 -0.777161 0
M  V30 50315 H 2354.7 6.90173 -0.474152 0
M  V30 50316 H 2353.83 7.66548 -2.79458 0
M  V30 50317 P 2349.87 8.03563 -3.84925 0
M  V30 50318 O 2349.65 8.85821 -5.0569 0
M  V30 50319 O 2349.08 8.41101 -2.65469 0
M  V30 50320 O 2349.62 6.4965 -4.18908 0
M  V30 50321 C 2350.56 5.80886 -5.05289 0
M  V30 50322 C 2349.83 4.78366 -5.89277 0
M  V30 50323 O 2349.62 3.58302 -5.08433 0
M  V30 50324 C 2348.43 5.16748 -6.36559 0
M  V30 50325 O 2348.04 4.45271 -7.53232 0
M  V30 50326 C 2347.55 4.74572 -5.19863 0
M  V30 50327 C 2348.26 3.49373 -4.70338 0
M  V30 50328 N 2348.21 3.31704 -3.22876 0
M  V30 50329 C 2348.06 2.03326 -2.74871 0
M  V30 50330 O 2347.97 1.06486 -3.48076 0
M  V30 50331 N 2348.02 1.91838 -1.37456 0
M  V30 50332 C 2348.11 2.94295 -0.462035 0
M  V30 50333 O 2348.06 2.71763 0.752928 0
M  V30 50334 C 2348.26 4.25064 -1.05249 0
M  V30 50335 C 2348.37 5.39815 -0.095697 0
M  V30 50336 C 2348.31 4.40214 -2.39192 0
M  V30 50337 H 2351.05 6.54063 -5.71245 0
M  V30 50338 H 2351.32 5.30339 -4.43905 0
M  V30 50339 H 2350.45 4.55889 -6.76652 0
M  V30 50340 H 2347.79 2.6167 -5.17842 0
M  V30 50341 H 2347.52 5.52155 -4.41878 0
M  V30 50342 H 2346.52 4.51918 -5.53297 0
M  V30 50343 H 2348.36 6.25055 -6.55162 0
M  V30 50344 H 2348.43 5.39798 -2.81523 0
M  V30 50345 H 2347.4 5.91593 -0.0279582 0
M  V30 50346 H 2349.14 6.10038 -0.450573 0
M  V30 50347 H 2348.65 5.02007 0.89937 0
M  V30 50348 H 2347.91 0.995326 -1.00435 0
M  V30 50349 P 2346.49 4.23843 -7.83734 0
M  V30 50350 O 2346.27 4.19407 -9.29784 0
M  V30 50351 O 2345.7 5.24426 -7.09156 0
M  V30 50352 O 2346.24 2.7935 -7.20758 0
M  V30 50353 C 2347.18 1.7299 -7.50419 0
M  V30 50354 C 2346.45 0.406376 -7.57911 0
M  V30 50355 O 2346.24 -0.0897726 -6.21935 0
M  V30 50356 C 2345.05 0.447224 -8.1878 0
M  V30 50357 O 2344.66 -0.825065 -8.71101 0
M  V30 50358 C 2344.17 0.783801 -6.99623 0
M  V30 50359 C 2344.88 0.0619192 -5.85967 0
M  V30 50360 N 2344.83 0.7859 -4.56281 0
M  V30 50361 H 2347.67 1.93423 -8.4679 0
M  V30 50362 H 2347.94 1.68181 -6.71046 0
M  V30 50363 H 2347.07 -0.289041 -8.15388 0
M  V30 50364 P 2343.11 -1.17771 -8.83182 0
M  V30 50365 O 2342.89 -2.07206 -9.98732 0
M  V30 50366 O 2342.32 0.0743816 -8.81969 0
M  V30 50367 O 2342.86 -1.97652 -7.47304 0
M  V30 50368 C 2343.8 -3.01133 -7.08783 0
M  V30 50369 C 2343.07 -4.12613 -6.37049 0
M  V30 50370 O 2342.86 -3.72827 -4.97879 0
M  V30 50371 C 2341.67 -4.45085 -6.88694 0
M  V30 50372 O 2341.28 -5.7877 -6.5624 0
M  V30 50373 C 2340.79 -3.47817 -6.12078 0
M  V30 50374 C 2341.5 -3.39414 -4.77697 0
M  V30 50375 N 2341.45 -2.04615 -4.15333 0
M  V30 50376 H 2344.29 -3.41248 -7.98759 0
M  V30 50377 H 2344.56 -2.5837 -6.41742 0
M  V30 50378 H 2343.69 -5.02657 -6.42673 0
M  V30 50379 P 2339.73 -6.144 -6.45285 0
M  V30 50380 O 2339.51 -7.54673 -6.86199 0
M  V30 50381 O 2338.94 -5.12391 -7.179 0
M  V30 50382 O 2339.48 -5.99158 -4.88404 0
M  V30 50383 C 2340.42 -6.60234 -3.96415 0
M  V30 50384 C 2339.69 -7.08259 -2.72856 0
M  V30 50385 O 2339.48 -5.9427 -1.83651 0
M  V30 50386 C 2338.29 -7.64886 -2.9555 0
M  V30 50387 O 2337.9 -8.53963 -1.90717 0
M  V30 50388 C 2337.41 -6.4116 -2.90739 0
M  V30 50389 C 2338.12 -5.55375 -1.86963 0
M  V30 50390 N 2338.07 -4.09664 -2.15742 0
M  V30 50391 H 2340.91 -7.45574 -4.45629 0
M  V30 50392 H 2341.18 -5.86232 -3.67314 0
M  V30 50393 H 2340.31 -7.84412 -2.24479 0
M  V30 50394 P 2336.35 -8.7635 -1.60911 0
M  V30 50395 O 2336.13 -10.1388 -1.11561 0
M  V30 50396 O 2335.56 -8.36503 -2.79617 0
M  V30 50397 O 2336.1 -7.71806 -0.42951 0
M  V30 50398 C 2337.04 -7.67148 0.673689 0
M  V30 50399 C 2336.31 -7.33374 1.95559 0
M  V30 50400 O 2336.1 -5.88721 2.00726 0
M  V30 50401 C 2334.91 -7.92526 2.10483 0
M  V30 50402 O 2334.52 -8.02971 3.47653 0
M  V30 50403 C 2334.03 -6.89602 1.41652 0
M  V30 50404 C 2334.74 -5.59201 1.75185 0
M  V30 50405 N 2334.69 -4.58235 0.662552 0
M  V30 50406 C 2334.77 -4.7683 -0.704049 0
M  V30 50407 N 2334.69 -3.66233 -1.39775 0
M  V30 50408 C 2334.55 -2.66526 -0.431739 0
M  V30 50409 C 2334.42 -1.26394 -0.575992 0
M  V30 50410 O 2334.4 -0.589894 -1.60503 0
M  V30 50411 N 2334.3 -0.62859 0.67177 0
M  V30 50412 C 2334.3 -1.27134 1.89385 0
M  V30 50413 N 2334.17 -0.492035 2.96951 0
M  V30 50414 N 2334.43 -2.58978 2.02907 0
M  V30 50415 C 2334.55 -3.22433 0.832218 0
M  V30 50416 H 2337.53 -8.65116 0.777161 0
M  V30 50417 H 2337.8 -6.90173 0.474152 0
M  V30 50418 H 2336.93 -7.66548 2.79458 0
M  V30 50419 H 2334.27 -5.16254 2.65229 0
M  V30 50420 H 2333.99 -7.06532 0.329431 0
M  V30 50421 H 2333 -6.91023 1.82047 0
M  V30 50422 H 2334.84 -8.90971 1.62675 0
M  V30 50423 H 2334.89 -5.74954 -1.16305 0
M  V30 50424 H 2334.2 0.366713 0.674793 0
M  V30 50425 H 2334.17 -0.908532 3.91188 0
M  V30 50426 H 2334.07 0.528253 2.85758 0
M  V30 50427 P 2332.97 -8.03563 3.84925 0
M  V30 50428 O 2332.75 -8.85821 5.0569 0
M  V30 50429 O 2332.18 -8.41101 2.65469 0
M  V30 50430 O 2332.72 -6.4965 4.18908 0
M  V30 50431 C 2333.66 -5.80886 5.05289 0
M  V30 50432 C 2332.93 -4.78366 5.89277 0
M  V30 50433 O 2332.72 -3.58302 5.08433 0
M  V30 50434 C 2331.53 -5.16748 6.36559 0
M  V30 50435 O 2331.14 -4.45271 7.53232 0
M  V30 50436 C 2330.65 -4.74572 5.19863 0
M  V30 50437 C 2331.36 -3.49373 4.70338 0
M  V30 50438 N 2331.31 -3.31704 3.22876 0
M  V30 50439 C 2331.16 -2.03326 2.74871 0
M  V30 50440 O 2331.07 -1.06486 3.48076 0
M  V30 50441 N 2331.12 -1.91838 1.37456 0
M  V30 50442 C 2331.21 -2.94295 0.462035 0
M  V30 50443 C 2331.36 -4.25064 1.05249 0
M  V30 50444 C 2331.41 -4.40214 2.39192 0
M  V30 50445 H 2334.15 -6.54063 5.71245 0
M  V30 50446 H 2334.42 -5.30339 4.43905 0
M  V30 50447 H 2333.55 -4.55889 6.76652 0
M  V30 50448 H 2330.89 -2.6167 5.17842 0
M  V30 50449 H 2330.62 -5.52155 4.41878 0
M  V30 50450 H 2329.62 -4.51918 5.53297 0
M  V30 50451 H 2331.46 -6.25055 6.55162 0
M  V30 50452 H 2331.53 -5.39798 2.81523 0
M  V30 50453 P 2329.59 -4.23843 7.83734 0
M  V30 50454 O 2329.37 -4.19407 9.29784 0
M  V30 50455 O 2328.8 -5.24426 7.09156 0
M  V30 50456 O 2329.34 -2.7935 7.20758 0
M  V30 50457 C 2330.28 -1.72945 7.50224 0
M  V30 50458 C 2329.55 -0.406376 7.57911 0
M  V30 50459 O 2329.34 0.0897726 6.21935 0
M  V30 50460 C 2328.15 -0.438983 8.18724 0
M  V30 50461 O 2327.76 0.825065 8.71101 0
M  V30 50462 C 2327.27 -0.783689 6.99524 0
M  V30 50463 C 2327.98 -0.0619086 5.85867 0
M  V30 50464 N 2327.93 -0.78573 4.56183 0
M  V30 50465 C 2327.78 -0.0292889 3.41887 0
M  V30 50466 O 2327.69 1.18445 3.4419 0
M  V30 50467 N 2327.74 -0.744061 2.23964 0
M  V30 50468 C 2327.83 -2.10932 2.10362 0
M  V30 50469 C 2327.98 -2.8202 3.34994 0
M  V30 50470 C 2328.03 -2.15547 4.52261 0
M  V30 50471 H 2330.77 -1.93379 8.46595 0
M  V30 50472 H 2331.04 -1.68132 6.70852 0
M  V30 50473 H 2330.17 0.289041 8.15388 0
M  V30 50474 H 2327.51 0.926847 5.72749 0
M  V30 50475 H 2327.24 -1.86973 6.82036 0
M  V30 50476 H 2326.24 -0.403896 7.13257 0
M  V30 50477 H 2328.08 -1.20585 8.97435 0
M  V30 50478 H 2328.15 -2.71231 5.45042 0
M  V30 50479 P 2326.21 1.17771 8.83182 0
M  V30 50480 O 2325.99 2.07206 9.98732 0
M  V30 50481 O 2325.42 -0.0743816 8.81969 0
M  V30 50482 O 2325.96 1.97652 7.47304 0
M  V30 50483 C 2326.9 3.01133 7.08783 0
M  V30 50484 C 2326.17 4.12613 6.37049 0
M  V30 50485 O 2325.96 3.72827 4.97879 0
M  V30 50486 C 2324.77 4.45085 6.88694 0
M  V30 50487 O 2324.38 5.7877 6.5624 0
M  V30 50488 C 2323.89 3.47817 6.12078 0
M  V30 50489 C 2324.6 3.39414 4.77697 0
M  V30 50490 N 2324.55 2.04615 4.15333 0
M  V30 50491 H 2327.39 3.41248 7.98759 0
M  V30 50492 H 2327.66 2.5837 6.41742 0
M  V30 50493 H 2326.79 5.02657 6.42673 0
M  V30 50494 P 2322.83 6.144 6.45285 0
M  V30 50495 O 2322.61 7.54673 6.86199 0
M  V30 50496 O 2322.04 5.12391 7.179 0
M  V30 50497 O 2322.58 5.99158 4.88404 0
M  V30 50498 C 2323.52 6.60234 3.96415 0
M  V30 50499 C 2322.79 7.08259 2.72856 0
M  V30 50500 O 2322.58 5.9427 1.83651 0
M  V30 50501 C 2321.39 7.64886 2.9555 0
M  V30 50502 O 2321 8.53963 1.90717 0
M  V30 50503 C 2320.51 6.4116 2.90739 0
M  V30 50504 C 2321.22 5.55375 1.86963 0
M  V30 50505 N 2321.17 4.09664 2.15742 0
M  V30 50506 H 2324.01 7.45574 4.45629 0
M  V30 50507 H 2324.28 5.86232 3.67314 0
M  V30 50508 H 2323.41 7.84412 2.24479 0
M  V30 50509 P 2319.45 8.7635 1.60911 0
M  V30 50510 O 2319.23 10.1388 1.11561 0
M  V30 50511 O 2318.66 8.36503 2.79617 0
M  V30 50512 O 2319.2 7.71806 0.42951 0
M  V30 50513 C 2320.14 7.67148 -0.673689 0
M  V30 50514 C 2319.41 7.33374 -1.95559 0
M  V30 50515 O 2319.2 5.88721 -2.00726 0
M  V30 50516 C 2318.01 7.92526 -2.10483 0
M  V30 50517 O 2317.62 8.02971 -3.47653 0
M  V30 50518 C 2317.13 6.89602 -1.41652 0
M  V30 50519 C 2317.84 5.59201 -1.75185 0
M  V30 50520 N 2317.79 4.58235 -0.662552 0
M  V30 50521 C 2317.87 4.7683 0.704049 0
M  V30 50522 N 2317.79 3.66233 1.39775 0
M  V30 50523 C 2317.65 2.66526 0.431739 0
M  V30 50524 C 2317.52 1.26394 0.575992 0
M  V30 50525 O 2317.5 0.589894 1.60503 0
M  V30 50526 N 2317.4 0.62859 -0.67177 0
M  V30 50527 C 2317.4 1.27134 -1.89385 0
M  V30 50528 N 2317.27 0.492035 -2.96951 0
M  V30 50529 N 2317.53 2.58978 -2.02907 0
M  V30 50530 C 2317.65 3.22433 -0.832218 0
M  V30 50531 H 2320.63 8.65116 -0.777161 0
M  V30 50532 H 2320.9 6.90173 -0.474152 0
M  V30 50533 H 2320.03 7.66548 -2.79458 0
M  V30 50534 H 2317.37 5.16254 -2.65229 0
M  V30 50535 H 2317.09 7.06532 -0.329431 0
M  V30 50536 H 2316.1 6.91023 -1.82047 0
M  V30 50537 H 2317.94 8.90971 -1.62675 0
M  V30 50538 H 2317.99 5.74954 1.16305 0
M  V30 50539 H 2317.3 -0.366713 -0.674793 0
M  V30 50540 H 2317.27 0.908532 -3.91188 0
M  V30 50541 H 2317.17 -0.528253 -2.85758 0
M  V30 50542 P 2316.07 8.03563 -3.84925 0
M  V30 50543 O 2315.85 8.85821 -5.0569 0
M  V30 50544 O 2315.28 8.41101 -2.65469 0
M  V30 50545 O 2315.82 6.4965 -4.18908 0
M  V30 50546 C 2316.76 5.80886 -5.05289 0
M  V30 50547 C 2316.03 4.78366 -5.89277 0
M  V30 50548 O 2315.82 3.58302 -5.08433 0
M  V30 50549 C 2314.63 5.16748 -6.36559 0
M  V30 50550 O 2314.24 4.45271 -7.53232 0
M  V30 50551 C 2313.75 4.74572 -5.19863 0
M  V30 50552 C 2314.46 3.49373 -4.70338 0
M  V30 50553 N 2314.41 3.31704 -3.22876 0
M  V30 50554 C 2314.26 2.03326 -2.74871 0
M  V30 50555 O 2314.17 1.06486 -3.48076 0
M  V30 50556 N 2314.22 1.91838 -1.37456 0
M  V30 50557 C 2314.31 2.94295 -0.462035 0
M  V30 50558 O 2314.26 2.71763 0.752928 0
M  V30 50559 C 2314.46 4.25064 -1.05249 0
M  V30 50560 C 2314.57 5.39815 -0.095697 0
M  V30 50561 C 2314.51 4.40214 -2.39192 0
M  V30 50562 H 2317.25 6.54063 -5.71245 0
M  V30 50563 H 2317.52 5.30339 -4.43905 0
M  V30 50564 H 2316.65 4.55889 -6.76652 0
M  V30 50565 H 2313.99 2.6167 -5.17842 0
M  V30 50566 H 2313.72 5.52155 -4.41878 0
M  V30 50567 H 2312.72 4.51918 -5.53297 0
M  V30 50568 H 2314.56 6.25055 -6.55162 0
M  V30 50569 H 2314.63 5.39798 -2.81523 0
M  V30 50570 H 2313.6 5.91593 -0.0279582 0
M  V30 50571 H 2315.34 6.10038 -0.450573 0
M  V30 50572 H 2314.85 5.02007 0.89937 0
M  V30 50573 H 2314.11 0.995326 -1.00435 0
M  V30 50574 P 2312.69 4.23843 -7.83734 0
M  V30 50575 O 2312.47 4.19407 -9.29784 0
M  V30 50576 O 2311.9 5.24426 -7.09156 0
M  V30 50577 O 2312.44 2.7935 -7.20758 0
M  V30 50578 C 2313.38 1.7299 -7.50419 0
M  V30 50579 C 2312.65 0.406376 -7.57911 0
M  V30 50580 O 2312.44 -0.0897726 -6.21935 0
M  V30 50581 C 2311.25 0.447224 -8.1878 0
M  V30 50582 O 2310.86 -0.825065 -8.71101 0
M  V30 50583 C 2310.37 0.783801 -6.99623 0
M  V30 50584 C 2311.08 0.0619192 -5.85967 0
M  V30 50585 N 2311.03 0.7859 -4.56281 0
M  V30 50586 H 2313.87 1.93423 -8.4679 0
M  V30 50587 H 2314.14 1.68181 -6.71046 0
M  V30 50588 H 2313.27 -0.289041 -8.15388 0
M  V30 50589 P 2309.31 -1.17771 -8.83182 0
M  V30 50590 O 2309.09 -2.07206 -9.98732 0
M  V30 50591 O 2308.52 0.0743816 -8.81969 0
M  V30 50592 O 2309.06 -1.97652 -7.47304 0
M  V30 50593 C 2310 -3.01133 -7.08783 0
M  V30 50594 C 2309.27 -4.12613 -6.37049 0
M  V30 50595 O 2309.06 -3.72827 -4.97879 0
M  V30 50596 C 2307.87 -4.45085 -6.88694 0
M  V30 50597 O 2307.48 -5.7877 -6.5624 0
M  V30 50598 C 2306.99 -3.47817 -6.12078 0
M  V30 50599 C 2307.7 -3.39414 -4.77697 0
M  V30 50600 N 2307.65 -2.04199 -4.15538 0
M  V30 50601 H 2310.49 -3.41248 -7.98759 0
M  V30 50602 H 2310.76 -2.57728 -6.42 0
M  V30 50603 H 2309.89 -5.02657 -6.42673 0
M  V30 50604 H 2307.23 -4.11708 -4.08956 0
M  V30 50605 H 2306.95 -2.49626 -6.61679 0
M  V30 50606 H 2305.96 -3.8662 -6.00862 0
M  V30 50607 H 2307.8 -4.29991 -7.97006 0
M  V30 50608 P 2305.93 -6.144 -6.45285 0
M  V30 50609 O 2305.71 -7.54673 -6.86199 0
M  V30 50610 O 2305.14 -5.12391 -7.179 0
M  V30 50611 O 2305.68 -5.99158 -4.88404 0
M  V30 50612 C 2306.62 -6.60234 -3.96415 0
M  V30 50613 C 2305.89 -7.08259 -2.72856 0
M  V30 50614 O 2305.68 -5.9427 -1.83651 0
M  V30 50615 C 2304.49 -7.64886 -2.9555 0
M  V30 50616 O 2304.1 -8.53963 -1.90717 0
M  V30 50617 C 2303.61 -6.4116 -2.90739 0
M  V30 50618 C 2304.32 -5.55375 -1.86963 0
M  V30 50619 N 2304.27 -4.09448 -2.16152 0
M  V30 50620 H 2307.11 -7.45574 -4.45629 0
M  V30 50621 H 2307.38 -5.85864 -3.679 0
M  V30 50622 H 2306.51 -7.84412 -2.24479 0
M  V30 50623 H 2303.85 -5.73457 -0.888562 0
M  V30 50624 H 2303.57 -5.90877 -3.88583 0
M  V30 50625 H 2302.58 -6.6596 -2.58858 0
M  V30 50626 H 2304.42 -8.16339 -3.92049 0
M  V30 50627 P 2302.55 -8.7635 -1.60911 0
M  V30 50628 O 2302.33 -10.1388 -1.11561 0
M  V30 50629 O 2301.76 -8.36503 -2.79617 0
M  V30 50630 O 2302.3 -7.71806 -0.42951 0
M  V30 50631 C 2303.24 -7.66948 0.673514 0
M  V30 50632 C 2302.51 -7.33374 1.95559 0
M  V30 50633 O 2302.3 -5.88721 2.00726 0
M  V30 50634 C 2301.11 -7.92218 2.1125 0
M  V30 50635 O 2300.72 -8.02971 3.47653 0
M  V30 50636 C 2300.23 -6.89504 1.41631 0
M  V30 50637 C 2300.94 -5.59106 1.75155 0
M  V30 50638 N 2300.89 -4.58136 0.662409 0
M  V30 50639 C 2300.74 -3.26059 1.02863 0
M  V30 50640 O 2300.65 -2.90743 2.19009 0
M  V30 50641 N 2300.7 -2.35995 -0.0155585 0
M  V30 50642 C 2300.79 -2.65248 -1.35603 0
M  V30 50643 C 2300.94 -4.05747 -1.64698 0
M  V30 50644 C 2300.99 -4.96734 -0.652411 0
M  V30 50645 H 2303.73 -8.64917 0.776982 0
M  V30 50646 H 2304 -6.89974 0.474015 0
M  V30 50647 H 2303.13 -7.66548 2.79458 0
M  V30 50648 H 2300.47 -5.16076 2.65138 0
M  V30 50649 H 2300.2 -7.06433 0.329384 0
M  V30 50650 H 2299.2 -6.90829 1.81996 0
M  V30 50651 H 2301.04 -8.90774 1.62639 0
M  V30 50652 H 2301.11 -6.02181 -0.895285 0
M  V30 50653 P 2299.17 -8.03563 3.84925 0
M  V30 50654 O 2298.95 -8.85821 5.0569 0
M  V30 50655 O 2298.38 -8.41101 2.65469 0
M  V30 50656 O 2298.92 -6.49734 4.18962 0
M  V30 50657 C 2299.86 -5.81037 5.05421 0
M  V30 50658 C 2299.13 -4.79018 5.88876 0
M  V30 50659 O 2298.92 -3.58359 5.08515 0
M  V30 50660 C 2297.73 -5.17448 6.36119 0
M  V30 50661 O 2297.34 -4.45322 7.53318 0
M  V30 50662 C 2296.85 -4.74639 5.19936 0
M  V30 50663 C 2297.56 -3.49432 4.70418 0
M  V30 50664 N 2297.51 -3.31776 3.22945 0
M  V30 50665 C 2297.36 -2.02742 2.72939 0
M  V30 50666 O 2297.27 -1.08301 3.52749 0
M  V30 50667 N 2297.31 -1.96117 1.22063 0
M  V30 50668 C 2297.41 -2.8878 0.551566 0
M  V30 50669 N 2297.36 -2.65609 -0.750198 0
M  V30 50670 C 2297.56 -4.22457 1.03707 0
M  V30 50671 C 2297.61 -4.37979 2.39113 0
M  V30 50672 H 2300.35 -6.54138 5.7131 0
M  V30 50673 H 2300.62 -5.30492 4.44033 0
M  V30 50674 H 2299.75 -4.55945 6.76735 0
M  V30 50675 H 2297.09 -2.6176 5.18021 0
M  V30 50676 H 2296.81 -5.52233 4.41941 0
M  V30 50677 H 2295.82 -4.52045 5.53452 0
M  V30 50678 H 2297.66 -6.25124 6.55234 0
M  V30 50679 H 2297.73 -5.37936 2.80552 0
M  V30 50680 H 2297.63 -5.07528 0.359553 0
M  V30 50681 H 2297.24 -1.69403 -1.09847 0
M  V30 50682 H 2297.44 -3.43701 -1.41792 0
M  V30 50683 P 2295.79 -4.23843 7.83734 0
M  V30 50684 O 2295.57 -4.19407 9.29784 0
M  V30 50685 O 2295 -5.24426 7.09156 0
M  V30 50686 O 2295.54 -2.7935 7.20758 0
M  V30 50687 C 2296.48 -1.7299 7.50419 0
M  V30 50688 C 2295.75 -0.406376 7.57911 0
M  V30 50689 O 2295.54 0.0897726 6.21935 0
M  V30 50690 C 2294.35 -0.447224 8.1878 0
M  V30 50691 O 2293.96 0.825065 8.71101 0
M  V30 50692 C 2293.47 -0.783801 6.99623 0
M  V30 50693 C 2294.18 -0.0619192 5.85967 0
M  V30 50694 N 2294.13 -0.790462 4.56202 0
M  V30 50695 H 2296.97 -1.93423 8.4679 0
M  V30 50696 H 2297.24 -1.68852 6.70877 0
M  V30 50697 H 2296.37 0.289041 8.15388 0
M  V30 50698 H 2293.71 0.927006 5.72848 0
M  V30 50699 H 2293.43 -1.86973 6.82036 0
M  V30 50700 H 2292.44 -0.403953 7.13357 0
M  V30 50701 H 2294.28 -1.20599 8.97534 0
M  V30 50702 P 2292.41 1.17771 8.83182 0
M  V30 50703 O 2292.19 2.07206 9.98732 0
M  V30 50704 O 2291.62 -0.0743816 8.81969 0
M  V30 50705 O 2292.16 1.97678 7.474 0
M  V30 50706 C 2293.1 3.01133 7.08783 0
M  V30 50707 C 2292.37 4.1203 6.37546 0
M  V30 50708 O 2292.16 3.72887 4.9796 0
M  V30 50709 C 2290.97 4.45085 6.88694 0
M  V30 50710 O 2290.58 5.78836 6.56315 0
M  V30 50711 C 2290.09 3.47817 6.12078 0
M  V30 50712 C 2290.8 3.39414 4.77697 0
M  V30 50713 N 2290.75 2.04615 4.15333 0
M  V30 50714 C 2290.6 1.96929 2.77162 0
M  V30 50715 O 2290.51 3.02017 2.12006 0
M  V30 50716 N 2290.55 0.55485 2.24237 0
M  V30 50717 C 2290.65 -0.367808 2.9169 0
M  V30 50718 N 2290.6 -1.53426 2.29427 0
M  V30 50719 C 2290.8 -0.319148 4.33828 0
M  V30 50720 C 2290.85 0.920672 4.90433 0
M  V30 50721 H 2293.59 3.41209 7.98667 0
M  V30 50722 H 2293.86 2.5837 6.41742 0
M  V30 50723 H 2292.99 5.02718 6.42752 0
M  V30 50724 H 2290.33 4.11779 4.09026 0
M  V30 50725 H 2290.05 2.49661 6.61772 0
M  V30 50726 H 2289.06 3.86674 6.00946 0
M  V30 50727 H 2290.9 4.29991 7.97006 0
M  V30 50728 H 2290.97 1.00589 5.98303 0
M  V30 50729 H 2290.87 -1.22639 4.93799 0
M  V30 50730 H 2290.48 -1.56819 1.27167 0
M  V30 50731 H 2290.68 -2.41062 2.83063 0
M  V30 50732 P 2289.03 6.144 6.45285 0
M  V30 50733 O 2288.81 7.54673 6.86199 0
M  V30 50734 O 2288.24 5.12391 7.179 0
M  V30 50735 O 2288.78 5.99236 4.88467 0
M  V30 50736 C 2289.72 6.60234 3.96415 0
M  V30 50737 C 2288.99 7.08079 2.736 0
M  V30 50738 O 2288.78 5.94365 1.8368 0
M  V30 50739 C 2287.59 7.64886 2.9555 0
M  V30 50740 O 2287.2 8.5406 1.90739 0
M  V30 50741 C 2286.71 6.4116 2.90739 0
M  V30 50742 C 2287.42 5.55375 1.86963 0
M  V30 50743 N 2287.37 4.09664 2.15742 0
M  V30 50744 C 2287.22 3.22231 1.08477 0
M  V30 50745 O 2287.13 3.68951 -0.0600489 0
M  V30 50746 N 2287.17 1.76692 1.48799 0
M  V30 50747 C 2287.27 1.41695 2.57602 0
M  V30 50748 N 2287.22 0.107296 2.75791 0
M  V30 50749 C 2287.42 2.29178 3.69733 0
M  V30 50750 C 2287.47 3.62753 3.42653 0
M  V30 50751 H 2290.21 7.45488 4.45578 0
M  V30 50752 H 2290.48 5.86232 3.67314 0
M  V30 50753 H 2289.61 7.84508 2.24507 0
M  V30 50754 H 2286.95 5.73556 0.888715 0
M  V30 50755 H 2286.67 5.9096 3.88638 0
M  V30 50756 H 2285.68 6.66053 2.58894 0
M  V30 50757 H 2287.52 8.16339 3.92049 0
M  V30 50758 H 2287.59 4.33052 4.24913 0
M  V30 50759 H 2287.49 1.9103 4.71577 0
M  V30 50760 H 2287.1 -0.521221 1.95056 0
M  V30 50761 H 2287.3 -0.286429 3.70695 0
M  V30 50762 P 2285.65 8.7635 1.60911 0
M  V30 50763 O 2285.43 10.1388 1.11561 0
M  V30 50764 O 2284.86 8.36503 2.79617 0
M  V30 50765 O 2285.4 7.71806 0.42951 0
M  V30 50766 C 2286.34 7.67148 -0.673689 0
M  V30 50767 C 2285.61 7.33374 -1.95559 0
M  V30 50768 O 2285.4 5.88721 -2.00726 0
M  V30 50769 C 2284.21 7.92526 -2.10483 0
M  V30 50770 O 2283.82 8.02971 -3.47653 0
M  V30 50771 C 2283.33 6.89602 -1.41652 0
M  V30 50772 C 2284.04 5.59201 -1.75185 0
M  V30 50773 N 2283.99 4.58235 -0.662552 0
M  V30 50774 H 2286.83 8.65116 -0.777161 0
M  V30 50775 H 2287.1 6.90173 -0.474152 0
M  V30 50776 H 2286.23 7.66548 -2.79458 0
M  V30 50777 P 2282.27 8.03563 -3.84925 0
M  V30 50778 O 2282.05 8.85821 -5.0569 0
M  V30 50779 O 2281.48 8.41101 -2.65469 0
M  V30 50780 O 2282.02 6.4965 -4.18908 0
M  V30 50781 C 2282.96 5.81037 -5.05421 0
M  V30 50782 C 2282.23 4.78366 -5.89277 0
M  V30 50783 O 2282.02 3.58302 -5.08433 0
M  V30 50784 C 2280.83 5.17448 -6.36119 0
M  V30 50785 O 2280.44 4.45271 -7.53232 0
M  V30 50786 C 2279.95 4.74639 -5.19936 0
M  V30 50787 C 2280.66 3.49432 -4.70418 0
M  V30 50788 N 2280.61 3.32099 -3.22613 0
M  V30 50789 H 2283.45 6.54213 -5.71376 0
M  V30 50790 H 2283.72 5.30936 -4.43503 0
M  V30 50791 H 2282.85 4.55889 -6.76652 0
M  V30 50792 H 2280.19 2.61715 -5.17932 0
M  V30 50793 H 2279.91 5.52155 -4.41878 0
M  V30 50794 H 2278.92 4.51981 -5.53374 0
M  V30 50795 H 2280.76 6.25124 -6.55234 0
M  V30 50796 P 2278.89 4.23843 -7.83734 0
M  V30 50797 O 2278.67 4.19407 -9.29784 0
M  V30 50798 O 2278.1 5.24426 -7.09156 0
M  V30 50799 O 2278.64 2.7935 -7.20758 0
M  V30 50800 C 2279.58 1.7299 -7.50419 0
M  V30 50801 C 2278.85 0.406376 -7.57911 0
M  V30 50802 O 2278.64 -0.0897726 -6.21935 0
M  V30 50803 C 2277.45 0.447224 -8.1878 0
M  V30 50804 O 2277.06 -0.825065 -8.71101 0
M  V30 50805 C 2276.57 0.783801 -6.99623 0
M  V30 50806 C 2277.28 0.0619192 -5.85967 0
M  V30 50807 N 2277.23 0.7859 -4.56281 0
M  V30 50808 H 2280.07 1.93423 -8.4679 0
M  V30 50809 H 2280.34 1.68181 -6.71046 0
M  V30 50810 H 2279.47 -0.289041 -8.15388 0
M  V30 50811 P 2275.51 -1.17771 -8.83182 0
M  V30 50812 O 2275.29 -2.07206 -9.98732 0
M  V30 50813 O 2274.72 0.0743816 -8.81969 0
M  V30 50814 O 2275.26 -1.97652 -7.47304 0
M  V30 50815 C 2276.2 -3.01133 -7.08783 0
M  V30 50816 C 2275.47 -4.12613 -6.37049 0
M  V30 50817 O 2275.26 -3.72827 -4.97879 0
M  V30 50818 C 2274.07 -4.45085 -6.88694 0
M  V30 50819 O 2273.68 -5.7877 -6.5624 0
M  V30 50820 C 2273.19 -3.47817 -6.12078 0
M  V30 50821 C 2273.9 -3.39414 -4.77697 0
M  V30 50822 N 2273.85 -2.04615 -4.15333 0
M  V30 50823 H 2276.69 -3.41248 -7.98759 0
M  V30 50824 H 2276.96 -2.5837 -6.41742 0
M  V30 50825 H 2276.09 -5.02657 -6.42673 0
M  V30 50826 P 2272.13 -6.144 -6.45285 0
M  V30 50827 O 2271.91 -7.54673 -6.86199 0
M  V30 50828 O 2271.34 -5.12391 -7.179 0
M  V30 50829 O 2271.88 -5.99158 -4.88404 0
M  V30 50830 C 2272.82 -6.60234 -3.96415 0
M  V30 50831 C 2272.09 -7.08259 -2.72856 0
M  V30 50832 O 2271.88 -5.9427 -1.83651 0
M  V30 50833 C 2270.69 -7.64886 -2.9555 0
M  V30 50834 O 2270.3 -8.53963 -1.90717 0
M  V30 50835 C 2269.81 -6.4116 -2.90739 0
M  V30 50836 C 2270.52 -5.55375 -1.86963 0
M  V30 50837 N 2270.47 -4.09448 -2.16152 0
M  V30 50838 H 2273.31 -7.45574 -4.45629 0
M  V30 50839 H 2273.58 -5.85864 -3.679 0
M  V30 50840 H 2272.71 -7.84412 -2.24479 0
M  V30 50841 H 2270.05 -5.73457 -0.888562 0
M  V30 50842 H 2269.77 -5.90877 -3.88583 0
M  V30 50843 H 2268.78 -6.6596 -2.58858 0
M  V30 50844 H 2270.62 -8.16339 -3.92049 0
M  V30 50845 P 2268.75 -8.7635 -1.60911 0
M  V30 50846 O 2268.53 -10.1388 -1.11561 0
M  V30 50847 O 2267.96 -8.36503 -2.79617 0
M  V30 50848 O 2268.5 -7.71806 -0.42951 0
M  V30 50849 C 2269.44 -7.67148 0.673689 0
M  V30 50850 C 2268.71 -7.33374 1.95559 0
M  V30 50851 O 2268.5 -5.88721 2.00726 0
M  V30 50852 C 2267.31 -7.92526 2.10483 0
M  V30 50853 O 2266.92 -8.02971 3.47653 0
M  V30 50854 C 2266.43 -6.89602 1.41652 0
M  V30 50855 C 2267.14 -5.59201 1.75185 0
M  V30 50856 N 2267.09 -4.58301 0.657969 0
M  V30 50857 H 2269.93 -8.65116 0.777161 0
M  V30 50858 H 2270.2 -6.9022 0.46725 0
M  V30 50859 H 2269.33 -7.66548 2.79458 0
M  V30 50860 H 2266.67 -5.16165 2.65183 0
M  V30 50861 H 2266.39 -7.06433 0.329384 0
M  V30 50862 H 2265.4 -6.90926 1.82021 0
M  V30 50863 H 2267.24 -8.90873 1.62657 0
M  V30 50864 P 2265.37 -8.03563 3.84925 0
M  V30 50865 O 2265.15 -8.85821 5.0569 0
M  V30 50866 O 2264.58 -8.41101 2.65469 0
M  V30 50867 O 2265.12 -6.4965 4.18908 0
M  V30 50868 C 2266.06 -5.81037 5.05421 0
M  V30 50869 C 2265.33 -4.78366 5.89277 0
M  V30 50870 O 2265.12 -3.58302 5.08433 0
M  V30 50871 C 2263.93 -5.17448 6.36119 0
M  V30 50872 O 2263.54 -4.45271 7.53232 0
M  V30 50873 C 2263.05 -4.74639 5.19936 0
M  V30 50874 C 2263.76 -3.49432 4.70418 0
M  V30 50875 N 2263.71 -3.31776 3.22945 0
M  V30 50876 C 2263.79 -4.27147 2.23315 0
M  V30 50877 N 2263.71 -3.78447 1.02186 0
M  V30 50878 C 2263.57 -2.41001 1.21732 0
M  V30 50879 C 2263.44 -1.36111 0.27694 0
M  V30 50880 O 2263.42 -1.42065 -0.951767 0
M  V30 50881 N 2263.32 -0.113683 0.912949 0
M  V30 50882 C 2263.32 0.0846396 2.27943 0
M  V30 50883 N 2263.19 1.34737 2.6916 0
M  V30 50884 N 2263.45 -0.902521 3.16379 0
M  V30 50885 C 2263.57 -2.11937 2.56849 0
M  V30 50886 H 2266.55 -6.54213 5.71376 0
M  V30 50887 H 2266.82 -5.30492 4.44033 0
M  V30 50888 H 2265.95 -4.55889 6.76652 0
M  V30 50889 H 2263.29 -2.6176 5.18021 0
M  V30 50890 H 2263.01 -5.52233 4.41941 0
M  V30 50891 H 2262.02 -4.52045 5.53452 0
M  V30 50892 H 2263.86 -6.25193 6.55307 0
M  V30 50893 H 2263.91 -5.3351 2.43857 0
M  V30 50894 H 2263.22 0.69331 0.330371 0
M  V30 50895 H 2263.19 1.56433 3.6988 0
M  V30 50896 H 2263.09 2.10701 2.00133 0
M  V30 50897 P 2261.99 -4.23843 7.83734 0
M  V30 50898 O 2261.77 -4.19407 9.29784 0
M  V30 50899 O 2261.2 -5.24426 7.09156 0
M  V30 50900 O 2261.74 -2.7935 7.20758 0
M  V30 50901 C 2262.68 -1.72945 7.50224 0
M  V30 50902 C 2261.95 -0.406376 7.57911 0
M  V30 50903 O 2261.74 0.0897726 6.21935 0
M  V30 50904 C 2260.55 -0.438983 8.18724 0
M  V30 50905 O 2260.16 0.825065 8.71101 0
M  V30 50906 C 2259.67 -0.783689 6.99524 0
M  V30 50907 C 2260.38 -0.0619086 5.85867 0
M  V30 50908 N 2260.33 -0.78573 4.56183 0
M  V30 50909 C 2260.18 -0.0292889 3.41887 0
M  V30 50910 O 2260.09 1.18445 3.4419 0
M  V30 50911 N 2260.14 -0.744061 2.23964 0
M  V30 50912 C 2260.23 -2.10932 2.10362 0
M  V30 50913 O 2260.18 -2.64117 0.98825 0
M  V30 50914 C 2260.38 -2.8202 3.34994 0
M  V30 50915 C 2260.49 -4.31095 3.25037 0
M  V30 50916 C 2260.43 -2.15547 4.52261 0
M  V30 50917 H 2263.17 -1.93379 8.46595 0
M  V30 50918 H 2263.44 -1.68132 6.70852 0
M  V30 50919 H 2262.57 0.289041 8.15388 0
M  V30 50920 H 2259.91 0.926847 5.72749 0
M  V30 50921 H 2259.64 -1.86973 6.82036 0
M  V30 50922 H 2258.64 -0.403896 7.13257 0
M  V30 50923 H 2260.48 -1.20585 8.97435 0
M  V30 50924 H 2260.55 -2.71231 5.45042 0
M  V30 50925 H 2259.52 -4.76966 3.49992 0
M  V30 50926 H 2261.26 -4.67047 3.95024 0
M  V30 50927 H 2260.77 -4.58996 2.22312 0
M  V30 50928 H 2260.03 -0.214893 1.39758 0
M  V30 50929 P 2258.61 1.17771 8.83182 0
M  V30 50930 O 2258.39 2.07206 9.98732 0
M  V30 50931 O 2257.82 -0.0743816 8.81969 0
M  V30 50932 O 2258.36 1.97652 7.47304 0
M  V30 50933 C 2259.3 3.01133 7.08783 0
M  V30 50934 C 2258.57 4.12613 6.37049 0
M  V30 50935 O 2258.36 3.72827 4.97879 0
M  V30 50936 C 2257.17 4.45085 6.88694 0
M  V30 50937 O 2256.78 5.7877 6.5624 0
M  V30 50938 C 2256.29 3.47817 6.12078 0
M  V30 50939 C 2257 3.39414 4.77697 0
M  V30 50940 N 2256.95 2.04199 4.15538 0
M  V30 50941 H 2259.79 3.41248 7.98759 0
M  V30 50942 H 2260.06 2.57728 6.42 0
M  V30 50943 H 2259.19 5.02657 6.42673 0
M  V30 50944 H 2256.53 4.11708 4.08956 0
M  V30 50945 H 2256.25 2.49626 6.61679 0
M  V30 50946 H 2255.26 3.8662 6.00862 0
M  V30 50947 H 2257.1 4.29991 7.97006 0
M  V30 50948 P 2255.23 6.144 6.45285 0
M  V30 50949 O 2255.01 7.54673 6.86199 0
M  V30 50950 O 2254.44 5.12391 7.179 0
M  V30 50951 O 2254.98 5.99158 4.88404 0
M  V30 50952 C 2255.92 6.60234 3.96415 0
M  V30 50953 C 2255.19 7.08259 2.72856 0
M  V30 50954 O 2254.98 5.9427 1.83651 0
M  V30 50955 C 2253.79 7.64886 2.9555 0
M  V30 50956 O 2253.4 8.53963 1.90717 0
M  V30 50957 C 2252.91 6.4116 2.90739 0
M  V30 50958 C 2253.62 5.55375 1.86963 0
M  V30 50959 N 2253.57 4.09664 2.15742 0
M  V30 50960 C 2253.65 3.44381 3.37233 0
M  V30 50961 N 2253.57 2.14131 3.28347 0
M  V30 50962 C 2253.43 1.90247 1.91588 0
M  V30 50963 C 2253.3 0.683992 1.20892 0
M  V30 50964 O 2253.28 -0.46618 1.64523 0
M  V30 50965 N 2253.18 0.903396 -0.173998 0
M  V30 50966 C 2253.18 2.14171 -0.784879 0
M  V30 50967 N 2253.05 2.1435 -2.11317 0
M  V30 50968 N 2253.31 3.28784 -0.119316 0
M  V30 50969 C 2253.43 3.0977 1.22194 0
M  V30 50970 H 2256.41 7.45574 4.45629 0
M  V30 50971 H 2256.68 5.86232 3.67314 0
M  V30 50972 H 2255.81 7.84412 2.24479 0
M  V30 50973 H 2253.15 5.73556 0.888715 0
M  V30 50974 H 2252.87 5.9096 3.88638 0
M  V30 50975 H 2251.88 6.66053 2.58894 0
M  V30 50976 H 2253.72 8.16429 3.92093 0
M  V30 50977 H 2253.77 3.96785 4.32043 0
M  V30 50978 H 2253.08 0.0999567 -0.761467 0
M  V30 50979 H 2253.05 3.03436 -2.63076 0
M  V30 50980 H 2252.95 1.25228 -2.62233 0
M  V30 50981 P 2251.85 8.7635 1.60911 0
M  V30 50982 O 2251.63 10.1388 1.11561 0
M  V30 50983 O 2251.06 8.36503 2.79617 0
M  V30 50984 O 2251.6 7.71806 0.42951 0
M  V30 50985 C 2252.54 7.67148 -0.673689 0
M  V30 50986 C 2251.81 7.33374 -1.95559 0
M  V30 50987 O 2251.6 5.88721 -2.00726 0
M  V30 50988 C 2250.41 7.92526 -2.10483 0
M  V30 50989 O 2250.02 8.02971 -3.47653 0
M  V30 50990 C 2249.53 6.89602 -1.41652 0
M  V30 50991 C 2250.24 5.59201 -1.75185 0
M  V30 50992 N 2250.19 4.58301 -0.657969 0
M  V30 50993 H 2253.03 8.65116 -0.777161 0
M  V30 50994 H 2253.3 6.9022 -0.46725 0
M  V30 50995 H 2252.43 7.66548 -2.79458 0
M  V30 50996 H 2249.77 5.16165 -2.65183 0
M  V30 50997 H 2249.49 7.06433 -0.329384 0
M  V30 50998 H 2248.5 6.90926 -1.82021 0
M  V30 50999 H 2250.34 8.90873 -1.62657 0
M  V30 51000 P 2248.47 8.03563 -3.84925 0
M  V30 51001 O 2248.25 8.85821 -5.0569 0
M  V30 51002 O 2247.68 8.41101 -2.65469 0
M  V30 51003 O 2248.22 6.49734 -4.18962 0
M  V30 51004 C 2249.16 5.81037 -5.05421 0
M  V30 51005 C 2248.43 4.79018 -5.88876 0
M  V30 51006 O 2248.22 3.58359 -5.08515 0
M  V30 51007 C 2247.03 5.17448 -6.36119 0
M  V30 51008 O 2246.64 4.45322 -7.53318 0
M  V30 51009 C 2246.15 4.74639 -5.19936 0
M  V30 51010 C 2246.86 3.49432 -4.70418 0
M  V30 51011 N 2246.81 3.31776 -3.22945 0
M  V30 51012 C 2246.66 2.02742 -2.72939 0
M  V30 51013 O 2246.57 1.08301 -3.52749 0
M  V30 51014 N 2246.61 1.96117 -1.22063 0
M  V30 51015 C 2246.71 2.8878 -0.551566 0
M  V30 51016 N 2246.66 2.65609 0.750198 0
M  V30 51017 C 2246.86 4.22457 -1.03707 0
M  V30 51018 C 2246.91 4.37979 -2.39113 0
M  V30 51019 H 2249.65 6.54138 -5.7131 0
M  V30 51020 H 2249.92 5.30492 -4.44033 0
M  V30 51021 H 2249.05 4.55945 -6.76735 0
M  V30 51022 H 2246.39 2.6176 -5.18021 0
M  V30 51023 H 2246.11 5.52233 -4.41941 0
M  V30 51024 H 2245.12 4.52045 -5.53452 0
M  V30 51025 H 2246.96 6.25124 -6.55234 0
M  V30 51026 H 2247.03 5.37936 -2.80552 0
M  V30 51027 H 2246.93 5.07528 -0.359553 0
M  V30 51028 H 2246.54 1.69403 1.09847 0
M  V30 51029 H 2246.74 3.43701 1.41792 0
M  V30 51030 P 2245.09 4.23843 -7.83734 0
M  V30 51031 O 2244.87 4.19407 -9.29784 0
M  V30 51032 O 2244.3 5.24426 -7.09156 0
M  V30 51033 O 2244.84 2.7935 -7.20758 0
M  V30 51034 C 2245.78 1.7299 -7.50419 0
M  V30 51035 C 2245.05 0.406376 -7.57911 0
M  V30 51036 O 2244.84 -0.0897726 -6.21935 0
M  V30 51037 C 2243.65 0.447224 -8.1878 0
M  V30 51038 O 2243.26 -0.825065 -8.71101 0
M  V30 51039 C 2242.77 0.783801 -6.99623 0
M  V30 51040 C 2243.48 0.0619192 -5.85967 0
M  V30 51041 N 2243.43 0.7859 -4.56281 0
M  V30 51042 C 2243.51 2.14308 -4.31736 0
M  V30 51043 N 2243.43 2.46106 -3.05116 0
M  V30 51044 C 2243.29 1.23422 -2.4014 0
M  V30 51045 C 2243.16 0.938381 -1.02409 0
M  V30 51046 O 2243.14 1.70876 -0.0650402 0
M  V30 51047 N 2243.04 -0.444647 -0.805413 0
M  V30 51048 C 2243.04 -1.40829 -1.79435 0
M  V30 51049 N 2242.91 -2.67213 -1.38558 0
M  V30 51050 N 2243.17 -1.12947 -3.09005 0
M  V30 51051 C 2243.29 0.204887 -3.32369 0
M  V30 51052 H 2246.27 1.93423 -8.4679 0
M  V30 51053 H 2246.54 1.68181 -6.71046 0
M  V30 51054 H 2245.67 -0.289041 -8.15388 0
M  V30 51055 H 2243.01 -0.927166 -5.72947 0
M  V30 51056 H 2242.73 1.87 -6.82132 0
M  V30 51057 H 2241.74 0.404009 -7.13457 0
M  V30 51058 H 2243.58 1.20612 -8.97633 0
M  V30 51059 H 2243.63 2.88284 -5.10874 0
M  V30 51060 H 2242.94 -0.755087 0.140242 0
M  V30 51061 H 2242.91 -3.43967 -2.0729 0
M  V30 51062 H 2242.81 -2.88096 -0.380644 0
M  V30 51063 P 2241.71 -1.17771 -8.83182 0
M  V30 51064 O 2241.49 -2.07206 -9.98732 0
M  V30 51065 O 2240.92 0.0743816 -8.81969 0
M  V30 51066 O 2241.46 -1.97652 -7.47304 0
M  V30 51067 C 2242.4 -3.01133 -7.08783 0
M  V30 51068 C 2241.67 -4.12613 -6.37049 0
M  V30 51069 O 2241.46 -3.72827 -4.97879 0
M  V30 51070 C 2240.27 -4.45085 -6.88694 0
M  V30 51071 O 2239.88 -5.7877 -6.5624 0
M  V30 51072 C 2239.39 -3.47817 -6.12078 0
M  V30 51073 C 2240.1 -3.39414 -4.77697 0
M  V30 51074 N 2240.05 -2.04615 -4.15333 0
M  V30 51075 H 2242.89 -3.41248 -7.98759 0
M  V30 51076 H 2243.16 -2.5837 -6.41742 0
M  V30 51077 H 2242.29 -5.02657 -6.42673 0
M  V30 51078 P 2238.33 -6.144 -6.45285 0
M  V30 51079 O 2238.11 -7.54673 -6.86199 0
M  V30 51080 O 2237.54 -5.12391 -7.179 0
M  V30 51081 O 2238.08 -5.99158 -4.88404 0
M  V30 51082 C 2239.02 -6.60234 -3.96415 0
M  V30 51083 C 2238.29 -7.08259 -2.72856 0
M  V30 51084 O 2238.08 -5.9427 -1.83651 0
M  V30 51085 C 2236.89 -7.64886 -2.9555 0
M  V30 51086 O 2236.5 -8.53963 -1.90717 0
M  V30 51087 C 2236.01 -6.4116 -2.90739 0
M  V30 51088 C 2236.72 -5.55375 -1.86963 0
M  V30 51089 N 2236.67 -4.09664 -2.15742 0
M  V30 51090 H 2239.51 -7.45574 -4.45629 0
M  V30 51091 H 2239.78 -5.86232 -3.67314 0
M  V30 51092 H 2238.91 -7.84412 -2.24479 0
M  V30 51093 P 2234.95 -8.7635 -1.60911 0
M  V30 51094 O 2234.73 -10.1388 -1.11561 0
M  V30 51095 O 2234.16 -8.36503 -2.79617 0
M  V30 51096 O 2234.7 -7.71806 -0.42951 0
M  V30 51097 C 2235.64 -7.67148 0.673689 0
M  V30 51098 C 2234.91 -7.33374 1.95559 0
M  V30 51099 O 2234.7 -5.88721 2.00726 0
M  V30 51100 C 2233.51 -7.92526 2.10483 0
M  V30 51101 O 2233.12 -8.02971 3.47653 0
M  V30 51102 C 2232.63 -6.89602 1.41652 0
M  V30 51103 C 2233.34 -5.59201 1.75185 0
M  V30 51104 N 2233.29 -4.58235 0.662552 0
M  V30 51105 H 2236.13 -8.65116 0.777161 0
M  V30 51106 H 2236.4 -6.90173 0.474152 0
M  V30 51107 H 2235.53 -7.66548 2.79458 0
M  V30 51108 P 2231.57 -8.03563 3.84925 0
M  V30 51109 O 2231.35 -8.85821 5.0569 0
M  V30 51110 O 2230.78 -8.41101 2.65469 0
M  V30 51111 O 2231.32 -6.4965 4.18908 0
M  V30 51112 C 2232.26 -5.81037 5.05421 0
M  V30 51113 C 2231.53 -4.78366 5.89277 0
M  V30 51114 O 2231.32 -3.58302 5.08433 0
M  V30 51115 C 2230.13 -5.17448 6.36119 0
M  V30 51116 O 2229.74 -4.45271 7.53232 0
M  V30 51117 C 2229.25 -4.74639 5.19936 0
M  V30 51118 C 2229.96 -3.49432 4.70418 0
M  V30 51119 N 2229.91 -3.31776 3.22945 0
M  V30 51120 H 2232.75 -6.54213 5.71376 0
M  V30 51121 H 2233.02 -5.30492 4.44033 0
M  V30 51122 H 2232.15 -4.55889 6.76652 0
M  V30 51123 P 2228.19 -4.23843 7.83734 0
M  V30 51124 O 2227.97 -4.19407 9.29784 0
M  V30 51125 O 2227.4 -5.24426 7.09156 0
M  V30 51126 O 2227.94 -2.7935 7.20758 0
M  V30 51127 C 2228.88 -1.7299 7.50419 0
M  V30 51128 C 2228.15 -0.406376 7.57911 0
M  V30 51129 O 2227.94 0.0897726 6.21935 0
M  V30 51130 C 2226.75 -0.447224 8.1878 0
M  V30 51131 O 2226.36 0.825065 8.71101 0
M  V30 51132 C 2225.87 -0.783801 6.99623 0
M  V30 51133 C 2226.58 -0.0619192 5.85967 0
M  V30 51134 N 2226.53 -0.7859 4.56281 0
M  V30 51135 C 2226.61 -2.14308 4.31736 0
M  V30 51136 N 2226.53 -2.46106 3.05116 0
M  V30 51137 C 2226.39 -1.23422 2.4014 0
M  V30 51138 C 2226.26 -0.938381 1.02409 0
M  V30 51139 O 2226.24 -1.70876 0.0650402 0
M  V30 51140 N 2226.14 0.444647 0.805413 0
M  V30 51141 C 2226.14 1.40829 1.79435 0
M  V30 51142 N 2226.01 2.67213 1.38558 0
M  V30 51143 N 2226.27 1.12947 3.09005 0
M  V30 51144 C 2226.39 -0.204887 3.32369 0
M  V30 51145 H 2229.37 -1.93423 8.4679 0
M  V30 51146 H 2229.64 -1.68181 6.71046 0
M  V30 51147 H 2228.77 0.289041 8.15388 0
M  V30 51148 H 2226.11 0.927166 5.72947 0
M  V30 51149 H 2225.83 -1.87 6.82132 0
M  V30 51150 H 2224.84 -0.404009 7.13457 0
M  V30 51151 H 2226.68 -1.20612 8.97633 0
M  V30 51152 H 2226.73 -2.88284 5.10874 0
M  V30 51153 H 2226.04 0.755087 -0.140242 0
M  V30 51154 H 2226.01 3.43967 2.0729 0
M  V30 51155 H 2225.91 2.88096 0.380644 0
M  V30 51156 P 2224.81 1.17771 8.83182 0
M  V30 51157 O 2224.59 2.07206 9.98732 0
M  V30 51158 O 2224.02 -0.0743816 8.81969 0
M  V30 51159 O 2224.56 1.97652 7.47304 0
M  V30 51160 C 2225.5 3.01133 7.08783 0
M  V30 51161 C 2224.77 4.12613 6.37049 0
M  V30 51162 O 2224.56 3.72827 4.97879 0
M  V30 51163 C 2223.37 4.45085 6.88694 0
M  V30 51164 O 2222.98 5.7877 6.5624 0
M  V30 51165 C 2222.49 3.47817 6.12078 0
M  V30 51166 C 2223.2 3.39414 4.77697 0
M  V30 51167 N 2223.15 2.04615 4.15333 0
M  V30 51168 H 2225.99 3.41248 7.98759 0
M  V30 51169 H 2226.26 2.5837 6.41742 0
M  V30 51170 H 2225.39 5.02657 6.42673 0
M  V30 51171 P 2221.43 6.144 6.45285 0
M  V30 51172 O 2221.21 7.54673 6.86199 0
M  V30 51173 O 2220.64 5.12391 7.179 0
M  V30 51174 O 2221.18 5.99158 4.88404 0
M  V30 51175 C 2222.12 6.60234 3.96415 0
M  V30 51176 C 2221.39 7.08259 2.72856 0
M  V30 51177 O 2221.18 5.9427 1.83651 0
M  V30 51178 C 2219.99 7.64886 2.9555 0
M  V30 51179 O 2219.6 8.53963 1.90717 0
M  V30 51180 C 2219.11 6.4116 2.90739 0
M  V30 51181 C 2219.82 5.55375 1.86963 0
M  V30 51182 N 2219.77 4.09664 2.15742 0
M  V30 51183 H 2222.61 7.45574 4.45629 0
M  V30 51184 H 2222.88 5.86232 3.67314 0
M  V30 51185 H 2222.01 7.84412 2.24479 0
M  V30 51186 P 2218.05 8.7635 1.60911 0
M  V30 51187 O 2217.83 10.1388 1.11561 0
M  V30 51188 O 2217.26 8.36503 2.79617 0
M  V30 51189 O 2217.8 7.71806 0.42951 0
M  V30 51190 C 2218.74 7.67148 -0.673689 0
M  V30 51191 C 2218.01 7.33374 -1.95559 0
M  V30 51192 O 2217.8 5.88721 -2.00726 0
M  V30 51193 C 2216.61 7.92526 -2.10483 0
M  V30 51194 O 2216.22 8.02971 -3.47653 0
M  V30 51195 C 2215.73 6.89602 -1.41652 0
M  V30 51196 C 2216.44 5.59201 -1.75185 0
M  V30 51197 N 2216.39 4.58235 -0.662552 0
M  V30 51198 C 2216.47 4.7683 0.704049 0
M  V30 51199 N 2216.39 3.66233 1.39775 0
M  V30 51200 C 2216.25 2.66526 0.431739 0
M  V30 51201 C 2216.12 1.26394 0.575992 0
M  V30 51202 O 2216.1 0.589894 1.60503 0
M  V30 51203 N 2216 0.62859 -0.67177 0
M  V30 51204 C 2216 1.27134 -1.89385 0
M  V30 51205 N 2215.87 0.492035 -2.96951 0
M  V30 51206 N 2216.13 2.58978 -2.02907 0
M  V30 51207 C 2216.25 3.22433 -0.832218 0
M  V30 51208 H 2219.23 8.65116 -0.777161 0
M  V30 51209 H 2219.5 6.90173 -0.474152 0
M  V30 51210 H 2218.63 7.66548 -2.79458 0
M  V30 51211 H 2215.97 5.16254 -2.65229 0
M  V30 51212 H 2215.69 7.06532 -0.329431 0
M  V30 51213 H 2214.7 6.91023 -1.82047 0
M  V30 51214 H 2216.54 8.90971 -1.62675 0
M  V30 51215 H 2216.59 5.74954 1.16305 0
M  V30 51216 H 2215.9 -0.366713 -0.674793 0
M  V30 51217 H 2215.87 0.908532 -3.91188 0
M  V30 51218 H 2215.77 -0.528253 -2.85758 0
M  V30 51219 P 2214.67 8.03563 -3.84925 0
M  V30 51220 O 2214.45 8.85821 -5.0569 0
M  V30 51221 O 2213.88 8.41101 -2.65469 0
M  V30 51222 O 2214.42 6.4965 -4.18908 0
M  V30 51223 C 2215.36 5.81037 -5.05421 0
M  V30 51224 C 2214.63 4.78366 -5.89277 0
M  V30 51225 O 2214.42 3.58302 -5.08433 0
M  V30 51226 C 2213.23 5.17448 -6.36119 0
M  V30 51227 O 2212.84 4.45271 -7.53232 0
M  V30 51228 C 2212.35 4.74639 -5.19936 0
M  V30 51229 C 2213.06 3.49432 -4.70418 0
M  V30 51230 N 2213.01 3.31776 -3.22945 0
M  V30 51231 H 2215.85 6.54213 -5.71376 0
M  V30 51232 H 2216.12 5.30492 -4.44033 0
M  V30 51233 H 2215.25 4.55889 -6.76652 0
M  V30 51234 P 2211.29 4.23843 -7.83734 0
M  V30 51235 O 2211.07 4.19407 -9.29784 0
M  V30 51236 O 2210.5 5.24426 -7.09156 0
M  V30 51237 O 2211.04 2.79386 -7.20852 0
M  V30 51238 C 2211.98 1.7299 -7.50419 0
M  V30 51239 C 2211.25 0.41401 -7.5797 0
M  V30 51240 O 2211.04 -0.089787 -6.22035 0
M  V30 51241 C 2209.85 0.447224 -8.1878 0
M  V30 51242 O 2209.46 -0.825159 -8.71201 0
M  V30 51243 C 2208.97 0.783801 -6.99623 0
M  V30 51244 C 2209.68 0.0619192 -5.85967 0
M  V30 51245 N 2209.63 0.7859 -4.56281 0
M  V30 51246 C 2209.48 0.0359258 -3.39981 0
M  V30 51247 O 2209.39 -1.19723 -3.49038 0
M  V30 51248 N 2209.43 0.869151 -2.14025 0
M  V30 51249 C 2209.53 2.01207 -2.14363 0
M  V30 51250 N 2209.48 2.58978 -0.954287 0
M  V30 51251 C 2209.68 2.80817 -3.32215 0
M  V30 51252 C 2209.73 2.13785 -4.50884 0
M  V30 51253 H 2212.47 1.93401 -8.46693 0
M  V30 51254 H 2212.74 1.68181 -6.71046 0
M  V30 51255 H 2211.87 -0.289076 -8.15488 0
M  V30 51256 H 2209.21 -0.927166 -5.72947 0
M  V30 51257 H 2208.93 1.87 -6.82132 0
M  V30 51258 H 2207.94 0.404009 -7.13457 0
M  V30 51259 H 2209.78 1.20599 -8.97534 0
M  V30 51260 H 2209.85 2.70295 -5.43162 0
M  V30 51261 H 2209.75 3.89465 -3.27406 0
M  V30 51262 H 2209.36 2.01616 -0.107046 0
M  V30 51263 H 2209.56 3.61403 -0.873101 0
M  V30 51264 P 2207.91 -1.17771 -8.83182 0
M  V30 51265 O 2207.69 -2.07206 -9.98732 0
M  V30 51266 O 2207.12 0.0743816 -8.81969 0
M  V30 51267 O 2207.66 -1.97652 -7.47304 0
M  V30 51268 C 2208.6 -3.01133 -7.08783 0
M  V30 51269 C 2207.87 -4.12613 -6.37049 0
M  V30 51270 O 2207.66 -3.72827 -4.97879 0
M  V30 51271 C 2206.47 -4.45085 -6.88694 0
M  V30 51272 O 2206.08 -5.7877 -6.5624 0
M  V30 51273 C 2205.59 -3.47817 -6.12078 0
M  V30 51274 C 2206.3 -3.39414 -4.77697 0
M  V30 51275 N 2206.25 -2.04615 -4.15333 0
M  V30 51276 C 2206.33 -0.803897 -4.75249 0
M  V30 51277 N 2206.25 0.197615 -3.91502 0
M  V30 51278 C 2206.11 -0.413002 -2.66823 0
M  V30 51279 C 2205.98 0.157221 -1.38007 0
M  V30 51280 O 2205.96 1.34419 -1.057 0
M  V30 51281 N 2205.86 -0.833136 -0.390236 0
M  V30 51282 C 2205.86 -2.19402 -0.623885 0
M  V30 51283 N 2205.73 -2.97622 0.449677 0
M  V30 51284 N 2205.99 -2.73005 -1.83601 0
M  V30 51285 C 2206.11 -1.78786 -2.80935 0
M  V30 51286 H 2209.09 -3.41248 -7.98759 0
M  V30 51287 H 2209.36 -2.5837 -6.41742 0
M  V30 51288 H 2208.49 -5.02657 -6.42673 0
M  V30 51289 H 2205.83 -4.11779 -4.09026 0
M  V30 51290 H 2205.55 -2.49661 -6.61772 0
M  V30 51291 H 2204.56 -3.86674 -6.00946 0
M  V30 51292 H 2206.4 -4.30038 -7.97094 0
M  V30 51293 H 2206.45 -0.670579 -5.82754 0
M  V30 51294 H 2205.76 -0.528446 0.557287 0
M  V30 51295 H 2205.73 -4.00117 0.344773 0
M  V30 51296 H 2205.63 -2.55448 1.38544 0
M  V30 51297 P 2204.53 -6.144 -6.45285 0
M  V30 51298 O 2204.31 -7.54673 -6.86199 0
M  V30 51299 O 2203.74 -5.12391 -7.179 0
M  V30 51300 O 2204.28 -5.99158 -4.88404 0
M  V30 51301 C 2205.22 -6.60062 -3.96313 0
M  V30 51302 C 2204.49 -7.08259 -2.72856 0
M  V30 51303 O 2204.28 -5.9427 -1.83651 0
M  V30 51304 C 2203.09 -7.65087 -2.94749 0
M  V30 51305 O 2202.7 -8.53963 -1.90717 0
M  V30 51306 C 2202.21 -6.41069 -2.90698 0
M  V30 51307 C 2202.92 -5.5528 -1.86931 0
M  V30 51308 N 2202.87 -4.09575 -2.15696 0
M  V30 51309 C 2202.72 -3.24249 -1.08435 0
M  V30 51310 O 2202.63 -3.63946 0.0628747 0
M  V30 51311 N 2202.68 -1.90009 -1.39973 0
M  V30 51312 C 2202.77 -1.34884 -2.65614 0
M  V30 51313 C 2202.92 -2.3145 -3.71736 0
M  V30 51314 C 2202.97 -3.63518 -3.44754 0
M  V30 51315 H 2205.71 -7.45402 -4.45526 0
M  V30 51316 H 2205.98 -5.86062 -3.67208 0
M  V30 51317 H 2205.11 -7.84412 -2.24479 0
M  V30 51318 H 2202.45 -5.73358 -0.888409 0
M  V30 51319 H 2202.18 -5.90877 -3.88583 0
M  V30 51320 H 2201.18 -6.65867 -2.58821 0
M  V30 51321 H 2203.02 -8.16248 -3.92006 0
M  V30 51322 H 2203.09 -4.34551 -4.26383 0
M  V30 51323 P 2201.15 -8.7635 -1.60911 0
M  V30 51324 O 2200.93 -10.1388 -1.11561 0
M  V30 51325 O 2200.36 -8.36503 -2.79617 0
M  V30 51326 O 2200.9 -7.71806 -0.42951 0
M  V30 51327 C 2201.84 -7.66948 0.673514 0
M  V30 51328 C 2201.11 -7.33374 1.95559 0
M  V30 51329 O 2200.9 -5.88721 2.00726 0
M  V30 51330 C 2199.71 -7.92218 2.1125 0
M  V30 51331 O 2199.32 -8.02971 3.47653 0
M  V30 51332 C 2198.83 -6.89504 1.41631 0
M  V30 51333 C 2199.54 -5.59106 1.75155 0
M  V30 51334 N 2199.49 -4.58136 0.662409 0
M  V30 51335 C 2199.34 -3.26059 1.02863 0
M  V30 51336 O 2199.25 -2.90743 2.19009 0
M  V30 51337 N 2199.3 -2.35995 -0.0155585 0
M  V30 51338 C 2199.39 -2.65248 -1.35603 0
M  V30 51339 C 2199.54 -4.05747 -1.64698 0
M  V30 51340 C 2199.59 -4.96734 -0.652411 0
M  V30 51341 H 2202.33 -8.64917 0.776982 0
M  V30 51342 H 2202.6 -6.89974 0.474015 0
M  V30 51343 H 2201.73 -7.66548 2.79458 0
M  V30 51344 H 2199.07 -5.16076 2.65138 0
M  V30 51345 H 2198.8 -7.06433 0.329384 0
M  V30 51346 H 2197.8 -6.90829 1.81996 0
M  V30 51347 H 2199.64 -8.90774 1.62639 0
M  V30 51348 H 2199.71 -6.02181 -0.895285 0
M  V30 51349 P 2197.77 -8.03563 3.84925 0
M  V30 51350 O 2197.55 -8.85821 5.0569 0
M  V30 51351 O 2196.98 -8.41101 2.65469 0
M  V30 51352 O 2197.52 -6.4965 4.18908 0
M  V30 51353 C 2198.46 -5.80886 5.05289 0
M  V30 51354 C 2197.73 -4.78366 5.89277 0
M  V30 51355 O 2197.52 -3.58302 5.08433 0
M  V30 51356 C 2196.33 -5.16748 6.36559 0
M  V30 51357 O 2195.94 -4.45271 7.53232 0
M  V30 51358 C 2195.45 -4.74572 5.19863 0
M  V30 51359 C 2196.16 -3.49373 4.70338 0
M  V30 51360 N 2196.11 -3.31704 3.22876 0
M  V30 51361 C 2195.96 -2.03326 2.74871 0
M  V30 51362 O 2195.87 -1.06486 3.48076 0
M  V30 51363 N 2195.92 -1.91838 1.37456 0
M  V30 51364 C 2196.01 -2.94295 0.462035 0
M  V30 51365 C 2196.16 -4.25064 1.05249 0
M  V30 51366 C 2196.21 -4.40214 2.39192 0
M  V30 51367 H 2198.95 -6.54063 5.71245 0
M  V30 51368 H 2199.22 -5.30339 4.43905 0
M  V30 51369 H 2198.35 -4.55889 6.76652 0
M  V30 51370 H 2195.7 -2.6167 5.17842 0
M  V30 51371 H 2195.42 -5.52155 4.41878 0
M  V30 51372 H 2194.42 -4.51918 5.53297 0
M  V30 51373 H 2196.26 -6.25055 6.55162 0
M  V30 51374 H 2196.33 -5.39798 2.81523 0
M  V30 51375 P 2194.39 -4.23843 7.83734 0
M  V30 51376 O 2194.17 -4.19407 9.29784 0
M  V30 51377 O 2193.6 -5.24426 7.09156 0
M  V30 51378 O 2194.14 -2.7935 7.20758 0
M  V30 51379 C 2195.08 -1.7299 7.50419 0
M  V30 51380 C 2194.35 -0.406376 7.57911 0
M  V30 51381 O 2194.14 0.0897726 6.21935 0
M  V30 51382 C 2192.95 -0.447224 8.1878 0
M  V30 51383 O 2192.56 0.825065 8.71101 0
M  V30 51384 C 2192.07 -0.783801 6.99623 0
M  V30 51385 C 2192.78 -0.0619192 5.85967 0
M  V30 51386 N 2192.73 -0.790462 4.56202 0
M  V30 51387 H 2195.57 -1.93423 8.4679 0
M  V30 51388 H 2195.84 -1.68852 6.70877 0
M  V30 51389 H 2194.97 0.289041 8.15388 0
M  V30 51390 H 2192.32 0.927006 5.72848 0
M  V30 51391 H 2192.04 -1.86973 6.82036 0
M  V30 51392 H 2191.04 -0.403953 7.13357 0
M  V30 51393 H 2192.88 -1.20599 8.97534 0
M  V30 51394 P 2191.01 1.17771 8.83182 0
M  V30 51395 O 2190.79 2.07206 9.98732 0
M  V30 51396 O 2190.22 -0.0743816 8.81969 0
M  V30 51397 O 2190.76 1.97652 7.47304 0
M  V30 51398 C 2191.7 3.01133 7.08783 0
M  V30 51399 C 2190.97 4.12613 6.37049 0
M  V30 51400 O 2190.76 3.72827 4.97879 0
M  V30 51401 C 2189.57 4.45085 6.88694 0
M  V30 51402 O 2189.18 5.7877 6.5624 0
M  V30 51403 C 2188.69 3.47817 6.12078 0
M  V30 51404 C 2189.4 3.39414 4.77697 0
M  V30 51405 N 2189.35 2.04615 4.15333 0
M  V30 51406 H 2192.19 3.41248 7.98759 0
M  V30 51407 H 2192.46 2.5837 6.41742 0
M  V30 51408 H 2191.59 5.02657 6.42673 0
M  V30 51409 P 2187.63 6.144 6.45285 0
M  V30 51410 O 2187.41 7.54673 6.86199 0
M  V30 51411 O 2186.84 5.12391 7.179 0
M  V30 51412 O 2187.38 5.99158 4.88404 0
M  V30 51413 C 2188.32 6.60062 3.96313 0
M  V30 51414 C 2187.59 7.08259 2.72856 0
M  V30 51415 O 2187.38 5.9427 1.83651 0
M  V30 51416 C 2186.19 7.65087 2.94749 0
M  V30 51417 O 2185.8 8.53963 1.90717 0
M  V30 51418 C 2185.31 6.41069 2.90698 0
M  V30 51419 C 2186.02 5.5528 1.86931 0
M  V30 51420 N 2185.97 4.09575 2.15696 0
M  V30 51421 C 2185.82 3.24249 1.08435 0
M  V30 51422 O 2185.73 3.63946 -0.0628747 0
M  V30 51423 N 2185.78 1.90009 1.39973 0
M  V30 51424 C 2185.87 1.34884 2.65614 0
M  V30 51425 O 2185.82 0.123716 2.81728 0
M  V30 51426 C 2186.02 2.3145 3.71736 0
M  V30 51427 C 2186.13 1.75913 5.10438 0
M  V30 51428 C 2186.07 3.63518 3.44754 0
M  V30 51429 H 2188.81 7.45402 4.45526 0
M  V30 51430 H 2189.08 5.86062 3.67208 0
M  V30 51431 H 2188.21 7.84412 2.24479 0
M  V30 51432 H 2185.56 5.73358 0.888409 0
M  V30 51433 H 2185.28 5.90877 3.88583 0
M  V30 51434 H 2184.28 6.65867 2.58821 0
M  V30 51435 H 2186.12 8.16248 3.92006 0
M  V30 51436 H 2186.19 4.34551 4.26383 0
M  V30 51437 H 2185.16 1.85471 5.61775 0
M  V30 51438 H 2186.9 2.31364 5.66257 0
M  V30 51439 H 2186.41 0.695936 5.05229 0
M  V30 51440 H 2185.67 1.26277 0.63625 0
M  V30 51441 P 2184.25 8.7635 1.60911 0
M  V30 51442 O 2184.03 10.1388 1.11561 0
M  V30 51443 O 2183.46 8.36503 2.79617 0
M  V30 51444 O 2184 7.71806 0.42951 0
M  V30 51445 C 2184.94 7.67148 -0.673689 0
M  V30 51446 C 2184.21 7.33374 -1.95559 0
M  V30 51447 O 2184 5.88721 -2.00726 0
M  V30 51448 C 2182.81 7.92526 -2.10483 0
M  V30 51449 O 2182.42 8.02971 -3.47653 0
M  V30 51450 C 2181.93 6.89602 -1.41652 0
M  V30 51451 C 2182.64 5.59201 -1.75185 0
M  V30 51452 N 2182.59 4.58235 -0.662552 0
M  V30 51453 H 2185.43 8.65116 -0.777161 0
M  V30 51454 H 2185.7 6.90173 -0.474152 0
M  V30 51455 H 2184.83 7.66548 -2.79458 0
M  V30 51456 P 2180.87 8.03563 -3.84925 0
M  V30 51457 O 2180.65 8.85821 -5.0569 0
M  V30 51458 O 2180.08 8.41101 -2.65469 0
M  V30 51459 O 2180.62 6.4965 -4.18908 0
M  V30 51460 C 2181.56 5.81037 -5.05421 0
M  V30 51461 C 2180.83 4.78366 -5.89277 0
M  V30 51462 O 2180.62 3.58302 -5.08433 0
M  V30 51463 C 2179.43 5.17448 -6.36119 0
M  V30 51464 O 2179.04 4.45271 -7.53232 0
M  V30 51465 C 2178.55 4.74639 -5.19936 0
M  V30 51466 C 2179.26 3.49432 -4.70418 0
M  V30 51467 N 2179.21 3.31776 -3.22945 0
M  V30 51468 H 2182.05 6.54213 -5.71376 0
M  V30 51469 H 2182.32 5.30492 -4.44033 0
M  V30 51470 H 2181.45 4.55889 -6.76652 0
M  V30 51471 P 2177.49 4.23843 -7.83734 0
M  V30 51472 O 2177.27 4.19407 -9.29784 0
M  V30 51473 O 2176.7 5.24426 -7.09156 0
M  V30 51474 O 2177.24 2.7935 -7.20758 0
M  V30 51475 C 2178.18 1.7299 -7.50419 0
M  V30 51476 C 2177.45 0.406376 -7.57911 0
M  V30 51477 O 2177.24 -0.0897726 -6.21935 0
M  V30 51478 C 2176.05 0.447224 -8.1878 0
M  V30 51479 O 2175.66 -0.825065 -8.71101 0
M  V30 51480 C 2175.17 0.783801 -6.99623 0
M  V30 51481 C 2175.88 0.0619192 -5.85967 0
M  V30 51482 N 2175.83 0.790462 -4.56202 0
M  V30 51483 H 2178.67 1.93423 -8.4679 0
M  V30 51484 H 2178.94 1.68852 -6.70877 0
M  V30 51485 H 2178.07 -0.289041 -8.15388 0
M  V30 51486 H 2175.42 -0.927006 -5.72848 0
M  V30 51487 H 2175.14 1.86973 -6.82036 0
M  V30 51488 H 2174.14 0.403953 -7.13357 0
M  V30 51489 H 2175.98 1.20599 -8.97534 0
M  V30 51490 P 2174.11 -1.17771 -8.83182 0
M  V30 51491 O 2173.89 -2.07206 -9.98732 0
M  V30 51492 O 2173.32 0.0743816 -8.81969 0
M  V30 51493 O 2173.86 -1.97652 -7.47304 0
M  V30 51494 C 2174.8 -3.01133 -7.08783 0
M  V30 51495 C 2174.07 -4.12613 -6.37049 0
M  V30 51496 O 2173.86 -3.72827 -4.97879 0
M  V30 51497 C 2172.67 -4.45085 -6.88694 0
M  V30 51498 O 2172.28 -5.7877 -6.5624 0
M  V30 51499 C 2171.79 -3.47817 -6.12078 0
M  V30 51500 C 2172.5 -3.39414 -4.77697 0
M  V30 51501 N 2172.45 -2.04199 -4.15538 0
M  V30 51502 H 2175.29 -3.41248 -7.98759 0
M  V30 51503 H 2175.56 -2.57728 -6.42 0
M  V30 51504 H 2174.69 -5.02657 -6.42673 0
M  V30 51505 H 2172.04 -4.11708 -4.08956 0
M  V30 51506 H 2171.76 -2.49626 -6.61679 0
M  V30 51507 H 2170.76 -3.8662 -6.00862 0
M  V30 51508 H 2172.6 -4.29991 -7.97006 0
M  V30 51509 P 2170.73 -6.144 -6.45285 0
M  V30 51510 O 2170.51 -7.54673 -6.86199 0
M  V30 51511 O 2169.94 -5.12391 -7.179 0
M  V30 51512 O 2170.48 -5.99158 -4.88404 0
M  V30 51513 C 2171.42 -6.60234 -3.96415 0
M  V30 51514 C 2170.69 -7.08259 -2.72856 0
M  V30 51515 O 2170.48 -5.9427 -1.83651 0
M  V30 51516 C 2169.29 -7.64886 -2.9555 0
M  V30 51517 O 2168.9 -8.53963 -1.90717 0
M  V30 51518 C 2168.41 -6.4116 -2.90739 0
M  V30 51519 C 2169.12 -5.55375 -1.86963 0
M  V30 51520 N 2169.07 -4.09664 -2.15742 0
M  V30 51521 H 2171.91 -7.45574 -4.45629 0
M  V30 51522 H 2172.18 -5.86232 -3.67314 0
M  V30 51523 H 2171.31 -7.84412 -2.24479 0
M  V30 51524 P 2167.35 -8.7635 -1.60911 0
M  V30 51525 O 2167.13 -10.1388 -1.11561 0
M  V30 51526 O 2166.56 -8.36503 -2.79617 0
M  V30 51527 O 2167.1 -7.71806 -0.42951 0
M  V30 51528 C 2168.04 -7.66948 0.673514 0
M  V30 51529 C 2167.31 -7.33374 1.95559 0
M  V30 51530 O 2167.1 -5.88721 2.00726 0
M  V30 51531 C 2165.91 -7.92218 2.1125 0
M  V30 51532 O 2165.52 -8.02971 3.47653 0
M  V30 51533 C 2165.03 -6.89504 1.41631 0
M  V30 51534 C 2165.74 -5.59106 1.75155 0
M  V30 51535 N 2165.69 -4.58136 0.662409 0
M  V30 51536 C 2165.54 -3.26059 1.02863 0
M  V30 51537 O 2165.45 -2.90743 2.19009 0
M  V30 51538 N 2165.5 -2.35995 -0.0155585 0
M  V30 51539 C 2165.59 -2.65248 -1.35603 0
M  V30 51540 C 2165.74 -4.05747 -1.64698 0
M  V30 51541 C 2165.79 -4.96734 -0.652411 0
M  V30 51542 H 2168.53 -8.64917 0.776982 0
M  V30 51543 H 2168.8 -6.89974 0.474015 0
M  V30 51544 H 2167.93 -7.66548 2.79458 0
M  V30 51545 H 2165.28 -5.16076 2.65138 0
M  V30 51546 H 2165 -7.06433 0.329384 0
M  V30 51547 H 2164 -6.90829 1.81996 0
M  V30 51548 H 2165.84 -8.90774 1.62639 0
M  V30 51549 H 2165.91 -6.02181 -0.895285 0
M  V30 51550 P 2163.97 -8.03563 3.84925 0
M  V30 51551 O 2163.75 -8.85821 5.0569 0
M  V30 51552 O 2163.18 -8.41101 2.65469 0
M  V30 51553 O 2163.72 -6.4965 4.18908 0
M  V30 51554 C 2164.66 -5.81037 5.05421 0
M  V30 51555 C 2163.93 -4.78366 5.89277 0
M  V30 51556 O 2163.72 -3.58302 5.08433 0
M  V30 51557 C 2162.53 -5.17448 6.36119 0
M  V30 51558 O 2162.14 -4.45271 7.53232 0
M  V30 51559 C 2161.65 -4.74639 5.19936 0
M  V30 51560 C 2162.36 -3.49432 4.70418 0
M  V30 51561 N 2162.31 -3.32099 3.22613 0
M  V30 51562 H 2165.15 -6.54213 5.71376 0
M  V30 51563 H 2165.42 -5.30936 4.43503 0
M  V30 51564 H 2164.55 -4.55889 6.76652 0
M  V30 51565 H 2161.9 -2.61715 5.17932 0
M  V30 51566 H 2161.62 -5.52155 4.41878 0
M  V30 51567 H 2160.62 -4.51981 5.53374 0
M  V30 51568 H 2162.46 -6.25124 6.55234 0
M  V30 51569 P 2160.59 -4.23843 7.83734 0
M  V30 51570 O 2160.37 -4.19407 9.29784 0
M  V30 51571 O 2159.8 -5.24426 7.09156 0
M  V30 51572 O 2160.34 -2.7935 7.20758 0
M  V30 51573 C 2161.28 -1.7299 7.50419 0
M  V30 51574 C 2160.55 -0.406376 7.57911 0
M  V30 51575 O 2160.34 0.0897726 6.21935 0
M  V30 51576 C 2159.15 -0.447224 8.1878 0
M  V30 51577 O 2158.76 0.825065 8.71101 0
M  V30 51578 C 2158.27 -0.783801 6.99623 0
M  V30 51579 C 2158.98 -0.0619192 5.85967 0
M  V30 51580 N 2158.93 -0.790462 4.56202 0
M  V30 51581 H 2161.77 -1.93423 8.4679 0
M  V30 51582 H 2162.04 -1.68852 6.70877 0
M  V30 51583 H 2161.17 0.289041 8.15388 0
M  V30 51584 H 2158.52 0.927006 5.72848 0
M  V30 51585 H 2158.24 -1.86973 6.82036 0
M  V30 51586 H 2157.24 -0.403953 7.13357 0
M  V30 51587 H 2159.08 -1.20599 8.97534 0
M  V30 51588 P 2157.21 1.17771 8.83182 0
M  V30 51589 O 2156.99 2.07206 9.98732 0
M  V30 51590 O 2156.42 -0.0743816 8.81969 0
M  V30 51591 O 2156.96 1.97652 7.47304 0
M  V30 51592 C 2157.9 3.01133 7.08783 0
M  V30 51593 C 2157.17 4.12613 6.37049 0
M  V30 51594 O 2156.96 3.72827 4.97879 0
M  V30 51595 C 2155.77 4.45085 6.88694 0
M  V30 51596 O 2155.38 5.7877 6.5624 0
M  V30 51597 C 2154.89 3.47817 6.12078 0
M  V30 51598 C 2155.6 3.39414 4.77697 0
M  V30 51599 N 2155.55 2.04199 4.15538 0
M  V30 51600 H 2158.39 3.41248 7.98759 0
M  V30 51601 H 2158.66 2.57728 6.42 0
M  V30 51602 H 2157.79 5.02657 6.42673 0
M  V30 51603 H 2155.14 4.11708 4.08956 0
M  V30 51604 H 2154.86 2.49626 6.61679 0
M  V30 51605 H 2153.86 3.8662 6.00862 0
M  V30 51606 H 2155.7 4.29991 7.97006 0
M  V30 51607 P 2153.83 6.144 6.45285 0
M  V30 51608 O 2153.61 7.54673 6.86199 0
M  V30 51609 O 2153.04 5.12391 7.179 0
M  V30 51610 O 2153.58 5.99158 4.88404 0
M  V30 51611 C 2154.52 6.60234 3.96415 0
M  V30 51612 C 2153.79 7.08259 2.72856 0
M  V30 51613 O 2153.58 5.9427 1.83651 0
M  V30 51614 C 2152.39 7.64886 2.9555 0
M  V30 51615 O 2152 8.53963 1.90717 0
M  V30 51616 C 2151.51 6.4116 2.90739 0
M  V30 51617 C 2152.22 5.55375 1.86963 0
M  V30 51618 N 2152.17 4.09664 2.15742 0
M  V30 51619 H 2155.01 7.45574 4.45629 0
M  V30 51620 H 2155.28 5.86232 3.67314 0
M  V30 51621 H 2154.41 7.84412 2.24479 0
M  V30 51622 P 2150.45 8.7635 1.60911 0
M  V30 51623 O 2150.23 10.1388 1.11561 0
M  V30 51624 O 2149.66 8.36503 2.79617 0
M  V30 51625 O 2150.2 7.71806 0.42951 0
M  V30 51626 C 2151.14 7.67148 -0.673689 0
M  V30 51627 C 2150.41 7.33374 -1.95559 0
M  V30 51628 O 2150.2 5.88721 -2.00726 0
M  V30 51629 C 2149.01 7.92526 -2.10483 0
M  V30 51630 O 2148.62 8.02971 -3.47653 0
M  V30 51631 C 2148.13 6.89602 -1.41652 0
M  V30 51632 C 2148.84 5.59201 -1.75185 0
M  V30 51633 N 2148.79 4.58235 -0.662552 0
M  V30 51634 H 2151.63 8.65116 -0.777161 0
M  V30 51635 H 2151.9 6.90173 -0.474152 0
M  V30 51636 H 2151.03 7.66548 -2.79458 0
M  V30 51637 P 2147.07 8.03563 -3.84925 0
M  V30 51638 O 2146.85 8.85821 -5.0569 0
M  V30 51639 O 2146.28 8.41101 -2.65469 0
M  V30 51640 O 2146.82 6.4965 -4.18908 0
M  V30 51641 C 2147.76 5.81037 -5.05421 0
M  V30 51642 C 2147.03 4.78366 -5.89277 0
M  V30 51643 O 2146.82 3.58302 -5.08433 0
M  V30 51644 C 2145.63 5.17448 -6.36119 0
M  V30 51645 O 2145.24 4.45271 -7.53232 0
M  V30 51646 C 2144.75 4.74639 -5.19936 0
M  V30 51647 C 2145.46 3.49432 -4.70418 0
M  V30 51648 N 2145.41 3.31776 -3.22945 0
M  V30 51649 H 2148.25 6.54213 -5.71376 0
M  V30 51650 H 2148.52 5.30492 -4.44033 0
M  V30 51651 H 2147.65 4.55889 -6.76652 0
M  V30 51652 P 2143.69 4.23843 -7.83734 0
M  V30 51653 O 2143.47 4.19407 -9.29784 0
M  V30 51654 O 2142.9 5.24426 -7.09156 0
M  V30 51655 O 2143.44 2.7935 -7.20758 0
M  V30 51656 C 2144.38 1.7299 -7.50419 0
M  V30 51657 C 2143.65 0.406376 -7.57911 0
M  V30 51658 O 2143.44 -0.0897726 -6.21935 0
M  V30 51659 C 2142.25 0.447224 -8.1878 0
M  V30 51660 O 2141.86 -0.825065 -8.71101 0
M  V30 51661 C 2141.37 0.783801 -6.99623 0
M  V30 51662 C 2142.08 0.0619192 -5.85967 0
M  V30 51663 N 2142.03 0.7859 -4.56281 0
M  V30 51664 H 2144.87 1.93423 -8.4679 0
M  V30 51665 H 2145.14 1.68181 -6.71046 0
M  V30 51666 H 2144.27 -0.289041 -8.15388 0
M  V30 51667 P 2140.31 -1.17771 -8.83182 0
M  V30 51668 O 2140.09 -2.07206 -9.98732 0
M  V30 51669 O 2139.52 0.0743816 -8.81969 0
M  V30 51670 O 2140.06 -1.97652 -7.47304 0
M  V30 51671 C 2141 -3.01055 -7.08599 0
M  V30 51672 C 2140.27 -4.12613 -6.37049 0
M  V30 51673 O 2140.06 -3.72827 -4.97879 0
M  V30 51674 C 2138.87 -4.45719 -6.88164 0
M  V30 51675 O 2138.48 -5.7877 -6.5624 0
M  V30 51676 C 2137.99 -3.47768 -6.11991 0
M  V30 51677 C 2138.7 -3.39356 -4.77615 0
M  V30 51678 N 2138.65 -2.04571 -4.15244 0
M  V30 51679 C 2138.5 -1.98587 -2.78314 0
M  V30 51680 O 2138.41 -2.98134 -2.08835 0
M  V30 51681 N 2138.46 -0.714467 -2.24925 0
M  V30 51682 C 2138.55 0.470001 -2.94169 0
M  V30 51683 O 2138.5 1.55587 -2.35195 0
M  V30 51684 C 2138.7 0.312541 -4.36783 0
M  V30 51685 C 2138.81 1.57711 -5.16352 0
M  V30 51686 C 2138.75 -0.914512 -4.92583 0
M  V30 51687 H 2141.49 -3.41169 -7.98575 0
M  V30 51688 H 2141.76 -2.58295 -6.41556 0
M  V30 51689 H 2140.89 -5.02657 -6.42673 0
M  V30 51690 H 2138.24 -4.11637 -4.08885 0
M  V30 51691 H 2137.96 -2.49626 -6.61679 0
M  V30 51692 H 2136.96 -3.86566 -6.00778 0
M  V30 51693 H 2138.8 -4.29943 -7.96918 0
M  V30 51694 H 2138.87 -1.00937 -6.00374 0
M  V30 51695 H 2137.84 1.80153 -5.63503 0
M  V30 51696 H 2139.58 1.4566 -5.94104 0
M  V30 51697 H 2139.09 2.40664 -4.49645 0
M  V30 51698 H 2138.35 -0.647622 -1.25697 0
M  V30 51699 P 2136.93 -6.144 -6.45285 0
M  V30 51700 O 2136.71 -7.54673 -6.86199 0
M  V30 51701 O 2136.14 -5.12391 -7.179 0
M  V30 51702 O 2136.68 -5.99158 -4.88404 0
M  V30 51703 C 2137.62 -6.60234 -3.96415 0
M  V30 51704 C 2136.89 -7.08259 -2.72856 0
M  V30 51705 O 2136.68 -5.9427 -1.83651 0
M  V30 51706 C 2135.49 -7.64886 -2.9555 0
M  V30 51707 O 2135.1 -8.53963 -1.90717 0
M  V30 51708 C 2134.61 -6.4116 -2.90739 0
M  V30 51709 C 2135.32 -5.55375 -1.86963 0
M  V30 51710 N 2135.27 -4.09664 -2.15742 0
M  V30 51711 H 2138.11 -7.45574 -4.45629 0
M  V30 51712 H 2138.38 -5.86232 -3.67314 0
M  V30 51713 H 2137.51 -7.84412 -2.24479 0
M  V30 51714 P 2133.55 -8.7635 -1.60911 0
M  V30 51715 O 2133.33 -10.1388 -1.11561 0
M  V30 51716 O 2132.76 -8.36503 -2.79617 0
M  V30 51717 O 2133.3 -7.71806 -0.42951 0
M  V30 51718 C 2134.24 -7.67148 0.673689 0
M  V30 51719 C 2133.51 -7.33374 1.95559 0
M  V30 51720 O 2133.3 -5.88721 2.00726 0
M  V30 51721 C 2132.11 -7.92526 2.10483 0
M  V30 51722 O 2131.72 -8.02971 3.47653 0
M  V30 51723 C 2131.23 -6.89602 1.41652 0
M  V30 51724 C 2131.94 -5.59201 1.75185 0
M  V30 51725 N 2131.89 -4.58235 0.662552 0
M  V30 51726 H 2134.73 -8.65116 0.777161 0
M  V30 51727 H 2135 -6.90173 0.474152 0
M  V30 51728 H 2134.13 -7.66548 2.79458 0
M  V30 51729 P 2130.17 -8.03563 3.84925 0
M  V30 51730 O 2129.95 -8.85821 5.0569 0
M  V30 51731 O 2129.38 -8.41101 2.65469 0
M  V30 51732 O 2129.92 -6.4965 4.18908 0
M  V30 51733 C 2130.86 -5.81037 5.05421 0
M  V30 51734 C 2130.13 -4.78366 5.89277 0
M  V30 51735 O 2129.92 -3.58302 5.08433 0
M  V30 51736 C 2128.73 -5.17448 6.36119 0
M  V30 51737 O 2128.34 -4.45271 7.53232 0
M  V30 51738 C 2127.85 -4.74639 5.19936 0
M  V30 51739 C 2128.56 -3.49432 4.70418 0
M  V30 51740 N 2128.51 -3.32099 3.22613 0
M  V30 51741 C 2128.59 -4.28245 2.25527 0
M  V30 51742 N 2128.52 -3.80823 1.04874 0
M  V30 51743 C 2128.37 -2.44571 1.23535 0
M  V30 51744 C 2128.24 -1.37068 0.330675 0
M  V30 51745 N 2128.23 -1.51472 -0.990824 0
M  V30 51746 N 2128.12 -0.138614 0.848756 0
M  V30 51747 C 2128.13 0.00675923 2.16999 0
M  V30 51748 N 2128.25 -0.904372 3.11122 0
M  V30 51749 C 2128.37 -2.12707 2.56212 0
M  V30 51750 H 2131.35 -6.54213 5.71376 0
M  V30 51751 H 2131.62 -5.30936 4.43503 0
M  V30 51752 H 2130.75 -4.55889 6.76652 0
M  V30 51753 H 2128.1 -2.61715 5.17932 0
M  V30 51754 H 2127.82 -5.52155 4.41878 0
M  V30 51755 H 2126.82 -4.51981 5.53374 0
M  V30 51756 H 2128.66 -6.25124 6.55234 0
M  V30 51757 H 2128.7 -5.34372 2.47488 0
M  V30 51758 H 2128.32 -2.45153 -1.4078 0
M  V30 51759 H 2128.13 -0.688422 -1.59911 0
M  V30 51760 H 2128.02 1.02584 2.52346 0
M  V30 51761 P 2126.79 -4.23843 7.83734 0
M  V30 51762 O 2126.57 -4.19407 9.29784 0
M  V30 51763 O 2126 -5.24426 7.09156 0
M  V30 51764 O 2126.54 -2.7935 7.20758 0
M  V30 51765 C 2127.48 -1.7299 7.50419 0
M  V30 51766 C 2126.75 -0.406376 7.57911 0
M  V30 51767 O 2126.54 0.0897726 6.21935 0
M  V30 51768 C 2125.35 -0.447224 8.1878 0
M  V30 51769 O 2124.96 0.825065 8.71101 0
M  V30 51770 C 2124.47 -0.783801 6.99623 0
M  V30 51771 C 2125.18 -0.0619192 5.85967 0
M  V30 51772 N 2125.13 -0.790462 4.56202 0
M  V30 51773 H 2127.97 -1.93423 8.4679 0
M  V30 51774 H 2128.24 -1.68852 6.70877 0
M  V30 51775 H 2127.37 0.289041 8.15388 0
M  V30 51776 H 2124.72 0.927006 5.72848 0
M  V30 51777 H 2124.44 -1.86973 6.82036 0
M  V30 51778 H 2123.44 -0.403953 7.13357 0
M  V30 51779 H 2125.28 -1.20599 8.97534 0
M  V30 51780 P 2123.41 1.17771 8.83182 0
M  V30 51781 O 2123.19 2.07206 9.98732 0
M  V30 51782 O 2122.62 -0.0743816 8.81969 0
M  V30 51783 O 2123.16 1.97652 7.47304 0
M  V30 51784 C 2124.1 3.01133 7.08783 0
M  V30 51785 C 2123.37 4.12613 6.37049 0
M  V30 51786 O 2123.16 3.72827 4.97879 0
M  V30 51787 C 2121.97 4.45085 6.88694 0
M  V30 51788 O 2121.58 5.7877 6.5624 0
M  V30 51789 C 2121.09 3.47817 6.12078 0
M  V30 51790 C 2121.8 3.39414 4.77697 0
M  V30 51791 N 2121.75 2.04615 4.15333 0
M  V30 51792 H 2124.59 3.41248 7.98759 0
M  V30 51793 H 2124.86 2.5837 6.41742 0
M  V30 51794 H 2123.99 5.02657 6.42673 0
M  V30 51795 P 2120.03 6.144 6.45285 0
M  V30 51796 O 2119.81 7.54673 6.86199 0
M  V30 51797 O 2119.24 5.12391 7.179 0
M  V30 51798 O 2119.78 5.99158 4.88404 0
M  V30 51799 C 2120.72 6.60234 3.96415 0
M  V30 51800 C 2119.99 7.08259 2.72856 0
M  V30 51801 O 2119.78 5.9427 1.83651 0
M  V30 51802 C 2118.59 7.64886 2.9555 0
M  V30 51803 O 2118.2 8.53963 1.90717 0
M  V30 51804 C 2117.71 6.4116 2.90739 0
M  V30 51805 C 2118.42 5.55375 1.86963 0
M  V30 51806 N 2118.37 4.09664 2.15742 0
M  V30 51807 H 2121.21 7.45574 4.45629 0
M  V30 51808 H 2121.48 5.86232 3.67314 0
M  V30 51809 H 2120.61 7.84412 2.24479 0
M  V30 51810 P 2116.65 8.7635 1.60911 0
M  V30 51811 O 2116.43 10.1388 1.11561 0
M  V30 51812 O 2115.86 8.36503 2.79617 0
M  V30 51813 O 2116.4 7.71806 0.42951 0
M  V30 51814 C 2117.34 7.67148 -0.673689 0
M  V30 51815 C 2116.61 7.33374 -1.95559 0
M  V30 51816 O 2116.4 5.88721 -2.00726 0
M  V30 51817 C 2115.21 7.92526 -2.10483 0
M  V30 51818 O 2114.82 8.02971 -3.47653 0
M  V30 51819 C 2114.33 6.89602 -1.41652 0
M  V30 51820 C 2115.04 5.59201 -1.75185 0
M  V30 51821 N 2114.99 4.58235 -0.662552 0
M  V30 51822 H 2117.83 8.65116 -0.777161 0
M  V30 51823 H 2118.1 6.90173 -0.474152 0
M  V30 51824 H 2117.23 7.66548 -2.79458 0
M  V30 51825 P 2113.27 8.03563 -3.84925 0
M  V30 51826 O 2113.05 8.85821 -5.0569 0
M  V30 51827 O 2112.48 8.41101 -2.65469 0
M  V30 51828 O 2113.02 6.4965 -4.18908 0
M  V30 51829 C 2113.96 5.81037 -5.05421 0
M  V30 51830 C 2113.23 4.78366 -5.89277 0
M  V30 51831 O 2113.02 3.58302 -5.08433 0
M  V30 51832 C 2111.83 5.17448 -6.36119 0
M  V30 51833 O 2111.44 4.45271 -7.53232 0
M  V30 51834 C 2110.95 4.74639 -5.19936 0
M  V30 51835 C 2111.66 3.49432 -4.70418 0
M  V30 51836 N 2111.61 3.31776 -3.22945 0
M  V30 51837 C 2111.69 4.27147 -2.23315 0
M  V30 51838 N 2111.61 3.78447 -1.02186 0
M  V30 51839 C 2111.47 2.41001 -1.21732 0
M  V30 51840 C 2111.34 1.36111 -0.27694 0
M  V30 51841 N 2111.22 0.113683 -0.912949 0
M  V30 51842 C 2111.22 -0.0846396 -2.27943 0
M  V30 51843 N 2111.09 -1.34737 -2.6916 0
M  V30 51844 N 2111.35 0.902521 -3.16379 0
M  V30 51845 C 2111.47 2.11937 -2.56849 0
M  V30 51846 H 2114.45 6.54213 -5.71376 0
M  V30 51847 H 2114.72 5.30492 -4.44033 0
M  V30 51848 H 2113.85 4.55889 -6.76652 0
M  V30 51849 P 2109.89 4.23843 -7.83734 0
M  V30 51850 O 2109.67 4.19407 -9.29784 0
M  V30 51851 O 2109.1 5.24426 -7.09156 0
M  V30 51852 O 2109.64 2.7935 -7.20758 0
M  V30 51853 C 2110.58 1.7299 -7.50419 0
M  V30 51854 C 2109.85 0.406376 -7.57911 0
M  V30 51855 O 2109.64 -0.0897726 -6.21935 0
M  V30 51856 C 2108.45 0.447224 -8.1878 0
M  V30 51857 O 2108.06 -0.825065 -8.71101 0
M  V30 51858 C 2107.57 0.783801 -6.99623 0
M  V30 51859 C 2108.28 0.0619192 -5.85967 0
M  V30 51860 N 2108.23 0.7859 -4.56281 0
M  V30 51861 H 2111.07 1.93423 -8.4679 0
M  V30 51862 H 2111.34 1.68181 -6.71046 0
M  V30 51863 H 2110.47 -0.289041 -8.15388 0
M  V30 51864 P 2106.51 -1.17771 -8.83182 0
M  V30 51865 O 2106.29 -2.07206 -9.98732 0
M  V30 51866 O 2105.72 0.0743816 -8.81969 0
M  V30 51867 O 2106.26 -1.97652 -7.47304 0
M  V30 51868 C 2107.2 -3.01133 -7.08783 0
M  V30 51869 C 2106.47 -4.12613 -6.37049 0
M  V30 51870 O 2106.26 -3.72827 -4.97879 0
M  V30 51871 C 2105.07 -4.45085 -6.88694 0
M  V30 51872 O 2104.68 -5.7877 -6.5624 0
M  V30 51873 C 2104.19 -3.47817 -6.12078 0
M  V30 51874 C 2104.9 -3.39414 -4.77697 0
M  V30 51875 N 2104.85 -2.04615 -4.15333 0
M  V30 51876 H 2107.69 -3.41248 -7.98759 0
M  V30 51877 H 2107.96 -2.5837 -6.41742 0
M  V30 51878 H 2107.09 -5.02657 -6.42673 0
M  V30 51879 P 2103.13 -6.144 -6.45285 0
M  V30 51880 O 2102.91 -7.54673 -6.86199 0
M  V30 51881 O 2102.34 -5.12391 -7.179 0
M  V30 51882 O 2102.88 -5.99158 -4.88404 0
M  V30 51883 C 2103.82 -6.60234 -3.96415 0
M  V30 51884 C 2103.09 -7.08259 -2.72856 0
M  V30 51885 O 2102.88 -5.9427 -1.83651 0
M  V30 51886 C 2101.69 -7.64886 -2.9555 0
M  V30 51887 O 2101.3 -8.53963 -1.90717 0
M  V30 51888 C 2100.81 -6.4116 -2.90739 0
M  V30 51889 C 2101.52 -5.55375 -1.86963 0
M  V30 51890 N 2101.47 -4.09448 -2.16152 0
M  V30 51891 H 2104.31 -7.45574 -4.45629 0
M  V30 51892 H 2104.58 -5.85864 -3.679 0
M  V30 51893 H 2103.71 -7.84412 -2.24479 0
M  V30 51894 H 2101.06 -5.73457 -0.888562 0
M  V30 51895 H 2100.78 -5.90877 -3.88583 0
M  V30 51896 H 2099.78 -6.6596 -2.58858 0
M  V30 51897 H 2101.62 -8.16339 -3.92049 0
M  V30 51898 P 2099.75 -8.7635 -1.60911 0
M  V30 51899 O 2099.53 -10.1388 -1.11561 0
M  V30 51900 O 2098.96 -8.36503 -2.79617 0
M  V30 51901 O 2099.5 -7.71806 -0.42951 0
M  V30 51902 C 2100.44 -7.67148 0.673689 0
M  V30 51903 C 2099.71 -7.33374 1.95559 0
M  V30 51904 O 2099.5 -5.88721 2.00726 0
M  V30 51905 C 2098.31 -7.92526 2.10483 0
M  V30 51906 O 2097.92 -8.02971 3.47653 0
M  V30 51907 C 2097.43 -6.89602 1.41652 0
M  V30 51908 C 2098.14 -5.59201 1.75185 0
M  V30 51909 N 2098.09 -4.58301 0.657969 0
M  V30 51910 C 2098.17 -4.79019 -0.692603 0
M  V30 51911 N 2098.1 -3.69736 -1.38998 0
M  V30 51912 C 2097.95 -2.70474 -0.438135 0
M  V30 51913 C 2097.82 -1.30327 -0.538142 0
M  V30 51914 N 2097.81 -0.64304 -1.69192 0
M  V30 51915 N 2097.7 -0.611027 0.605183 0
M  V30 51916 C 2097.71 -1.27002 1.75953 0
M  V30 51917 N 2097.83 -2.56038 1.98546 0
M  V30 51918 C 2097.95 -3.22681 0.822541 0
M  V30 51919 H 2100.93 -8.65116 0.777161 0
M  V30 51920 H 2101.2 -6.9022 0.46725 0
M  V30 51921 H 2100.33 -7.66548 2.79458 0
M  V30 51922 H 2097.68 -5.16165 2.65183 0
M  V30 51923 H 2097.4 -7.06433 0.329384 0
M  V30 51924 H 2096.4 -6.90926 1.82021 0
M  V30 51925 H 2098.24 -8.90873 1.62657 0
M  V30 51926 H 2098.28 -5.77785 -1.13874 0
M  V30 51927 H 2097.9 -1.15585 -2.57991 0
M  V30 51928 H 2097.71 0.382989 -1.69835 0
M  V30 51929 H 2097.6 -0.653331 2.64449 0
M  V30 51930 P 2096.37 -8.03563 3.84925 0
M  V30 51931 O 2096.15 -8.85821 5.0569 0
M  V30 51932 O 2095.58 -8.41101 2.65469 0
M  V30 51933 O 2096.12 -6.4965 4.18908 0
M  V30 51934 C 2097.06 -5.81037 5.05421 0
M  V30 51935 C 2096.33 -4.78366 5.89277 0
M  V30 51936 O 2096.12 -3.58302 5.08433 0
M  V30 51937 C 2094.93 -5.17448 6.36119 0
M  V30 51938 O 2094.54 -4.45271 7.53232 0
M  V30 51939 C 2094.05 -4.74639 5.19936 0
M  V30 51940 C 2094.76 -3.49432 4.70418 0
M  V30 51941 N 2094.71 -3.32099 3.22613 0
M  V30 51942 C 2094.79 -4.28245 2.25527 0
M  V30 51943 N 2094.72 -3.80823 1.04874 0
M  V30 51944 C 2094.57 -2.44571 1.23535 0
M  V30 51945 C 2094.44 -1.37068 0.330675 0
M  V30 51946 N 2094.43 -1.51472 -0.990824 0
M  V30 51947 N 2094.32 -0.138614 0.848756 0
M  V30 51948 C 2094.33 0.00675923 2.16999 0
M  V30 51949 N 2094.45 -0.904372 3.11122 0
M  V30 51950 C 2094.57 -2.12707 2.56212 0
M  V30 51951 H 2097.55 -6.54213 5.71376 0
M  V30 51952 H 2097.82 -5.30936 4.43503 0
M  V30 51953 H 2096.95 -4.55889 6.76652 0
M  V30 51954 H 2094.3 -2.61715 5.17932 0
M  V30 51955 H 2094.02 -5.52155 4.41878 0
M  V30 51956 H 2093.02 -4.51981 5.53374 0
M  V30 51957 H 2094.86 -6.25124 6.55234 0
M  V30 51958 H 2094.9 -5.34372 2.47488 0
M  V30 51959 H 2094.52 -2.45153 -1.4078 0
M  V30 51960 H 2094.33 -0.688422 -1.59911 0
M  V30 51961 H 2094.22 1.02584 2.52346 0
M  V30 51962 P 2092.99 -4.23843 7.83734 0
M  V30 51963 O 2092.77 -4.19407 9.29784 0
M  V30 51964 O 2092.2 -5.24426 7.09156 0
M  V30 51965 O 2092.74 -2.7935 7.20758 0
M  V30 51966 C 2093.68 -1.7299 7.50419 0
M  V30 51967 C 2092.95 -0.406376 7.57911 0
M  V30 51968 O 2092.74 0.0897726 6.21935 0
M  V30 51969 C 2091.55 -0.447224 8.1878 0
M  V30 51970 O 2091.16 0.825065 8.71101 0
M  V30 51971 C 2090.67 -0.783801 6.99623 0
M  V30 51972 C 2091.38 -0.0619192 5.85967 0
M  V30 51973 N 2091.33 -0.790462 4.56202 0
M  V30 51974 C 2091.41 -2.13895 4.34171 0
M  V30 51975 N 2091.34 -2.46449 3.08687 0
M  V30 51976 C 2091.19 -1.2525 2.43697 0
M  V30 51977 C 2091.06 -0.914535 1.07318 0
M  V30 51978 N 2091.05 -1.80782 0.0887348 0
M  V30 51979 N 2090.94 0.386745 0.768133 0
M  V30 51980 C 2090.95 1.28096 1.75159 0
M  V30 51981 N 2091.07 1.09708 3.04861 0
M  V30 51982 C 2091.19 -0.214857 3.32306 0
M  V30 51983 H 2094.17 -1.93423 8.4679 0
M  V30 51984 H 2094.44 -1.68852 6.70877 0
M  V30 51985 H 2093.57 0.289041 8.15388 0
M  V30 51986 H 2090.92 0.927006 5.72848 0
M  V30 51987 H 2090.64 -1.86973 6.82036 0
M  V30 51988 H 2089.64 -0.403953 7.13357 0
M  V30 51989 H 2091.48 -1.20599 8.97534 0
M  V30 51990 H 2091.52 -2.86846 5.14318 0
M  V30 51991 H 2091.14 -2.81082 0.302037 0
M  V30 51992 H 2090.95 -1.49688 -0.889064 0
M  V30 51993 H 2090.84 2.31317 1.43855 0
M  V30 51994 P 2089.61 1.17771 8.83182 0
M  V30 51995 O 2089.39 2.07206 9.98732 0
M  V30 51996 O 2088.82 -0.0743816 8.81969 0
M  V30 51997 O 2089.36 1.97652 7.47304 0
M  V30 51998 C 2090.3 3.01055 7.08599 0
M  V30 51999 C 2089.57 4.12613 6.37049 0
M  V30 52000 O 2089.36 3.72827 4.97879 0
M  V30 52001 C 2088.17 4.45719 6.88164 0
M  V30 52002 O 2087.78 5.7877 6.5624 0
M  V30 52003 C 2087.29 3.47768 6.11991 0
M  V30 52004 C 2088 3.39356 4.77615 0
M  V30 52005 N 2087.95 2.04571 4.15244 0
M  V30 52006 C 2087.8 1.98587 2.78314 0
M  V30 52007 O 2087.71 2.98134 2.08835 0
M  V30 52008 N 2087.76 0.714467 2.24925 0
M  V30 52009 C 2087.85 -0.470001 2.94169 0
M  V30 52010 O 2087.8 -1.55587 2.35195 0
M  V30 52011 C 2088 -0.312541 4.36783 0
M  V30 52012 C 2088.11 -1.57711 5.16352 0
M  V30 52013 C 2088.05 0.914512 4.92583 0
M  V30 52014 H 2090.79 3.41169 7.98575 0
M  V30 52015 H 2091.06 2.58295 6.41556 0
M  V30 52016 H 2090.19 5.02657 6.42673 0
M  V30 52017 H 2087.54 4.11637 4.08885 0
M  V30 52018 H 2087.26 2.49626 6.61679 0
M  V30 52019 H 2086.26 3.86566 6.00778 0
M  V30 52020 H 2088.1 4.29943 7.96918 0
M  V30 52021 H 2088.17 1.00937 6.00374 0
M  V30 52022 H 2087.14 -1.80153 5.63503 0
M  V30 52023 H 2088.88 -1.4566 5.94104 0
M  V30 52024 H 2088.39 -2.40664 4.49645 0
M  V30 52025 H 2087.65 0.647622 1.25697 0
M  V30 52026 P 2086.23 6.144 6.45285 0
M  V30 52027 O 2086.01 7.54673 6.86199 0
M  V30 52028 O 2085.44 5.12391 7.179 0
M  V30 52029 O 2085.98 5.99158 4.88404 0
M  V30 52030 C 2086.92 6.60234 3.96415 0
M  V30 52031 C 2086.19 7.08259 2.72856 0
M  V30 52032 O 2085.98 5.9427 1.83651 0
M  V30 52033 C 2084.79 7.64886 2.9555 0
M  V30 52034 O 2084.4 8.53963 1.90717 0
M  V30 52035 C 2083.91 6.4116 2.90739 0
M  V30 52036 C 2084.62 5.55375 1.86963 0
M  V30 52037 N 2084.57 4.09448 2.16152 0
M  V30 52038 H 2087.41 7.45574 4.45629 0
M  V30 52039 H 2087.68 5.85864 3.679 0
M  V30 52040 H 2086.81 7.84412 2.24479 0
M  V30 52041 H 2084.16 5.73457 0.888562 0
M  V30 52042 H 2083.88 5.90877 3.88583 0
M  V30 52043 H 2082.88 6.6596 2.58858 0
M  V30 52044 H 2084.72 8.16339 3.92049 0
M  V30 52045 P 2082.85 8.7635 1.60911 0
M  V30 52046 O 2082.63 10.1388 1.11561 0
M  V30 52047 O 2082.06 8.36503 2.79617 0
M  V30 52048 O 2082.6 7.71806 0.42951 0
M  V30 52049 C 2083.54 7.67148 -0.673689 0
M  V30 52050 C 2082.81 7.33374 -1.95559 0
M  V30 52051 O 2082.6 5.88721 -2.00726 0
M  V30 52052 C 2081.41 7.92526 -2.10483 0
M  V30 52053 O 2081.02 8.02971 -3.47653 0
M  V30 52054 C 2080.53 6.89602 -1.41652 0
M  V30 52055 C 2081.24 5.59201 -1.75185 0
M  V30 52056 N 2081.19 4.58301 -0.657969 0
M  V30 52057 C 2081.27 4.79019 0.692603 0
M  V30 52058 N 2081.2 3.69736 1.38998 0
M  V30 52059 C 2081.05 2.70474 0.438135 0
M  V30 52060 C 2080.92 1.30327 0.538142 0
M  V30 52061 N 2080.91 0.64304 1.69192 0
M  V30 52062 N 2080.8 0.611027 -0.605183 0
M  V30 52063 C 2080.81 1.27002 -1.75953 0
M  V30 52064 N 2080.93 2.56038 -1.98546 0
M  V30 52065 C 2081.05 3.22681 -0.822541 0
M  V30 52066 H 2084.03 8.65116 -0.777161 0
M  V30 52067 H 2084.3 6.9022 -0.46725 0
M  V30 52068 H 2083.43 7.66548 -2.79458 0
M  V30 52069 H 2080.78 5.16165 -2.65183 0
M  V30 52070 H 2080.5 7.06433 -0.329384 0
M  V30 52071 H 2079.5 6.90926 -1.82021 0
M  V30 52072 H 2081.34 8.90873 -1.62657 0
M  V30 52073 H 2081.38 5.77785 1.13874 0
M  V30 52074 H 2081 1.15585 2.57991 0
M  V30 52075 H 2080.81 -0.382989 1.69835 0
M  V30 52076 H 2080.7 0.653331 -2.64449 0
M  V30 52077 P 2079.47 8.03563 -3.84925 0
M  V30 52078 O 2079.25 8.85821 -5.0569 0
M  V30 52079 O 2078.68 8.41101 -2.65469 0
M  V30 52080 O 2079.22 6.4965 -4.18908 0
M  V30 52081 C 2080.16 5.81037 -5.05421 0
M  V30 52082 C 2079.43 4.78366 -5.89277 0
M  V30 52083 O 2079.22 3.58302 -5.08433 0
M  V30 52084 C 2078.03 5.17448 -6.36119 0
M  V30 52085 O 2077.64 4.45271 -7.53232 0
M  V30 52086 C 2077.15 4.74639 -5.19936 0
M  V30 52087 C 2077.86 3.49432 -4.70418 0
M  V30 52088 N 2077.81 3.31776 -3.22945 0
M  V30 52089 H 2080.65 6.54213 -5.71376 0
M  V30 52090 H 2080.92 5.30492 -4.44033 0
M  V30 52091 H 2080.05 4.55889 -6.76652 0
M  V30 52092 P 2076.09 4.23843 -7.83734 0
M  V30 52093 O 2075.87 4.19407 -9.29784 0
M  V30 52094 O 2075.3 5.24426 -7.09156 0
M  V30 52095 O 2075.84 2.79386 -7.20852 0
M  V30 52096 C 2076.78 1.7299 -7.50419 0
M  V30 52097 C 2076.05 0.41401 -7.5797 0
M  V30 52098 O 2075.84 -0.089787 -6.22035 0
M  V30 52099 C 2074.65 0.447224 -8.1878 0
M  V30 52100 O 2074.26 -0.825159 -8.71201 0
M  V30 52101 C 2073.77 0.783801 -6.99623 0
M  V30 52102 C 2074.48 0.0619192 -5.85967 0
M  V30 52103 N 2074.43 0.7859 -4.56281 0
M  V30 52104 C 2074.28 0.0359258 -3.39981 0
M  V30 52105 O 2074.19 -1.19723 -3.49038 0
M  V30 52106 N 2074.23 0.869151 -2.14025 0
M  V30 52107 C 2074.33 2.01207 -2.14363 0
M  V30 52108 N 2074.28 2.58978 -0.954287 0
M  V30 52109 C 2074.48 2.80817 -3.32215 0
M  V30 52110 C 2074.53 2.13785 -4.50884 0
M  V30 52111 H 2077.27 1.93401 -8.46693 0
M  V30 52112 H 2077.54 1.68181 -6.71046 0
M  V30 52113 H 2076.67 -0.289076 -8.15488 0
M  V30 52114 H 2074.02 -0.927166 -5.72947 0
M  V30 52115 H 2073.74 1.87 -6.82132 0
M  V30 52116 H 2072.74 0.404009 -7.13457 0
M  V30 52117 H 2074.58 1.20599 -8.97534 0
M  V30 52118 H 2074.65 2.70295 -5.43162 0
M  V30 52119 H 2074.55 3.89465 -3.27406 0
M  V30 52120 H 2074.16 2.01616 -0.107046 0
M  V30 52121 H 2074.36 3.61403 -0.873101 0
M  V30 52122 P 2072.71 -1.17771 -8.83182 0
M  V30 52123 O 2072.49 -2.07206 -9.98732 0
M  V30 52124 O 2071.92 0.0743816 -8.81969 0
M  V30 52125 O 2072.46 -1.97652 -7.47304 0
M  V30 52126 C 2073.4 -3.01055 -7.08599 0
M  V30 52127 C 2072.67 -4.12613 -6.37049 0
M  V30 52128 O 2072.46 -3.72827 -4.97879 0
M  V30 52129 C 2071.27 -4.45719 -6.88164 0
M  V30 52130 O 2070.88 -5.7877 -6.5624 0
M  V30 52131 C 2070.39 -3.47768 -6.11991 0
M  V30 52132 C 2071.1 -3.39356 -4.77615 0
M  V30 52133 N 2071.05 -2.04571 -4.15244 0
M  V30 52134 C 2070.9 -1.98587 -2.78314 0
M  V30 52135 O 2070.81 -2.98134 -2.08835 0
M  V30 52136 N 2070.86 -0.714467 -2.24925 0
M  V30 52137 C 2070.95 0.470001 -2.94169 0
M  V30 52138 C 2071.1 0.312541 -4.36783 0
M  V30 52139 C 2071.15 -0.914512 -4.92583 0
M  V30 52140 H 2073.89 -3.41169 -7.98575 0
M  V30 52141 H 2074.16 -2.58295 -6.41556 0
M  V30 52142 H 2073.29 -5.02657 -6.42673 0
M  V30 52143 H 2070.64 -4.11637 -4.08885 0
M  V30 52144 H 2070.36 -2.49626 -6.61679 0
M  V30 52145 H 2069.36 -3.86566 -6.00778 0
M  V30 52146 H 2071.2 -4.29943 -7.96918 0
M  V30 52147 H 2071.27 -1.00937 -6.00374 0
M  V30 52148 P 2069.33 -6.144 -6.45285 0
M  V30 52149 O 2069.11 -7.54673 -6.86199 0
M  V30 52150 O 2068.54 -5.12391 -7.179 0
M  V30 52151 O 2069.08 -5.99158 -4.88404 0
M  V30 52152 C 2070.02 -6.60234 -3.96415 0
M  V30 52153 C 2069.29 -7.08259 -2.72856 0
M  V30 52154 O 2069.08 -5.9427 -1.83651 0
M  V30 52155 C 2067.89 -7.64886 -2.9555 0
M  V30 52156 O 2067.5 -8.53963 -1.90717 0
M  V30 52157 C 2067.01 -6.4116 -2.90739 0
M  V30 52158 C 2067.72 -5.55375 -1.86963 0
M  V30 52159 N 2067.67 -4.09448 -2.16152 0
M  V30 52160 H 2070.51 -7.45574 -4.45629 0
M  V30 52161 H 2070.78 -5.85864 -3.679 0
M  V30 52162 H 2069.91 -7.84412 -2.24479 0
M  V30 52163 H 2067.26 -5.73457 -0.888562 0
M  V30 52164 H 2066.98 -5.90877 -3.88583 0
M  V30 52165 H 2065.98 -6.6596 -2.58858 0
M  V30 52166 H 2067.82 -8.16339 -3.92049 0
M  V30 52167 P 2065.95 -8.7635 -1.60911 0
M  V30 52168 O 2065.73 -10.1388 -1.11561 0
M  V30 52169 O 2065.16 -8.36503 -2.79617 0
M  V30 52170 O 2065.7 -7.71806 -0.42951 0
M  V30 52171 C 2066.64 -7.67148 0.673689 0
M  V30 52172 C 2065.91 -7.33374 1.95559 0
M  V30 52173 O 2065.7 -5.88721 2.00726 0
M  V30 52174 C 2064.51 -7.92526 2.10483 0
M  V30 52175 O 2064.12 -8.02971 3.47653 0
M  V30 52176 C 2063.63 -6.89602 1.41652 0
M  V30 52177 C 2064.34 -5.59201 1.75185 0
M  V30 52178 N 2064.29 -4.58301 0.657969 0
M  V30 52179 H 2067.13 -8.65116 0.777161 0
M  V30 52180 H 2067.4 -6.9022 0.46725 0
M  V30 52181 H 2066.53 -7.66548 2.79458 0
M  V30 52182 H 2063.88 -5.16165 2.65183 0
M  V30 52183 H 2063.6 -7.06433 0.329384 0
M  V30 52184 H 2062.6 -6.90926 1.82021 0
M  V30 52185 H 2064.44 -8.90873 1.62657 0
M  V30 52186 P 2062.57 -8.03563 3.84925 0
M  V30 52187 O 2062.35 -8.85821 5.0569 0
M  V30 52188 O 2061.78 -8.41101 2.65469 0
M  V30 52189 O 2062.32 -6.4965 4.18908 0
M  V30 52190 C 2063.26 -5.81037 5.05421 0
M  V30 52191 C 2062.53 -4.78366 5.89277 0
M  V30 52192 O 2062.32 -3.58302 5.08433 0
M  V30 52193 C 2061.13 -5.17448 6.36119 0
M  V30 52194 O 2060.74 -4.45271 7.53232 0
M  V30 52195 C 2060.25 -4.74639 5.19936 0
M  V30 52196 C 2060.96 -3.49432 4.70418 0
M  V30 52197 N 2060.91 -3.31776 3.22945 0
M  V30 52198 H 2063.75 -6.54213 5.71376 0
M  V30 52199 H 2064.02 -5.30492 4.44033 0
M  V30 52200 H 2063.15 -4.55889 6.76652 0
M  V30 52201 P 2059.19 -4.23843 7.83734 0
M  V30 52202 O 2058.97 -4.19407 9.29784 0
M  V30 52203 O 2058.4 -5.24426 7.09156 0
M  V30 52204 O 2058.94 -2.7935 7.20758 0
M  V30 52205 C 2059.88 -1.72945 7.50224 0
M  V30 52206 C 2059.15 -0.406376 7.57911 0
M  V30 52207 O 2058.94 0.0897726 6.21935 0
M  V30 52208 C 2057.75 -0.438983 8.18724 0
M  V30 52209 O 2057.36 0.825065 8.71101 0
M  V30 52210 C 2056.87 -0.783689 6.99524 0
M  V30 52211 C 2057.58 -0.0619086 5.85867 0
M  V30 52212 N 2057.53 -0.78573 4.56183 0
M  V30 52213 C 2057.38 -0.0292889 3.41887 0
M  V30 52214 O 2057.29 1.18445 3.4419 0
M  V30 52215 N 2057.34 -0.744061 2.23964 0
M  V30 52216 C 2057.43 -2.10932 2.10362 0
M  V30 52217 C 2057.58 -2.8202 3.34994 0
M  V30 52218 C 2057.63 -2.15547 4.52261 0
M  V30 52219 H 2060.37 -1.93379 8.46595 0
M  V30 52220 H 2060.64 -1.68132 6.70852 0
M  V30 52221 H 2059.77 0.289041 8.15388 0
M  V30 52222 H 2057.12 0.926847 5.72749 0
M  V30 52223 H 2056.84 -1.86973 6.82036 0
M  V30 52224 H 2055.84 -0.403896 7.13257 0
M  V30 52225 H 2057.68 -1.20585 8.97435 0
M  V30 52226 H 2057.75 -2.71231 5.45042 0
M  V30 52227 P 2055.81 1.17771 8.83182 0
M  V30 52228 O 2055.59 2.07206 9.98732 0
M  V30 52229 O 2055.02 -0.0743816 8.81969 0
M  V30 52230 O 2055.56 1.97652 7.47304 0
M  V30 52231 C 2056.5 3.01133 7.08783 0
M  V30 52232 C 2055.77 4.12613 6.37049 0
M  V30 52233 O 2055.56 3.72827 4.97879 0
M  V30 52234 C 2054.37 4.45085 6.88694 0
M  V30 52235 O 2053.98 5.7877 6.5624 0
M  V30 52236 C 2053.49 3.47817 6.12078 0
M  V30 52237 C 2054.2 3.39414 4.77697 0
M  V30 52238 N 2054.15 2.04199 4.15538 0
M  V30 52239 C 2054.23 0.821545 4.76977 0
M  V30 52240 N 2054.16 -0.1794 3.94592 0
M  V30 52241 C 2054.01 0.419121 2.70776 0
M  V30 52242 C 2053.88 -0.109072 1.40577 0
M  V30 52243 N 2053.87 -1.4104 1.1344 0
M  V30 52244 N 2053.76 0.764381 0.39411 0
M  V30 52245 C 2053.77 2.06587 0.664135 0
M  V30 52246 N 2053.89 2.67948 1.82153 0
M  V30 52247 C 2054.01 1.77942 2.8147 0
M  V30 52248 H 2056.99 3.41248 7.98759 0
M  V30 52249 H 2057.26 2.57728 6.42 0
M  V30 52250 H 2056.39 5.02657 6.42673 0
M  V30 52251 H 2053.74 4.11708 4.08956 0
M  V30 52252 H 2053.46 2.49626 6.61679 0
M  V30 52253 H 2052.46 3.8662 6.00862 0
M  V30 52254 H 2054.3 4.29991 7.97006 0
M  V30 52255 H 2054.34 0.702451 5.84696 0
M  V30 52256 H 2053.96 -2.09647 1.89651 0
M  V30 52257 H 2053.77 -1.73358 0.160575 0
M  V30 52258 H 2053.66 2.71695 -0.195838 0
M  V30 52259 P 2052.43 6.144 6.45285 0
M  V30 52260 O 2052.21 7.54673 6.86199 0
M  V30 52261 O 2051.64 5.12391 7.179 0
M  V30 52262 O 2052.18 5.99158 4.88404 0
M  V30 52263 C 2053.12 6.60234 3.96415 0
M  V30 52264 C 2052.39 7.08259 2.72856 0
M  V30 52265 O 2052.18 5.9427 1.83651 0
M  V30 52266 C 2050.99 7.64886 2.9555 0
M  V30 52267 O 2050.6 8.53963 1.90717 0
M  V30 52268 C 2050.11 6.4116 2.90739 0
M  V30 52269 C 2050.82 5.55375 1.86963 0
M  V30 52270 N 2050.77 4.09448 2.16152 0
M  V30 52271 H 2053.61 7.45574 4.45629 0
M  V30 52272 H 2053.88 5.85864 3.679 0
M  V30 52273 H 2053.01 7.84412 2.24479 0
M  V30 52274 H 2050.36 5.73457 0.888562 0
M  V30 52275 H 2050.08 5.90877 3.88583 0
M  V30 52276 H 2049.08 6.6596 2.58858 0
M  V30 52277 H 2050.92 8.16339 3.92049 0
M  V30 52278 P 2049.05 8.7635 1.60911 0
M  V30 52279 O 2048.83 10.1388 1.11561 0
M  V30 52280 O 2048.26 8.36503 2.79617 0
M  V30 52281 O 2048.8 7.71806 0.42951 0
M  V30 52282 C 2049.74 7.67148 -0.673689 0
M  V30 52283 C 2049.01 7.33374 -1.95559 0
M  V30 52284 O 2048.8 5.88721 -2.00726 0
M  V30 52285 C 2047.61 7.92526 -2.10483 0
M  V30 52286 O 2047.22 8.02971 -3.47653 0
M  V30 52287 C 2046.73 6.89602 -1.41652 0
M  V30 52288 C 2047.44 5.59201 -1.75185 0
M  V30 52289 N 2047.39 4.58235 -0.662552 0
M  V30 52290 H 2050.23 8.65116 -0.777161 0
M  V30 52291 H 2050.5 6.90173 -0.474152 0
M  V30 52292 H 2049.63 7.66548 -2.79458 0
M  V30 52293 P 2045.67 8.03563 -3.84925 0
M  V30 52294 O 2045.45 8.85821 -5.0569 0
M  V30 52295 O 2044.88 8.41101 -2.65469 0
M  V30 52296 O 2045.42 6.4965 -4.18908 0
M  V30 52297 C 2046.36 5.80886 -5.05289 0
M  V30 52298 C 2045.63 4.78366 -5.89277 0
M  V30 52299 O 2045.42 3.58302 -5.08433 0
M  V30 52300 C 2044.23 5.16748 -6.36559 0
M  V30 52301 O 2043.84 4.45271 -7.53232 0
M  V30 52302 C 2043.35 4.74572 -5.19863 0
M  V30 52303 C 2044.06 3.49373 -4.70338 0
M  V30 52304 N 2044.01 3.31704 -3.22876 0
M  V30 52305 C 2043.86 2.03326 -2.74871 0
M  V30 52306 O 2043.77 1.06486 -3.48076 0
M  V30 52307 N 2043.82 1.91838 -1.37456 0
M  V30 52308 C 2043.91 2.94295 -0.462035 0
M  V30 52309 C 2044.06 4.25064 -1.05249 0
M  V30 52310 C 2044.11 4.40214 -2.39192 0
M  V30 52311 H 2046.85 6.54063 -5.71245 0
M  V30 52312 H 2047.12 5.30339 -4.43905 0
M  V30 52313 H 2046.25 4.55889 -6.76652 0
M  V30 52314 H 2043.6 2.6167 -5.17842 0
M  V30 52315 H 2043.32 5.52155 -4.41878 0
M  V30 52316 H 2042.32 4.51918 -5.53297 0
M  V30 52317 H 2044.16 6.25055 -6.55162 0
M  V30 52318 H 2044.23 5.39798 -2.81523 0
M  V30 52319 P 2042.29 4.23843 -7.83734 0
M  V30 52320 O 2042.07 4.19407 -9.29784 0
M  V30 52321 O 2041.5 5.24426 -7.09156 0
M  V30 52322 O 2042.04 2.7935 -7.20758 0
M  V30 52323 C 2042.98 1.7299 -7.50419 0
M  V30 52324 C 2042.25 0.406376 -7.57911 0
M  V30 52325 O 2042.04 -0.0897726 -6.21935 0
M  V30 52326 C 2040.85 0.447224 -8.1878 0
M  V30 52327 O 2040.46 -0.825065 -8.71101 0
M  V30 52328 C 2039.97 0.783801 -6.99623 0
M  V30 52329 C 2040.68 0.0619192 -5.85967 0
M  V30 52330 N 2040.63 0.7859 -4.56281 0
M  V30 52331 H 2043.47 1.93423 -8.4679 0
M  V30 52332 H 2043.74 1.68181 -6.71046 0
M  V30 52333 H 2042.87 -0.289041 -8.15388 0
M  V30 52334 P 2038.91 -1.17771 -8.83182 0
M  V30 52335 O 2038.69 -2.07206 -9.98732 0
M  V30 52336 O 2038.12 0.0743816 -8.81969 0
M  V30 52337 O 2038.66 -1.97652 -7.47304 0
M  V30 52338 C 2039.6 -3.01133 -7.08783 0
M  V30 52339 C 2038.87 -4.12613 -6.37049 0
M  V30 52340 O 2038.66 -3.72827 -4.97879 0
M  V30 52341 C 2037.47 -4.45085 -6.88694 0
M  V30 52342 O 2037.08 -5.7877 -6.5624 0
M  V30 52343 C 2036.59 -3.47817 -6.12078 0
M  V30 52344 C 2037.3 -3.39414 -4.77697 0
M  V30 52345 N 2037.25 -2.04199 -4.15538 0
M  V30 52346 C 2037.33 -0.821545 -4.76977 0
M  V30 52347 N 2037.26 0.1794 -3.94592 0
M  V30 52348 C 2037.11 -0.419121 -2.70776 0
M  V30 52349 C 2036.98 0.109072 -1.40577 0
M  V30 52350 N 2036.97 1.4104 -1.1344 0
M  V30 52351 N 2036.86 -0.764381 -0.39411 0
M  V30 52352 C 2036.87 -2.06587 -0.664135 0
M  V30 52353 N 2036.99 -2.67948 -1.82153 0
M  V30 52354 C 2037.11 -1.77942 -2.8147 0
M  V30 52355 H 2040.09 -3.41248 -7.98759 0
M  V30 52356 H 2040.36 -2.57728 -6.42 0
M  V30 52357 H 2039.49 -5.02657 -6.42673 0
M  V30 52358 H 2036.84 -4.11708 -4.08956 0
M  V30 52359 H 2036.56 -2.49626 -6.61679 0
M  V30 52360 H 2035.56 -3.8662 -6.00862 0
M  V30 52361 H 2037.4 -4.29991 -7.97006 0
M  V30 52362 H 2037.44 -0.702451 -5.84696 0
M  V30 52363 H 2037.06 2.09647 -1.89651 0
M  V30 52364 H 2036.87 1.73358 -0.160575 0
M  V30 52365 H 2036.76 -2.71695 0.195838 0
M  V30 52366 P 2035.53 -6.144 -6.45285 0
M  V30 52367 O 2035.31 -7.54673 -6.86199 0
M  V30 52368 O 2034.74 -5.12391 -7.179 0
M  V30 52369 O 2035.28 -5.99158 -4.88404 0
M  V30 52370 C 2036.22 -6.60234 -3.96415 0
M  V30 52371 C 2035.49 -7.08259 -2.72856 0
M  V30 52372 O 2035.28 -5.9427 -1.83651 0
M  V30 52373 C 2034.09 -7.64886 -2.9555 0
M  V30 52374 O 2033.7 -8.53963 -1.90717 0
M  V30 52375 C 2033.21 -6.4116 -2.90739 0
M  V30 52376 C 2033.92 -5.55375 -1.86963 0
M  V30 52377 N 2033.87 -4.09664 -2.15742 0
M  V30 52378 H 2036.71 -7.45574 -4.45629 0
M  V30 52379 H 2036.98 -5.86232 -3.67314 0
M  V30 52380 H 2036.11 -7.84412 -2.24479 0
M  V30 52381 P 2032.15 -8.7635 -1.60911 0
M  V30 52382 O 2031.93 -10.1388 -1.11561 0
M  V30 52383 O 2031.36 -8.36503 -2.79617 0
M  V30 52384 O 2031.9 -7.71806 -0.42951 0
M  V30 52385 C 2032.84 -7.66948 0.673514 0
M  V30 52386 C 2032.11 -7.33374 1.95559 0
M  V30 52387 O 2031.9 -5.88721 2.00726 0
M  V30 52388 C 2030.71 -7.92218 2.1125 0
M  V30 52389 O 2030.32 -8.02971 3.47653 0
M  V30 52390 C 2029.83 -6.89504 1.41631 0
M  V30 52391 C 2030.54 -5.59106 1.75155 0
M  V30 52392 N 2030.49 -4.58136 0.662409 0
M  V30 52393 C 2030.34 -3.26059 1.02863 0
M  V30 52394 O 2030.25 -2.90743 2.19009 0
M  V30 52395 N 2030.3 -2.35995 -0.0155585 0
M  V30 52396 C 2030.39 -2.65248 -1.35603 0
M  V30 52397 C 2030.54 -4.05747 -1.64698 0
M  V30 52398 C 2030.59 -4.96734 -0.652411 0
M  V30 52399 H 2033.33 -8.64917 0.776982 0
M  V30 52400 H 2033.6 -6.89974 0.474015 0
M  V30 52401 H 2032.73 -7.66548 2.79458 0
M  V30 52402 H 2030.08 -5.16076 2.65138 0
M  V30 52403 H 2029.8 -7.06433 0.329384 0
M  V30 52404 H 2028.8 -6.90829 1.81996 0
M  V30 52405 H 2030.64 -8.90774 1.62639 0
M  V30 52406 H 2030.71 -6.02181 -0.895285 0
M  V30 52407 P 2028.77 -8.03563 3.84925 0
M  V30 52408 O 2028.55 -8.85821 5.0569 0
M  V30 52409 O 2027.98 -8.41101 2.65469 0
M  V30 52410 O 2028.52 -6.4965 4.18908 0
M  V30 52411 C 2029.46 -5.80886 5.05289 0
M  V30 52412 C 2028.73 -4.78366 5.89277 0
M  V30 52413 O 2028.52 -3.58302 5.08433 0
M  V30 52414 C 2027.33 -5.16748 6.36559 0
M  V30 52415 O 2026.94 -4.45271 7.53232 0
M  V30 52416 C 2026.45 -4.74572 5.19863 0
M  V30 52417 C 2027.16 -3.49373 4.70338 0
M  V30 52418 N 2027.11 -3.31704 3.22876 0
M  V30 52419 C 2026.96 -2.03326 2.74871 0
M  V30 52420 O 2026.87 -1.06486 3.48076 0
M  V30 52421 N 2026.92 -1.91838 1.37456 0
M  V30 52422 C 2027.01 -2.94295 0.462035 0
M  V30 52423 C 2027.16 -4.25064 1.05249 0
M  V30 52424 C 2027.21 -4.40214 2.39192 0
M  V30 52425 H 2029.95 -6.54063 5.71245 0
M  V30 52426 H 2030.22 -5.30339 4.43905 0
M  V30 52427 H 2029.35 -4.55889 6.76652 0
M  V30 52428 H 2026.7 -2.6167 5.17842 0
M  V30 52429 H 2026.42 -5.52155 4.41878 0
M  V30 52430 H 2025.43 -4.51918 5.53297 0
M  V30 52431 H 2027.26 -6.25055 6.55162 0
M  V30 52432 H 2027.33 -5.39798 2.81523 0
M  V30 52433 P 2025.39 -4.23843 7.83734 0
M  V30 52434 O 2025.17 -4.19407 9.29784 0
M  V30 52435 O 2024.6 -5.24426 7.09156 0
M  V30 52436 O 2025.14 -2.7935 7.20758 0
M  V30 52437 C 2026.08 -1.72945 7.50224 0
M  V30 52438 C 2025.35 -0.406376 7.57911 0
M  V30 52439 O 2025.14 0.0897726 6.21935 0
M  V30 52440 C 2023.95 -0.438983 8.18724 0
M  V30 52441 O 2023.56 0.825065 8.71101 0
M  V30 52442 C 2023.07 -0.783689 6.99524 0
M  V30 52443 C 2023.78 -0.0619086 5.85867 0
M  V30 52444 N 2023.73 -0.78573 4.56183 0
M  V30 52445 C 2023.58 -0.0292889 3.41887 0
M  V30 52446 O 2023.49 1.18445 3.4419 0
M  V30 52447 N 2023.54 -0.744061 2.23964 0
M  V30 52448 C 2023.63 -2.10932 2.10362 0
M  V30 52449 O 2023.58 -2.64117 0.98825 0
M  V30 52450 C 2023.78 -2.8202 3.34994 0
M  V30 52451 C 2023.89 -4.31095 3.25037 0
M  V30 52452 C 2023.83 -2.15547 4.52261 0
M  V30 52453 H 2026.57 -1.93379 8.46595 0
M  V30 52454 H 2026.84 -1.68132 6.70852 0
M  V30 52455 H 2025.97 0.289041 8.15388 0
M  V30 52456 H 2023.32 0.926847 5.72749 0
M  V30 52457 H 2023.04 -1.86973 6.82036 0
M  V30 52458 H 2022.05 -0.403896 7.13257 0
M  V30 52459 H 2023.88 -1.20585 8.97435 0
M  V30 52460 H 2023.95 -2.71231 5.45042 0
M  V30 52461 H 2022.92 -4.76966 3.49992 0
M  V30 52462 H 2024.66 -4.67047 3.95024 0
M  V30 52463 H 2024.17 -4.58996 2.22312 0
M  V30 52464 H 2023.43 -0.214893 1.39758 0
M  V30 52465 P 2022.01 1.17771 8.83182 0
M  V30 52466 O 2021.79 2.07206 9.98732 0
M  V30 52467 O 2021.22 -0.0743816 8.81969 0
M  V30 52468 O 2021.76 1.97652 7.47304 0
M  V30 52469 C 2022.7 3.01133 7.08783 0
M  V30 52470 C 2021.97 4.12613 6.37049 0
M  V30 52471 O 2021.76 3.72827 4.97879 0
M  V30 52472 C 2020.57 4.45085 6.88694 0
M  V30 52473 O 2020.18 5.7877 6.5624 0
M  V30 52474 C 2019.69 3.47817 6.12078 0
M  V30 52475 C 2020.4 3.39414 4.77697 0
M  V30 52476 N 2020.35 2.04615 4.15333 0
M  V30 52477 H 2023.19 3.41248 7.98759 0
M  V30 52478 H 2023.46 2.5837 6.41742 0
M  V30 52479 H 2022.59 5.02657 6.42673 0
M  V30 52480 P 2018.63 6.144 6.45285 0
M  V30 52481 O 2018.41 7.54673 6.86199 0
M  V30 52482 O 2017.84 5.12391 7.179 0
M  V30 52483 O 2018.38 5.99158 4.88404 0
M  V30 52484 C 2019.32 6.60062 3.96313 0
M  V30 52485 C 2018.59 7.08259 2.72856 0
M  V30 52486 O 2018.38 5.9427 1.83651 0
M  V30 52487 C 2017.19 7.65087 2.94749 0
M  V30 52488 O 2016.8 8.53963 1.90717 0
M  V30 52489 C 2016.31 6.41069 2.90698 0
M  V30 52490 C 2017.02 5.5528 1.86931 0
M  V30 52491 N 2016.97 4.09575 2.15696 0
M  V30 52492 C 2016.82 3.24249 1.08435 0
M  V30 52493 O 2016.73 3.63946 -0.0628747 0
M  V30 52494 N 2016.78 1.90009 1.39973 0
M  V30 52495 C 2016.87 1.34884 2.65614 0
M  V30 52496 O 2016.82 0.123716 2.81728 0
M  V30 52497 C 2017.02 2.3145 3.71736 0
M  V30 52498 C 2017.13 1.75913 5.10438 0
M  V30 52499 C 2017.07 3.63518 3.44754 0
M  V30 52500 H 2019.81 7.45402 4.45526 0
M  V30 52501 H 2020.08 5.86062 3.67208 0
M  V30 52502 H 2019.21 7.84412 2.24479 0
M  V30 52503 H 2016.56 5.73358 0.888409 0
M  V30 52504 H 2016.28 5.90877 3.88583 0
M  V30 52505 H 2015.29 6.65867 2.58821 0
M  V30 52506 H 2017.12 8.16248 3.92006 0
M  V30 52507 H 2017.19 4.34551 4.26383 0
M  V30 52508 H 2016.16 1.85471 5.61775 0
M  V30 52509 H 2017.9 2.31364 5.66257 0
M  V30 52510 H 2017.41 0.695936 5.05229 0
M  V30 52511 H 2016.67 1.26277 0.63625 0
M  V30 52512 P 2015.25 8.7635 1.60911 0
M  V30 52513 O 2015.03 10.1388 1.11561 0
M  V30 52514 O 2014.46 8.36503 2.79617 0
M  V30 52515 O 2015 7.71806 0.42951 0
M  V30 52516 C 2015.94 7.66948 -0.673514 0
M  V30 52517 C 2015.21 7.33374 -1.95559 0
M  V30 52518 O 2015 5.88721 -2.00726 0
M  V30 52519 C 2013.81 7.92218 -2.1125 0
M  V30 52520 O 2013.42 8.02971 -3.47653 0
M  V30 52521 C 2012.93 6.89504 -1.41631 0
M  V30 52522 C 2013.64 5.59106 -1.75155 0
M  V30 52523 N 2013.59 4.58136 -0.662409 0
M  V30 52524 C 2013.44 3.26059 -1.02863 0
M  V30 52525 O 2013.35 2.90743 -2.19009 0
M  V30 52526 N 2013.4 2.35995 0.0155585 0
M  V30 52527 C 2013.49 2.65248 1.35603 0
M  V30 52528 C 2013.64 4.05747 1.64698 0
M  V30 52529 C 2013.69 4.96734 0.652411 0
M  V30 52530 H 2016.43 8.64917 -0.776982 0
M  V30 52531 H 2016.7 6.89974 -0.474015 0
M  V30 52532 H 2015.83 7.66548 -2.79458 0
M  V30 52533 H 2013.18 5.16076 -2.65138 0
M  V30 52534 H 2012.9 7.06433 -0.329384 0
M  V30 52535 H 2011.91 6.90829 -1.81996 0
M  V30 52536 H 2013.74 8.90774 -1.62639 0
M  V30 52537 H 2013.81 6.02181 0.895285 0
M  V30 52538 P 2011.87 8.03563 -3.84925 0
M  V30 52539 O 2011.65 8.85821 -5.0569 0
M  V30 52540 O 2011.08 8.41101 -2.65469 0
M  V30 52541 O 2011.62 6.4965 -4.18908 0
M  V30 52542 C 2012.56 5.80886 -5.05289 0
M  V30 52543 C 2011.83 4.78366 -5.89277 0
M  V30 52544 O 2011.62 3.58302 -5.08433 0
M  V30 52545 C 2010.43 5.16748 -6.36559 0
M  V30 52546 O 2010.04 4.45271 -7.53232 0
M  V30 52547 C 2009.55 4.74572 -5.19863 0
M  V30 52548 C 2010.26 3.49373 -4.70338 0
M  V30 52549 N 2010.21 3.31704 -3.22876 0
M  V30 52550 C 2010.06 2.03326 -2.74871 0
M  V30 52551 O 2009.97 1.06486 -3.48076 0
M  V30 52552 N 2010.02 1.91838 -1.37456 0
M  V30 52553 C 2010.11 2.94295 -0.462035 0
M  V30 52554 C 2010.26 4.25064 -1.05249 0
M  V30 52555 C 2010.31 4.40214 -2.39192 0
M  V30 52556 H 2013.05 6.54063 -5.71245 0
M  V30 52557 H 2013.32 5.30339 -4.43905 0
M  V30 52558 H 2012.45 4.55889 -6.76652 0
M  V30 52559 H 2009.8 2.6167 -5.17842 0
M  V30 52560 H 2009.52 5.52155 -4.41878 0
M  V30 52561 H 2008.53 4.51918 -5.53297 0
M  V30 52562 H 2010.36 6.25055 -6.55162 0
M  V30 52563 H 2010.43 5.39798 -2.81523 0
M  V30 52564 P 2008.49 4.23843 -7.83734 0
M  V30 52565 O 2008.27 4.19407 -9.29784 0
M  V30 52566 O 2007.7 5.24426 -7.09156 0
M  V30 52567 O 2008.24 2.7935 -7.20758 0
M  V30 52568 C 2009.18 1.7299 -7.50419 0
M  V30 52569 C 2008.45 0.406376 -7.57911 0
M  V30 52570 O 2008.24 -0.0897726 -6.21935 0
M  V30 52571 C 2007.05 0.447224 -8.1878 0
M  V30 52572 O 2006.66 -0.825065 -8.71101 0
M  V30 52573 C 2006.17 0.783801 -6.99623 0
M  V30 52574 C 2006.88 0.0619192 -5.85967 0
M  V30 52575 N 2006.83 0.7859 -4.56281 0
M  V30 52576 H 2009.67 1.93423 -8.4679 0
M  V30 52577 H 2009.94 1.68181 -6.71046 0
M  V30 52578 H 2009.07 -0.289041 -8.15388 0
M  V30 52579 P 2005.11 -1.17771 -8.83182 0
M  V30 52580 O 2004.89 -2.07206 -9.98732 0
M  V30 52581 O 2004.32 0.0743816 -8.81969 0
M  V30 52582 O 2004.86 -1.97678 -7.474 0
M  V30 52583 C 2005.8 -3.01133 -7.08783 0
M  V30 52584 C 2005.07 -4.1203 -6.37546 0
M  V30 52585 O 2004.86 -3.72887 -4.9796 0
M  V30 52586 C 2003.67 -4.45085 -6.88694 0
M  V30 52587 O 2003.28 -5.78836 -6.56315 0
M  V30 52588 C 2002.79 -3.47817 -6.12078 0
M  V30 52589 C 2003.5 -3.39414 -4.77697 0
M  V30 52590 N 2003.45 -2.04615 -4.15333 0
M  V30 52591 C 2003.3 -1.96929 -2.77162 0
M  V30 52592 O 2003.21 -3.02017 -2.12006 0
M  V30 52593 N 2003.25 -0.55485 -2.24237 0
M  V30 52594 C 2003.35 0.367808 -2.9169 0
M  V30 52595 N 2003.3 1.53426 -2.29427 0
M  V30 52596 C 2003.5 0.319148 -4.33828 0
M  V30 52597 C 2003.55 -0.920672 -4.90433 0
M  V30 52598 H 2006.29 -3.41209 -7.98667 0
M  V30 52599 H 2006.56 -2.5837 -6.41742 0
M  V30 52600 H 2005.69 -5.02718 -6.42752 0
M  V30 52601 H 2003.04 -4.11779 -4.09026 0
M  V30 52602 H 2002.76 -2.49661 -6.61772 0
M  V30 52603 H 2001.77 -3.86674 -6.00946 0
M  V30 52604 H 2003.6 -4.29991 -7.97006 0
M  V30 52605 H 2003.67 -1.00589 -5.98303 0
M  V30 52606 H 2003.57 1.22639 -4.93799 0
M  V30 52607 H 2003.18 1.56819 -1.27167 0
M  V30 52608 H 2003.38 2.41062 -2.83063 0
M  V30 52609 P 2001.73 -6.144 -6.45285 0
M  V30 52610 O 2001.51 -7.54673 -6.86199 0
M  V30 52611 O 2000.94 -5.12391 -7.179 0
M  V30 52612 O 2001.48 -5.99158 -4.88404 0
M  V30 52613 C 2002.42 -6.60234 -3.96415 0
M  V30 52614 C 2001.69 -7.08259 -2.72856 0
M  V30 52615 O 2001.48 -5.9427 -1.83651 0
M  V30 52616 C 2000.29 -7.64886 -2.9555 0
M  V30 52617 O 1999.9 -8.53963 -1.90717 0
M  V30 52618 C 1999.41 -6.4116 -2.90739 0
M  V30 52619 C 2000.12 -5.55375 -1.86963 0
M  V30 52620 N 2000.07 -4.09664 -2.15742 0
M  V30 52621 H 2002.91 -7.45574 -4.45629 0
M  V30 52622 H 2003.18 -5.86232 -3.67314 0
M  V30 52623 H 2002.31 -7.84412 -2.24479 0
M  V30 52624 P 1998.35 -8.7635 -1.60911 0
M  V30 52625 O 1998.13 -10.1388 -1.11561 0
M  V30 52626 O 1997.56 -8.36503 -2.79617 0
M  V30 52627 O 1998.1 -7.71806 -0.42951 0
M  V30 52628 C 1999.04 -7.67148 0.673689 0
M  V30 52629 C 1998.31 -7.33374 1.95559 0
M  V30 52630 O 1998.1 -5.88721 2.00726 0
M  V30 52631 C 1996.91 -7.92526 2.10483 0
M  V30 52632 O 1996.52 -8.02971 3.47653 0
M  V30 52633 C 1996.03 -6.89602 1.41652 0
M  V30 52634 C 1996.74 -5.59201 1.75185 0
M  V30 52635 N 1996.69 -4.58301 0.657969 0
M  V30 52636 C 1996.77 -4.79019 -0.692603 0
M  V30 52637 N 1996.7 -3.69736 -1.38998 0
M  V30 52638 C 1996.55 -2.70474 -0.438135 0
M  V30 52639 C 1996.42 -1.30327 -0.538142 0
M  V30 52640 N 1996.41 -0.64304 -1.69192 0
M  V30 52641 N 1996.3 -0.611027 0.605183 0
M  V30 52642 C 1996.31 -1.27002 1.75953 0
M  V30 52643 N 1996.43 -2.56038 1.98546 0
M  V30 52644 C 1996.55 -3.22681 0.822541 0
M  V30 52645 H 1999.53 -8.65116 0.777161 0
M  V30 52646 H 1999.8 -6.9022 0.46725 0
M  V30 52647 H 1998.93 -7.66548 2.79458 0
M  V30 52648 H 1996.28 -5.16165 2.65183 0
M  V30 52649 H 1996 -7.06433 0.329384 0
M  V30 52650 H 1995.01 -6.90926 1.82021 0
M  V30 52651 H 1996.84 -8.90873 1.62657 0
M  V30 52652 H 1996.88 -5.77785 -1.13874 0
M  V30 52653 H 1996.5 -1.15585 -2.57991 0
M  V30 52654 H 1996.31 0.382989 -1.69835 0
M  V30 52655 H 1996.2 -0.653331 2.64449 0
M  V30 52656 P 1994.97 -8.03563 3.84925 0
M  V30 52657 O 1994.75 -8.85821 5.0569 0
M  V30 52658 O 1994.18 -8.41101 2.65469 0
M  V30 52659 O 1994.72 -6.4965 4.18908 0
M  V30 52660 C 1995.66 -5.81037 5.05421 0
M  V30 52661 C 1994.93 -4.78366 5.89277 0
M  V30 52662 O 1994.72 -3.58302 5.08433 0
M  V30 52663 C 1993.53 -5.17448 6.36119 0
M  V30 52664 O 1993.14 -4.45271 7.53232 0
M  V30 52665 C 1992.65 -4.74639 5.19936 0
M  V30 52666 C 1993.36 -3.49432 4.70418 0
M  V30 52667 N 1993.31 -3.31776 3.22945 0
M  V30 52668 H 1996.15 -6.54213 5.71376 0
M  V30 52669 H 1996.42 -5.30492 4.44033 0
M  V30 52670 H 1995.55 -4.55889 6.76652 0
M  V30 52671 P 1991.59 -4.23843 7.83734 0
M  V30 52672 O 1991.37 -4.19407 9.29784 0
M  V30 52673 O 1990.8 -5.24426 7.09156 0
M  V30 52674 O 1991.34 -2.79386 7.20852 0
M  V30 52675 C 1992.28 -1.7299 7.50419 0
M  V30 52676 C 1991.55 -0.41401 7.5797 0
M  V30 52677 O 1991.34 0.089787 6.22035 0
M  V30 52678 C 1990.15 -0.447224 8.1878 0
M  V30 52679 O 1989.76 0.825159 8.71201 0
M  V30 52680 C 1989.27 -0.783801 6.99623 0
M  V30 52681 C 1989.98 -0.0619192 5.85967 0
M  V30 52682 N 1989.93 -0.7859 4.56281 0
M  V30 52683 C 1989.78 -0.0359258 3.39981 0
M  V30 52684 O 1989.69 1.19723 3.49038 0
M  V30 52685 N 1989.73 -0.869151 2.14025 0
M  V30 52686 C 1989.83 -2.01207 2.14363 0
M  V30 52687 N 1989.78 -2.58978 0.954287 0
M  V30 52688 C 1989.98 -2.80817 3.32215 0
M  V30 52689 C 1990.03 -2.13785 4.50884 0
M  V30 52690 H 1992.77 -1.93401 8.46693 0
M  V30 52691 H 1993.04 -1.68181 6.71046 0
M  V30 52692 H 1992.17 0.289076 8.15488 0
M  V30 52693 H 1989.52 0.927166 5.72947 0
M  V30 52694 H 1989.24 -1.87 6.82132 0
M  V30 52695 H 1988.25 -0.404009 7.13457 0
M  V30 52696 H 1990.08 -1.20599 8.97534 0
M  V30 52697 H 1990.15 -2.70295 5.43162 0
M  V30 52698 H 1990.05 -3.89465 3.27406 0
M  V30 52699 H 1989.66 -2.01616 0.107046 0
M  V30 52700 H 1989.86 -3.61403 0.873101 0
M  V30 52701 P 1988.21 1.17771 8.83182 0
M  V30 52702 O 1987.99 2.07206 9.98732 0
M  V30 52703 O 1987.42 -0.0743816 8.81969 0
M  V30 52704 O 1987.96 1.97652 7.47304 0
M  V30 52705 C 1988.9 3.01055 7.08599 0
M  V30 52706 C 1988.17 4.12613 6.37049 0
M  V30 52707 O 1987.96 3.72827 4.97879 0
M  V30 52708 C 1986.77 4.45719 6.88164 0
M  V30 52709 O 1986.38 5.7877 6.5624 0
M  V30 52710 C 1985.89 3.47768 6.11991 0
M  V30 52711 C 1986.6 3.39356 4.77615 0
M  V30 52712 N 1986.55 2.04571 4.15244 0
M  V30 52713 C 1986.4 1.98587 2.78314 0
M  V30 52714 O 1986.31 2.98134 2.08835 0
M  V30 52715 N 1986.36 0.714467 2.24925 0
M  V30 52716 C 1986.45 -0.470001 2.94169 0
M  V30 52717 O 1986.4 -1.55587 2.35195 0
M  V30 52718 C 1986.6 -0.312541 4.36783 0
M  V30 52719 C 1986.71 -1.57711 5.16352 0
M  V30 52720 C 1986.65 0.914512 4.92583 0
M  V30 52721 H 1989.39 3.41169 7.98575 0
M  V30 52722 H 1989.66 2.58295 6.41556 0
M  V30 52723 H 1988.79 5.02657 6.42673 0
M  V30 52724 H 1986.14 4.11637 4.08885 0
M  V30 52725 H 1985.86 2.49626 6.61679 0
M  V30 52726 H 1984.87 3.86566 6.00778 0
M  V30 52727 H 1986.7 4.29943 7.96918 0
M  V30 52728 H 1986.77 1.00937 6.00374 0
M  V30 52729 H 1985.74 -1.80153 5.63503 0
M  V30 52730 H 1987.48 -1.4566 5.94104 0
M  V30 52731 H 1986.99 -2.40664 4.49645 0
M  V30 52732 H 1986.25 0.647622 1.25697 0
M  V30 52733 P 1984.83 6.144 6.45285 0
M  V30 52734 O 1984.61 7.54673 6.86199 0
M  V30 52735 O 1984.04 5.12391 7.179 0
M  V30 52736 O 1984.58 5.99158 4.88404 0
M  V30 52737 C 1985.52 6.60234 3.96415 0
M  V30 52738 C 1984.79 7.08259 2.72856 0
M  V30 52739 O 1984.58 5.9427 1.83651 0
M  V30 52740 C 1983.39 7.64886 2.9555 0
M  V30 52741 O 1983 8.53963 1.90717 0
M  V30 52742 C 1982.51 6.4116 2.90739 0
M  V30 52743 C 1983.22 5.55375 1.86963 0
M  V30 52744 N 1983.17 4.09664 2.15742 0
M  V30 52745 H 1986.01 7.45574 4.45629 0
M  V30 52746 H 1986.28 5.86232 3.67314 0
M  V30 52747 H 1985.41 7.84412 2.24479 0
M  V30 52748 P 1981.45 8.7635 1.60911 0
M  V30 52749 O 1981.23 10.1388 1.11561 0
M  V30 52750 O 1980.66 8.36503 2.79617 0
M  V30 52751 O 1981.2 7.71806 0.42951 0
M  V30 52752 C 1982.14 7.67148 -0.673689 0
M  V30 52753 C 1981.41 7.33374 -1.95559 0
M  V30 52754 O 1981.2 5.88721 -2.00726 0
M  V30 52755 C 1980.01 7.92526 -2.10483 0
M  V30 52756 O 1979.62 8.02971 -3.47653 0
M  V30 52757 C 1979.13 6.89602 -1.41652 0
M  V30 52758 C 1979.84 5.59201 -1.75185 0
M  V30 52759 N 1979.79 4.58301 -0.657969 0
M  V30 52760 H 1982.63 8.65116 -0.777161 0
M  V30 52761 H 1982.9 6.9022 -0.46725 0
M  V30 52762 H 1982.03 7.66548 -2.79458 0
M  V30 52763 H 1979.38 5.16165 -2.65183 0
M  V30 52764 H 1979.1 7.06433 -0.329384 0
M  V30 52765 H 1978.11 6.90926 -1.82021 0
M  V30 52766 H 1979.94 8.90873 -1.62657 0
M  V30 52767 P 1978.07 8.03563 -3.84925 0
M  V30 52768 O 1977.85 8.85821 -5.0569 0
M  V30 52769 O 1977.28 8.41101 -2.65469 0
M  V30 52770 O 1977.82 6.4965 -4.18908 0
M  V30 52771 C 1978.76 5.81037 -5.05421 0
M  V30 52772 C 1978.03 4.78366 -5.89277 0
M  V30 52773 O 1977.82 3.58302 -5.08433 0
M  V30 52774 C 1976.63 5.17448 -6.36119 0
M  V30 52775 O 1976.24 4.45271 -7.53232 0
M  V30 52776 C 1975.75 4.74639 -5.19936 0
M  V30 52777 C 1976.46 3.49432 -4.70418 0
M  V30 52778 N 1976.41 3.31776 -3.22945 0
M  V30 52779 H 1979.25 6.54213 -5.71376 0
M  V30 52780 H 1979.52 5.30492 -4.44033 0
M  V30 52781 H 1978.65 4.55889 -6.76652 0
M  V30 52782 P 1974.69 4.23843 -7.83734 0
M  V30 52783 O 1974.47 4.19407 -9.29784 0
M  V30 52784 O 1973.9 5.24426 -7.09156 0
M  V30 52785 O 1974.44 2.7935 -7.20758 0
M  V30 52786 C 1975.38 1.7299 -7.50419 0
M  V30 52787 C 1974.65 0.406376 -7.57911 0
M  V30 52788 O 1974.44 -0.0897726 -6.21935 0
M  V30 52789 C 1973.25 0.447224 -8.1878 0
M  V30 52790 O 1972.86 -0.825065 -8.71101 0
M  V30 52791 C 1972.37 0.783801 -6.99623 0
M  V30 52792 C 1973.08 0.0619192 -5.85967 0
M  V30 52793 N 1973.03 0.7859 -4.56281 0
M  V30 52794 H 1975.87 1.93423 -8.4679 0
M  V30 52795 H 1976.14 1.68181 -6.71046 0
M  V30 52796 H 1975.27 -0.289041 -8.15388 0
M  V30 52797 P 1971.31 -1.17771 -8.83182 0
M  V30 52798 O 1971.09 -2.07206 -9.98732 0
M  V30 52799 O 1970.52 0.0743816 -8.81969 0
M  V30 52800 O 1971.06 -1.97652 -7.47304 0
M  V30 52801 C 1972 -3.01133 -7.08783 0
M  V30 52802 C 1971.27 -4.12613 -6.37049 0
M  V30 52803 O 1971.06 -3.72827 -4.97879 0
M  V30 52804 C 1969.87 -4.45085 -6.88694 0
M  V30 52805 O 1969.48 -5.7877 -6.5624 0
M  V30 52806 C 1968.99 -3.47817 -6.12078 0
M  V30 52807 C 1969.7 -3.39414 -4.77697 0
M  V30 52808 N 1969.65 -2.04199 -4.15538 0
M  V30 52809 H 1972.49 -3.41248 -7.98759 0
M  V30 52810 H 1972.76 -2.57728 -6.42 0
M  V30 52811 H 1971.89 -5.02657 -6.42673 0
M  V30 52812 H 1969.24 -4.11708 -4.08956 0
M  V30 52813 H 1968.96 -2.49626 -6.61679 0
M  V30 52814 H 1967.97 -3.8662 -6.00862 0
M  V30 52815 H 1969.8 -4.29991 -7.97006 0
M  V30 52816 P 1967.93 -6.144 -6.45285 0
M  V30 52817 O 1967.71 -7.54673 -6.86199 0
M  V30 52818 O 1967.14 -5.12391 -7.179 0
M  V30 52819 O 1967.68 -5.99158 -4.88404 0
M  V30 52820 C 1968.62 -6.60062 -3.96313 0
M  V30 52821 C 1967.89 -7.08259 -2.72856 0
M  V30 52822 O 1967.68 -5.9427 -1.83651 0
M  V30 52823 C 1966.49 -7.65087 -2.94749 0
M  V30 52824 O 1966.1 -8.53963 -1.90717 0
M  V30 52825 C 1965.61 -6.41069 -2.90698 0
M  V30 52826 C 1966.32 -5.5528 -1.86931 0
M  V30 52827 N 1966.27 -4.09575 -2.15696 0
M  V30 52828 C 1966.12 -3.24249 -1.08435 0
M  V30 52829 O 1966.03 -3.63946 0.0628747 0
M  V30 52830 N 1966.08 -1.90009 -1.39973 0
M  V30 52831 C 1966.17 -1.34884 -2.65614 0
M  V30 52832 C 1966.32 -2.3145 -3.71736 0
M  V30 52833 C 1966.37 -3.63518 -3.44754 0
M  V30 52834 H 1969.11 -7.45402 -4.45526 0
M  V30 52835 H 1969.38 -5.86062 -3.67208 0
M  V30 52836 H 1968.51 -7.84412 -2.24479 0
M  V30 52837 H 1965.86 -5.73358 -0.888409 0
M  V30 52838 H 1965.58 -5.90877 -3.88583 0
M  V30 52839 H 1964.59 -6.65867 -2.58821 0
M  V30 52840 H 1966.42 -8.16248 -3.92006 0
M  V30 52841 H 1966.49 -4.34551 -4.26383 0
M  V30 52842 P 1964.55 -8.7635 -1.60911 0
M  V30 52843 O 1964.33 -10.1388 -1.11561 0
M  V30 52844 O 1963.76 -8.36503 -2.79617 0
M  V30 52845 O 1964.3 -7.71806 -0.42951 0
M  V30 52846 C 1965.24 -7.67148 0.673689 0
M  V30 52847 C 1964.51 -7.33374 1.95559 0
M  V30 52848 O 1964.3 -5.88721 2.00726 0
M  V30 52849 C 1963.11 -7.92526 2.10483 0
M  V30 52850 O 1962.72 -8.02971 3.47653 0
M  V30 52851 C 1962.23 -6.89602 1.41652 0
M  V30 52852 C 1962.94 -5.59201 1.75185 0
M  V30 52853 N 1962.89 -4.58235 0.662552 0
M  V30 52854 H 1965.73 -8.65116 0.777161 0
M  V30 52855 H 1966 -6.90173 0.474152 0
M  V30 52856 H 1965.13 -7.66548 2.79458 0
M  V30 52857 P 1961.17 -8.03563 3.84925 0
M  V30 52858 O 1960.95 -8.85821 5.0569 0
M  V30 52859 O 1960.38 -8.41101 2.65469 0
M  V30 52860 O 1960.92 -6.4965 4.18908 0
M  V30 52861 C 1961.86 -5.81037 5.05421 0
M  V30 52862 C 1961.13 -4.78366 5.89277 0
M  V30 52863 O 1960.92 -3.58302 5.08433 0
M  V30 52864 C 1959.73 -5.17448 6.36119 0
M  V30 52865 O 1959.34 -4.45271 7.53232 0
M  V30 52866 C 1958.85 -4.74639 5.19936 0
M  V30 52867 C 1959.56 -3.49432 4.70418 0
M  V30 52868 N 1959.51 -3.31776 3.22945 0
M  V30 52869 C 1959.59 -4.27147 2.23315 0
M  V30 52870 N 1959.51 -3.78447 1.02186 0
M  V30 52871 C 1959.37 -2.41001 1.21732 0
M  V30 52872 C 1959.24 -1.36111 0.27694 0
M  V30 52873 O 1959.22 -1.42065 -0.951767 0
M  V30 52874 N 1959.12 -0.113683 0.912949 0
M  V30 52875 C 1959.12 0.0846396 2.27943 0
M  V30 52876 N 1958.99 1.34737 2.6916 0
M  V30 52877 N 1959.25 -0.902521 3.16379 0
M  V30 52878 C 1959.37 -2.11937 2.56849 0
M  V30 52879 H 1962.35 -6.54213 5.71376 0
M  V30 52880 H 1962.62 -5.30492 4.44033 0
M  V30 52881 H 1961.75 -4.55889 6.76652 0
M  V30 52882 H 1959.1 -2.6176 5.18021 0
M  V30 52883 H 1958.82 -5.52233 4.41941 0
M  V30 52884 H 1957.83 -4.52045 5.53452 0
M  V30 52885 H 1959.66 -6.25193 6.55307 0
M  V30 52886 H 1959.71 -5.3351 2.43857 0
M  V30 52887 H 1959.03 0.69331 0.330371 0
M  V30 52888 H 1958.99 1.56433 3.6988 0
M  V30 52889 H 1958.89 2.10701 2.00133 0
M  V30 52890 P 1957.79 -4.23843 7.83734 0
M  V30 52891 O 1957.57 -4.19407 9.29784 0
M  V30 52892 O 1957 -5.24426 7.09156 0
M  V30 52893 O 1957.54 -2.7935 7.20758 0
M  V30 52894 C 1958.48 -1.7299 7.50419 0
M  V30 52895 C 1957.75 -0.406376 7.57911 0
M  V30 52896 O 1957.54 0.0897726 6.21935 0
M  V30 52897 C 1956.35 -0.447224 8.1878 0
M  V30 52898 O 1955.96 0.825065 8.71101 0
M  V30 52899 C 1955.47 -0.783801 6.99623 0
M  V30 52900 C 1956.18 -0.0619192 5.85967 0
M  V30 52901 N 1956.13 -0.7859 4.56281 0
M  V30 52902 H 1958.97 -1.93423 8.4679 0
M  V30 52903 H 1959.24 -1.68181 6.71046 0
M  V30 52904 H 1958.37 0.289041 8.15388 0
M  V30 52905 P 1954.41 1.17771 8.83182 0
M  V30 52906 O 1954.19 2.07206 9.98732 0
M  V30 52907 O 1953.62 -0.0743816 8.81969 0
M  V30 52908 O 1954.16 1.97652 7.47304 0
M  V30 52909 C 1955.1 3.01133 7.08783 0
M  V30 52910 C 1954.37 4.12613 6.37049 0
M  V30 52911 O 1954.16 3.72827 4.97879 0
M  V30 52912 C 1952.97 4.45085 6.88694 0
M  V30 52913 O 1952.58 5.7877 6.5624 0
M  V30 52914 C 1952.09 3.47817 6.12078 0
M  V30 52915 C 1952.8 3.39414 4.77697 0
M  V30 52916 N 1952.75 2.04199 4.15538 0
M  V30 52917 C 1952.83 0.821545 4.76977 0
M  V30 52918 N 1952.76 -0.1794 3.94592 0
M  V30 52919 C 1952.61 0.419121 2.70776 0
M  V30 52920 C 1952.48 -0.109072 1.40577 0
M  V30 52921 N 1952.47 -1.4104 1.1344 0
M  V30 52922 N 1952.36 0.764381 0.39411 0
M  V30 52923 C 1952.37 2.06587 0.664135 0
M  V30 52924 N 1952.49 2.67948 1.82153 0
M  V30 52925 C 1952.61 1.77942 2.8147 0
M  V30 52926 H 1955.59 3.41248 7.98759 0
M  V30 52927 H 1955.86 2.57728 6.42 0
M  V30 52928 H 1954.99 5.02657 6.42673 0
M  V30 52929 H 1952.34 4.11708 4.08956 0
M  V30 52930 H 1952.06 2.49626 6.61679 0
M  V30 52931 H 1951.07 3.8662 6.00862 0
M  V30 52932 H 1952.9 4.29991 7.97006 0
M  V30 52933 H 1952.94 0.702451 5.84696 0
M  V30 52934 H 1952.56 -2.09647 1.89651 0
M  V30 52935 H 1952.37 -1.73358 0.160575 0
M  V30 52936 H 1952.26 2.71695 -0.195838 0
M  V30 52937 P 1951.03 6.144 6.45285 0
M  V30 52938 O 1950.81 7.54673 6.86199 0
M  V30 52939 O 1950.24 5.12391 7.179 0
M  V30 52940 O 1950.78 5.99158 4.88404 0
M  V30 52941 C 1951.72 6.60234 3.96415 0
M  V30 52942 C 1950.99 7.08259 2.72856 0
M  V30 52943 O 1950.78 5.9427 1.83651 0
M  V30 52944 C 1949.59 7.64886 2.9555 0
M  V30 52945 O 1949.2 8.53963 1.90717 0
M  V30 52946 C 1948.71 6.4116 2.90739 0
M  V30 52947 C 1949.42 5.55375 1.86963 0
M  V30 52948 N 1949.37 4.09664 2.15742 0
M  V30 52949 H 1952.21 7.45574 4.45629 0
M  V30 52950 H 1952.48 5.86232 3.67314 0
M  V30 52951 H 1951.61 7.84412 2.24479 0
M  V30 52952 P 1947.65 8.7635 1.60911 0
M  V30 52953 O 1947.43 10.1388 1.11561 0
M  V30 52954 O 1946.86 8.36503 2.79617 0
M  V30 52955 O 1947.4 7.71806 0.42951 0
M  V30 52956 C 1948.34 7.67148 -0.673689 0
M  V30 52957 C 1947.61 7.33374 -1.95559 0
M  V30 52958 O 1947.4 5.88721 -2.00726 0
M  V30 52959 C 1946.21 7.92526 -2.10483 0
M  V30 52960 O 1945.82 8.02971 -3.47653 0
M  V30 52961 C 1945.33 6.89602 -1.41652 0
M  V30 52962 C 1946.04 5.59201 -1.75185 0
M  V30 52963 N 1945.99 4.58235 -0.662552 0
M  V30 52964 H 1948.83 8.65116 -0.777161 0
M  V30 52965 H 1949.1 6.90173 -0.474152 0
M  V30 52966 H 1948.23 7.66548 -2.79458 0
M  V30 52967 P 1944.27 8.03563 -3.84925 0
M  V30 52968 O 1944.05 8.85821 -5.0569 0
M  V30 52969 O 1943.48 8.41101 -2.65469 0
M  V30 52970 O 1944.02 6.4965 -4.18908 0
M  V30 52971 C 1944.96 5.81037 -5.05421 0
M  V30 52972 C 1944.23 4.78366 -5.89277 0
M  V30 52973 O 1944.02 3.58302 -5.08433 0
M  V30 52974 C 1942.83 5.17448 -6.36119 0
M  V30 52975 O 1942.44 4.45271 -7.53232 0
M  V30 52976 C 1941.95 4.74639 -5.19936 0
M  V30 52977 C 1942.66 3.49432 -4.70418 0
M  V30 52978 N 1942.61 3.31776 -3.22945 0
M  V30 52979 H 1945.45 6.54213 -5.71376 0
M  V30 52980 H 1945.72 5.30492 -4.44033 0
M  V30 52981 H 1944.85 4.55889 -6.76652 0
M  V30 52982 P 1940.89 4.23843 -7.83734 0
M  V30 52983 O 1940.67 4.19407 -9.29784 0
M  V30 52984 O 1940.1 5.24426 -7.09156 0
M  V30 52985 O 1940.64 2.7935 -7.20758 0
M  V30 52986 C 1941.58 1.7299 -7.50419 0
M  V30 52987 C 1940.85 0.406376 -7.57911 0
M  V30 52988 O 1940.64 -0.0897726 -6.21935 0
M  V30 52989 C 1939.45 0.447224 -8.1878 0
M  V30 52990 O 1939.06 -0.825065 -8.71101 0
M  V30 52991 C 1938.57 0.783801 -6.99623 0
M  V30 52992 C 1939.28 0.0619192 -5.85967 0
M  V30 52993 N 1939.23 0.7859 -4.56281 0
M  V30 52994 H 1942.07 1.93423 -8.4679 0
M  V30 52995 H 1942.34 1.68181 -6.71046 0
M  V30 52996 H 1941.47 -0.289041 -8.15388 0
M  V30 52997 P 1937.51 -1.17771 -8.83182 0
M  V30 52998 O 1937.29 -2.07206 -9.98732 0
M  V30 52999 O 1936.72 0.0743816 -8.81969 0
M  V30 53000 O 1937.26 -1.97652 -7.47304 0
M  V30 53001 C 1938.2 -3.01133 -7.08783 0
M  V30 53002 C 1937.47 -4.12613 -6.37049 0
M  V30 53003 O 1937.26 -3.72827 -4.97879 0
M  V30 53004 C 1936.07 -4.45085 -6.88694 0
M  V30 53005 O 1935.68 -5.7877 -6.5624 0
M  V30 53006 C 1935.19 -3.47817 -6.12078 0
M  V30 53007 C 1935.9 -3.39414 -4.77697 0
M  V30 53008 N 1935.85 -2.04615 -4.15333 0
M  V30 53009 H 1938.69 -3.41248 -7.98759 0
M  V30 53010 H 1938.96 -2.5837 -6.41742 0
M  V30 53011 H 1938.09 -5.02657 -6.42673 0
M  V30 53012 P 1934.13 -6.144 -6.45285 0
M  V30 53013 O 1933.91 -7.54673 -6.86199 0
M  V30 53014 O 1933.34 -5.12391 -7.179 0
M  V30 53015 O 1933.88 -5.99158 -4.88404 0
M  V30 53016 C 1934.82 -6.60234 -3.96415 0
M  V30 53017 C 1934.09 -7.08259 -2.72856 0
M  V30 53018 O 1933.88 -5.9427 -1.83651 0
M  V30 53019 C 1932.69 -7.64886 -2.9555 0
M  V30 53020 O 1932.3 -8.53963 -1.90717 0
M  V30 53021 C 1931.81 -6.4116 -2.90739 0
M  V30 53022 C 1932.52 -5.55375 -1.86963 0
M  V30 53023 N 1932.47 -4.09664 -2.15742 0
M  V30 53024 H 1935.31 -7.45574 -4.45629 0
M  V30 53025 H 1935.58 -5.86232 -3.67314 0
M  V30 53026 H 1934.71 -7.84412 -2.24479 0
M  V30 53027 P 1930.75 -8.7635 -1.60911 0
M  V30 53028 O 1930.53 -10.1388 -1.11561 0
M  V30 53029 O 1929.96 -8.36503 -2.79617 0
M  V30 53030 O 1930.5 -7.71806 -0.42951 0
M  V30 53031 C 1931.44 -7.67148 0.673689 0
M  V30 53032 C 1930.71 -7.33374 1.95559 0
M  V30 53033 O 1930.5 -5.88721 2.00726 0
M  V30 53034 C 1929.31 -7.92526 2.10483 0
M  V30 53035 O 1928.92 -8.02971 3.47653 0
M  V30 53036 C 1928.43 -6.89602 1.41652 0
M  V30 53037 C 1929.14 -5.59201 1.75185 0
M  V30 53038 N 1929.09 -4.58301 0.657969 0
M  V30 53039 H 1931.93 -8.65116 0.777161 0
M  V30 53040 H 1932.2 -6.9022 0.46725 0
M  V30 53041 H 1931.33 -7.66548 2.79458 0
M  V30 53042 H 1928.68 -5.16165 2.65183 0
M  V30 53043 H 1928.4 -7.06433 0.329384 0
M  V30 53044 H 1927.41 -6.90926 1.82021 0
M  V30 53045 H 1929.24 -8.90873 1.62657 0
M  V30 53046 P 1927.37 -8.03563 3.84925 0
M  V30 53047 O 1927.15 -8.85821 5.0569 0
M  V30 53048 O 1926.58 -8.41101 2.65469 0
M  V30 53049 O 1927.12 -6.4965 4.18908 0
M  V30 53050 C 1928.06 -5.81037 5.05421 0
M  V30 53051 C 1927.33 -4.78366 5.89277 0
M  V30 53052 O 1927.12 -3.58302 5.08433 0
M  V30 53053 C 1925.93 -5.17448 6.36119 0
M  V30 53054 O 1925.54 -4.45271 7.53232 0
M  V30 53055 C 1925.05 -4.74639 5.19936 0
M  V30 53056 C 1925.76 -3.49432 4.70418 0
M  V30 53057 N 1925.71 -3.32099 3.22613 0
M  V30 53058 H 1928.55 -6.54213 5.71376 0
M  V30 53059 H 1928.82 -5.30936 4.43503 0
M  V30 53060 H 1927.95 -4.55889 6.76652 0
M  V30 53061 H 1925.3 -2.61715 5.17932 0
M  V30 53062 H 1925.02 -5.52155 4.41878 0
M  V30 53063 H 1924.03 -4.51981 5.53374 0
M  V30 53064 H 1925.86 -6.25124 6.55234 0
M  V30 53065 P 1923.99 -4.23843 7.83734 0
M  V30 53066 O 1923.77 -4.19407 9.29784 0
M  V30 53067 O 1923.2 -5.24426 7.09156 0
M  V30 53068 O 1923.74 -2.7935 7.20758 0
M  V30 53069 C 1924.68 -1.7299 7.50419 0
M  V30 53070 C 1923.95 -0.406376 7.57911 0
M  V30 53071 O 1923.74 0.0897726 6.21935 0
M  V30 53072 C 1922.55 -0.447224 8.1878 0
M  V30 53073 O 1922.16 0.825065 8.71101 0
M  V30 53074 C 1921.67 -0.783801 6.99623 0
M  V30 53075 C 1922.38 -0.0619192 5.85967 0
M  V30 53076 N 1922.33 -0.790462 4.56202 0
M  V30 53077 H 1925.17 -1.93423 8.4679 0
M  V30 53078 H 1925.44 -1.68852 6.70877 0
M  V30 53079 H 1924.57 0.289041 8.15388 0
M  V30 53080 H 1921.92 0.927006 5.72848 0
M  V30 53081 H 1921.64 -1.86973 6.82036 0
M  V30 53082 H 1920.65 -0.403953 7.13357 0
M  V30 53083 H 1922.48 -1.20599 8.97534 0
M  V30 53084 P 1920.61 1.17771 8.83182 0
M  V30 53085 O 1920.39 2.07206 9.98732 0
M  V30 53086 O 1919.82 -0.0743816 8.81969 0
M  V30 53087 O 1920.36 1.97678 7.474 0
M  V30 53088 C 1921.3 3.01133 7.08783 0
M  V30 53089 C 1920.57 4.1203 6.37546 0
M  V30 53090 O 1920.36 3.72887 4.9796 0
M  V30 53091 C 1919.17 4.45085 6.88694 0
M  V30 53092 O 1918.78 5.78836 6.56315 0
M  V30 53093 C 1918.29 3.47817 6.12078 0
M  V30 53094 C 1919 3.39414 4.77697 0
M  V30 53095 N 1918.95 2.04615 4.15333 0
M  V30 53096 C 1918.8 1.96929 2.77162 0
M  V30 53097 O 1918.71 3.02017 2.12006 0
M  V30 53098 N 1918.75 0.55485 2.24237 0
M  V30 53099 C 1918.85 -0.367808 2.9169 0
M  V30 53100 N 1918.8 -1.53426 2.29427 0
M  V30 53101 C 1919 -0.319148 4.33828 0
M  V30 53102 C 1919.05 0.920672 4.90433 0
M  V30 53103 H 1921.79 3.41209 7.98667 0
M  V30 53104 H 1922.06 2.5837 6.41742 0
M  V30 53105 H 1921.19 5.02718 6.42752 0
M  V30 53106 H 1918.54 4.11779 4.09026 0
M  V30 53107 H 1918.26 2.49661 6.61772 0
M  V30 53108 H 1917.27 3.86674 6.00946 0
M  V30 53109 H 1919.1 4.29991 7.97006 0
M  V30 53110 H 1919.17 1.00589 5.98303 0
M  V30 53111 H 1919.07 -1.22639 4.93799 0
M  V30 53112 H 1918.68 -1.56819 1.27167 0
M  V30 53113 H 1918.88 -2.41062 2.83063 0
M  V30 53114 P 1917.23 6.144 6.45285 0
M  V30 53115 O 1917.01 7.54673 6.86199 0
M  V30 53116 O 1916.44 5.12391 7.179 0
M  V30 53117 O 1916.98 5.99158 4.88404 0
M  V30 53118 C 1917.92 6.60062 3.96313 0
M  V30 53119 C 1917.19 7.08259 2.72856 0
M  V30 53120 O 1916.98 5.9427 1.83651 0
M  V30 53121 C 1915.79 7.65087 2.94749 0
M  V30 53122 O 1915.4 8.53963 1.90717 0
M  V30 53123 C 1914.91 6.41069 2.90698 0
M  V30 53124 C 1915.62 5.5528 1.86931 0
M  V30 53125 N 1915.57 4.09575 2.15696 0
M  V30 53126 C 1915.42 3.24249 1.08435 0
M  V30 53127 O 1915.33 3.63946 -0.0628747 0
M  V30 53128 N 1915.38 1.90009 1.39973 0
M  V30 53129 C 1915.47 1.34884 2.65614 0
M  V30 53130 O 1915.42 0.123716 2.81728 0
M  V30 53131 C 1915.62 2.3145 3.71736 0
M  V30 53132 C 1915.73 1.75913 5.10438 0
M  V30 53133 C 1915.67 3.63518 3.44754 0
M  V30 53134 H 1918.41 7.45402 4.45526 0
M  V30 53135 H 1918.68 5.86062 3.67208 0
M  V30 53136 H 1917.81 7.84412 2.24479 0
M  V30 53137 H 1915.16 5.73358 0.888409 0
M  V30 53138 H 1914.88 5.90877 3.88583 0
M  V30 53139 H 1913.89 6.65867 2.58821 0
M  V30 53140 H 1915.72 8.16248 3.92006 0
M  V30 53141 H 1915.79 4.34551 4.26383 0
M  V30 53142 H 1914.76 1.85471 5.61775 0
M  V30 53143 H 1916.5 2.31364 5.66257 0
M  V30 53144 H 1916.01 0.695936 5.05229 0
M  V30 53145 H 1915.27 1.26277 0.63625 0
M  V30 53146 P 1913.85 8.7635 1.60911 0
M  V30 53147 O 1913.63 10.1388 1.11561 0
M  V30 53148 O 1913.06 8.36503 2.79617 0
M  V30 53149 O 1913.6 7.71806 0.42951 0
M  V30 53150 C 1914.54 7.67148 -0.673689 0
M  V30 53151 C 1913.81 7.33374 -1.95559 0
M  V30 53152 O 1913.6 5.88721 -2.00726 0
M  V30 53153 C 1912.41 7.92526 -2.10483 0
M  V30 53154 O 1912.02 8.02971 -3.47653 0
M  V30 53155 C 1911.53 6.89602 -1.41652 0
M  V30 53156 C 1912.24 5.59201 -1.75185 0
M  V30 53157 N 1912.19 4.58235 -0.662552 0
M  V30 53158 H 1915.03 8.65116 -0.777161 0
M  V30 53159 H 1915.3 6.90173 -0.474152 0
M  V30 53160 H 1914.43 7.66548 -2.79458 0
M  V30 53161 P 1910.47 8.03563 -3.84925 0
M  V30 53162 O 1910.25 8.85821 -5.0569 0
M  V30 53163 O 1909.68 8.41101 -2.65469 0
M  V30 53164 O 1910.22 6.4965 -4.18908 0
M  V30 53165 C 1911.16 5.81037 -5.05421 0
M  V30 53166 C 1910.43 4.78366 -5.89277 0
M  V30 53167 O 1910.22 3.58302 -5.08433 0
M  V30 53168 C 1909.03 5.17448 -6.36119 0
M  V30 53169 O 1908.64 4.45271 -7.53232 0
M  V30 53170 C 1908.15 4.74639 -5.19936 0
M  V30 53171 C 1908.86 3.49432 -4.70418 0
M  V30 53172 N 1908.81 3.32099 -3.22613 0
M  V30 53173 H 1911.65 6.54213 -5.71376 0
M  V30 53174 H 1911.92 5.30936 -4.43503 0
M  V30 53175 H 1911.05 4.55889 -6.76652 0
M  V30 53176 H 1908.4 2.61715 -5.17932 0
M  V30 53177 H 1908.12 5.52155 -4.41878 0
M  V30 53178 H 1907.13 4.51981 -5.53374 0
M  V30 53179 H 1908.96 6.25124 -6.55234 0
M  V30 53180 P 1907.09 4.23843 -7.83734 0
M  V30 53181 O 1906.87 4.19407 -9.29784 0
M  V30 53182 O 1906.3 5.24426 -7.09156 0
M  V30 53183 O 1906.84 2.7935 -7.20758 0
M  V30 53184 C 1907.78 1.7299 -7.50419 0
M  V30 53185 C 1907.05 0.406376 -7.57911 0
M  V30 53186 O 1906.84 -0.0897726 -6.21935 0
M  V30 53187 C 1905.65 0.447224 -8.1878 0
M  V30 53188 O 1905.26 -0.825065 -8.71101 0
M  V30 53189 C 1904.77 0.783801 -6.99623 0
M  V30 53190 C 1905.48 0.0619192 -5.85967 0
M  V30 53191 N 1905.43 0.7859 -4.56281 0
M  V30 53192 C 1905.51 2.14308 -4.31736 0
M  V30 53193 N 1905.43 2.46106 -3.05116 0
M  V30 53194 C 1905.29 1.23422 -2.4014 0
M  V30 53195 C 1905.16 0.938381 -1.02409 0
M  V30 53196 N 1905.04 -0.444647 -0.805413 0
M  V30 53197 C 1905.04 -1.40829 -1.79435 0
M  V30 53198 N 1904.91 -2.67213 -1.38558 0
M  V30 53199 N 1905.17 -1.12947 -3.09005 0
M  V30 53200 C 1905.29 0.204887 -3.32369 0
M  V30 53201 H 1908.27 1.93423 -8.4679 0
M  V30 53202 H 1908.54 1.68181 -6.71046 0
M  V30 53203 H 1907.67 -0.289041 -8.15388 0
M  V30 53204 P 1903.71 -1.17771 -8.83182 0
M  V30 53205 O 1903.49 -2.07206 -9.98732 0
M  V30 53206 O 1902.92 0.0743816 -8.81969 0
M  V30 53207 O 1903.46 -1.97652 -7.47304 0
M  V30 53208 C 1904.4 -3.01133 -7.08783 0
M  V30 53209 C 1903.67 -4.12613 -6.37049 0
M  V30 53210 O 1903.46 -3.72827 -4.97879 0
M  V30 53211 C 1902.27 -4.45085 -6.88694 0
M  V30 53212 O 1901.88 -5.7877 -6.5624 0
M  V30 53213 C 1901.39 -3.47817 -6.12078 0
M  V30 53214 C 1902.1 -3.39414 -4.77697 0
M  V30 53215 N 1902.05 -2.04199 -4.15538 0
M  V30 53216 H 1904.89 -3.41248 -7.98759 0
M  V30 53217 H 1905.16 -2.57728 -6.42 0
M  V30 53218 H 1904.29 -5.02657 -6.42673 0
M  V30 53219 H 1901.64 -4.11708 -4.08956 0
M  V30 53220 H 1901.36 -2.49626 -6.61679 0
M  V30 53221 H 1900.37 -3.8662 -6.00862 0
M  V30 53222 H 1902.2 -4.29991 -7.97006 0
M  V30 53223 P 1900.33 -6.144 -6.45285 0
M  V30 53224 O 1900.11 -7.54673 -6.86199 0
M  V30 53225 O 1899.54 -5.12391 -7.179 0
M  V30 53226 O 1900.08 -5.99158 -4.88404 0
M  V30 53227 C 1901.02 -6.60234 -3.96415 0
M  V30 53228 C 1900.29 -7.08259 -2.72856 0
M  V30 53229 O 1900.08 -5.9427 -1.83651 0
M  V30 53230 C 1898.89 -7.64886 -2.9555 0
M  V30 53231 O 1898.5 -8.53963 -1.90717 0
M  V30 53232 C 1898.01 -6.4116 -2.90739 0
M  V30 53233 C 1898.72 -5.55375 -1.86963 0
M  V30 53234 N 1898.67 -4.09664 -2.15742 0
M  V30 53235 H 1901.51 -7.45574 -4.45629 0
M  V30 53236 H 1901.78 -5.86232 -3.67314 0
M  V30 53237 H 1900.91 -7.84412 -2.24479 0
M  V30 53238 P 1896.95 -8.7635 -1.60911 0
M  V30 53239 O 1896.73 -10.1388 -1.11561 0
M  V30 53240 O 1896.16 -8.36503 -2.79617 0
M  V30 53241 O 1896.7 -7.71806 -0.42951 0
M  V30 53242 C 1897.64 -7.67148 0.673689 0
M  V30 53243 C 1896.91 -7.33374 1.95559 0
M  V30 53244 O 1896.7 -5.88721 2.00726 0
M  V30 53245 C 1895.51 -7.92526 2.10483 0
M  V30 53246 O 1895.12 -8.02971 3.47653 0
M  V30 53247 C 1894.63 -6.89602 1.41652 0
M  V30 53248 C 1895.34 -5.59201 1.75185 0
M  V30 53249 N 1895.29 -4.58235 0.662552 0
M  V30 53250 H 1898.13 -8.65116 0.777161 0
M  V30 53251 H 1898.4 -6.90173 0.474152 0
M  V30 53252 H 1897.53 -7.66548 2.79458 0
M  V30 53253 P 1893.57 -8.03563 3.84925 0
M  V30 53254 O 1893.35 -8.85821 5.0569 0
M  V30 53255 O 1892.78 -8.41101 2.65469 0
M  V30 53256 O 1893.32 -6.4965 4.18908 0
M  V30 53257 C 1894.26 -5.81037 5.05421 0
M  V30 53258 C 1893.53 -4.78366 5.89277 0
M  V30 53259 O 1893.32 -3.58302 5.08433 0
M  V30 53260 C 1892.13 -5.17448 6.36119 0
M  V30 53261 O 1891.74 -4.45271 7.53232 0
M  V30 53262 C 1891.25 -4.74639 5.19936 0
M  V30 53263 C 1891.96 -3.49432 4.70418 0
M  V30 53264 N 1891.91 -3.31776 3.22945 0
M  V30 53265 H 1894.75 -6.54213 5.71376 0
M  V30 53266 H 1895.02 -5.30492 4.44033 0
M  V30 53267 H 1894.15 -4.55889 6.76652 0
M  V30 53268 P 1890.19 -4.23843 7.83734 0
M  V30 53269 O 1889.97 -4.19407 9.29784 0
M  V30 53270 O 1889.4 -5.24426 7.09156 0
M  V30 53271 O 1889.94 -2.7935 7.20758 0
M  V30 53272 C 1890.88 -1.7299 7.50419 0
M  V30 53273 C 1890.15 -0.406376 7.57911 0
M  V30 53274 O 1889.94 0.0897726 6.21935 0
M  V30 53275 C 1888.75 -0.447224 8.1878 0
M  V30 53276 O 1888.36 0.825065 8.71101 0
M  V30 53277 C 1887.87 -0.783801 6.99623 0
M  V30 53278 C 1888.58 -0.0619192 5.85967 0
M  V30 53279 N 1888.53 -0.7859 4.56281 0
M  V30 53280 H 1891.37 -1.93423 8.4679 0
M  V30 53281 H 1891.64 -1.68181 6.71046 0
M  V30 53282 H 1890.77 0.289041 8.15388 0
M  V30 53283 P 1886.81 1.17771 8.83182 0
M  V30 53284 O 1886.59 2.07206 9.98732 0
M  V30 53285 O 1886.02 -0.0743816 8.81969 0
M  V30 53286 O 1886.56 1.97652 7.47304 0
M  V30 53287 C 1887.5 3.01133 7.08783 0
M  V30 53288 C 1886.77 4.12613 6.37049 0
M  V30 53289 O 1886.56 3.72827 4.97879 0
M  V30 53290 C 1885.37 4.45085 6.88694 0
M  V30 53291 O 1884.98 5.7877 6.5624 0
M  V30 53292 C 1884.49 3.47817 6.12078 0
M  V30 53293 C 1885.2 3.39414 4.77697 0
M  V30 53294 N 1885.15 2.04615 4.15333 0
M  V30 53295 H 1887.99 3.41248 7.98759 0
M  V30 53296 H 1888.26 2.5837 6.41742 0
M  V30 53297 H 1887.39 5.02657 6.42673 0
M  V30 53298 P 1883.43 6.144 6.45285 0
M  V30 53299 O 1883.21 7.54673 6.86199 0
M  V30 53300 O 1882.64 5.12391 7.179 0
M  V30 53301 O 1883.18 5.99158 4.88404 0
M  V30 53302 C 1884.12 6.60234 3.96415 0
M  V30 53303 C 1883.39 7.08259 2.72856 0
M  V30 53304 O 1883.18 5.9427 1.83651 0
M  V30 53305 C 1881.99 7.64886 2.9555 0
M  V30 53306 O 1881.6 8.53963 1.90717 0
M  V30 53307 C 1881.11 6.4116 2.90739 0
M  V30 53308 C 1881.82 5.55375 1.86963 0
M  V30 53309 N 1881.77 4.09664 2.15742 0
M  V30 53310 H 1884.61 7.45574 4.45629 0
M  V30 53311 H 1884.88 5.86232 3.67314 0
M  V30 53312 H 1884.01 7.84412 2.24479 0
M  V30 53313 P 1880.05 8.7635 1.60911 0
M  V30 53314 O 1879.83 10.1388 1.11561 0
M  V30 53315 O 1879.26 8.36503 2.79617 0
M  V30 53316 O 1879.8 7.71806 0.42951 0
M  V30 53317 C 1880.74 7.67148 -0.673689 0
M  V30 53318 C 1880.01 7.33374 -1.95559 0
M  V30 53319 O 1879.8 5.88721 -2.00726 0
M  V30 53320 C 1878.61 7.92526 -2.10483 0
M  V30 53321 O 1878.22 8.02971 -3.47653 0
M  V30 53322 C 1877.73 6.89602 -1.41652 0
M  V30 53323 C 1878.44 5.59201 -1.75185 0
M  V30 53324 N 1878.39 4.58235 -0.662552 0
M  V30 53325 H 1881.23 8.65116 -0.777161 0
M  V30 53326 H 1881.5 6.90173 -0.474152 0
M  V30 53327 H 1880.63 7.66548 -2.79458 0
M  V30 53328 P 1876.67 8.03563 -3.84925 0
M  V30 53329 O 1876.45 8.85821 -5.0569 0
M  V30 53330 O 1875.88 8.41101 -2.65469 0
M  V30 53331 O 1876.42 6.4965 -4.18908 0
M  V30 53332 C 1877.36 5.81037 -5.05421 0
M  V30 53333 C 1876.63 4.78366 -5.89277 0
M  V30 53334 O 1876.42 3.58302 -5.08433 0
M  V30 53335 C 1875.23 5.17448 -6.36119 0
M  V30 53336 O 1874.84 4.45271 -7.53232 0
M  V30 53337 C 1874.35 4.74639 -5.19936 0
M  V30 53338 C 1875.06 3.49432 -4.70418 0
M  V30 53339 N 1875.01 3.31776 -3.22945 0
M  V30 53340 H 1877.85 6.54213 -5.71376 0
M  V30 53341 H 1878.12 5.30492 -4.44033 0
M  V30 53342 H 1877.25 4.55889 -6.76652 0
M  V30 53343 P 1873.29 4.23843 -7.83734 0
M  V30 53344 O 1873.07 4.19407 -9.29784 0
M  V30 53345 O 1872.5 5.24426 -7.09156 0
M  V30 53346 O 1873.04 2.7935 -7.20758 0
M  V30 53347 C 1873.98 1.72945 -7.50224 0
M  V30 53348 C 1873.25 0.406376 -7.57911 0
M  V30 53349 O 1873.04 -0.0897726 -6.21935 0
M  V30 53350 C 1871.85 0.438983 -8.18724 0
M  V30 53351 O 1871.46 -0.825065 -8.71101 0
M  V30 53352 C 1870.97 0.783689 -6.99524 0
M  V30 53353 C 1871.68 0.0619086 -5.85867 0
M  V30 53354 N 1871.63 0.78573 -4.56183 0
M  V30 53355 C 1871.48 0.0292889 -3.41887 0
M  V30 53356 O 1871.39 -1.18445 -3.4419 0
M  V30 53357 N 1871.44 0.744061 -2.23964 0
M  V30 53358 C 1871.53 2.10932 -2.10362 0
M  V30 53359 O 1871.48 2.64117 -0.98825 0
M  V30 53360 C 1871.68 2.8202 -3.34994 0
M  V30 53361 C 1871.79 4.31095 -3.25037 0
M  V30 53362 C 1871.73 2.15547 -4.52261 0
M  V30 53363 H 1874.47 1.93379 -8.46595 0
M  V30 53364 H 1874.74 1.68132 -6.70852 0
M  V30 53365 H 1873.87 -0.289041 -8.15388 0
M  V30 53366 H 1871.22 -0.926847 -5.72749 0
M  V30 53367 H 1870.94 1.86973 -6.82036 0
M  V30 53368 H 1869.95 0.403896 -7.13257 0
M  V30 53369 H 1871.78 1.20585 -8.97435 0
M  V30 53370 H 1871.85 2.71231 -5.45042 0
M  V30 53371 H 1870.82 4.76966 -3.49992 0
M  V30 53372 H 1872.56 4.67047 -3.95024 0
M  V30 53373 H 1872.07 4.58996 -2.22312 0
M  V30 53374 H 1871.33 0.214893 -1.39758 0
M  V30 53375 P 1869.91 -1.17771 -8.83182 0
M  V30 53376 O 1869.69 -2.07206 -9.98732 0
M  V30 53377 O 1869.12 0.0743816 -8.81969 0
M  V30 53378 O 1869.66 -1.97652 -7.47304 0
M  V30 53379 C 1870.6 -3.01133 -7.08783 0
M  V30 53380 C 1869.87 -4.12613 -6.37049 0
M  V30 53381 O 1869.66 -3.72827 -4.97879 0
M  V30 53382 C 1868.47 -4.45085 -6.88694 0
M  V30 53383 O 1868.08 -5.7877 -6.5624 0
M  V30 53384 C 1867.59 -3.47817 -6.12078 0
M  V30 53385 C 1868.3 -3.39414 -4.77697 0
M  V30 53386 N 1868.25 -2.04615 -4.15333 0
M  V30 53387 H 1871.09 -3.41248 -7.98759 0
M  V30 53388 H 1871.36 -2.5837 -6.41742 0
M  V30 53389 H 1870.49 -5.02657 -6.42673 0
M  V30 53390 P 1866.53 -6.144 -6.45285 0
M  V30 53391 O 1866.31 -7.54673 -6.86199 0
M  V30 53392 O 1865.74 -5.12391 -7.179 0
M  V30 53393 O 1866.28 -5.99158 -4.88404 0
M  V30 53394 C 1867.22 -6.60062 -3.96313 0
M  V30 53395 C 1866.49 -7.08259 -2.72856 0
M  V30 53396 O 1866.28 -5.9427 -1.83651 0
M  V30 53397 C 1865.09 -7.65087 -2.94749 0
M  V30 53398 O 1864.7 -8.53963 -1.90717 0
M  V30 53399 C 1864.21 -6.41069 -2.90698 0
M  V30 53400 C 1864.92 -5.5528 -1.86931 0
M  V30 53401 N 1864.87 -4.09575 -2.15696 0
M  V30 53402 C 1864.72 -3.24249 -1.08435 0
M  V30 53403 O 1864.63 -3.63946 0.0628747 0
M  V30 53404 N 1864.68 -1.90009 -1.39973 0
M  V30 53405 C 1864.77 -1.34884 -2.65614 0
M  V30 53406 C 1864.92 -2.3145 -3.71736 0
M  V30 53407 C 1864.97 -3.63518 -3.44754 0
M  V30 53408 H 1867.71 -7.45402 -4.45526 0
M  V30 53409 H 1867.98 -5.86062 -3.67208 0
M  V30 53410 H 1867.11 -7.84412 -2.24479 0
M  V30 53411 H 1864.46 -5.73358 -0.888409 0
M  V30 53412 H 1864.18 -5.90877 -3.88583 0
M  V30 53413 H 1863.19 -6.65867 -2.58821 0
M  V30 53414 H 1865.02 -8.16248 -3.92006 0
M  V30 53415 H 1865.09 -4.34551 -4.26383 0
M  V30 53416 P 1863.15 -8.7635 -1.60911 0
M  V30 53417 O 1862.93 -10.1388 -1.11561 0
M  V30 53418 O 1862.36 -8.36503 -2.79617 0
M  V30 53419 O 1862.9 -7.71806 -0.42951 0
M  V30 53420 C 1863.84 -7.67148 0.673689 0
M  V30 53421 C 1863.11 -7.33374 1.95559 0
M  V30 53422 O 1862.9 -5.88721 2.00726 0
M  V30 53423 C 1861.71 -7.92526 2.10483 0
M  V30 53424 O 1861.32 -8.02971 3.47653 0
M  V30 53425 C 1860.83 -6.89602 1.41652 0
M  V30 53426 C 1861.54 -5.59201 1.75185 0
M  V30 53427 N 1861.49 -4.58235 0.662552 0
M  V30 53428 H 1864.33 -8.65116 0.777161 0
M  V30 53429 H 1864.6 -6.90173 0.474152 0
M  V30 53430 H 1863.73 -7.66548 2.79458 0
M  V30 53431 P 1859.77 -8.03563 3.84925 0
M  V30 53432 O 1859.55 -8.85821 5.0569 0
M  V30 53433 O 1858.98 -8.41101 2.65469 0
M  V30 53434 O 1859.52 -6.4965 4.18908 0
M  V30 53435 C 1860.46 -5.81037 5.05421 0
M  V30 53436 C 1859.73 -4.78366 5.89277 0
M  V30 53437 O 1859.52 -3.58302 5.08433 0
M  V30 53438 C 1858.33 -5.17448 6.36119 0
M  V30 53439 O 1857.94 -4.45271 7.53232 0
M  V30 53440 C 1857.45 -4.74639 5.19936 0
M  V30 53441 C 1858.16 -3.49432 4.70418 0
M  V30 53442 N 1858.11 -3.31776 3.22945 0
M  V30 53443 H 1860.95 -6.54213 5.71376 0
M  V30 53444 H 1861.22 -5.30492 4.44033 0
M  V30 53445 H 1860.35 -4.55889 6.76652 0
M  V30 53446 P 1856.39 -4.23843 7.83734 0
M  V30 53447 O 1856.17 -4.19407 9.29784 0
M  V30 53448 O 1855.6 -5.24426 7.09156 0
M  V30 53449 O 1856.14 -2.7935 7.20758 0
M  V30 53450 C 1857.08 -1.7299 7.50419 0
M  V30 53451 C 1856.35 -0.406376 7.57911 0
M  V30 53452 O 1856.14 0.0897726 6.21935 0
M  V30 53453 C 1854.95 -0.447224 8.1878 0
M  V30 53454 O 1854.56 0.825065 8.71101 0
M  V30 53455 C 1854.07 -0.783801 6.99623 0
M  V30 53456 C 1854.78 -0.0619192 5.85967 0
M  V30 53457 N 1854.73 -0.790462 4.56202 0
M  V30 53458 H 1857.57 -1.93423 8.4679 0
M  V30 53459 H 1857.84 -1.68852 6.70877 0
M  V30 53460 H 1856.97 0.289041 8.15388 0
M  V30 53461 H 1854.32 0.927006 5.72848 0
M  V30 53462 H 1854.04 -1.86973 6.82036 0
M  V30 53463 H 1853.05 -0.403953 7.13357 0
M  V30 53464 H 1854.88 -1.20599 8.97534 0
M  V30 53465 P 1853.01 1.17771 8.83182 0
M  V30 53466 O 1852.79 2.07206 9.98732 0
M  V30 53467 O 1852.22 -0.0743816 8.81969 0
M  V30 53468 O 1852.76 1.97652 7.47304 0
M  V30 53469 C 1853.7 3.01133 7.08783 0
M  V30 53470 C 1852.97 4.12613 6.37049 0
M  V30 53471 O 1852.76 3.72827 4.97879 0
M  V30 53472 C 1851.57 4.45085 6.88694 0
M  V30 53473 O 1851.18 5.7877 6.5624 0
M  V30 53474 C 1850.69 3.47817 6.12078 0
M  V30 53475 C 1851.4 3.39414 4.77697 0
M  V30 53476 N 1851.35 2.04199 4.15538 0
M  V30 53477 H 1854.19 3.41248 7.98759 0
M  V30 53478 H 1854.46 2.57728 6.42 0
M  V30 53479 H 1853.59 5.02657 6.42673 0
M  V30 53480 H 1850.94 4.11708 4.08956 0
M  V30 53481 H 1850.66 2.49626 6.61679 0
M  V30 53482 H 1849.67 3.8662 6.00862 0
M  V30 53483 H 1851.5 4.29991 7.97006 0
M  V30 53484 P 1849.63 6.144 6.45285 0
M  V30 53485 O 1849.41 7.54673 6.86199 0
M  V30 53486 O 1848.84 5.12391 7.179 0
M  V30 53487 O 1849.38 5.99158 4.88404 0
M  V30 53488 C 1850.32 6.60234 3.96415 0
M  V30 53489 C 1849.59 7.08259 2.72856 0
M  V30 53490 O 1849.38 5.9427 1.83651 0
M  V30 53491 C 1848.19 7.64886 2.9555 0
M  V30 53492 O 1847.8 8.53963 1.90717 0
M  V30 53493 C 1847.31 6.4116 2.90739 0
M  V30 53494 C 1848.02 5.55375 1.86963 0
M  V30 53495 N 1847.97 4.09664 2.15742 0
M  V30 53496 H 1850.81 7.45574 4.45629 0
M  V30 53497 H 1851.08 5.86232 3.67314 0
M  V30 53498 H 1850.21 7.84412 2.24479 0
M  V30 53499 P 1846.25 8.7635 1.60911 0
M  V30 53500 O 1846.03 10.1388 1.11561 0
M  V30 53501 O 1845.46 8.36503 2.79617 0
M  V30 53502 O 1846 7.71806 0.42951 0
M  V30 53503 C 1846.94 7.67148 -0.673689 0
M  V30 53504 C 1846.21 7.33374 -1.95559 0
M  V30 53505 O 1846 5.88721 -2.00726 0
M  V30 53506 C 1844.81 7.92526 -2.10483 0
M  V30 53507 O 1844.42 8.02971 -3.47653 0
M  V30 53508 C 1843.93 6.89602 -1.41652 0
M  V30 53509 C 1844.64 5.59201 -1.75185 0
M  V30 53510 N 1844.59 4.58301 -0.657969 0
M  V30 53511 C 1844.67 4.79019 0.692603 0
M  V30 53512 N 1844.6 3.69736 1.38998 0
M  V30 53513 C 1844.45 2.70474 0.438135 0
M  V30 53514 C 1844.32 1.30327 0.538142 0
M  V30 53515 N 1844.31 0.64304 1.69192 0
M  V30 53516 N 1844.2 0.611027 -0.605183 0
M  V30 53517 C 1844.21 1.27002 -1.75953 0
M  V30 53518 N 1844.33 2.56038 -1.98546 0
M  V30 53519 C 1844.45 3.22681 -0.822541 0
M  V30 53520 H 1847.43 8.65116 -0.777161 0
M  V30 53521 H 1847.7 6.9022 -0.46725 0
M  V30 53522 H 1846.83 7.66548 -2.79458 0
M  V30 53523 H 1844.18 5.16165 -2.65183 0
M  V30 53524 H 1843.9 7.06433 -0.329384 0
M  V30 53525 H 1842.91 6.90926 -1.82021 0
M  V30 53526 H 1844.74 8.90873 -1.62657 0
M  V30 53527 H 1844.78 5.77785 1.13874 0
M  V30 53528 H 1844.4 1.15585 2.57991 0
M  V30 53529 H 1844.21 -0.382989 1.69835 0
M  V30 53530 H 1844.1 0.653331 -2.64449 0
M  V30 53531 P 1842.87 8.03563 -3.84925 0
M  V30 53532 O 1842.65 8.85821 -5.0569 0
M  V30 53533 O 1842.08 8.41101 -2.65469 0
M  V30 53534 O 1842.62 6.4965 -4.18908 0
M  V30 53535 C 1843.56 5.81037 -5.05421 0
M  V30 53536 C 1842.83 4.78366 -5.89277 0
M  V30 53537 O 1842.62 3.58302 -5.08433 0
M  V30 53538 C 1841.43 5.17448 -6.36119 0
M  V30 53539 O 1841.04 4.45271 -7.53232 0
M  V30 53540 C 1840.55 4.74639 -5.19936 0
M  V30 53541 C 1841.26 3.49432 -4.70418 0
M  V30 53542 N 1841.21 3.31776 -3.22945 0
M  V30 53543 H 1844.05 6.54213 -5.71376 0
M  V30 53544 H 1844.32 5.30492 -4.44033 0
M  V30 53545 H 1843.45 4.55889 -6.76652 0
M  V30 53546 P 1839.49 4.23843 -7.83734 0
M  V30 53547 O 1839.27 4.19407 -9.29784 0
M  V30 53548 O 1838.7 5.24426 -7.09156 0
M  V30 53549 O 1839.24 2.7935 -7.20758 0
M  V30 53550 C 1840.18 1.72945 -7.50224 0
M  V30 53551 C 1839.45 0.406376 -7.57911 0
M  V30 53552 O 1839.24 -0.0897726 -6.21935 0
M  V30 53553 C 1838.05 0.438983 -8.18724 0
M  V30 53554 O 1837.66 -0.825065 -8.71101 0
M  V30 53555 C 1837.17 0.783689 -6.99524 0
M  V30 53556 C 1837.88 0.0619086 -5.85867 0
M  V30 53557 N 1837.83 0.78573 -4.56183 0
M  V30 53558 C 1837.68 0.0292889 -3.41887 0
M  V30 53559 O 1837.59 -1.18445 -3.4419 0
M  V30 53560 N 1837.64 0.744061 -2.23964 0
M  V30 53561 C 1837.73 2.10932 -2.10362 0
M  V30 53562 C 1837.88 2.8202 -3.34994 0
M  V30 53563 C 1837.93 2.15547 -4.52261 0
M  V30 53564 H 1840.67 1.93379 -8.46595 0
M  V30 53565 H 1840.94 1.68132 -6.70852 0
M  V30 53566 H 1840.07 -0.289041 -8.15388 0
M  V30 53567 H 1837.42 -0.926847 -5.72749 0
M  V30 53568 H 1837.14 1.86973 -6.82036 0
M  V30 53569 H 1836.15 0.403896 -7.13257 0
M  V30 53570 H 1837.98 1.20585 -8.97435 0
M  V30 53571 H 1838.05 2.71231 -5.45042 0
M  V30 53572 P 1836.11 -1.17771 -8.83182 0
M  V30 53573 O 1835.89 -2.07206 -9.98732 0
M  V30 53574 O 1835.32 0.0743816 -8.81969 0
M  V30 53575 O 1835.86 -1.97652 -7.47304 0
M  V30 53576 C 1836.8 -3.01133 -7.08783 0
M  V30 53577 C 1836.07 -4.12613 -6.37049 0
M  V30 53578 O 1835.86 -3.72827 -4.97879 0
M  V30 53579 C 1834.67 -4.45085 -6.88694 0
M  V30 53580 O 1834.28 -5.7877 -6.5624 0
M  V30 53581 C 1833.79 -3.47817 -6.12078 0
M  V30 53582 C 1834.5 -3.39414 -4.77697 0
M  V30 53583 N 1834.45 -2.04615 -4.15333 0
M  V30 53584 H 1837.29 -3.41248 -7.98759 0
M  V30 53585 H 1837.56 -2.5837 -6.41742 0
M  V30 53586 H 1836.69 -5.02657 -6.42673 0
M  V30 53587 P 1832.73 -6.144 -6.45285 0
M  V30 53588 O 1832.51 -7.54673 -6.86199 0
M  V30 53589 O 1831.94 -5.12391 -7.179 0
M  V30 53590 O 1832.48 -5.99158 -4.88404 0
M  V30 53591 C 1833.42 -6.60234 -3.96415 0
M  V30 53592 C 1832.69 -7.08259 -2.72856 0
M  V30 53593 O 1832.48 -5.9427 -1.83651 0
M  V30 53594 C 1831.29 -7.64886 -2.9555 0
M  V30 53595 O 1830.9 -8.53963 -1.90717 0
M  V30 53596 C 1830.41 -6.4116 -2.90739 0
M  V30 53597 C 1831.12 -5.55375 -1.86963 0
M  V30 53598 N 1831.07 -4.09664 -2.15742 0
M  V30 53599 H 1833.91 -7.45574 -4.45629 0
M  V30 53600 H 1834.18 -5.86232 -3.67314 0
M  V30 53601 H 1833.31 -7.84412 -2.24479 0
M  V30 53602 P 1829.35 -8.7635 -1.60911 0
M  V30 53603 O 1829.13 -10.1388 -1.11561 0
M  V30 53604 O 1828.56 -8.36503 -2.79617 0
M  V30 53605 O 1829.1 -7.71806 -0.42951 0
M  V30 53606 C 1830.04 -7.67148 0.673689 0
M  V30 53607 C 1829.31 -7.33374 1.95559 0
M  V30 53608 O 1829.1 -5.88721 2.00726 0
M  V30 53609 C 1827.91 -7.92526 2.10483 0
M  V30 53610 O 1827.52 -8.02971 3.47653 0
M  V30 53611 C 1827.03 -6.89602 1.41652 0
M  V30 53612 C 1827.74 -5.59201 1.75185 0
M  V30 53613 N 1827.69 -4.58235 0.662552 0
M  V30 53614 H 1830.53 -8.65116 0.777161 0
M  V30 53615 H 1830.8 -6.90173 0.474152 0
M  V30 53616 H 1829.93 -7.66548 2.79458 0
M  V30 53617 P 1825.97 -8.03563 3.84925 0
M  V30 53618 O 1825.75 -8.85821 5.0569 0
M  V30 53619 O 1825.18 -8.41101 2.65469 0
M  V30 53620 O 1825.72 -6.4965 4.18908 0
M  V30 53621 C 1826.66 -5.81037 5.05421 0
M  V30 53622 C 1825.93 -4.78366 5.89277 0
M  V30 53623 O 1825.72 -3.58302 5.08433 0
M  V30 53624 C 1824.53 -5.17448 6.36119 0
M  V30 53625 O 1824.14 -4.45271 7.53232 0
M  V30 53626 C 1823.65 -4.74639 5.19936 0
M  V30 53627 C 1824.36 -3.49432 4.70418 0
M  V30 53628 N 1824.31 -3.31776 3.22945 0
M  V30 53629 H 1827.15 -6.54213 5.71376 0
M  V30 53630 H 1827.42 -5.30492 4.44033 0
M  V30 53631 H 1826.55 -4.55889 6.76652 0
M  V30 53632 P 1822.59 -4.23843 7.83734 0
M  V30 53633 O 1822.37 -4.19407 9.29784 0
M  V30 53634 O 1821.8 -5.24426 7.09156 0
M  V30 53635 O 1822.34 -2.79386 7.20852 0
M  V30 53636 C 1823.28 -1.7299 7.50419 0
M  V30 53637 C 1822.55 -0.41401 7.5797 0
M  V30 53638 O 1822.34 0.089787 6.22035 0
M  V30 53639 C 1821.15 -0.447224 8.1878 0
M  V30 53640 O 1820.76 0.825159 8.71201 0
M  V30 53641 C 1820.27 -0.783801 6.99623 0
M  V30 53642 C 1820.98 -0.0619192 5.85967 0
M  V30 53643 N 1820.93 -0.7859 4.56281 0
M  V30 53644 C 1820.78 -0.0359258 3.39981 0
M  V30 53645 O 1820.69 1.19723 3.49038 0
M  V30 53646 N 1820.73 -0.869151 2.14025 0
M  V30 53647 C 1820.83 -2.01207 2.14363 0
M  V30 53648 N 1820.78 -2.58978 0.954287 0
M  V30 53649 C 1820.98 -2.80817 3.32215 0
M  V30 53650 C 1821.03 -2.13785 4.50884 0
M  V30 53651 H 1823.77 -1.93401 8.46693 0
M  V30 53652 H 1824.04 -1.68181 6.71046 0
M  V30 53653 H 1823.17 0.289076 8.15488 0
M  V30 53654 H 1820.52 0.927166 5.72947 0
M  V30 53655 H 1820.24 -1.87 6.82132 0
M  V30 53656 H 1819.25 -0.404009 7.13457 0
M  V30 53657 H 1821.08 -1.20599 8.97534 0
M  V30 53658 H 1821.15 -2.70295 5.43162 0
M  V30 53659 H 1821.05 -3.89465 3.27406 0
M  V30 53660 H 1820.66 -2.01616 0.107046 0
M  V30 53661 H 1820.86 -3.61403 0.873101 0
M  V30 53662 P 1819.21 1.17771 8.83182 0
M  V30 53663 O 1818.99 2.07206 9.98732 0
M  V30 53664 O 1818.42 -0.0743816 8.81969 0
M  V30 53665 O 1818.96 1.97652 7.47304 0
M  V30 53666 C 1819.9 3.01133 7.08783 0
M  V30 53667 C 1819.17 4.12613 6.37049 0
M  V30 53668 O 1818.96 3.72827 4.97879 0
M  V30 53669 C 1817.77 4.45085 6.88694 0
M  V30 53670 O 1817.38 5.7877 6.5624 0
M  V30 53671 C 1816.89 3.47817 6.12078 0
M  V30 53672 C 1817.6 3.39414 4.77697 0
M  V30 53673 N 1817.55 2.04199 4.15538 0
M  V30 53674 H 1820.39 3.41248 7.98759 0
M  V30 53675 H 1820.66 2.57728 6.42 0
M  V30 53676 H 1819.79 5.02657 6.42673 0
M  V30 53677 H 1817.14 4.11708 4.08956 0
M  V30 53678 H 1816.86 2.49626 6.61679 0
M  V30 53679 H 1815.87 3.8662 6.00862 0
M  V30 53680 H 1817.7 4.29991 7.97006 0
M  V30 53681 P 1815.83 6.144 6.45285 0
M  V30 53682 O 1815.61 7.54673 6.86199 0
M  V30 53683 O 1815.04 5.12391 7.179 0
M  V30 53684 O 1815.58 5.99158 4.88404 0
M  V30 53685 C 1816.52 6.60234 3.96415 0
M  V30 53686 C 1815.79 7.08259 2.72856 0
M  V30 53687 O 1815.58 5.9427 1.83651 0
M  V30 53688 C 1814.39 7.64886 2.9555 0
M  V30 53689 O 1814 8.53963 1.90717 0
M  V30 53690 C 1813.51 6.4116 2.90739 0
M  V30 53691 C 1814.22 5.55375 1.86963 0
M  V30 53692 N 1814.17 4.09664 2.15742 0
M  V30 53693 H 1817.01 7.45574 4.45629 0
M  V30 53694 H 1817.28 5.86232 3.67314 0
M  V30 53695 H 1816.41 7.84412 2.24479 0
M  V30 53696 P 1812.45 8.7635 1.60911 0
M  V30 53697 O 1812.23 10.1388 1.11561 0
M  V30 53698 O 1811.66 8.36503 2.79617 0
M  V30 53699 O 1812.2 7.71806 0.42951 0
M  V30 53700 C 1813.14 7.67148 -0.673689 0
M  V30 53701 C 1812.41 7.33374 -1.95559 0
M  V30 53702 O 1812.2 5.88721 -2.00726 0
M  V30 53703 C 1811.01 7.92526 -2.10483 0
M  V30 53704 O 1810.62 8.02971 -3.47653 0
M  V30 53705 C 1810.13 6.89602 -1.41652 0
M  V30 53706 C 1810.84 5.59201 -1.75185 0
M  V30 53707 N 1810.79 4.58235 -0.662552 0
M  V30 53708 H 1813.63 8.65116 -0.777161 0
M  V30 53709 H 1813.9 6.90173 -0.474152 0
M  V30 53710 H 1813.03 7.66548 -2.79458 0
M  V30 53711 P 1809.07 8.03563 -3.84925 0
M  V30 53712 O 1808.85 8.85821 -5.0569 0
M  V30 53713 O 1808.28 8.41101 -2.65469 0
M  V30 53714 O 1808.82 6.4965 -4.18908 0
M  V30 53715 C 1809.76 5.81037 -5.05421 0
M  V30 53716 C 1809.03 4.78366 -5.89277 0
M  V30 53717 O 1808.82 3.58302 -5.08433 0
M  V30 53718 C 1807.63 5.17448 -6.36119 0
M  V30 53719 O 1807.24 4.45271 -7.53232 0
M  V30 53720 C 1806.75 4.74639 -5.19936 0
M  V30 53721 C 1807.46 3.49432 -4.70418 0
M  V30 53722 N 1807.41 3.31776 -3.22945 0
M  V30 53723 H 1810.25 6.54213 -5.71376 0
M  V30 53724 H 1810.52 5.30492 -4.44033 0
M  V30 53725 H 1809.65 4.55889 -6.76652 0
M  V30 53726 P 1805.69 4.23843 -7.83734 0
M  V30 53727 O 1805.47 4.19407 -9.29784 0
M  V30 53728 O 1804.9 5.24426 -7.09156 0
M  V30 53729 O 1805.44 2.7935 -7.20758 0
M  V30 53730 C 1806.38 1.7299 -7.50419 0
M  V30 53731 C 1805.65 0.406376 -7.57911 0
M  V30 53732 O 1805.44 -0.0897726 -6.21935 0
M  V30 53733 C 1804.25 0.447224 -8.1878 0
M  V30 53734 O 1803.86 -0.825065 -8.71101 0
M  V30 53735 C 1803.37 0.783801 -6.99623 0
M  V30 53736 C 1804.08 0.0619192 -5.85967 0
M  V30 53737 N 1804.03 0.790462 -4.56202 0
M  V30 53738 C 1804.11 2.13895 -4.34171 0
M  V30 53739 N 1804.04 2.46449 -3.08687 0
M  V30 53740 C 1803.89 1.2525 -2.43697 0
M  V30 53741 C 1803.76 0.914535 -1.07318 0
M  V30 53742 N 1803.75 1.80782 -0.0887348 0
M  V30 53743 N 1803.64 -0.386745 -0.768133 0
M  V30 53744 C 1803.65 -1.28096 -1.75159 0
M  V30 53745 N 1803.77 -1.09708 -3.04861 0
M  V30 53746 C 1803.89 0.214857 -3.32306 0
M  V30 53747 H 1806.87 1.93423 -8.4679 0
M  V30 53748 H 1807.14 1.68852 -6.70877 0
M  V30 53749 H 1806.27 -0.289041 -8.15388 0
M  V30 53750 H 1803.62 -0.927006 -5.72848 0
M  V30 53751 H 1803.34 1.86973 -6.82036 0
M  V30 53752 H 1802.35 0.403953 -7.13357 0
M  V30 53753 H 1804.18 1.20599 -8.97534 0
M  V30 53754 H 1804.22 2.86846 -5.14318 0
M  V30 53755 H 1803.84 2.81082 -0.302037 0
M  V30 53756 H 1803.65 1.49688 0.889064 0
M  V30 53757 H 1803.54 -2.31317 -1.43855 0
M  V30 53758 P 1802.31 -1.17771 -8.83182 0
M  V30 53759 O 1802.09 -2.07206 -9.98732 0
M  V30 53760 O 1801.52 0.0743816 -8.81969 0
M  V30 53761 O 1802.06 -1.97652 -7.47304 0
M  V30 53762 C 1803 -3.01133 -7.08783 0
M  V30 53763 C 1802.27 -4.12613 -6.37049 0
M  V30 53764 O 1802.06 -3.72827 -4.97879 0
M  V30 53765 C 1800.87 -4.45085 -6.88694 0
M  V30 53766 O 1800.48 -5.7877 -6.5624 0
M  V30 53767 C 1799.99 -3.47817 -6.12078 0
M  V30 53768 C 1800.7 -3.39414 -4.77697 0
M  V30 53769 N 1800.65 -2.04199 -4.15538 0
M  V30 53770 C 1800.73 -0.821545 -4.76977 0
M  V30 53771 N 1800.66 0.1794 -3.94592 0
M  V30 53772 C 1800.51 -0.419121 -2.70776 0
M  V30 53773 C 1800.38 0.109072 -1.40577 0
M  V30 53774 N 1800.37 1.4104 -1.1344 0
M  V30 53775 N 1800.26 -0.764381 -0.39411 0
M  V30 53776 C 1800.27 -2.06587 -0.664135 0
M  V30 53777 N 1800.39 -2.67948 -1.82153 0
M  V30 53778 C 1800.51 -1.77942 -2.8147 0
M  V30 53779 H 1803.49 -3.41248 -7.98759 0
M  V30 53780 H 1803.76 -2.57728 -6.42 0
M  V30 53781 H 1802.89 -5.02657 -6.42673 0
M  V30 53782 H 1800.24 -4.11708 -4.08956 0
M  V30 53783 H 1799.96 -2.49626 -6.61679 0
M  V30 53784 H 1798.97 -3.8662 -6.00862 0
M  V30 53785 H 1800.8 -4.29991 -7.97006 0
M  V30 53786 H 1800.84 -0.702451 -5.84696 0
M  V30 53787 H 1800.46 2.09647 -1.89651 0
M  V30 53788 H 1800.27 1.73358 -0.160575 0
M  V30 53789 H 1800.16 -2.71695 0.195838 0
M  V30 53790 P 1798.93 -6.144 -6.45285 0
M  V30 53791 O 1798.71 -7.54673 -6.86199 0
M  V30 53792 O 1798.14 -5.12391 -7.179 0
M  V30 53793 O 1798.68 -5.99158 -4.88404 0
M  V30 53794 C 1799.62 -6.60234 -3.96415 0
M  V30 53795 C 1798.89 -7.08259 -2.72856 0
M  V30 53796 O 1798.68 -5.9427 -1.83651 0
M  V30 53797 C 1797.49 -7.64886 -2.9555 0
M  V30 53798 O 1797.1 -8.53963 -1.90717 0
M  V30 53799 C 1796.61 -6.4116 -2.90739 0
M  V30 53800 C 1797.32 -5.55375 -1.86963 0
M  V30 53801 N 1797.27 -4.09664 -2.15742 0
M  V30 53802 H 1800.11 -7.45574 -4.45629 0
M  V30 53803 H 1800.38 -5.86232 -3.67314 0
M  V30 53804 H 1799.51 -7.84412 -2.24479 0
M  V30 53805 P 1795.55 -8.7635 -1.60911 0
M  V30 53806 O 1795.33 -10.1388 -1.11561 0
M  V30 53807 O 1794.76 -8.36503 -2.79617 0
M  V30 53808 O 1795.3 -7.71806 -0.42951 0
M  V30 53809 C 1796.24 -7.67148 0.673689 0
M  V30 53810 C 1795.51 -7.33374 1.95559 0
M  V30 53811 O 1795.3 -5.88721 2.00726 0
M  V30 53812 C 1794.11 -7.92526 2.10483 0
M  V30 53813 O 1793.72 -8.02971 3.47653 0
M  V30 53814 C 1793.23 -6.89602 1.41652 0
M  V30 53815 C 1793.94 -5.59201 1.75185 0
M  V30 53816 N 1793.89 -4.58235 0.662552 0
M  V30 53817 H 1796.73 -8.65116 0.777161 0
M  V30 53818 H 1797 -6.90173 0.474152 0
M  V30 53819 H 1796.13 -7.66548 2.79458 0
M  V30 53820 P 1792.17 -8.03563 3.84925 0
M  V30 53821 O 1791.95 -8.85821 5.0569 0
M  V30 53822 O 1791.38 -8.41101 2.65469 0
M  V30 53823 O 1791.92 -6.4965 4.18908 0
M  V30 53824 C 1792.86 -5.81037 5.05421 0
M  V30 53825 C 1792.13 -4.78366 5.89277 0
M  V30 53826 O 1791.92 -3.58302 5.08433 0
M  V30 53827 C 1790.73 -5.17448 6.36119 0
M  V30 53828 O 1790.34 -4.45271 7.53232 0
M  V30 53829 C 1789.85 -4.74639 5.19936 0
M  V30 53830 C 1790.56 -3.49432 4.70418 0
M  V30 53831 N 1790.51 -3.32099 3.22613 0
M  V30 53832 H 1793.35 -6.54213 5.71376 0
M  V30 53833 H 1793.62 -5.30936 4.43503 0
M  V30 53834 H 1792.75 -4.55889 6.76652 0
M  V30 53835 H 1790.1 -2.61715 5.17932 0
M  V30 53836 H 1789.82 -5.52155 4.41878 0
M  V30 53837 H 1788.83 -4.51981 5.53374 0
M  V30 53838 H 1790.66 -6.25124 6.55234 0
M  V30 53839 P 1788.79 -4.23843 7.83734 0
M  V30 53840 O 1788.57 -4.19407 9.29784 0
M  V30 53841 O 1788 -5.24426 7.09156 0
M  V30 53842 O 1788.54 -2.7935 7.20758 0
M  V30 53843 C 1789.48 -1.7299 7.50419 0
M  V30 53844 C 1788.75 -0.406376 7.57911 0
M  V30 53845 O 1788.54 0.0897726 6.21935 0
M  V30 53846 C 1787.35 -0.447224 8.1878 0
M  V30 53847 O 1786.96 0.825065 8.71101 0
M  V30 53848 C 1786.47 -0.783801 6.99623 0
M  V30 53849 C 1787.18 -0.0619192 5.85967 0
M  V30 53850 N 1787.13 -0.7859 4.56281 0
M  V30 53851 H 1789.97 -1.93423 8.4679 0
M  V30 53852 H 1790.24 -1.68181 6.71046 0
M  V30 53853 H 1789.37 0.289041 8.15388 0
M  V30 53854 P 1785.41 1.17771 8.83182 0
M  V30 53855 O 1785.19 2.07206 9.98732 0
M  V30 53856 O 1784.62 -0.0743816 8.81969 0
M  V30 53857 O 1785.16 1.97652 7.47304 0
M  V30 53858 C 1786.1 3.01133 7.08783 0
M  V30 53859 C 1785.37 4.12613 6.37049 0
M  V30 53860 O 1785.16 3.72827 4.97879 0
M  V30 53861 C 1783.97 4.45085 6.88694 0
M  V30 53862 O 1783.58 5.7877 6.5624 0
M  V30 53863 C 1783.09 3.47817 6.12078 0
M  V30 53864 C 1783.8 3.39414 4.77697 0
M  V30 53865 N 1783.75 2.04615 4.15333 0
M  V30 53866 H 1786.59 3.41248 7.98759 0
M  V30 53867 H 1786.86 2.5837 6.41742 0
M  V30 53868 H 1785.99 5.02657 6.42673 0
M  V30 53869 P 1782.03 6.144 6.45285 0
M  V30 53870 O 1781.81 7.54673 6.86199 0
M  V30 53871 O 1781.24 5.12391 7.179 0
M  V30 53872 O 1781.78 5.99158 4.88404 0
M  V30 53873 C 1782.72 6.60234 3.96415 0
M  V30 53874 C 1781.99 7.08259 2.72856 0
M  V30 53875 O 1781.78 5.9427 1.83651 0
M  V30 53876 C 1780.59 7.64886 2.9555 0
M  V30 53877 O 1780.2 8.53963 1.90717 0
M  V30 53878 C 1779.71 6.4116 2.90739 0
M  V30 53879 C 1780.42 5.55375 1.86963 0
M  V30 53880 N 1780.37 4.09664 2.15742 0
M  V30 53881 H 1783.21 7.45574 4.45629 0
M  V30 53882 H 1783.48 5.86232 3.67314 0
M  V30 53883 H 1782.61 7.84412 2.24479 0
M  V30 53884 P 1778.65 8.7635 1.60911 0
M  V30 53885 O 1778.43 10.1388 1.11561 0
M  V30 53886 O 1777.86 8.36503 2.79617 0
M  V30 53887 O 1778.4 7.71806 0.42951 0
M  V30 53888 C 1779.34 7.67148 -0.673689 0
M  V30 53889 C 1778.61 7.33374 -1.95559 0
M  V30 53890 O 1778.4 5.88721 -2.00726 0
M  V30 53891 C 1777.21 7.92526 -2.10483 0
M  V30 53892 O 1776.82 8.02971 -3.47653 0
M  V30 53893 C 1776.33 6.89602 -1.41652 0
M  V30 53894 C 1777.04 5.59201 -1.75185 0
M  V30 53895 N 1776.99 4.58301 -0.657969 0
M  V30 53896 H 1779.83 8.65116 -0.777161 0
M  V30 53897 H 1780.1 6.9022 -0.46725 0
M  V30 53898 H 1779.23 7.66548 -2.79458 0
M  V30 53899 H 1776.58 5.16165 -2.65183 0
M  V30 53900 H 1776.3 7.06433 -0.329384 0
M  V30 53901 H 1775.31 6.90926 -1.82021 0
M  V30 53902 H 1777.14 8.90873 -1.62657 0
M  V30 53903 P 1775.27 8.03563 -3.84925 0
M  V30 53904 O 1775.05 8.85821 -5.0569 0
M  V30 53905 O 1774.48 8.41101 -2.65469 0
M  V30 53906 O 1775.02 6.4965 -4.18908 0
M  V30 53907 C 1775.96 5.81037 -5.05421 0
M  V30 53908 C 1775.23 4.78366 -5.89277 0
M  V30 53909 O 1775.02 3.58302 -5.08433 0
M  V30 53910 C 1773.83 5.17448 -6.36119 0
M  V30 53911 O 1773.44 4.45271 -7.53232 0
M  V30 53912 C 1772.95 4.74639 -5.19936 0
M  V30 53913 C 1773.66 3.49432 -4.70418 0
M  V30 53914 N 1773.61 3.31776 -3.22945 0
M  V30 53915 H 1776.45 6.54213 -5.71376 0
M  V30 53916 H 1776.72 5.30492 -4.44033 0
M  V30 53917 H 1775.85 4.55889 -6.76652 0
M  V30 53918 P 1771.89 4.23843 -7.83734 0
M  V30 53919 O 1771.67 4.19407 -9.29784 0
M  V30 53920 O 1771.1 5.24426 -7.09156 0
M  V30 53921 O 1771.64 2.7935 -7.20758 0
M  V30 53922 C 1772.58 1.7299 -7.50419 0
M  V30 53923 C 1771.85 0.406376 -7.57911 0
M  V30 53924 O 1771.64 -0.0897726 -6.21935 0
M  V30 53925 C 1770.45 0.447224 -8.1878 0
M  V30 53926 O 1770.06 -0.825065 -8.71101 0
M  V30 53927 C 1769.57 0.783801 -6.99623 0
M  V30 53928 C 1770.28 0.0619192 -5.85967 0
M  V30 53929 N 1770.23 0.7859 -4.56281 0
M  V30 53930 C 1770.31 2.14308 -4.31736 0
M  V30 53931 N 1770.23 2.46106 -3.05116 0
M  V30 53932 C 1770.09 1.23422 -2.4014 0
M  V30 53933 C 1769.96 0.938381 -1.02409 0
M  V30 53934 N 1769.84 -0.444647 -0.805413 0
M  V30 53935 C 1769.84 -1.40829 -1.79435 0
M  V30 53936 N 1769.71 -2.67213 -1.38558 0
M  V30 53937 N 1769.97 -1.12947 -3.09005 0
M  V30 53938 C 1770.09 0.204887 -3.32369 0
M  V30 53939 H 1773.07 1.93423 -8.4679 0
M  V30 53940 H 1773.34 1.68181 -6.71046 0
M  V30 53941 H 1772.47 -0.289041 -8.15388 0
M  V30 53942 P 1768.51 -1.17771 -8.83182 0
M  V30 53943 O 1768.29 -2.07206 -9.98732 0
M  V30 53944 O 1767.72 0.0743816 -8.81969 0
M  V30 53945 O 1768.26 -1.97652 -7.47304 0
M  V30 53946 C 1769.2 -3.01133 -7.08783 0
M  V30 53947 C 1768.47 -4.12613 -6.37049 0
M  V30 53948 O 1768.26 -3.72827 -4.97879 0
M  V30 53949 C 1767.07 -4.45085 -6.88694 0
M  V30 53950 O 1766.68 -5.7877 -6.5624 0
M  V30 53951 C 1766.19 -3.47817 -6.12078 0
M  V30 53952 C 1766.9 -3.39414 -4.77697 0
M  V30 53953 N 1766.85 -2.04199 -4.15538 0
M  V30 53954 C 1766.93 -0.821545 -4.76977 0
M  V30 53955 N 1766.86 0.1794 -3.94592 0
M  V30 53956 C 1766.71 -0.419121 -2.70776 0
M  V30 53957 C 1766.58 0.109072 -1.40577 0
M  V30 53958 N 1766.57 1.4104 -1.1344 0
M  V30 53959 N 1766.46 -0.764381 -0.39411 0
M  V30 53960 C 1766.47 -2.06587 -0.664135 0
M  V30 53961 N 1766.59 -2.67948 -1.82153 0
M  V30 53962 C 1766.71 -1.77942 -2.8147 0
M  V30 53963 H 1769.69 -3.41248 -7.98759 0
M  V30 53964 H 1769.96 -2.57728 -6.42 0
M  V30 53965 H 1769.09 -5.02657 -6.42673 0
M  V30 53966 H 1766.44 -4.11708 -4.08956 0
M  V30 53967 H 1766.16 -2.49626 -6.61679 0
M  V30 53968 H 1765.17 -3.8662 -6.00862 0
M  V30 53969 H 1767 -4.29991 -7.97006 0
M  V30 53970 H 1767.04 -0.702451 -5.84696 0
M  V30 53971 H 1766.66 2.09647 -1.89651 0
M  V30 53972 H 1766.47 1.73358 -0.160575 0
M  V30 53973 H 1766.36 -2.71695 0.195838 0
M  V30 53974 P 1765.13 -6.144 -6.45285 0
M  V30 53975 O 1764.91 -7.54673 -6.86199 0
M  V30 53976 O 1764.34 -5.12391 -7.179 0
M  V30 53977 O 1764.88 -5.99158 -4.88404 0
M  V30 53978 C 1765.82 -6.60234 -3.96415 0
M  V30 53979 C 1765.09 -7.08259 -2.72856 0
M  V30 53980 O 1764.88 -5.9427 -1.83651 0
M  V30 53981 C 1763.69 -7.64886 -2.9555 0
M  V30 53982 O 1763.3 -8.53963 -1.90717 0
M  V30 53983 C 1762.81 -6.4116 -2.90739 0
M  V30 53984 C 1763.52 -5.55375 -1.86963 0
M  V30 53985 N 1763.47 -4.09448 -2.16152 0
M  V30 53986 H 1766.31 -7.45574 -4.45629 0
M  V30 53987 H 1766.58 -5.85864 -3.679 0
M  V30 53988 H 1765.71 -7.84412 -2.24479 0
M  V30 53989 H 1763.06 -5.73457 -0.888562 0
M  V30 53990 H 1762.78 -5.90877 -3.88583 0
M  V30 53991 H 1761.79 -6.6596 -2.58858 0
M  V30 53992 H 1763.62 -8.16339 -3.92049 0
M  V30 53993 P 1761.75 -8.7635 -1.60911 0
M  V30 53994 O 1761.53 -10.1388 -1.11561 0
M  V30 53995 O 1760.96 -8.36503 -2.79617 0
M  V30 53996 O 1761.5 -7.71806 -0.42951 0
M  V30 53997 C 1762.44 -7.67148 0.673689 0
M  V30 53998 C 1761.71 -7.33374 1.95559 0
M  V30 53999 O 1761.5 -5.88721 2.00726 0
M  V30 54000 C 1760.31 -7.92526 2.10483 0
M  V30 54001 O 1759.92 -8.02971 3.47653 0
M  V30 54002 C 1759.43 -6.89602 1.41652 0
M  V30 54003 C 1760.14 -5.59201 1.75185 0
M  V30 54004 N 1760.09 -4.58301 0.657969 0
M  V30 54005 H 1762.93 -8.65116 0.777161 0
M  V30 54006 H 1763.2 -6.9022 0.46725 0
M  V30 54007 H 1762.33 -7.66548 2.79458 0
M  V30 54008 H 1759.68 -5.16165 2.65183 0
M  V30 54009 H 1759.4 -7.06433 0.329384 0
M  V30 54010 H 1758.41 -6.90926 1.82021 0
M  V30 54011 H 1760.24 -8.90873 1.62657 0
M  V30 54012 P 1758.37 -8.03563 3.84925 0
M  V30 54013 O 1758.15 -8.85821 5.0569 0
M  V30 54014 O 1757.58 -8.41101 2.65469 0
M  V30 54015 O 1758.12 -6.4965 4.18908 0
M  V30 54016 C 1759.06 -5.81037 5.05421 0
M  V30 54017 C 1758.33 -4.78366 5.89277 0
M  V30 54018 O 1758.12 -3.58302 5.08433 0
M  V30 54019 C 1756.93 -5.17448 6.36119 0
M  V30 54020 O 1756.54 -4.45271 7.53232 0
M  V30 54021 C 1756.05 -4.74639 5.19936 0
M  V30 54022 C 1756.76 -3.49432 4.70418 0
M  V30 54023 N 1756.71 -3.32099 3.22613 0
M  V30 54024 H 1759.55 -6.54213 5.71376 0
M  V30 54025 H 1759.82 -5.30936 4.43503 0
M  V30 54026 H 1758.95 -4.55889 6.76652 0
M  V30 54027 H 1756.3 -2.61715 5.17932 0
M  V30 54028 H 1756.02 -5.52155 4.41878 0
M  V30 54029 H 1755.03 -4.51981 5.53374 0
M  V30 54030 H 1756.86 -6.25124 6.55234 0
M  V30 54031 P 1754.99 -4.23843 7.83734 0
M  V30 54032 O 1754.77 -4.19407 9.29784 0
M  V30 54033 O 1754.2 -5.24426 7.09156 0
M  V30 54034 O 1754.74 -2.7935 7.20758 0
M  V30 54035 C 1755.68 -1.7299 7.50419 0
M  V30 54036 C 1754.95 -0.406376 7.57911 0
M  V30 54037 O 1754.74 0.0897726 6.21935 0
M  V30 54038 C 1753.55 -0.447224 8.1878 0
M  V30 54039 O 1753.16 0.825065 8.71101 0
M  V30 54040 C 1752.67 -0.783801 6.99623 0
M  V30 54041 C 1753.38 -0.0619192 5.85967 0
M  V30 54042 N 1753.33 -0.7859 4.56281 0
M  V30 54043 H 1756.17 -1.93423 8.4679 0
M  V30 54044 H 1756.44 -1.68181 6.71046 0
M  V30 54045 H 1755.57 0.289041 8.15388 0
M  V30 54046 P 1751.61 1.17771 8.83182 0
M  V30 54047 O 1751.39 2.07206 9.98732 0
M  V30 54048 O 1750.82 -0.0743816 8.81969 0
M  V30 54049 O 1751.36 1.97652 7.47304 0
M  V30 54050 C 1752.3 3.01133 7.08783 0
M  V30 54051 C 1751.57 4.12613 6.37049 0
M  V30 54052 O 1751.36 3.72827 4.97879 0
M  V30 54053 C 1750.17 4.45085 6.88694 0
M  V30 54054 O 1749.78 5.7877 6.5624 0
M  V30 54055 C 1749.29 3.47817 6.12078 0
M  V30 54056 C 1750 3.39414 4.77697 0
M  V30 54057 N 1749.95 2.04199 4.15538 0
M  V30 54058 H 1752.79 3.41248 7.98759 0
M  V30 54059 H 1753.06 2.57728 6.42 0
M  V30 54060 H 1752.19 5.02657 6.42673 0
M  V30 54061 H 1749.54 4.11708 4.08956 0
M  V30 54062 H 1749.26 2.49626 6.61679 0
M  V30 54063 H 1748.27 3.8662 6.00862 0
M  V30 54064 H 1750.1 4.29991 7.97006 0
M  V30 54065 P 1748.23 6.144 6.45285 0
M  V30 54066 O 1748.01 7.54673 6.86199 0
M  V30 54067 O 1747.44 5.12391 7.179 0
M  V30 54068 O 1747.98 5.99158 4.88404 0
M  V30 54069 C 1748.92 6.60234 3.96415 0
M  V30 54070 C 1748.19 7.08259 2.72856 0
M  V30 54071 O 1747.98 5.9427 1.83651 0
M  V30 54072 C 1746.79 7.64886 2.9555 0
M  V30 54073 O 1746.4 8.53963 1.90717 0
M  V30 54074 C 1745.91 6.4116 2.90739 0
M  V30 54075 C 1746.62 5.55375 1.86963 0
M  V30 54076 N 1746.57 4.09664 2.15742 0
M  V30 54077 H 1749.41 7.45574 4.45629 0
M  V30 54078 H 1749.68 5.86232 3.67314 0
M  V30 54079 H 1748.81 7.84412 2.24479 0
M  V30 54080 P 1744.85 8.7635 1.60911 0
M  V30 54081 O 1744.63 10.1388 1.11561 0
M  V30 54082 O 1744.06 8.36503 2.79617 0
M  V30 54083 O 1744.6 7.71806 0.42951 0
M  V30 54084 C 1745.54 7.67148 -0.673689 0
M  V30 54085 C 1744.81 7.33374 -1.95559 0
M  V30 54086 O 1744.6 5.88721 -2.00726 0
M  V30 54087 C 1743.41 7.92526 -2.10483 0
M  V30 54088 O 1743.02 8.02971 -3.47653 0
M  V30 54089 C 1742.53 6.89602 -1.41652 0
M  V30 54090 C 1743.24 5.59201 -1.75185 0
M  V30 54091 N 1743.19 4.58235 -0.662552 0
M  V30 54092 H 1746.03 8.65116 -0.777161 0
M  V30 54093 H 1746.3 6.90173 -0.474152 0
M  V30 54094 H 1745.43 7.66548 -2.79458 0
M  V30 54095 P 1741.47 8.03563 -3.84925 0
M  V30 54096 O 1741.25 8.85821 -5.0569 0
M  V30 54097 O 1740.68 8.41101 -2.65469 0
M  V30 54098 O 1741.22 6.4965 -4.18908 0
M  V30 54099 C 1742.16 5.81037 -5.05421 0
M  V30 54100 C 1741.43 4.78366 -5.89277 0
M  V30 54101 O 1741.22 3.58302 -5.08433 0
M  V30 54102 C 1740.03 5.17448 -6.36119 0
M  V30 54103 O 1739.64 4.45271 -7.53232 0
M  V30 54104 C 1739.15 4.74639 -5.19936 0
M  V30 54105 C 1739.86 3.49432 -4.70418 0
M  V30 54106 N 1739.81 3.31776 -3.22945 0
M  V30 54107 H 1742.65 6.54213 -5.71376 0
M  V30 54108 H 1742.92 5.30492 -4.44033 0
M  V30 54109 H 1742.05 4.55889 -6.76652 0
M  V30 54110 P 1738.09 4.23843 -7.83734 0
M  V30 54111 O 1737.87 4.19407 -9.29784 0
M  V30 54112 O 1737.3 5.24426 -7.09156 0
M  V30 54113 O 1737.84 2.7935 -7.20758 0
M  V30 54114 C 1738.78 1.7299 -7.50419 0
M  V30 54115 C 1738.05 0.406376 -7.57911 0
M  V30 54116 O 1737.84 -0.0897726 -6.21935 0
M  V30 54117 C 1736.65 0.447224 -8.1878 0
M  V30 54118 O 1736.26 -0.825065 -8.71101 0
M  V30 54119 C 1735.77 0.783801 -6.99623 0
M  V30 54120 C 1736.48 0.0619192 -5.85967 0
M  V30 54121 N 1736.43 0.7859 -4.56281 0
M  V30 54122 H 1739.27 1.93423 -8.4679 0
M  V30 54123 H 1739.54 1.68181 -6.71046 0
M  V30 54124 H 1738.67 -0.289041 -8.15388 0
M  V30 54125 P 1734.71 -1.17771 -8.83182 0
M  V30 54126 O 1734.49 -2.07206 -9.98732 0
M  V30 54127 O 1733.92 0.0743816 -8.81969 0
M  V30 54128 O 1734.46 -1.97652 -7.47304 0
M  V30 54129 C 1735.4 -3.01133 -7.08783 0
M  V30 54130 C 1734.67 -4.12613 -6.37049 0
M  V30 54131 O 1734.46 -3.72827 -4.97879 0
M  V30 54132 C 1733.27 -4.45085 -6.88694 0
M  V30 54133 O 1732.88 -5.7877 -6.5624 0
M  V30 54134 C 1732.39 -3.47817 -6.12078 0
M  V30 54135 C 1733.1 -3.39414 -4.77697 0
M  V30 54136 N 1733.05 -2.04615 -4.15333 0
M  V30 54137 H 1735.89 -3.41248 -7.98759 0
M  V30 54138 H 1736.16 -2.5837 -6.41742 0
M  V30 54139 H 1735.29 -5.02657 -6.42673 0
M  V30 54140 P 1731.33 -6.144 -6.45285 0
M  V30 54141 O 1731.11 -7.54673 -6.86199 0
M  V30 54142 O 1730.54 -5.12391 -7.179 0
M  V30 54143 O 1731.08 -5.99158 -4.88404 0
M  V30 54144 C 1732.02 -6.60234 -3.96415 0
M  V30 54145 C 1731.29 -7.08259 -2.72856 0
M  V30 54146 O 1731.08 -5.9427 -1.83651 0
M  V30 54147 C 1729.89 -7.64886 -2.9555 0
M  V30 54148 O 1729.5 -8.53963 -1.90717 0
M  V30 54149 C 1729.01 -6.4116 -2.90739 0
M  V30 54150 C 1729.72 -5.55375 -1.86963 0
M  V30 54151 N 1729.67 -4.09664 -2.15742 0
M  V30 54152 H 1732.51 -7.45574 -4.45629 0
M  V30 54153 H 1732.78 -5.86232 -3.67314 0
M  V30 54154 H 1731.91 -7.84412 -2.24479 0
M  V30 54155 P 1727.95 -8.7635 -1.60911 0
M  V30 54156 O 1727.73 -10.1388 -1.11561 0
M  V30 54157 O 1727.16 -8.36503 -2.79617 0
M  V30 54158 O 1727.7 -7.71806 -0.42951 0
M  V30 54159 C 1728.64 -7.67148 0.673689 0
M  V30 54160 C 1727.91 -7.33374 1.95559 0
M  V30 54161 O 1727.7 -5.88721 2.00726 0
M  V30 54162 C 1726.51 -7.92526 2.10483 0
M  V30 54163 O 1726.12 -8.02971 3.47653 0
M  V30 54164 C 1725.63 -6.89602 1.41652 0
M  V30 54165 C 1726.34 -5.59201 1.75185 0
M  V30 54166 N 1726.29 -4.58235 0.662552 0
M  V30 54167 H 1729.13 -8.65116 0.777161 0
M  V30 54168 H 1729.4 -6.90173 0.474152 0
M  V30 54169 H 1728.53 -7.66548 2.79458 0
M  V30 54170 P 1724.57 -8.03563 3.84925 0
M  V30 54171 O 1724.35 -8.85821 5.0569 0
M  V30 54172 O 1723.78 -8.41101 2.65469 0
M  V30 54173 O 1724.32 -6.4965 4.18908 0
M  V30 54174 C 1725.26 -5.81037 5.05421 0
M  V30 54175 C 1724.53 -4.78366 5.89277 0
M  V30 54176 O 1724.32 -3.58302 5.08433 0
M  V30 54177 C 1723.13 -5.17448 6.36119 0
M  V30 54178 O 1722.74 -4.45271 7.53232 0
M  V30 54179 C 1722.25 -4.74639 5.19936 0
M  V30 54180 C 1722.96 -3.49432 4.70418 0
M  V30 54181 N 1722.91 -3.32099 3.22613 0
M  V30 54182 H 1725.75 -6.54213 5.71376 0
M  V30 54183 H 1726.02 -5.30936 4.43503 0
M  V30 54184 H 1725.15 -4.55889 6.76652 0
M  V30 54185 H 1722.5 -2.61715 5.17932 0
M  V30 54186 H 1722.22 -5.52155 4.41878 0
M  V30 54187 H 1721.23 -4.51981 5.53374 0
M  V30 54188 H 1723.06 -6.25124 6.55234 0
M  V30 54189 P 1721.19 -4.23843 7.83734 0
M  V30 54190 O 1720.97 -4.19407 9.29784 0
M  V30 54191 O 1720.4 -5.24426 7.09156 0
M  V30 54192 O 1720.94 -2.7935 7.20758 0
M  V30 54193 C 1721.88 -1.7299 7.50419 0
M  V30 54194 C 1721.15 -0.406376 7.57911 0
M  V30 54195 O 1720.94 0.0897726 6.21935 0
M  V30 54196 C 1719.75 -0.447224 8.1878 0
M  V30 54197 O 1719.36 0.825065 8.71101 0
M  V30 54198 C 1718.87 -0.783801 6.99623 0
M  V30 54199 C 1719.58 -0.0619192 5.85967 0
M  V30 54200 N 1719.53 -0.790462 4.56202 0
M  V30 54201 H 1722.37 -1.93423 8.4679 0
M  V30 54202 H 1722.64 -1.68852 6.70877 0
M  V30 54203 H 1721.77 0.289041 8.15388 0
M  V30 54204 H 1719.12 0.927006 5.72848 0
M  V30 54205 H 1718.84 -1.86973 6.82036 0
M  V30 54206 H 1717.85 -0.403953 7.13357 0
M  V30 54207 H 1719.68 -1.20599 8.97534 0
M  V30 54208 P 1717.81 1.17771 8.83182 0
M  V30 54209 O 1717.59 2.07206 9.98732 0
M  V30 54210 O 1717.02 -0.0743816 8.81969 0
M  V30 54211 O 1717.56 1.97652 7.47304 0
M  V30 54212 C 1718.5 3.01133 7.08783 0
M  V30 54213 C 1717.77 4.12613 6.37049 0
M  V30 54214 O 1717.56 3.72827 4.97879 0
M  V30 54215 C 1716.37 4.45085 6.88694 0
M  V30 54216 O 1715.98 5.7877 6.5624 0
M  V30 54217 C 1715.49 3.47817 6.12078 0
M  V30 54218 C 1716.2 3.39414 4.77697 0
M  V30 54219 N 1716.15 2.04615 4.15333 0
M  V30 54220 H 1718.99 3.41248 7.98759 0
M  V30 54221 H 1719.26 2.5837 6.41742 0
M  V30 54222 H 1718.39 5.02657 6.42673 0
M  V30 54223 P 1714.43 6.144 6.45285 0
M  V30 54224 O 1714.21 7.54673 6.86199 0
M  V30 54225 O 1713.64 5.12391 7.179 0
M  V30 54226 O 1714.18 5.99158 4.88404 0
M  V30 54227 C 1715.12 6.60234 3.96415 0
M  V30 54228 C 1714.39 7.08259 2.72856 0
M  V30 54229 O 1714.18 5.9427 1.83651 0
M  V30 54230 C 1712.99 7.64886 2.9555 0
M  V30 54231 O 1712.6 8.53963 1.90717 0
M  V30 54232 C 1712.11 6.4116 2.90739 0
M  V30 54233 C 1712.82 5.55375 1.86963 0
M  V30 54234 N 1712.77 4.09664 2.15742 0
M  V30 54235 C 1712.85 3.44381 3.37233 0
M  V30 54236 N 1712.77 2.14131 3.28347 0
M  V30 54237 C 1712.63 1.90247 1.91588 0
M  V30 54238 C 1712.5 0.683992 1.20892 0
M  V30 54239 N 1712.38 0.903396 -0.173998 0
M  V30 54240 C 1712.38 2.14171 -0.784879 0
M  V30 54241 N 1712.25 2.1435 -2.11317 0
M  V30 54242 N 1712.51 3.28784 -0.119316 0
M  V30 54243 C 1712.63 3.0977 1.22194 0
M  V30 54244 H 1715.61 7.45574 4.45629 0
M  V30 54245 H 1715.88 5.86232 3.67314 0
M  V30 54246 H 1715.01 7.84412 2.24479 0
M  V30 54247 P 1711.05 8.7635 1.60911 0
M  V30 54248 O 1710.83 10.1388 1.11561 0
M  V30 54249 O 1710.26 8.36503 2.79617 0
M  V30 54250 O 1710.8 7.71806 0.42951 0
M  V30 54251 C 1711.74 7.67148 -0.673689 0
M  V30 54252 C 1711.01 7.33374 -1.95559 0
M  V30 54253 O 1710.8 5.88721 -2.00726 0
M  V30 54254 C 1709.61 7.92526 -2.10483 0
M  V30 54255 O 1709.22 8.02971 -3.47653 0
M  V30 54256 C 1708.73 6.89602 -1.41652 0
M  V30 54257 C 1709.44 5.59201 -1.75185 0
M  V30 54258 N 1709.39 4.58235 -0.662552 0
M  V30 54259 H 1712.23 8.65116 -0.777161 0
M  V30 54260 H 1712.5 6.90173 -0.474152 0
M  V30 54261 H 1711.63 7.66548 -2.79458 0
M  V30 54262 P 1707.67 8.03563 -3.84925 0
M  V30 54263 O 1707.45 8.85821 -5.0569 0
M  V30 54264 O 1706.88 8.41101 -2.65469 0
M  V30 54265 O 1707.42 6.4965 -4.18908 0
M  V30 54266 C 1708.36 5.81037 -5.05421 0
M  V30 54267 C 1707.63 4.78366 -5.89277 0
M  V30 54268 O 1707.42 3.58302 -5.08433 0
M  V30 54269 C 1706.23 5.17448 -6.36119 0
M  V30 54270 O 1705.84 4.45271 -7.53232 0
M  V30 54271 C 1705.35 4.74639 -5.19936 0
M  V30 54272 C 1706.06 3.49432 -4.70418 0
M  V30 54273 N 1706.01 3.32099 -3.22613 0
M  V30 54274 H 1708.85 6.54213 -5.71376 0
M  V30 54275 H 1709.12 5.30936 -4.43503 0
M  V30 54276 H 1708.25 4.55889 -6.76652 0
M  V30 54277 H 1705.6 2.61715 -5.17932 0
M  V30 54278 H 1705.32 5.52155 -4.41878 0
M  V30 54279 H 1704.33 4.51981 -5.53374 0
M  V30 54280 H 1706.16 6.25124 -6.55234 0
M  V30 54281 P 1704.29 4.23843 -7.83734 0
M  V30 54282 O 1704.07 4.19407 -9.29784 0
M  V30 54283 O 1703.5 5.24426 -7.09156 0
M  V30 54284 O 1704.04 2.7935 -7.20758 0
M  V30 54285 C 1704.98 1.7299 -7.50419 0
M  V30 54286 C 1704.25 0.406376 -7.57911 0
M  V30 54287 O 1704.04 -0.0897726 -6.21935 0
M  V30 54288 C 1702.85 0.447224 -8.1878 0
M  V30 54289 O 1702.46 -0.825065 -8.71101 0
M  V30 54290 C 1701.97 0.783801 -6.99623 0
M  V30 54291 C 1702.68 0.0619192 -5.85967 0
M  V30 54292 N 1702.63 0.7859 -4.56281 0
M  V30 54293 H 1705.47 1.93423 -8.4679 0
M  V30 54294 H 1705.74 1.68181 -6.71046 0
M  V30 54295 H 1704.87 -0.289041 -8.15388 0
M  V30 54296 P 1700.91 -1.17771 -8.83182 0
M  V30 54297 O 1700.69 -2.07206 -9.98732 0
M  V30 54298 O 1700.12 0.0743816 -8.81969 0
M  V30 54299 O 1700.66 -1.97652 -7.47304 0
M  V30 54300 C 1701.6 -3.01133 -7.08783 0
M  V30 54301 C 1700.87 -4.12613 -6.37049 0
M  V30 54302 O 1700.66 -3.72827 -4.97879 0
M  V30 54303 C 1699.47 -4.45085 -6.88694 0
M  V30 54304 O 1699.08 -5.7877 -6.5624 0
M  V30 54305 C 1698.59 -3.47817 -6.12078 0
M  V30 54306 C 1699.3 -3.39414 -4.77697 0
M  V30 54307 N 1699.25 -2.04615 -4.15333 0
M  V30 54308 H 1702.09 -3.41248 -7.98759 0
M  V30 54309 H 1702.36 -2.5837 -6.41742 0
M  V30 54310 H 1701.49 -5.02657 -6.42673 0
M  V30 54311 P 1697.53 -6.144 -6.45285 0
M  V30 54312 O 1697.31 -7.54673 -6.86199 0
M  V30 54313 O 1696.74 -5.12391 -7.179 0
M  V30 54314 O 1697.28 -5.99158 -4.88404 0
M  V30 54315 C 1698.22 -6.60234 -3.96415 0
M  V30 54316 C 1697.49 -7.08259 -2.72856 0
M  V30 54317 O 1697.28 -5.9427 -1.83651 0
M  V30 54318 C 1696.09 -7.64886 -2.9555 0
M  V30 54319 O 1695.7 -8.53963 -1.90717 0
M  V30 54320 C 1695.21 -6.4116 -2.90739 0
M  V30 54321 C 1695.92 -5.55375 -1.86963 0
M  V30 54322 N 1695.87 -4.09664 -2.15742 0
M  V30 54323 H 1698.71 -7.45574 -4.45629 0
M  V30 54324 H 1698.98 -5.86232 -3.67314 0
M  V30 54325 H 1698.11 -7.84412 -2.24479 0
M  V30 54326 P 1694.15 -8.7635 -1.60911 0
M  V30 54327 O 1693.93 -10.1388 -1.11561 0
M  V30 54328 O 1693.36 -8.36503 -2.79617 0
M  V30 54329 O 1693.9 -7.71806 -0.42951 0
M  V30 54330 C 1694.84 -7.67148 0.673689 0
M  V30 54331 C 1694.11 -7.33374 1.95559 0
M  V30 54332 O 1693.9 -5.88721 2.00726 0
M  V30 54333 C 1692.71 -7.92526 2.10483 0
M  V30 54334 O 1692.32 -8.02971 3.47653 0
M  V30 54335 C 1691.83 -6.89602 1.41652 0
M  V30 54336 C 1692.54 -5.59201 1.75185 0
M  V30 54337 N 1692.49 -4.58235 0.662552 0
M  V30 54338 H 1695.33 -8.65116 0.777161 0
M  V30 54339 H 1695.6 -6.90173 0.474152 0
M  V30 54340 H 1694.73 -7.66548 2.79458 0
M  V30 54341 P 1690.77 -8.03563 3.84925 0
M  V30 54342 O 1690.55 -8.85821 5.0569 0
M  V30 54343 O 1689.98 -8.41101 2.65469 0
M  V30 54344 O 1690.52 -6.49734 4.18962 0
M  V30 54345 C 1691.46 -5.81037 5.05421 0
M  V30 54346 C 1690.73 -4.79018 5.88876 0
M  V30 54347 O 1690.52 -3.58359 5.08515 0
M  V30 54348 C 1689.33 -5.17448 6.36119 0
M  V30 54349 O 1688.94 -4.45322 7.53318 0
M  V30 54350 C 1688.45 -4.74639 5.19936 0
M  V30 54351 C 1689.16 -3.49432 4.70418 0
M  V30 54352 N 1689.11 -3.31776 3.22945 0
M  V30 54353 C 1688.96 -2.02742 2.72939 0
M  V30 54354 O 1688.87 -1.08301 3.52749 0
M  V30 54355 N 1688.91 -1.96117 1.22063 0
M  V30 54356 C 1689.01 -2.8878 0.551566 0
M  V30 54357 N 1688.96 -2.65609 -0.750198 0
M  V30 54358 C 1689.16 -4.22457 1.03707 0
M  V30 54359 C 1689.21 -4.37979 2.39113 0
M  V30 54360 H 1691.95 -6.54138 5.7131 0
M  V30 54361 H 1692.22 -5.30492 4.44033 0
M  V30 54362 H 1691.35 -4.55945 6.76735 0
M  V30 54363 H 1688.7 -2.6176 5.18021 0
M  V30 54364 H 1688.42 -5.52233 4.41941 0
M  V30 54365 H 1687.43 -4.52045 5.53452 0
M  V30 54366 H 1689.26 -6.25124 6.55234 0
M  V30 54367 H 1689.33 -5.37936 2.80552 0
M  V30 54368 H 1689.23 -5.07528 0.359553 0
M  V30 54369 H 1688.84 -1.69403 -1.09847 0
M  V30 54370 H 1689.04 -3.43701 -1.41792 0
M  V30 54371 P 1687.39 -4.23843 7.83734 0
M  V30 54372 O 1687.17 -4.19407 9.29784 0
M  V30 54373 O 1686.6 -5.24426 7.09156 0
M  V30 54374 O 1687.14 -2.7935 7.20758 0
M  V30 54375 C 1688.08 -1.7299 7.50419 0
M  V30 54376 C 1687.35 -0.406376 7.57911 0
M  V30 54377 O 1687.14 0.0897726 6.21935 0
M  V30 54378 C 1685.95 -0.447224 8.1878 0
M  V30 54379 O 1685.56 0.825065 8.71101 0
M  V30 54380 C 1685.07 -0.783801 6.99623 0
M  V30 54381 C 1685.78 -0.0619192 5.85967 0
M  V30 54382 N 1685.73 -0.7859 4.56281 0
M  V30 54383 H 1688.57 -1.93423 8.4679 0
M  V30 54384 H 1688.84 -1.68181 6.71046 0
M  V30 54385 H 1687.97 0.289041 8.15388 0
M  V30 54386 P 1684.01 1.17771 8.83182 0
M  V30 54387 O 1683.79 2.07206 9.98732 0
M  V30 54388 O 1683.22 -0.0743816 8.81969 0
M  V30 54389 O 1683.76 1.97652 7.47304 0
M  V30 54390 C 1684.7 3.01133 7.08783 0
M  V30 54391 C 1683.97 4.12613 6.37049 0
M  V30 54392 O 1683.76 3.72827 4.97879 0
M  V30 54393 C 1682.57 4.45085 6.88694 0
M  V30 54394 O 1682.18 5.7877 6.5624 0
M  V30 54395 C 1681.69 3.47817 6.12078 0
M  V30 54396 C 1682.4 3.39414 4.77697 0
M  V30 54397 N 1682.35 2.04615 4.15333 0
M  V30 54398 H 1685.19 3.41248 7.98759 0
M  V30 54399 H 1685.46 2.5837 6.41742 0
M  V30 54400 H 1684.59 5.02657 6.42673 0
M  V30 54401 P 1680.63 6.144 6.45285 0
M  V30 54402 O 1680.41 7.54673 6.86199 0
M  V30 54403 O 1679.84 5.12391 7.179 0
M  V30 54404 O 1680.38 5.99158 4.88404 0
M  V30 54405 C 1681.32 6.60234 3.96415 0
M  V30 54406 C 1680.59 7.08259 2.72856 0
M  V30 54407 O 1680.38 5.9427 1.83651 0
M  V30 54408 C 1679.19 7.64886 2.9555 0
M  V30 54409 O 1678.8 8.53963 1.90717 0
M  V30 54410 C 1678.31 6.4116 2.90739 0
M  V30 54411 C 1679.02 5.55375 1.86963 0
M  V30 54412 N 1678.97 4.09664 2.15742 0
M  V30 54413 H 1681.81 7.45574 4.45629 0
M  V30 54414 H 1682.08 5.86232 3.67314 0
M  V30 54415 H 1681.21 7.84412 2.24479 0
M  V30 54416 P 1677.25 8.7635 1.60911 0
M  V30 54417 O 1677.03 10.1388 1.11561 0
M  V30 54418 O 1676.46 8.36503 2.79617 0
M  V30 54419 O 1677 7.71806 0.42951 0
M  V30 54420 C 1677.94 7.66948 -0.673514 0
M  V30 54421 C 1677.21 7.33374 -1.95559 0
M  V30 54422 O 1677 5.88721 -2.00726 0
M  V30 54423 C 1675.81 7.92218 -2.1125 0
M  V30 54424 O 1675.42 8.02971 -3.47653 0
M  V30 54425 C 1674.93 6.89504 -1.41631 0
M  V30 54426 C 1675.64 5.59106 -1.75155 0
M  V30 54427 N 1675.59 4.58136 -0.662409 0
M  V30 54428 C 1675.44 3.26059 -1.02863 0
M  V30 54429 O 1675.35 2.90743 -2.19009 0
M  V30 54430 N 1675.4 2.35995 0.0155585 0
M  V30 54431 C 1675.49 2.65248 1.35603 0
M  V30 54432 O 1675.44 1.75605 2.20651 0
M  V30 54433 C 1675.64 4.05747 1.64698 0
M  V30 54434 C 1675.75 4.42345 3.09553 0
M  V30 54435 C 1675.69 4.96734 0.652411 0
M  V30 54436 H 1678.43 8.64917 -0.776982 0
M  V30 54437 H 1678.7 6.89974 -0.474015 0
M  V30 54438 H 1677.83 7.66548 -2.79458 0
M  V30 54439 H 1675.18 5.16076 -2.65138 0
M  V30 54440 H 1674.9 7.06433 -0.329384 0
M  V30 54441 H 1673.91 6.90829 -1.81996 0
M  V30 54442 H 1675.74 8.90774 -1.62639 0
M  V30 54443 H 1675.81 6.02181 0.895285 0
M  V30 54444 H 1674.78 4.80252 3.45468 0
M  V30 54445 H 1676.52 5.20015 3.22119 0
M  V30 54446 H 1676.03 3.53269 3.67833 0
M  V30 54447 H 1675.3 1.39558 -0.227499 0
M  V30 54448 P 1673.87 8.03563 -3.84925 0
M  V30 54449 O 1673.65 8.85821 -5.0569 0
M  V30 54450 O 1673.08 8.41101 -2.65469 0
M  V30 54451 O 1673.62 6.4965 -4.18908 0
M  V30 54452 C 1674.56 5.81037 -5.05421 0
M  V30 54453 C 1673.83 4.78366 -5.89277 0
M  V30 54454 O 1673.62 3.58302 -5.08433 0
M  V30 54455 C 1672.43 5.17448 -6.36119 0
M  V30 54456 O 1672.04 4.45271 -7.53232 0
M  V30 54457 C 1671.55 4.74639 -5.19936 0
M  V30 54458 C 1672.26 3.49432 -4.70418 0
M  V30 54459 N 1672.21 3.31776 -3.22945 0
M  V30 54460 C 1672.29 4.27147 -2.23315 0
M  V30 54461 N 1672.21 3.78447 -1.02186 0
M  V30 54462 C 1672.07 2.41001 -1.21732 0
M  V30 54463 C 1671.94 1.36111 -0.27694 0
M  V30 54464 N 1671.82 0.113683 -0.912949 0
M  V30 54465 C 1671.82 -0.0846396 -2.27943 0
M  V30 54466 N 1671.69 -1.34737 -2.6916 0
M  V30 54467 N 1671.95 0.902521 -3.16379 0
M  V30 54468 C 1672.07 2.11937 -2.56849 0
M  V30 54469 H 1675.05 6.54213 -5.71376 0
M  V30 54470 H 1675.32 5.30492 -4.44033 0
M  V30 54471 H 1674.45 4.55889 -6.76652 0
M  V30 54472 P 1670.49 4.23843 -7.83734 0
M  V30 54473 O 1670.27 4.19407 -9.29784 0
M  V30 54474 O 1669.7 5.24426 -7.09156 0
M  V30 54475 O 1670.24 2.7935 -7.20758 0
M  V30 54476 C 1671.18 1.7299 -7.50419 0
M  V30 54477 C 1670.45 0.406376 -7.57911 0
M  V30 54478 O 1670.24 -0.0897726 -6.21935 0
M  V30 54479 C 1669.05 0.447224 -8.1878 0
M  V30 54480 O 1668.66 -0.825065 -8.71101 0
M  V30 54481 C 1668.17 0.783801 -6.99623 0
M  V30 54482 C 1668.88 0.0619192 -5.85967 0
M  V30 54483 N 1668.83 0.7859 -4.56281 0
M  V30 54484 H 1671.67 1.93423 -8.4679 0
M  V30 54485 H 1671.94 1.68181 -6.71046 0
M  V30 54486 H 1671.07 -0.289041 -8.15388 0
M  V30 54487 P 1667.11 -1.17771 -8.83182 0
M  V30 54488 O 1666.89 -2.07206 -9.98732 0
M  V30 54489 O 1666.32 0.0743816 -8.81969 0
M  V30 54490 O 1666.86 -1.97652 -7.47304 0
M  V30 54491 C 1667.8 -3.01133 -7.08783 0
M  V30 54492 C 1667.07 -4.12613 -6.37049 0
M  V30 54493 O 1666.86 -3.72827 -4.97879 0
M  V30 54494 C 1665.67 -4.45085 -6.88694 0
M  V30 54495 O 1665.28 -5.7877 -6.5624 0
M  V30 54496 C 1664.79 -3.47817 -6.12078 0
M  V30 54497 C 1665.5 -3.39414 -4.77697 0
M  V30 54498 N 1665.45 -2.04615 -4.15333 0
M  V30 54499 H 1668.29 -3.41248 -7.98759 0
M  V30 54500 H 1668.56 -2.5837 -6.41742 0
M  V30 54501 H 1667.69 -5.02657 -6.42673 0
M  V30 54502 P 1663.73 -6.144 -6.45285 0
M  V30 54503 O 1663.51 -7.54673 -6.86199 0
M  V30 54504 O 1662.94 -5.12391 -7.179 0
M  V30 54505 O 1663.48 -5.99158 -4.88404 0
M  V30 54506 C 1664.42 -6.60234 -3.96415 0
M  V30 54507 C 1663.69 -7.08259 -2.72856 0
M  V30 54508 O 1663.48 -5.9427 -1.83651 0
M  V30 54509 C 1662.29 -7.64886 -2.9555 0
M  V30 54510 O 1661.9 -8.53963 -1.90717 0
M  V30 54511 C 1661.41 -6.4116 -2.90739 0
M  V30 54512 C 1662.12 -5.55375 -1.86963 0
M  V30 54513 N 1662.07 -4.09448 -2.16152 0
M  V30 54514 H 1664.91 -7.45574 -4.45629 0
M  V30 54515 H 1665.18 -5.85864 -3.679 0
M  V30 54516 H 1664.31 -7.84412 -2.24479 0
M  V30 54517 H 1661.66 -5.73457 -0.888562 0
M  V30 54518 H 1661.38 -5.90877 -3.88583 0
M  V30 54519 H 1660.39 -6.6596 -2.58858 0
M  V30 54520 H 1662.22 -8.16339 -3.92049 0
M  V30 54521 P 1660.35 -8.7635 -1.60911 0
M  V30 54522 O 1660.13 -10.1388 -1.11561 0
M  V30 54523 O 1659.56 -8.36503 -2.79617 0
M  V30 54524 O 1660.1 -7.71806 -0.42951 0
M  V30 54525 C 1661.04 -7.67148 0.673689 0
M  V30 54526 C 1660.31 -7.33374 1.95559 0
M  V30 54527 O 1660.1 -5.88721 2.00726 0
M  V30 54528 C 1658.91 -7.92526 2.10483 0
M  V30 54529 O 1658.52 -8.02971 3.47653 0
M  V30 54530 C 1658.03 -6.89602 1.41652 0
M  V30 54531 C 1658.74 -5.59201 1.75185 0
M  V30 54532 N 1658.69 -4.58235 0.662552 0
M  V30 54533 H 1661.53 -8.65116 0.777161 0
M  V30 54534 H 1661.8 -6.90173 0.474152 0
M  V30 54535 H 1660.93 -7.66548 2.79458 0
M  V30 54536 P 1656.97 -8.03563 3.84925 0
M  V30 54537 O 1656.75 -8.85821 5.0569 0
M  V30 54538 O 1656.18 -8.41101 2.65469 0
M  V30 54539 O 1656.72 -6.4965 4.18908 0
M  V30 54540 C 1657.66 -5.81037 5.05421 0
M  V30 54541 C 1656.93 -4.78366 5.89277 0
M  V30 54542 O 1656.72 -3.58302 5.08433 0
M  V30 54543 C 1655.53 -5.17448 6.36119 0
M  V30 54544 O 1655.14 -4.45271 7.53232 0
M  V30 54545 C 1654.65 -4.74639 5.19936 0
M  V30 54546 C 1655.36 -3.49432 4.70418 0
M  V30 54547 N 1655.31 -3.32099 3.22613 0
M  V30 54548 H 1658.15 -6.54213 5.71376 0
M  V30 54549 H 1658.42 -5.30936 4.43503 0
M  V30 54550 H 1657.55 -4.55889 6.76652 0
M  V30 54551 H 1654.9 -2.61715 5.17932 0
M  V30 54552 H 1654.62 -5.52155 4.41878 0
M  V30 54553 H 1653.63 -4.51981 5.53374 0
M  V30 54554 H 1655.46 -6.25124 6.55234 0
M  V30 54555 P 1653.59 -4.23843 7.83734 0
M  V30 54556 O 1653.37 -4.19407 9.29784 0
M  V30 54557 O 1652.8 -5.24426 7.09156 0
M  V30 54558 O 1653.34 -2.7935 7.20758 0
M  V30 54559 C 1654.28 -1.7299 7.50419 0
M  V30 54560 C 1653.55 -0.406376 7.57911 0
M  V30 54561 O 1653.34 0.0897726 6.21935 0
M  V30 54562 C 1652.15 -0.447224 8.1878 0
M  V30 54563 O 1651.76 0.825065 8.71101 0
M  V30 54564 C 1651.27 -0.783801 6.99623 0
M  V30 54565 C 1651.98 -0.0619192 5.85967 0
M  V30 54566 N 1651.93 -0.7859 4.56281 0
M  V30 54567 H 1654.77 -1.93423 8.4679 0
M  V30 54568 H 1655.04 -1.68181 6.71046 0
M  V30 54569 H 1654.17 0.289041 8.15388 0
M  V30 54570 P 1650.21 1.17771 8.83182 0
M  V30 54571 O 1649.99 2.07206 9.98732 0
M  V30 54572 O 1649.42 -0.0743816 8.81969 0
M  V30 54573 O 1649.96 1.97652 7.47304 0
M  V30 54574 C 1650.9 3.01133 7.08783 0
M  V30 54575 C 1650.17 4.12613 6.37049 0
M  V30 54576 O 1649.96 3.72827 4.97879 0
M  V30 54577 C 1648.77 4.45085 6.88694 0
M  V30 54578 O 1648.38 5.7877 6.5624 0
M  V30 54579 C 1647.89 3.47817 6.12078 0
M  V30 54580 C 1648.6 3.39414 4.77697 0
M  V30 54581 N 1648.55 2.04615 4.15333 0
M  V30 54582 H 1651.39 3.41248 7.98759 0
M  V30 54583 H 1651.66 2.5837 6.41742 0
M  V30 54584 H 1650.79 5.02657 6.42673 0
M  V30 54585 P 1646.83 6.144 6.45285 0
M  V30 54586 O 1646.61 7.54673 6.86199 0
M  V30 54587 O 1646.04 5.12391 7.179 0
M  V30 54588 O 1646.58 5.99158 4.88404 0
M  V30 54589 C 1647.52 6.60234 3.96415 0
M  V30 54590 C 1646.79 7.08259 2.72856 0
M  V30 54591 O 1646.58 5.9427 1.83651 0
M  V30 54592 C 1645.39 7.64886 2.9555 0
M  V30 54593 O 1645 8.53963 1.90717 0
M  V30 54594 C 1644.51 6.4116 2.90739 0
M  V30 54595 C 1645.22 5.55375 1.86963 0
M  V30 54596 N 1645.17 4.09664 2.15742 0
M  V30 54597 H 1648.01 7.45574 4.45629 0
M  V30 54598 H 1648.28 5.86232 3.67314 0
M  V30 54599 H 1647.41 7.84412 2.24479 0
M  V30 54600 P 1643.45 8.7635 1.60911 0
M  V30 54601 O 1643.23 10.1388 1.11561 0
M  V30 54602 O 1642.66 8.36503 2.79617 0
M  V30 54603 O 1643.2 7.71806 0.42951 0
M  V30 54604 C 1644.14 7.67148 -0.673689 0
M  V30 54605 C 1643.41 7.33374 -1.95559 0
M  V30 54606 O 1643.2 5.88721 -2.00726 0
M  V30 54607 C 1642.01 7.92526 -2.10483 0
M  V30 54608 O 1641.62 8.02971 -3.47653 0
M  V30 54609 C 1641.13 6.89602 -1.41652 0
M  V30 54610 C 1641.84 5.59201 -1.75185 0
M  V30 54611 N 1641.79 4.58235 -0.662552 0
M  V30 54612 C 1641.87 4.7683 0.704049 0
M  V30 54613 N 1641.79 3.66233 1.39775 0
M  V30 54614 C 1641.65 2.66526 0.431739 0
M  V30 54615 C 1641.52 1.26394 0.575992 0
M  V30 54616 N 1641.4 0.62859 -0.67177 0
M  V30 54617 C 1641.4 1.27134 -1.89385 0
M  V30 54618 N 1641.27 0.492035 -2.96951 0
M  V30 54619 N 1641.53 2.58978 -2.02907 0
M  V30 54620 C 1641.65 3.22433 -0.832218 0
M  V30 54621 H 1644.63 8.65116 -0.777161 0
M  V30 54622 H 1644.9 6.90173 -0.474152 0
M  V30 54623 H 1644.03 7.66548 -2.79458 0
M  V30 54624 P 1640.07 8.03563 -3.84925 0
M  V30 54625 O 1639.85 8.85821 -5.0569 0
M  V30 54626 O 1639.28 8.41101 -2.65469 0
M  V30 54627 O 1639.82 6.4965 -4.18908 0
M  V30 54628 C 1640.76 5.81037 -5.05421 0
M  V30 54629 C 1640.03 4.78366 -5.89277 0
M  V30 54630 O 1639.82 3.58302 -5.08433 0
M  V30 54631 C 1638.63 5.17448 -6.36119 0
M  V30 54632 O 1638.24 4.45271 -7.53232 0
M  V30 54633 C 1637.75 4.74639 -5.19936 0
M  V30 54634 C 1638.46 3.49432 -4.70418 0
M  V30 54635 N 1638.41 3.31776 -3.22945 0
M  V30 54636 H 1641.25 6.54213 -5.71376 0
M  V30 54637 H 1641.52 5.30492 -4.44033 0
M  V30 54638 H 1640.65 4.55889 -6.76652 0
M  V30 54639 P 1636.69 4.23843 -7.83734 0
M  V30 54640 O 1636.47 4.19407 -9.29784 0
M  V30 54641 O 1635.9 5.24426 -7.09156 0
M  V30 54642 O 1636.44 2.7935 -7.20758 0
M  V30 54643 C 1637.38 1.72945 -7.50224 0
M  V30 54644 C 1636.65 0.406376 -7.57911 0
M  V30 54645 O 1636.44 -0.0897726 -6.21935 0
M  V30 54646 C 1635.25 0.438983 -8.18724 0
M  V30 54647 O 1634.86 -0.825065 -8.71101 0
M  V30 54648 C 1634.37 0.783689 -6.99524 0
M  V30 54649 C 1635.08 0.0619086 -5.85867 0
M  V30 54650 N 1635.03 0.78573 -4.56183 0
M  V30 54651 C 1634.88 0.0292889 -3.41887 0
M  V30 54652 O 1634.79 -1.18445 -3.4419 0
M  V30 54653 N 1634.84 0.744061 -2.23964 0
M  V30 54654 C 1634.93 2.10932 -2.10362 0
M  V30 54655 O 1634.88 2.64117 -0.98825 0
M  V30 54656 C 1635.08 2.8202 -3.34994 0
M  V30 54657 C 1635.19 4.31095 -3.25037 0
M  V30 54658 C 1635.13 2.15547 -4.52261 0
M  V30 54659 H 1637.87 1.93379 -8.46595 0
M  V30 54660 H 1638.14 1.68132 -6.70852 0
M  V30 54661 H 1637.27 -0.289041 -8.15388 0
M  V30 54662 H 1634.62 -0.926847 -5.72749 0
M  V30 54663 H 1634.34 1.86973 -6.82036 0
M  V30 54664 H 1633.35 0.403896 -7.13257 0
M  V30 54665 H 1635.18 1.20585 -8.97435 0
M  V30 54666 H 1635.25 2.71231 -5.45042 0
M  V30 54667 H 1634.22 4.76966 -3.49992 0
M  V30 54668 H 1635.96 4.67047 -3.95024 0
M  V30 54669 H 1635.47 4.58996 -2.22312 0
M  V30 54670 H 1634.74 0.214893 -1.39758 0
M  V30 54671 P 1633.31 -1.17771 -8.83182 0
M  V30 54672 O 1633.09 -2.07206 -9.98732 0
M  V30 54673 O 1632.52 0.0743816 -8.81969 0
M  V30 54674 O 1633.06 -1.97652 -7.47304 0
M  V30 54675 C 1634 -3.01133 -7.08783 0
M  V30 54676 C 1633.27 -4.12613 -6.37049 0
M  V30 54677 O 1633.06 -3.72827 -4.97879 0
M  V30 54678 C 1631.87 -4.45085 -6.88694 0
M  V30 54679 O 1631.48 -5.7877 -6.5624 0
M  V30 54680 C 1630.99 -3.47817 -6.12078 0
M  V30 54681 C 1631.7 -3.39414 -4.77697 0
M  V30 54682 N 1631.65 -2.04615 -4.15333 0
M  V30 54683 H 1634.49 -3.41248 -7.98759 0
M  V30 54684 H 1634.76 -2.5837 -6.41742 0
M  V30 54685 H 1633.89 -5.02657 -6.42673 0
M  V30 54686 P 1629.93 -6.144 -6.45285 0
M  V30 54687 O 1629.71 -7.54673 -6.86199 0
M  V30 54688 O 1629.14 -5.12391 -7.179 0
M  V30 54689 O 1629.68 -5.99158 -4.88404 0
M  V30 54690 C 1630.62 -6.60234 -3.96415 0
M  V30 54691 C 1629.89 -7.08259 -2.72856 0
M  V30 54692 O 1629.68 -5.9427 -1.83651 0
M  V30 54693 C 1628.49 -7.64886 -2.9555 0
M  V30 54694 O 1628.1 -8.53963 -1.90717 0
M  V30 54695 C 1627.61 -6.4116 -2.90739 0
M  V30 54696 C 1628.32 -5.55375 -1.86963 0
M  V30 54697 N 1628.27 -4.09448 -2.16152 0
M  V30 54698 H 1631.11 -7.45574 -4.45629 0
M  V30 54699 H 1631.38 -5.85864 -3.679 0
M  V30 54700 H 1630.51 -7.84412 -2.24479 0
M  V30 54701 H 1627.86 -5.73457 -0.888562 0
M  V30 54702 H 1627.58 -5.90877 -3.88583 0
M  V30 54703 H 1626.59 -6.6596 -2.58858 0
M  V30 54704 H 1628.42 -8.16339 -3.92049 0
M  V30 54705 P 1626.55 -8.7635 -1.60911 0
M  V30 54706 O 1626.33 -10.1388 -1.11561 0
M  V30 54707 O 1625.76 -8.36503 -2.79617 0
M  V30 54708 O 1626.3 -7.71806 -0.42951 0
M  V30 54709 C 1627.24 -7.67148 0.673689 0
M  V30 54710 C 1626.51 -7.33374 1.95559 0
M  V30 54711 O 1626.3 -5.88721 2.00726 0
M  V30 54712 C 1625.11 -7.92526 2.10483 0
M  V30 54713 O 1624.72 -8.02971 3.47653 0
M  V30 54714 C 1624.23 -6.89602 1.41652 0
M  V30 54715 C 1624.94 -5.59201 1.75185 0
M  V30 54716 N 1624.89 -4.58301 0.657969 0
M  V30 54717 C 1624.97 -4.79019 -0.692603 0
M  V30 54718 N 1624.9 -3.69736 -1.38998 0
M  V30 54719 C 1624.75 -2.70474 -0.438135 0
M  V30 54720 C 1624.62 -1.30327 -0.538142 0
M  V30 54721 N 1624.61 -0.64304 -1.69192 0
M  V30 54722 N 1624.5 -0.611027 0.605183 0
M  V30 54723 C 1624.51 -1.27002 1.75953 0
M  V30 54724 N 1624.63 -2.56038 1.98546 0
M  V30 54725 C 1624.75 -3.22681 0.822541 0
M  V30 54726 H 1627.73 -8.65116 0.777161 0
M  V30 54727 H 1628 -6.9022 0.46725 0
M  V30 54728 H 1627.13 -7.66548 2.79458 0
M  V30 54729 H 1624.48 -5.16165 2.65183 0
M  V30 54730 H 1624.2 -7.06433 0.329384 0
M  V30 54731 H 1623.21 -6.90926 1.82021 0
M  V30 54732 H 1625.04 -8.90873 1.62657 0
M  V30 54733 H 1625.08 -5.77785 -1.13874 0
M  V30 54734 H 1624.7 -1.15585 -2.57991 0
M  V30 54735 H 1624.51 0.382989 -1.69835 0
M  V30 54736 H 1624.4 -0.653331 2.64449 0
M  V30 54737 P 1623.17 -8.03563 3.84925 0
M  V30 54738 O 1622.95 -8.85821 5.0569 0
M  V30 54739 O 1622.38 -8.41101 2.65469 0
M  V30 54740 O 1622.92 -6.4965 4.18908 0
M  V30 54741 C 1623.86 -5.81037 5.05421 0
M  V30 54742 C 1623.13 -4.78366 5.89277 0
M  V30 54743 O 1622.92 -3.58302 5.08433 0
M  V30 54744 C 1621.73 -5.17448 6.36119 0
M  V30 54745 O 1621.34 -4.45271 7.53232 0
M  V30 54746 C 1620.85 -4.74639 5.19936 0
M  V30 54747 C 1621.56 -3.49432 4.70418 0
M  V30 54748 N 1621.51 -3.32099 3.22613 0
M  V30 54749 H 1624.35 -6.54213 5.71376 0
M  V30 54750 H 1624.62 -5.30936 4.43503 0
M  V30 54751 H 1623.75 -4.55889 6.76652 0
M  V30 54752 H 1621.1 -2.61715 5.17932 0
M  V30 54753 H 1620.82 -5.52155 4.41878 0
M  V30 54754 H 1619.83 -4.51981 5.53374 0
M  V30 54755 H 1621.66 -6.25124 6.55234 0
M  V30 54756 P 1619.79 -4.23843 7.83734 0
M  V30 54757 O 1619.57 -4.19407 9.29784 0
M  V30 54758 O 1619 -5.24426 7.09156 0
M  V30 54759 O 1619.54 -2.7935 7.20758 0
M  V30 54760 C 1620.48 -1.7299 7.50419 0
M  V30 54761 C 1619.75 -0.406376 7.57911 0
M  V30 54762 O 1619.54 0.0897726 6.21935 0
M  V30 54763 C 1618.35 -0.447224 8.1878 0
M  V30 54764 O 1617.96 0.825065 8.71101 0
M  V30 54765 C 1617.47 -0.783801 6.99623 0
M  V30 54766 C 1618.18 -0.0619192 5.85967 0
M  V30 54767 N 1618.13 -0.7859 4.56281 0
M  V30 54768 H 1620.97 -1.93423 8.4679 0
M  V30 54769 H 1621.24 -1.68181 6.71046 0
M  V30 54770 H 1620.37 0.289041 8.15388 0
M  V30 54771 P 1616.41 1.17771 8.83182 0
M  V30 54772 O 1616.19 2.07206 9.98732 0
M  V30 54773 O 1615.62 -0.0743816 8.81969 0
M  V30 54774 O 1616.16 1.97678 7.474 0
M  V30 54775 C 1617.1 3.01133 7.08783 0
M  V30 54776 C 1616.37 4.1203 6.37546 0
M  V30 54777 O 1616.16 3.72887 4.9796 0
M  V30 54778 C 1614.97 4.45085 6.88694 0
M  V30 54779 O 1614.58 5.78836 6.56315 0
M  V30 54780 C 1614.09 3.47817 6.12078 0
M  V30 54781 C 1614.8 3.39414 4.77697 0
M  V30 54782 N 1614.75 2.04615 4.15333 0
M  V30 54783 C 1614.6 1.96929 2.77162 0
M  V30 54784 O 1614.51 3.02017 2.12006 0
M  V30 54785 N 1614.55 0.55485 2.24237 0
M  V30 54786 C 1614.65 -0.367808 2.9169 0
M  V30 54787 N 1614.6 -1.53426 2.29427 0
M  V30 54788 C 1614.8 -0.319148 4.33828 0
M  V30 54789 C 1614.85 0.920672 4.90433 0
M  V30 54790 H 1617.59 3.41209 7.98667 0
M  V30 54791 H 1617.86 2.5837 6.41742 0
M  V30 54792 H 1616.99 5.02718 6.42752 0
M  V30 54793 H 1614.34 4.11779 4.09026 0
M  V30 54794 H 1614.06 2.49661 6.61772 0
M  V30 54795 H 1613.07 3.86674 6.00946 0
M  V30 54796 H 1614.9 4.29991 7.97006 0
M  V30 54797 H 1614.97 1.00589 5.98303 0
M  V30 54798 H 1614.87 -1.22639 4.93799 0
M  V30 54799 H 1614.48 -1.56819 1.27167 0
M  V30 54800 H 1614.68 -2.41062 2.83063 0
M  V30 54801 P 1613.03 6.144 6.45285 0
M  V30 54802 O 1612.81 7.54673 6.86199 0
M  V30 54803 O 1612.24 5.12391 7.179 0
M  V30 54804 O 1612.78 5.99158 4.88404 0
M  V30 54805 C 1613.72 6.60234 3.96415 0
M  V30 54806 C 1612.99 7.08259 2.72856 0
M  V30 54807 O 1612.78 5.9427 1.83651 0
M  V30 54808 C 1611.59 7.64886 2.9555 0
M  V30 54809 O 1611.2 8.53963 1.90717 0
M  V30 54810 C 1610.71 6.4116 2.90739 0
M  V30 54811 C 1611.42 5.55375 1.86963 0
M  V30 54812 N 1611.37 4.09664 2.15742 0
M  V30 54813 H 1614.21 7.45574 4.45629 0
M  V30 54814 H 1614.48 5.86232 3.67314 0
M  V30 54815 H 1613.61 7.84412 2.24479 0
M  V30 54816 P 1609.65 8.7635 1.60911 0
M  V30 54817 O 1609.43 10.1388 1.11561 0
M  V30 54818 O 1608.86 8.36503 2.79617 0
M  V30 54819 O 1609.4 7.71806 0.42951 0
M  V30 54820 C 1610.34 7.67148 -0.673689 0
M  V30 54821 C 1609.61 7.33374 -1.95559 0
M  V30 54822 O 1609.4 5.88721 -2.00726 0
M  V30 54823 C 1608.21 7.92526 -2.10483 0
M  V30 54824 O 1607.82 8.02971 -3.47653 0
M  V30 54825 C 1607.33 6.89602 -1.41652 0
M  V30 54826 C 1608.04 5.59201 -1.75185 0
M  V30 54827 N 1607.99 4.58235 -0.662552 0
M  V30 54828 H 1610.83 8.65116 -0.777161 0
M  V30 54829 H 1611.1 6.90173 -0.474152 0
M  V30 54830 H 1610.23 7.66548 -2.79458 0
M  V30 54831 P 1606.27 8.03563 -3.84925 0
M  V30 54832 O 1606.05 8.85821 -5.0569 0
M  V30 54833 O 1605.48 8.41101 -2.65469 0
M  V30 54834 O 1606.02 6.4965 -4.18908 0
M  V30 54835 C 1606.96 5.80886 -5.05289 0
M  V30 54836 C 1606.23 4.78366 -5.89277 0
M  V30 54837 O 1606.02 3.58302 -5.08433 0
M  V30 54838 C 1604.83 5.16748 -6.36559 0
M  V30 54839 O 1604.44 4.45271 -7.53232 0
M  V30 54840 C 1603.95 4.74572 -5.19863 0
M  V30 54841 C 1604.66 3.49373 -4.70338 0
M  V30 54842 N 1604.61 3.31704 -3.22876 0
M  V30 54843 C 1604.46 2.03326 -2.74871 0
M  V30 54844 O 1604.37 1.06486 -3.48076 0
M  V30 54845 N 1604.42 1.91838 -1.37456 0
M  V30 54846 C 1604.51 2.94295 -0.462035 0
M  V30 54847 O 1604.46 2.71763 0.752928 0
M  V30 54848 C 1604.66 4.25064 -1.05249 0
M  V30 54849 C 1604.77 5.39815 -0.095697 0
M  V30 54850 C 1604.71 4.40214 -2.39192 0
M  V30 54851 H 1607.45 6.54063 -5.71245 0
M  V30 54852 H 1607.72 5.30339 -4.43905 0
M  V30 54853 H 1606.85 4.55889 -6.76652 0
M  V30 54854 H 1604.2 2.6167 -5.17842 0
M  V30 54855 H 1603.92 5.52155 -4.41878 0
M  V30 54856 H 1602.93 4.51918 -5.53297 0
M  V30 54857 H 1604.76 6.25055 -6.55162 0
M  V30 54858 H 1604.83 5.39798 -2.81523 0
M  V30 54859 H 1603.8 5.91593 -0.0279582 0
M  V30 54860 H 1605.54 6.10038 -0.450573 0
M  V30 54861 H 1605.05 5.02007 0.89937 0
M  V30 54862 H 1604.32 0.995326 -1.00435 0
M  V30 54863 P 1602.89 4.23843 -7.83734 0
M  V30 54864 O 1602.67 4.19407 -9.29784 0
M  V30 54865 O 1602.1 5.24426 -7.09156 0
M  V30 54866 O 1602.64 2.7935 -7.20758 0
M  V30 54867 C 1603.58 1.7299 -7.50419 0
M  V30 54868 C 1602.85 0.406376 -7.57911 0
M  V30 54869 O 1602.64 -0.0897726 -6.21935 0
M  V30 54870 C 1601.45 0.447224 -8.1878 0
M  V30 54871 O 1601.06 -0.825065 -8.71101 0
M  V30 54872 C 1600.57 0.783801 -6.99623 0
M  V30 54873 C 1601.28 0.0619192 -5.85967 0
M  V30 54874 N 1601.23 0.790462 -4.56202 0
M  V30 54875 H 1604.07 1.93423 -8.4679 0
M  V30 54876 H 1604.34 1.68852 -6.70877 0
M  V30 54877 H 1603.47 -0.289041 -8.15388 0
M  V30 54878 H 1600.82 -0.927006 -5.72848 0
M  V30 54879 H 1600.54 1.86973 -6.82036 0
M  V30 54880 H 1599.55 0.403953 -7.13357 0
M  V30 54881 H 1601.38 1.20599 -8.97534 0
M  V30 54882 P 1599.51 -1.17771 -8.83182 0
M  V30 54883 O 1599.29 -2.07206 -9.98732 0
M  V30 54884 O 1598.72 0.0743816 -8.81969 0
M  V30 54885 O 1599.26 -1.97652 -7.47304 0
M  V30 54886 C 1600.2 -3.01133 -7.08783 0
M  V30 54887 C 1599.47 -4.12613 -6.37049 0
M  V30 54888 O 1599.26 -3.72827 -4.97879 0
M  V30 54889 C 1598.07 -4.45085 -6.88694 0
M  V30 54890 O 1597.68 -5.7877 -6.5624 0
M  V30 54891 C 1597.19 -3.47817 -6.12078 0
M  V30 54892 C 1597.9 -3.39414 -4.77697 0
M  V30 54893 N 1597.85 -2.04615 -4.15333 0
M  V30 54894 H 1600.69 -3.41248 -7.98759 0
M  V30 54895 H 1600.96 -2.5837 -6.41742 0
M  V30 54896 H 1600.09 -5.02657 -6.42673 0
M  V30 54897 P 1596.13 -6.144 -6.45285 0
M  V30 54898 O 1595.91 -7.54673 -6.86199 0
M  V30 54899 O 1595.34 -5.12391 -7.179 0
M  V30 54900 O 1595.88 -5.99236 -4.88467 0
M  V30 54901 C 1596.82 -6.60234 -3.96415 0
M  V30 54902 C 1596.09 -7.08079 -2.736 0
M  V30 54903 O 1595.88 -5.94365 -1.8368 0
M  V30 54904 C 1594.69 -7.64886 -2.9555 0
M  V30 54905 O 1594.3 -8.5406 -1.90739 0
M  V30 54906 C 1593.81 -6.4116 -2.90739 0
M  V30 54907 C 1594.52 -5.55375 -1.86963 0
M  V30 54908 N 1594.47 -4.09664 -2.15742 0
M  V30 54909 C 1594.32 -3.22231 -1.08477 0
M  V30 54910 O 1594.23 -3.68951 0.0600489 0
M  V30 54911 N 1594.27 -1.76692 -1.48799 0
M  V30 54912 C 1594.37 -1.41695 -2.57602 0
M  V30 54913 N 1594.32 -0.107296 -2.75791 0
M  V30 54914 C 1594.52 -2.29178 -3.69733 0
M  V30 54915 C 1594.57 -3.62753 -3.42653 0
M  V30 54916 H 1597.31 -7.45488 -4.45578 0
M  V30 54917 H 1597.58 -5.86232 -3.67314 0
M  V30 54918 H 1596.71 -7.84508 -2.24507 0
M  V30 54919 H 1594.06 -5.73556 -0.888715 0
M  V30 54920 H 1593.78 -5.9096 -3.88638 0
M  V30 54921 H 1592.79 -6.66053 -2.58894 0
M  V30 54922 H 1594.62 -8.16339 -3.92049 0
M  V30 54923 H 1594.69 -4.33052 -4.24913 0
M  V30 54924 H 1594.59 -1.9103 -4.71577 0
M  V30 54925 H 1594.2 0.521221 -1.95056 0
M  V30 54926 H 1594.4 0.286429 -3.70695 0
M  V30 54927 P 1592.75 -8.7635 -1.60911 0
M  V30 54928 O 1592.53 -10.1388 -1.11561 0
M  V30 54929 O 1591.96 -8.36503 -2.79617 0
M  V30 54930 O 1592.5 -7.71906 -0.429565 0
M  V30 54931 C 1593.44 -7.67148 0.673689 0
M  V30 54932 C 1592.71 -7.33666 1.94851 0
M  V30 54933 O 1592.5 -5.88816 2.00759 0
M  V30 54934 C 1591.31 -7.92526 2.10483 0
M  V30 54935 O 1590.92 -8.03063 3.47693 0
M  V30 54936 C 1590.43 -6.89602 1.41652 0
M  V30 54937 C 1591.14 -5.59201 1.75185 0
M  V30 54938 N 1591.09 -4.58235 0.662552 0
M  V30 54939 C 1590.94 -3.24451 1.01643 0
M  V30 54940 O 1590.85 -2.94958 2.21722 0
M  V30 54941 N 1590.89 -2.30408 -0.165238 0
M  V30 54942 C 1590.99 -2.66048 -1.25118 0
M  V30 54943 N 1590.94 -1.70787 -2.16813 0
M  V30 54944 C 1591.14 -4.02732 -1.64413 0
M  V30 54945 C 1591.19 -4.9488 -0.63991 0
M  V30 54946 H 1593.93 -8.65017 0.777072 0
M  V30 54947 H 1594.2 -6.90173 0.474152 0
M  V30 54948 H 1593.33 -7.66642 2.79492 0
M  V30 54949 H 1590.68 -5.16254 2.65229 0
M  V30 54950 H 1590.4 -7.06532 0.329431 0
M  V30 54951 H 1589.41 -6.91023 1.82047 0
M  V30 54952 H 1591.24 -8.90873 1.62657 0
M  V30 54953 H 1591.31 -6.00104 -0.892197 0
M  V30 54954 H 1591.21 -4.31733 -2.69229 0
M  V30 54955 H 1590.82 -0.724835 -1.8844 0
M  V30 54956 H 1591.02 -1.94716 -3.16734 0
M  V30 54957 P 1589.37 -8.03563 3.84925 0
M  V30 54958 O 1589.15 -8.85821 5.0569 0
M  V30 54959 O 1588.58 -8.41101 2.65469 0
M  V30 54960 O 1589.12 -6.4965 4.18908 0
M  V30 54961 C 1590.06 -5.81037 5.05421 0
M  V30 54962 C 1589.33 -4.78366 5.89277 0
M  V30 54963 O 1589.12 -3.58302 5.08433 0
M  V30 54964 C 1587.93 -5.17448 6.36119 0
M  V30 54965 O 1587.54 -4.45271 7.53232 0
M  V30 54966 C 1587.05 -4.74639 5.19936 0
M  V30 54967 C 1587.76 -3.49432 4.70418 0
M  V30 54968 N 1587.71 -3.32099 3.22613 0
M  V30 54969 H 1590.55 -6.54213 5.71376 0
M  V30 54970 H 1590.82 -5.30936 4.43503 0
M  V30 54971 H 1589.95 -4.55889 6.76652 0
M  V30 54972 H 1587.3 -2.61715 5.17932 0
M  V30 54973 H 1587.02 -5.52155 4.41878 0
M  V30 54974 H 1586.03 -4.51981 5.53374 0
M  V30 54975 H 1587.86 -6.25124 6.55234 0
M  V30 54976 P 1585.99 -4.23843 7.83734 0
M  V30 54977 O 1585.77 -4.19407 9.29784 0
M  V30 54978 O 1585.2 -5.24426 7.09156 0
M  V30 54979 O 1585.74 -2.7935 7.20758 0
M  V30 54980 C 1586.68 -1.7299 7.50419 0
M  V30 54981 C 1585.95 -0.406376 7.57911 0
M  V30 54982 O 1585.74 0.0897726 6.21935 0
M  V30 54983 C 1584.55 -0.447224 8.1878 0
M  V30 54984 O 1584.16 0.825065 8.71101 0
M  V30 54985 C 1583.67 -0.783801 6.99623 0
M  V30 54986 C 1584.38 -0.0619192 5.85967 0
M  V30 54987 N 1584.33 -0.7859 4.56281 0
M  V30 54988 H 1587.17 -1.93423 8.4679 0
M  V30 54989 H 1587.44 -1.68181 6.71046 0
M  V30 54990 H 1586.57 0.289041 8.15388 0
M  V30 54991 P 1582.61 1.17771 8.83182 0
M  V30 54992 O 1582.39 2.07206 9.98732 0
M  V30 54993 O 1581.82 -0.0743816 8.81969 0
M  V30 54994 O 1582.36 1.97678 7.474 0
M  V30 54995 C 1583.3 3.01133 7.08783 0
M  V30 54996 C 1582.57 4.1203 6.37546 0
M  V30 54997 O 1582.36 3.72887 4.9796 0
M  V30 54998 C 1581.17 4.45085 6.88694 0
M  V30 54999 O 1580.78 5.78836 6.56315 0
M  V30 55000 C 1580.29 3.47817 6.12078 0
M  V30 55001 C 1581 3.39414 4.77697 0
M  V30 55002 N 1580.95 2.04615 4.15333 0
M  V30 55003 C 1580.8 1.96929 2.77162 0
M  V30 55004 O 1580.71 3.02017 2.12006 0
M  V30 55005 N 1580.75 0.55485 2.24237 0
M  V30 55006 C 1580.85 -0.367808 2.9169 0
M  V30 55007 N 1580.8 -1.53426 2.29427 0
M  V30 55008 C 1581 -0.319148 4.33828 0
M  V30 55009 C 1581.05 0.920672 4.90433 0
M  V30 55010 H 1583.79 3.41209 7.98667 0
M  V30 55011 H 1584.06 2.5837 6.41742 0
M  V30 55012 H 1583.19 5.02718 6.42752 0
M  V30 55013 H 1580.54 4.11779 4.09026 0
M  V30 55014 H 1580.26 2.49661 6.61772 0
M  V30 55015 H 1579.27 3.86674 6.00946 0
M  V30 55016 H 1581.1 4.29991 7.97006 0
M  V30 55017 H 1581.17 1.00589 5.98303 0
M  V30 55018 H 1581.07 -1.22639 4.93799 0
M  V30 55019 H 1580.68 -1.56819 1.27167 0
M  V30 55020 H 1580.88 -2.41062 2.83063 0
M  V30 55021 P 1579.23 6.144 6.45285 0
M  V30 55022 O 1579.01 7.54673 6.86199 0
M  V30 55023 O 1578.44 5.12391 7.179 0
M  V30 55024 O 1578.98 5.99158 4.88404 0
M  V30 55025 C 1579.92 6.60234 3.96415 0
M  V30 55026 C 1579.19 7.08259 2.72856 0
M  V30 55027 O 1578.98 5.9427 1.83651 0
M  V30 55028 C 1577.79 7.64886 2.9555 0
M  V30 55029 O 1577.4 8.53963 1.90717 0
M  V30 55030 C 1576.91 6.4116 2.90739 0
M  V30 55031 C 1577.62 5.55375 1.86963 0
M  V30 55032 N 1577.57 4.09448 2.16152 0
M  V30 55033 C 1577.65 3.46824 3.37593 0
M  V30 55034 N 1577.58 2.17422 3.29777 0
M  V30 55035 C 1577.43 1.93065 1.94427 0
M  V30 55036 C 1577.3 0.738053 1.20141 0
M  V30 55037 N 1577.29 -0.474256 1.74676 0
M  V30 55038 N 1577.18 0.850049 -0.13045 0
M  V30 55039 C 1577.19 2.06169 -0.676992 0
M  V30 55040 N 1577.31 3.23842 -0.101312 0
M  V30 55041 C 1577.43 3.09402 1.23122 0
M  V30 55042 H 1580.41 7.45574 4.45629 0
M  V30 55043 H 1580.68 5.85864 3.679 0
M  V30 55044 H 1579.81 7.84412 2.24479 0
M  V30 55045 H 1577.16 5.73457 0.888562 0
M  V30 55046 H 1576.88 5.90877 3.88583 0
M  V30 55047 H 1575.89 6.6596 2.58858 0
M  V30 55048 H 1577.72 8.16339 3.92049 0
M  V30 55049 H 1577.76 4.00505 4.3174 0
M  V30 55050 H 1577.38 -0.581337 2.76658 0
M  V30 55051 H 1577.19 -1.30811 1.14888 0
M  V30 55052 H 1577.08 2.08295 -1.75542 0
M  V30 55053 P 1575.85 8.7635 1.60911 0
M  V30 55054 O 1575.63 10.1388 1.11561 0
M  V30 55055 O 1575.06 8.36503 2.79617 0
M  V30 55056 O 1575.6 7.71806 0.42951 0
M  V30 55057 C 1576.54 7.67148 -0.673689 0
M  V30 55058 C 1575.81 7.33374 -1.95559 0
M  V30 55059 O 1575.6 5.88721 -2.00726 0
M  V30 55060 C 1574.41 7.92526 -2.10483 0
M  V30 55061 O 1574.02 8.02971 -3.47653 0
M  V30 55062 C 1573.53 6.89602 -1.41652 0
M  V30 55063 C 1574.24 5.59201 -1.75185 0
M  V30 55064 N 1574.19 4.58235 -0.662552 0
M  V30 55065 H 1577.03 8.65116 -0.777161 0
M  V30 55066 H 1577.3 6.90173 -0.474152 0
M  V30 55067 H 1576.43 7.66548 -2.79458 0
M  V30 55068 P 1572.47 8.03563 -3.84925 0
M  V30 55069 O 1572.25 8.85821 -5.0569 0
M  V30 55070 O 1571.68 8.41101 -2.65469 0
M  V30 55071 O 1572.22 6.4965 -4.18908 0
M  V30 55072 C 1573.16 5.81037 -5.05421 0
M  V30 55073 C 1572.43 4.78366 -5.89277 0
M  V30 55074 O 1572.22 3.58302 -5.08433 0
M  V30 55075 C 1571.03 5.17448 -6.36119 0
M  V30 55076 O 1570.64 4.45271 -7.53232 0
M  V30 55077 C 1570.15 4.74639 -5.19936 0
M  V30 55078 C 1570.86 3.49432 -4.70418 0
M  V30 55079 N 1570.81 3.31776 -3.22945 0
M  V30 55080 H 1573.65 6.54213 -5.71376 0
M  V30 55081 H 1573.92 5.30492 -4.44033 0
M  V30 55082 H 1573.05 4.55889 -6.76652 0
M  V30 55083 P 1569.09 4.23843 -7.83734 0
M  V30 55084 O 1568.87 4.19407 -9.29784 0
M  V30 55085 O 1568.3 5.24426 -7.09156 0
M  V30 55086 O 1568.84 2.7935 -7.20758 0
M  V30 55087 C 1569.78 1.7299 -7.50419 0
M  V30 55088 C 1569.05 0.406376 -7.57911 0
M  V30 55089 O 1568.84 -0.0897726 -6.21935 0
M  V30 55090 C 1567.65 0.447224 -8.1878 0
M  V30 55091 O 1567.26 -0.825065 -8.71101 0
M  V30 55092 C 1566.77 0.783801 -6.99623 0
M  V30 55093 C 1567.48 0.0619192 -5.85967 0
M  V30 55094 N 1567.43 0.7859 -4.56281 0
M  V30 55095 H 1570.27 1.93423 -8.4679 0
M  V30 55096 H 1570.54 1.68181 -6.71046 0
M  V30 55097 H 1569.67 -0.289041 -8.15388 0
M  V30 55098 P 1565.71 -1.17771 -8.83182 0
M  V30 55099 O 1565.49 -2.07206 -9.98732 0
M  V30 55100 O 1564.92 0.0743816 -8.81969 0
M  V30 55101 O 1565.46 -1.97652 -7.47304 0
M  V30 55102 C 1566.4 -3.01133 -7.08783 0
M  V30 55103 C 1565.67 -4.12613 -6.37049 0
M  V30 55104 O 1565.46 -3.72827 -4.97879 0
M  V30 55105 C 1564.27 -4.45085 -6.88694 0
M  V30 55106 O 1563.88 -5.7877 -6.5624 0
M  V30 55107 C 1563.39 -3.47817 -6.12078 0
M  V30 55108 C 1564.1 -3.39414 -4.77697 0
M  V30 55109 N 1564.05 -2.04615 -4.15333 0
M  V30 55110 H 1566.89 -3.41248 -7.98759 0
M  V30 55111 H 1567.16 -2.5837 -6.41742 0
M  V30 55112 H 1566.29 -5.02657 -6.42673 0
M  V30 55113 P 1562.33 -6.144 -6.45285 0
M  V30 55114 O 1562.11 -7.54673 -6.86199 0
M  V30 55115 O 1561.54 -5.12391 -7.179 0
M  V30 55116 O 1562.08 -5.99158 -4.88404 0
M  V30 55117 C 1563.02 -6.60234 -3.96415 0
M  V30 55118 C 1562.29 -7.08259 -2.72856 0
M  V30 55119 O 1562.08 -5.9427 -1.83651 0
M  V30 55120 C 1560.89 -7.64886 -2.9555 0
M  V30 55121 O 1560.5 -8.53963 -1.90717 0
M  V30 55122 C 1560.01 -6.4116 -2.90739 0
M  V30 55123 C 1560.72 -5.55375 -1.86963 0
M  V30 55124 N 1560.67 -4.09664 -2.15742 0
M  V30 55125 H 1563.51 -7.45574 -4.45629 0
M  V30 55126 H 1563.78 -5.86232 -3.67314 0
M  V30 55127 H 1562.91 -7.84412 -2.24479 0
M  V30 55128 P 1558.95 -8.7635 -1.60911 0
M  V30 55129 O 1558.73 -10.1388 -1.11561 0
M  V30 55130 O 1558.16 -8.36503 -2.79617 0
M  V30 55131 O 1558.7 -7.71806 -0.42951 0
M  V30 55132 C 1559.64 -7.67148 0.673689 0
M  V30 55133 C 1558.91 -7.33374 1.95559 0
M  V30 55134 O 1558.7 -5.88721 2.00726 0
M  V30 55135 C 1557.51 -7.92526 2.10483 0
M  V30 55136 O 1557.12 -8.02971 3.47653 0
M  V30 55137 C 1556.63 -6.89602 1.41652 0
M  V30 55138 C 1557.34 -5.59201 1.75185 0
M  V30 55139 N 1557.29 -4.58235 0.662552 0
M  V30 55140 H 1560.13 -8.65116 0.777161 0
M  V30 55141 H 1560.4 -6.90173 0.474152 0
M  V30 55142 H 1559.53 -7.66548 2.79458 0
M  V30 55143 P 1555.57 -8.03563 3.84925 0
M  V30 55144 O 1555.35 -8.85821 5.0569 0
M  V30 55145 O 1554.78 -8.41101 2.65469 0
M  V30 55146 O 1555.32 -6.4965 4.18908 0
M  V30 55147 C 1556.26 -5.81037 5.05421 0
M  V30 55148 C 1555.53 -4.78366 5.89277 0
M  V30 55149 O 1555.32 -3.58302 5.08433 0
M  V30 55150 C 1554.13 -5.17448 6.36119 0
M  V30 55151 O 1553.74 -4.45271 7.53232 0
M  V30 55152 C 1553.25 -4.74639 5.19936 0
M  V30 55153 C 1553.96 -3.49432 4.70418 0
M  V30 55154 N 1553.91 -3.31776 3.22945 0
M  V30 55155 H 1556.75 -6.54213 5.71376 0
M  V30 55156 H 1557.02 -5.30492 4.44033 0
M  V30 55157 H 1556.15 -4.55889 6.76652 0
M  V30 55158 P 1552.19 -4.23843 7.83734 0
M  V30 55159 O 1551.97 -4.19407 9.29784 0
M  V30 55160 O 1551.4 -5.24426 7.09156 0
M  V30 55161 O 1551.94 -2.79386 7.20852 0
M  V30 55162 C 1552.88 -1.7299 7.50419 0
M  V30 55163 C 1552.15 -0.41401 7.5797 0
M  V30 55164 O 1551.94 0.089787 6.22035 0
M  V30 55165 C 1550.75 -0.447224 8.1878 0
M  V30 55166 O 1550.36 0.825159 8.71201 0
M  V30 55167 C 1549.87 -0.783801 6.99623 0
M  V30 55168 C 1550.58 -0.0619192 5.85967 0
M  V30 55169 N 1550.53 -0.7859 4.56281 0
M  V30 55170 C 1550.38 -0.0359258 3.39981 0
M  V30 55171 O 1550.29 1.19723 3.49038 0
M  V30 55172 N 1550.33 -0.869151 2.14025 0
M  V30 55173 C 1550.43 -2.01207 2.14363 0
M  V30 55174 N 1550.38 -2.58978 0.954287 0
M  V30 55175 C 1550.58 -2.80817 3.32215 0
M  V30 55176 C 1550.63 -2.13785 4.50884 0
M  V30 55177 H 1553.37 -1.93401 8.46693 0
M  V30 55178 H 1553.64 -1.68181 6.71046 0
M  V30 55179 H 1552.77 0.289076 8.15488 0
M  V30 55180 H 1550.12 0.927166 5.72947 0
M  V30 55181 H 1549.84 -1.87 6.82132 0
M  V30 55182 H 1548.85 -0.404009 7.13457 0
M  V30 55183 H 1550.68 -1.20599 8.97534 0
M  V30 55184 H 1550.75 -2.70295 5.43162 0
M  V30 55185 H 1550.65 -3.89465 3.27406 0
M  V30 55186 H 1550.26 -2.01616 0.107046 0
M  V30 55187 H 1550.46 -3.61403 0.873101 0
M  V30 55188 P 1548.81 1.17771 8.83182 0
M  V30 55189 O 1548.59 2.07206 9.98732 0
M  V30 55190 O 1548.02 -0.0743816 8.81969 0
M  V30 55191 O 1548.56 1.97652 7.47304 0
M  V30 55192 C 1549.5 3.01133 7.08783 0
M  V30 55193 C 1548.77 4.12613 6.37049 0
M  V30 55194 O 1548.56 3.72827 4.97879 0
M  V30 55195 C 1547.37 4.45085 6.88694 0
M  V30 55196 O 1546.98 5.7877 6.5624 0
M  V30 55197 C 1546.49 3.47817 6.12078 0
M  V30 55198 C 1547.2 3.39414 4.77697 0
M  V30 55199 N 1547.15 2.04615 4.15333 0
M  V30 55200 H 1549.99 3.41248 7.98759 0
M  V30 55201 H 1550.26 2.5837 6.41742 0
M  V30 55202 H 1549.39 5.02657 6.42673 0
M  V30 55203 P 1545.43 6.144 6.45285 0
M  V30 55204 O 1545.21 7.54673 6.86199 0
M  V30 55205 O 1544.64 5.12391 7.179 0
M  V30 55206 O 1545.18 5.99158 4.88404 0
M  V30 55207 C 1546.12 6.60234 3.96415 0
M  V30 55208 C 1545.39 7.08259 2.72856 0
M  V30 55209 O 1545.18 5.9427 1.83651 0
M  V30 55210 C 1543.99 7.64886 2.9555 0
M  V30 55211 O 1543.6 8.53963 1.90717 0
M  V30 55212 C 1543.11 6.4116 2.90739 0
M  V30 55213 C 1543.82 5.55375 1.86963 0
M  V30 55214 N 1543.77 4.09664 2.15742 0
M  V30 55215 H 1546.61 7.45574 4.45629 0
M  V30 55216 H 1546.88 5.86232 3.67314 0
M  V30 55217 H 1546.01 7.84412 2.24479 0
M  V30 55218 P 1542.05 8.7635 1.60911 0
M  V30 55219 O 1541.83 10.1388 1.11561 0
M  V30 55220 O 1541.26 8.36503 2.79617 0
M  V30 55221 O 1541.8 7.71806 0.42951 0
M  V30 55222 C 1542.74 7.67148 -0.673689 0
M  V30 55223 C 1542.01 7.33374 -1.95559 0
M  V30 55224 O 1541.8 5.88721 -2.00726 0
M  V30 55225 C 1540.61 7.92526 -2.10483 0
M  V30 55226 O 1540.22 8.02971 -3.47653 0
M  V30 55227 C 1539.73 6.89602 -1.41652 0
M  V30 55228 C 1540.44 5.59201 -1.75185 0
M  V30 55229 N 1540.39 4.58301 -0.657969 0
M  V30 55230 H 1543.23 8.65116 -0.777161 0
M  V30 55231 H 1543.5 6.9022 -0.46725 0
M  V30 55232 H 1542.63 7.66548 -2.79458 0
M  V30 55233 H 1539.98 5.16165 -2.65183 0
M  V30 55234 H 1539.7 7.06433 -0.329384 0
M  V30 55235 H 1538.71 6.90926 -1.82021 0
M  V30 55236 H 1540.54 8.90873 -1.62657 0
M  V30 55237 P 1538.67 8.03563 -3.84925 0
M  V30 55238 O 1538.45 8.85821 -5.0569 0
M  V30 55239 O 1537.88 8.41101 -2.65469 0
M  V30 55240 O 1538.42 6.49734 -4.18962 0
M  V30 55241 C 1539.36 5.81037 -5.05421 0
M  V30 55242 C 1538.63 4.79018 -5.88876 0
M  V30 55243 O 1538.42 3.58359 -5.08515 0
M  V30 55244 C 1537.23 5.17448 -6.36119 0
M  V30 55245 O 1536.84 4.45322 -7.53318 0
M  V30 55246 C 1536.35 4.74639 -5.19936 0
M  V30 55247 C 1537.06 3.49432 -4.70418 0
M  V30 55248 N 1537.01 3.31776 -3.22945 0
M  V30 55249 C 1536.86 2.02742 -2.72939 0
M  V30 55250 O 1536.77 1.08301 -3.52749 0
M  V30 55251 N 1536.81 1.96117 -1.22063 0
M  V30 55252 C 1536.91 2.8878 -0.551566 0
M  V30 55253 N 1536.86 2.65609 0.750198 0
M  V30 55254 C 1537.06 4.22457 -1.03707 0
M  V30 55255 C 1537.11 4.37979 -2.39113 0
M  V30 55256 H 1539.85 6.54138 -5.7131 0
M  V30 55257 H 1540.12 5.30492 -4.44033 0
M  V30 55258 H 1539.25 4.55945 -6.76735 0
M  V30 55259 H 1536.6 2.6176 -5.18021 0
M  V30 55260 H 1536.32 5.52233 -4.41941 0
M  V30 55261 H 1535.33 4.52045 -5.53452 0
M  V30 55262 H 1537.16 6.25124 -6.55234 0
M  V30 55263 H 1537.23 5.37936 -2.80552 0
M  V30 55264 H 1537.13 5.07528 -0.359553 0
M  V30 55265 H 1536.74 1.69403 1.09847 0
M  V30 55266 H 1536.94 3.43701 1.41792 0
M  V30 55267 P 1535.29 4.23843 -7.83734 0
M  V30 55268 O 1535.07 4.19407 -9.29784 0
M  V30 55269 O 1534.5 5.24426 -7.09156 0
M  V30 55270 O 1535.04 2.7935 -7.20758 0
M  V30 55271 C 1535.98 1.7299 -7.50419 0
M  V30 55272 C 1535.25 0.406376 -7.57911 0
M  V30 55273 O 1535.04 -0.0897726 -6.21935 0
M  V30 55274 C 1533.85 0.447224 -8.1878 0
M  V30 55275 O 1533.46 -0.825065 -8.71101 0
M  V30 55276 C 1532.97 0.783801 -6.99623 0
M  V30 55277 C 1533.68 0.0619192 -5.85967 0
M  V30 55278 N 1533.63 0.7859 -4.56281 0
M  V30 55279 H 1536.47 1.93423 -8.4679 0
M  V30 55280 H 1536.74 1.68181 -6.71046 0
M  V30 55281 H 1535.87 -0.289041 -8.15388 0
M  V30 55282 P 1531.91 -1.17771 -8.83182 0
M  V30 55283 O 1531.69 -2.07206 -9.98732 0
M  V30 55284 O 1531.12 0.0743816 -8.81969 0
M  V30 55285 O 1531.66 -1.97652 -7.47304 0
M  V30 55286 C 1532.6 -3.01133 -7.08783 0
M  V30 55287 C 1531.87 -4.12613 -6.37049 0
M  V30 55288 O 1531.66 -3.72827 -4.97879 0
M  V30 55289 C 1530.47 -4.45085 -6.88694 0
M  V30 55290 O 1530.08 -5.7877 -6.5624 0
M  V30 55291 C 1529.59 -3.47817 -6.12078 0
M  V30 55292 C 1530.3 -3.39414 -4.77697 0
M  V30 55293 N 1530.25 -2.04615 -4.15333 0
M  V30 55294 H 1533.09 -3.41248 -7.98759 0
M  V30 55295 H 1533.36 -2.5837 -6.41742 0
M  V30 55296 H 1532.49 -5.02657 -6.42673 0
M  V30 55297 P 1528.53 -6.144 -6.45285 0
M  V30 55298 O 1528.31 -7.54673 -6.86199 0
M  V30 55299 O 1527.74 -5.12391 -7.179 0
M  V30 55300 O 1528.28 -5.99236 -4.88467 0
M  V30 55301 C 1529.22 -6.60234 -3.96415 0
M  V30 55302 C 1528.49 -7.08079 -2.736 0
M  V30 55303 O 1528.28 -5.94365 -1.8368 0
M  V30 55304 C 1527.09 -7.64886 -2.9555 0
M  V30 55305 O 1526.7 -8.5406 -1.90739 0
M  V30 55306 C 1526.21 -6.4116 -2.90739 0
M  V30 55307 C 1526.92 -5.55375 -1.86963 0
M  V30 55308 N 1526.87 -4.09664 -2.15742 0
M  V30 55309 C 1526.72 -3.22231 -1.08477 0
M  V30 55310 O 1526.63 -3.68951 0.0600489 0
M  V30 55311 N 1526.67 -1.76692 -1.48799 0
M  V30 55312 C 1526.77 -1.41695 -2.57602 0
M  V30 55313 N 1526.72 -0.107296 -2.75791 0
M  V30 55314 C 1526.92 -2.29178 -3.69733 0
M  V30 55315 C 1526.97 -3.62753 -3.42653 0
M  V30 55316 H 1529.71 -7.45488 -4.45578 0
M  V30 55317 H 1529.98 -5.86232 -3.67314 0
M  V30 55318 H 1529.11 -7.84508 -2.24507 0
M  V30 55319 H 1526.46 -5.73556 -0.888715 0
M  V30 55320 H 1526.18 -5.9096 -3.88638 0
M  V30 55321 H 1525.19 -6.66053 -2.58894 0
M  V30 55322 H 1527.02 -8.16339 -3.92049 0
M  V30 55323 H 1527.09 -4.33052 -4.24913 0
M  V30 55324 H 1526.99 -1.9103 -4.71577 0
M  V30 55325 H 1526.6 0.521221 -1.95056 0
M  V30 55326 H 1526.8 0.286429 -3.70695 0
M  V30 55327 P 1525.15 -8.7635 -1.60911 0
M  V30 55328 O 1524.93 -10.1388 -1.11561 0
M  V30 55329 O 1524.36 -8.36503 -2.79617 0
M  V30 55330 O 1524.9 -7.71906 -0.429565 0
M  V30 55331 C 1525.84 -7.67148 0.673689 0
M  V30 55332 C 1525.11 -7.33666 1.94851 0
M  V30 55333 O 1524.9 -5.88816 2.00759 0
M  V30 55334 C 1523.71 -7.92526 2.10483 0
M  V30 55335 O 1523.32 -8.03063 3.47693 0
M  V30 55336 C 1522.83 -6.89602 1.41652 0
M  V30 55337 C 1523.54 -5.59201 1.75185 0
M  V30 55338 N 1523.49 -4.58235 0.662552 0
M  V30 55339 C 1523.34 -3.24451 1.01643 0
M  V30 55340 O 1523.25 -2.94958 2.21722 0
M  V30 55341 N 1523.29 -2.30408 -0.165238 0
M  V30 55342 C 1523.39 -2.66048 -1.25118 0
M  V30 55343 N 1523.34 -1.70787 -2.16813 0
M  V30 55344 C 1523.54 -4.02732 -1.64413 0
M  V30 55345 C 1523.59 -4.9488 -0.63991 0
M  V30 55346 H 1526.33 -8.65017 0.777072 0
M  V30 55347 H 1526.6 -6.90173 0.474152 0
M  V30 55348 H 1525.73 -7.66642 2.79492 0
M  V30 55349 H 1523.08 -5.16254 2.65229 0
M  V30 55350 H 1522.8 -7.06532 0.329431 0
M  V30 55351 H 1521.81 -6.91023 1.82047 0
M  V30 55352 H 1523.64 -8.90873 1.62657 0
M  V30 55353 H 1523.71 -6.00104 -0.892197 0
M  V30 55354 H 1523.61 -4.31733 -2.69229 0
M  V30 55355 H 1523.22 -0.724835 -1.8844 0
M  V30 55356 H 1523.42 -1.94716 -3.16734 0
M  V30 55357 P 1521.77 -8.03563 3.84925 0
M  V30 55358 O 1521.55 -8.85821 5.0569 0
M  V30 55359 O 1520.98 -8.41101 2.65469 0
M  V30 55360 O 1521.52 -6.4965 4.18908 0
M  V30 55361 C 1522.46 -5.81037 5.05421 0
M  V30 55362 C 1521.73 -4.78366 5.89277 0
M  V30 55363 O 1521.52 -3.58302 5.08433 0
M  V30 55364 C 1520.33 -5.17448 6.36119 0
M  V30 55365 O 1519.94 -4.45271 7.53232 0
M  V30 55366 C 1519.45 -4.74639 5.19936 0
M  V30 55367 C 1520.16 -3.49432 4.70418 0
M  V30 55368 N 1520.11 -3.31776 3.22945 0
M  V30 55369 H 1522.95 -6.54213 5.71376 0
M  V30 55370 H 1523.22 -5.30492 4.44033 0
M  V30 55371 H 1522.35 -4.55889 6.76652 0
M  V30 55372 P 1518.39 -4.23843 7.83734 0
M  V30 55373 O 1518.17 -4.19407 9.29784 0
M  V30 55374 O 1517.6 -5.24426 7.09156 0
M  V30 55375 O 1518.14 -2.7935 7.20758 0
M  V30 55376 C 1519.08 -1.7299 7.50419 0
M  V30 55377 C 1518.35 -0.406376 7.57911 0
M  V30 55378 O 1518.14 0.0897726 6.21935 0
M  V30 55379 C 1516.95 -0.447224 8.1878 0
M  V30 55380 O 1516.56 0.825065 8.71101 0
M  V30 55381 C 1516.07 -0.783801 6.99623 0
M  V30 55382 C 1516.78 -0.0619192 5.85967 0
M  V30 55383 N 1516.73 -0.7859 4.56281 0
M  V30 55384 H 1519.57 -1.93423 8.4679 0
M  V30 55385 H 1519.84 -1.68181 6.71046 0
M  V30 55386 H 1518.97 0.289041 8.15388 0
M  V30 55387 P 1515.01 1.17771 8.83182 0
M  V30 55388 O 1514.79 2.07206 9.98732 0
M  V30 55389 O 1514.22 -0.0743816 8.81969 0
M  V30 55390 O 1514.76 1.97652 7.47304 0
M  V30 55391 C 1515.7 3.01133 7.08783 0
M  V30 55392 C 1514.97 4.12613 6.37049 0
M  V30 55393 O 1514.76 3.72827 4.97879 0
M  V30 55394 C 1513.57 4.45085 6.88694 0
M  V30 55395 O 1513.18 5.7877 6.5624 0
M  V30 55396 C 1512.69 3.47817 6.12078 0
M  V30 55397 C 1513.4 3.39414 4.77697 0
M  V30 55398 N 1513.35 2.04199 4.15538 0
M  V30 55399 H 1516.19 3.41248 7.98759 0
M  V30 55400 H 1516.46 2.57728 6.42 0
M  V30 55401 H 1515.59 5.02657 6.42673 0
M  V30 55402 H 1512.94 4.11708 4.08956 0
M  V30 55403 H 1512.66 2.49626 6.61679 0
M  V30 55404 H 1511.67 3.8662 6.00862 0
M  V30 55405 H 1513.5 4.29991 7.97006 0
M  V30 55406 P 1511.63 6.144 6.45285 0
M  V30 55407 O 1511.41 7.54673 6.86199 0
M  V30 55408 O 1510.84 5.12391 7.179 0
M  V30 55409 O 1511.38 5.99158 4.88404 0
M  V30 55410 C 1512.32 6.60234 3.96415 0
M  V30 55411 C 1511.59 7.08259 2.72856 0
M  V30 55412 O 1511.38 5.9427 1.83651 0
M  V30 55413 C 1510.19 7.64886 2.9555 0
M  V30 55414 O 1509.8 8.53963 1.90717 0
M  V30 55415 C 1509.31 6.4116 2.90739 0
M  V30 55416 C 1510.02 5.55375 1.86963 0
M  V30 55417 N 1509.97 4.09664 2.15742 0
M  V30 55418 H 1512.81 7.45574 4.45629 0
M  V30 55419 H 1513.08 5.86232 3.67314 0
M  V30 55420 H 1512.21 7.84412 2.24479 0
M  V30 55421 P 1508.25 8.7635 1.60911 0
M  V30 55422 O 1508.03 10.1388 1.11561 0
M  V30 55423 O 1507.46 8.36503 2.79617 0
M  V30 55424 O 1508 7.71806 0.42951 0
M  V30 55425 C 1508.94 7.67148 -0.673689 0
M  V30 55426 C 1508.21 7.33374 -1.95559 0
M  V30 55427 O 1508 5.88721 -2.00726 0
M  V30 55428 C 1506.81 7.92526 -2.10483 0
M  V30 55429 O 1506.42 8.02971 -3.47653 0
M  V30 55430 C 1505.93 6.89602 -1.41652 0
M  V30 55431 C 1506.64 5.59201 -1.75185 0
M  V30 55432 N 1506.59 4.58301 -0.657969 0
M  V30 55433 H 1509.43 8.65116 -0.777161 0
M  V30 55434 H 1509.7 6.9022 -0.46725 0
M  V30 55435 H 1508.83 7.66548 -2.79458 0
M  V30 55436 H 1506.18 5.16165 -2.65183 0
M  V30 55437 H 1505.9 7.06433 -0.329384 0
M  V30 55438 H 1504.91 6.90926 -1.82021 0
M  V30 55439 H 1506.74 8.90873 -1.62657 0
M  V30 55440 P 1504.87 8.03563 -3.84925 0
M  V30 55441 O 1504.65 8.85821 -5.0569 0
M  V30 55442 O 1504.08 8.41101 -2.65469 0
M  V30 55443 O 1504.62 6.4965 -4.18908 0
M  V30 55444 C 1505.56 5.81037 -5.05421 0
M  V30 55445 C 1504.83 4.78366 -5.89277 0
M  V30 55446 O 1504.62 3.58302 -5.08433 0
M  V30 55447 C 1503.43 5.17448 -6.36119 0
M  V30 55448 O 1503.04 4.45271 -7.53232 0
M  V30 55449 C 1502.55 4.74639 -5.19936 0
M  V30 55450 C 1503.26 3.49432 -4.70418 0
M  V30 55451 N 1503.21 3.32099 -3.22613 0
M  V30 55452 H 1506.05 6.54213 -5.71376 0
M  V30 55453 H 1506.32 5.30936 -4.43503 0
M  V30 55454 H 1505.45 4.55889 -6.76652 0
M  V30 55455 H 1502.8 2.61715 -5.17932 0
M  V30 55456 H 1502.52 5.52155 -4.41878 0
M  V30 55457 H 1501.53 4.51981 -5.53374 0
M  V30 55458 H 1503.36 6.25124 -6.55234 0
M  V30 55459 P 1501.49 4.23843 -7.83734 0
M  V30 55460 O 1501.27 4.19407 -9.29784 0
M  V30 55461 O 1500.7 5.24426 -7.09156 0
M  V30 55462 O 1501.24 2.7935 -7.20758 0
M  V30 55463 C 1502.18 1.7299 -7.50419 0
M  V30 55464 C 1501.45 0.406376 -7.57911 0
M  V30 55465 O 1501.24 -0.0897726 -6.21935 0
M  V30 55466 C 1500.05 0.447224 -8.1878 0
M  V30 55467 O 1499.66 -0.825065 -8.71101 0
M  V30 55468 C 1499.17 0.783801 -6.99623 0
M  V30 55469 C 1499.88 0.0619192 -5.85967 0
M  V30 55470 N 1499.83 0.790462 -4.56202 0
M  V30 55471 H 1502.67 1.93423 -8.4679 0
M  V30 55472 H 1502.94 1.68852 -6.70877 0
M  V30 55473 H 1502.07 -0.289041 -8.15388 0
M  V30 55474 H 1499.42 -0.927006 -5.72848 0
M  V30 55475 H 1499.14 1.86973 -6.82036 0
M  V30 55476 H 1498.15 0.403953 -7.13357 0
M  V30 55477 H 1499.98 1.20599 -8.97534 0
M  V30 55478 P 1498.11 -1.17771 -8.83182 0
M  V30 55479 O 1497.89 -2.07206 -9.98732 0
M  V30 55480 O 1497.32 0.0743816 -8.81969 0
M  V30 55481 O 1497.86 -1.97652 -7.47304 0
M  V30 55482 C 1498.8 -3.01133 -7.08783 0
M  V30 55483 C 1498.07 -4.12613 -6.37049 0
M  V30 55484 O 1497.86 -3.72827 -4.97879 0
M  V30 55485 C 1496.67 -4.45085 -6.88694 0
M  V30 55486 O 1496.28 -5.7877 -6.5624 0
M  V30 55487 C 1495.79 -3.47817 -6.12078 0
M  V30 55488 C 1496.5 -3.39414 -4.77697 0
M  V30 55489 N 1496.45 -2.04615 -4.15333 0
M  V30 55490 C 1496.53 -0.803897 -4.75249 0
M  V30 55491 N 1496.45 0.197615 -3.91502 0
M  V30 55492 C 1496.31 -0.413002 -2.66823 0
M  V30 55493 C 1496.18 0.157221 -1.38007 0
M  V30 55494 N 1496.06 -0.833136 -0.390236 0
M  V30 55495 C 1496.06 -2.19402 -0.623885 0
M  V30 55496 N 1495.93 -2.97622 0.449677 0
M  V30 55497 N 1496.19 -2.73005 -1.83601 0
M  V30 55498 C 1496.31 -1.78786 -2.80935 0
M  V30 55499 H 1499.29 -3.41248 -7.98759 0
M  V30 55500 H 1499.56 -2.5837 -6.41742 0
M  V30 55501 H 1498.69 -5.02657 -6.42673 0
M  V30 55502 P 1494.73 -6.144 -6.45285 0
M  V30 55503 O 1494.51 -7.54673 -6.86199 0
M  V30 55504 O 1493.94 -5.12391 -7.179 0
M  V30 55505 O 1494.48 -5.99158 -4.88404 0
M  V30 55506 C 1495.42 -6.60234 -3.96415 0
M  V30 55507 C 1494.69 -7.08259 -2.72856 0
M  V30 55508 O 1494.48 -5.9427 -1.83651 0
M  V30 55509 C 1493.29 -7.64886 -2.9555 0
M  V30 55510 O 1492.9 -8.53963 -1.90717 0
M  V30 55511 C 1492.41 -6.4116 -2.90739 0
M  V30 55512 C 1493.12 -5.55375 -1.86963 0
M  V30 55513 N 1493.07 -4.09664 -2.15742 0
M  V30 55514 H 1495.91 -7.45574 -4.45629 0
M  V30 55515 H 1496.18 -5.86232 -3.67314 0
M  V30 55516 H 1495.31 -7.84412 -2.24479 0
M  V30 55517 P 1491.35 -8.7635 -1.60911 0
M  V30 55518 O 1491.13 -10.1388 -1.11561 0
M  V30 55519 O 1490.56 -8.36503 -2.79617 0
M  V30 55520 O 1491.1 -7.71806 -0.42951 0
M  V30 55521 C 1492.04 -7.67148 0.673689 0
M  V30 55522 C 1491.31 -7.33374 1.95559 0
M  V30 55523 O 1491.1 -5.88721 2.00726 0
M  V30 55524 C 1489.91 -7.92526 2.10483 0
M  V30 55525 O 1489.52 -8.02971 3.47653 0
M  V30 55526 C 1489.03 -6.89602 1.41652 0
M  V30 55527 C 1489.74 -5.59201 1.75185 0
M  V30 55528 N 1489.69 -4.58235 0.662552 0
M  V30 55529 H 1492.53 -8.65116 0.777161 0
M  V30 55530 H 1492.8 -6.90173 0.474152 0
M  V30 55531 H 1491.93 -7.66548 2.79458 0
M  V30 55532 P 1487.97 -8.03563 3.84925 0
M  V30 55533 O 1487.75 -8.85821 5.0569 0
M  V30 55534 O 1487.18 -8.41101 2.65469 0
M  V30 55535 O 1487.72 -6.4965 4.18908 0
M  V30 55536 C 1488.66 -5.81037 5.05421 0
M  V30 55537 C 1487.93 -4.78366 5.89277 0
M  V30 55538 O 1487.72 -3.58302 5.08433 0
M  V30 55539 C 1486.53 -5.17448 6.36119 0
M  V30 55540 O 1486.14 -4.45271 7.53232 0
M  V30 55541 C 1485.65 -4.74639 5.19936 0
M  V30 55542 C 1486.36 -3.49432 4.70418 0
M  V30 55543 N 1486.31 -3.32099 3.22613 0
M  V30 55544 H 1489.15 -6.54213 5.71376 0
M  V30 55545 H 1489.42 -5.30936 4.43503 0
M  V30 55546 H 1488.55 -4.55889 6.76652 0
M  V30 55547 H 1485.9 -2.61715 5.17932 0
M  V30 55548 H 1485.62 -5.52155 4.41878 0
M  V30 55549 H 1484.63 -4.51981 5.53374 0
M  V30 55550 H 1486.46 -6.25124 6.55234 0
M  V30 55551 P 1484.59 -4.23843 7.83734 0
M  V30 55552 O 1484.37 -4.19407 9.29784 0
M  V30 55553 O 1483.8 -5.24426 7.09156 0
M  V30 55554 O 1484.34 -2.7935 7.20758 0
M  V30 55555 C 1485.28 -1.72945 7.50224 0
M  V30 55556 C 1484.55 -0.406376 7.57911 0
M  V30 55557 O 1484.34 0.0897726 6.21935 0
M  V30 55558 C 1483.15 -0.438983 8.18724 0
M  V30 55559 O 1482.76 0.825065 8.71101 0
M  V30 55560 C 1482.27 -0.783689 6.99524 0
M  V30 55561 C 1482.98 -0.0619086 5.85867 0
M  V30 55562 N 1482.93 -0.78573 4.56183 0
M  V30 55563 C 1482.78 -0.0292889 3.41887 0
M  V30 55564 O 1482.69 1.18445 3.4419 0
M  V30 55565 N 1482.74 -0.744061 2.23964 0
M  V30 55566 C 1482.83 -2.10932 2.10362 0
M  V30 55567 O 1482.78 -2.64117 0.98825 0
M  V30 55568 C 1482.98 -2.8202 3.34994 0
M  V30 55569 C 1483.09 -4.31095 3.25037 0
M  V30 55570 C 1483.03 -2.15547 4.52261 0
M  V30 55571 H 1485.77 -1.93379 8.46595 0
M  V30 55572 H 1486.04 -1.68132 6.70852 0
M  V30 55573 H 1485.17 0.289041 8.15388 0
M  V30 55574 H 1482.52 0.926847 5.72749 0
M  V30 55575 H 1482.24 -1.86973 6.82036 0
M  V30 55576 H 1481.25 -0.403896 7.13257 0
M  V30 55577 H 1483.08 -1.20585 8.97435 0
M  V30 55578 H 1483.15 -2.71231 5.45042 0
M  V30 55579 H 1482.12 -4.76966 3.49992 0
M  V30 55580 H 1483.86 -4.67047 3.95024 0
M  V30 55581 H 1483.37 -4.58996 2.22312 0
M  V30 55582 H 1482.64 -0.214893 1.39758 0
M  V30 55583 P 1481.21 1.17771 8.83182 0
M  V30 55584 O 1480.99 2.07206 9.98732 0
M  V30 55585 O 1480.42 -0.0743816 8.81969 0
M  V30 55586 O 1480.96 1.97652 7.47304 0
M  V30 55587 C 1481.9 3.01133 7.08783 0
M  V30 55588 C 1481.17 4.12613 6.37049 0
M  V30 55589 O 1480.96 3.72827 4.97879 0
M  V30 55590 C 1479.77 4.45085 6.88694 0
M  V30 55591 O 1479.38 5.7877 6.5624 0
M  V30 55592 C 1478.89 3.47817 6.12078 0
M  V30 55593 C 1479.6 3.39414 4.77697 0
M  V30 55594 N 1479.55 2.04199 4.15538 0
M  V30 55595 H 1482.39 3.41248 7.98759 0
M  V30 55596 H 1482.66 2.57728 6.42 0
M  V30 55597 H 1481.79 5.02657 6.42673 0
M  V30 55598 H 1479.14 4.11708 4.08956 0
M  V30 55599 H 1478.86 2.49626 6.61679 0
M  V30 55600 H 1477.87 3.8662 6.00862 0
M  V30 55601 H 1479.7 4.29991 7.97006 0
M  V30 55602 P 1477.83 6.144 6.45285 0
M  V30 55603 O 1477.61 7.54673 6.86199 0
M  V30 55604 O 1477.04 5.12391 7.179 0
M  V30 55605 O 1477.58 5.99236 4.88467 0
M  V30 55606 C 1478.52 6.60234 3.96415 0
M  V30 55607 C 1477.79 7.08079 2.736 0
M  V30 55608 O 1477.58 5.94365 1.8368 0
M  V30 55609 C 1476.39 7.64886 2.9555 0
M  V30 55610 O 1476 8.5406 1.90739 0
M  V30 55611 C 1475.51 6.4116 2.90739 0
M  V30 55612 C 1476.22 5.55375 1.86963 0
M  V30 55613 N 1476.17 4.09664 2.15742 0
M  V30 55614 C 1476.02 3.22231 1.08477 0
M  V30 55615 O 1475.93 3.68951 -0.0600489 0
M  V30 55616 N 1475.97 1.76692 1.48799 0
M  V30 55617 C 1476.07 1.41695 2.57602 0
M  V30 55618 N 1476.02 0.107296 2.75791 0
M  V30 55619 C 1476.22 2.29178 3.69733 0
M  V30 55620 C 1476.27 3.62753 3.42653 0
M  V30 55621 H 1479.01 7.45488 4.45578 0
M  V30 55622 H 1479.28 5.86232 3.67314 0
M  V30 55623 H 1478.41 7.84508 2.24507 0
M  V30 55624 H 1475.76 5.73556 0.888715 0
M  V30 55625 H 1475.48 5.9096 3.88638 0
M  V30 55626 H 1474.49 6.66053 2.58894 0
M  V30 55627 H 1476.32 8.16339 3.92049 0
M  V30 55628 H 1476.39 4.33052 4.24913 0
M  V30 55629 H 1476.29 1.9103 4.71577 0
M  V30 55630 H 1475.9 -0.521221 1.95056 0
M  V30 55631 H 1476.1 -0.286429 3.70695 0
M  V30 55632 P 1474.45 8.7635 1.60911 0
M  V30 55633 O 1474.23 10.1388 1.11561 0
M  V30 55634 O 1473.66 8.36503 2.79617 0
M  V30 55635 O 1474.2 7.71806 0.42951 0
M  V30 55636 C 1475.14 7.67148 -0.673689 0
M  V30 55637 C 1474.41 7.33374 -1.95559 0
M  V30 55638 O 1474.2 5.88721 -2.00726 0
M  V30 55639 C 1473.01 7.92526 -2.10483 0
M  V30 55640 O 1472.62 8.02971 -3.47653 0
M  V30 55641 C 1472.13 6.89602 -1.41652 0
M  V30 55642 C 1472.84 5.59201 -1.75185 0
M  V30 55643 N 1472.79 4.58301 -0.657969 0
M  V30 55644 H 1475.63 8.65116 -0.777161 0
M  V30 55645 H 1475.9 6.9022 -0.46725 0
M  V30 55646 H 1475.03 7.66548 -2.79458 0
M  V30 55647 H 1472.38 5.16165 -2.65183 0
M  V30 55648 H 1472.1 7.06433 -0.329384 0
M  V30 55649 H 1471.11 6.90926 -1.82021 0
M  V30 55650 H 1472.94 8.90873 -1.62657 0
M  V30 55651 P 1471.07 8.03563 -3.84925 0
M  V30 55652 O 1470.85 8.85821 -5.0569 0
M  V30 55653 O 1470.28 8.41101 -2.65469 0
M  V30 55654 O 1470.82 6.4965 -4.18908 0
M  V30 55655 C 1471.76 5.81037 -5.05421 0
M  V30 55656 C 1471.03 4.78366 -5.89277 0
M  V30 55657 O 1470.82 3.58302 -5.08433 0
M  V30 55658 C 1469.63 5.17448 -6.36119 0
M  V30 55659 O 1469.24 4.45271 -7.53232 0
M  V30 55660 C 1468.75 4.74639 -5.19936 0
M  V30 55661 C 1469.46 3.49432 -4.70418 0
M  V30 55662 N 1469.41 3.31776 -3.22945 0
M  V30 55663 H 1472.25 6.54213 -5.71376 0
M  V30 55664 H 1472.52 5.30492 -4.44033 0
M  V30 55665 H 1471.65 4.55889 -6.76652 0
M  V30 55666 P 1467.69 4.23843 -7.83734 0
M  V30 55667 O 1467.47 4.19407 -9.29784 0
M  V30 55668 O 1466.9 5.24426 -7.09156 0
M  V30 55669 O 1467.44 2.7935 -7.20758 0
M  V30 55670 C 1468.38 1.7299 -7.50419 0
M  V30 55671 C 1467.65 0.406376 -7.57911 0
M  V30 55672 O 1467.44 -0.0897726 -6.21935 0
M  V30 55673 C 1466.25 0.447224 -8.1878 0
M  V30 55674 O 1465.86 -0.825065 -8.71101 0
M  V30 55675 C 1465.37 0.783801 -6.99623 0
M  V30 55676 C 1466.08 0.0619192 -5.85967 0
M  V30 55677 N 1466.03 0.7859 -4.56281 0
M  V30 55678 H 1468.87 1.93423 -8.4679 0
M  V30 55679 H 1469.14 1.68181 -6.71046 0
M  V30 55680 H 1468.27 -0.289041 -8.15388 0
M  V30 55681 P 1464.31 -1.17771 -8.83182 0
M  V30 55682 O 1464.09 -2.07206 -9.98732 0
M  V30 55683 O 1463.52 0.0743816 -8.81969 0
M  V30 55684 O 1464.06 -1.97652 -7.47304 0
M  V30 55685 C 1465 -3.01133 -7.08783 0
M  V30 55686 C 1464.27 -4.12613 -6.37049 0
M  V30 55687 O 1464.06 -3.72827 -4.97879 0
M  V30 55688 C 1462.87 -4.45085 -6.88694 0
M  V30 55689 O 1462.48 -5.7877 -6.5624 0
M  V30 55690 C 1461.99 -3.47817 -6.12078 0
M  V30 55691 C 1462.7 -3.39414 -4.77697 0
M  V30 55692 N 1462.65 -2.04615 -4.15333 0
M  V30 55693 H 1465.49 -3.41248 -7.98759 0
M  V30 55694 H 1465.76 -2.5837 -6.41742 0
M  V30 55695 H 1464.89 -5.02657 -6.42673 0
M  V30 55696 P 1460.93 -6.144 -6.45285 0
M  V30 55697 O 1460.71 -7.54673 -6.86199 0
M  V30 55698 O 1460.14 -5.12391 -7.179 0
M  V30 55699 O 1460.68 -5.99158 -4.88404 0
M  V30 55700 C 1461.62 -6.60234 -3.96415 0
M  V30 55701 C 1460.89 -7.08259 -2.72856 0
M  V30 55702 O 1460.68 -5.9427 -1.83651 0
M  V30 55703 C 1459.49 -7.64886 -2.9555 0
M  V30 55704 O 1459.1 -8.53963 -1.90717 0
M  V30 55705 C 1458.61 -6.4116 -2.90739 0
M  V30 55706 C 1459.32 -5.55375 -1.86963 0
M  V30 55707 N 1459.27 -4.09664 -2.15742 0
M  V30 55708 H 1462.11 -7.45574 -4.45629 0
M  V30 55709 H 1462.38 -5.86232 -3.67314 0
M  V30 55710 H 1461.51 -7.84412 -2.24479 0
M  V30 55711 P 1457.55 -8.7635 -1.60911 0
M  V30 55712 O 1457.33 -10.1388 -1.11561 0
M  V30 55713 O 1456.76 -8.36503 -2.79617 0
M  V30 55714 O 1457.3 -7.71806 -0.42951 0
M  V30 55715 C 1458.24 -7.67148 0.673689 0
M  V30 55716 C 1457.51 -7.33374 1.95559 0
M  V30 55717 O 1457.3 -5.88721 2.00726 0
M  V30 55718 C 1456.11 -7.92526 2.10483 0
M  V30 55719 O 1455.72 -8.02971 3.47653 0
M  V30 55720 C 1455.23 -6.89602 1.41652 0
M  V30 55721 C 1455.94 -5.59201 1.75185 0
M  V30 55722 N 1455.89 -4.58235 0.662552 0
M  V30 55723 H 1458.73 -8.65116 0.777161 0
M  V30 55724 H 1459 -6.90173 0.474152 0
M  V30 55725 H 1458.13 -7.66548 2.79458 0
M  V30 55726 P 1454.17 -8.03563 3.84925 0
M  V30 55727 O 1453.95 -8.85821 5.0569 0
M  V30 55728 O 1453.38 -8.41101 2.65469 0
M  V30 55729 O 1453.92 -6.4965 4.18908 0
M  V30 55730 C 1454.86 -5.81037 5.05421 0
M  V30 55731 C 1454.13 -4.78366 5.89277 0
M  V30 55732 O 1453.92 -3.58302 5.08433 0
M  V30 55733 C 1452.73 -5.17448 6.36119 0
M  V30 55734 O 1452.34 -4.45271 7.53232 0
M  V30 55735 C 1451.85 -4.74639 5.19936 0
M  V30 55736 C 1452.56 -3.49432 4.70418 0
M  V30 55737 N 1452.51 -3.31776 3.22945 0
M  V30 55738 H 1455.35 -6.54213 5.71376 0
M  V30 55739 H 1455.62 -5.30492 4.44033 0
M  V30 55740 H 1454.75 -4.55889 6.76652 0
M  V30 55741 P 1450.79 -4.23843 7.83734 0
M  V30 55742 O 1450.57 -4.19407 9.29784 0
M  V30 55743 O 1450 -5.24426 7.09156 0
M  V30 55744 O 1450.54 -2.7935 7.20758 0
M  V30 55745 C 1451.48 -1.7299 7.50419 0
M  V30 55746 C 1450.75 -0.406376 7.57911 0
M  V30 55747 O 1450.54 0.0897726 6.21935 0
M  V30 55748 C 1449.35 -0.447224 8.1878 0
M  V30 55749 O 1448.96 0.825065 8.71101 0
M  V30 55750 C 1448.47 -0.783801 6.99623 0
M  V30 55751 C 1449.18 -0.0619192 5.85967 0
M  V30 55752 N 1449.13 -0.790462 4.56202 0
M  V30 55753 H 1451.97 -1.93423 8.4679 0
M  V30 55754 H 1452.24 -1.68852 6.70877 0
M  V30 55755 H 1451.37 0.289041 8.15388 0
M  V30 55756 H 1448.72 0.927006 5.72848 0
M  V30 55757 H 1448.44 -1.86973 6.82036 0
M  V30 55758 H 1447.45 -0.403953 7.13357 0
M  V30 55759 H 1449.28 -1.20599 8.97534 0
M  V30 55760 P 1447.41 1.17771 8.83182 0
M  V30 55761 O 1447.19 2.07206 9.98732 0
M  V30 55762 O 1446.62 -0.0743816 8.81969 0
M  V30 55763 O 1447.16 1.97652 7.47304 0
M  V30 55764 C 1448.1 3.01133 7.08783 0
M  V30 55765 C 1447.37 4.12613 6.37049 0
M  V30 55766 O 1447.16 3.72827 4.97879 0
M  V30 55767 C 1445.97 4.45085 6.88694 0
M  V30 55768 O 1445.58 5.7877 6.5624 0
M  V30 55769 C 1445.09 3.47817 6.12078 0
M  V30 55770 C 1445.8 3.39414 4.77697 0
M  V30 55771 N 1445.75 2.04615 4.15333 0
M  V30 55772 H 1448.59 3.41248 7.98759 0
M  V30 55773 H 1448.86 2.5837 6.41742 0
M  V30 55774 H 1447.99 5.02657 6.42673 0
M  V30 55775 P 1444.03 6.144 6.45285 0
M  V30 55776 O 1443.81 7.54673 6.86199 0
M  V30 55777 O 1443.24 5.12391 7.179 0
M  V30 55778 O 1443.78 5.99158 4.88404 0
M  V30 55779 C 1444.72 6.60234 3.96415 0
M  V30 55780 C 1443.99 7.08259 2.72856 0
M  V30 55781 O 1443.78 5.9427 1.83651 0
M  V30 55782 C 1442.59 7.64886 2.9555 0
M  V30 55783 O 1442.2 8.53963 1.90717 0
M  V30 55784 C 1441.71 6.4116 2.90739 0
M  V30 55785 C 1442.42 5.55375 1.86963 0
M  V30 55786 N 1442.37 4.09664 2.15742 0
M  V30 55787 H 1445.21 7.45574 4.45629 0
M  V30 55788 H 1445.48 5.86232 3.67314 0
M  V30 55789 H 1444.61 7.84412 2.24479 0
M  V30 55790 P 1440.65 8.7635 1.60911 0
M  V30 55791 O 1440.43 10.1388 1.11561 0
M  V30 55792 O 1439.86 8.36503 2.79617 0
M  V30 55793 O 1440.4 7.71806 0.42951 0
M  V30 55794 C 1441.34 7.67148 -0.673689 0
M  V30 55795 C 1440.61 7.33374 -1.95559 0
M  V30 55796 O 1440.4 5.88721 -2.00726 0
M  V30 55797 C 1439.21 7.92526 -2.10483 0
M  V30 55798 O 1438.82 8.02971 -3.47653 0
M  V30 55799 C 1438.33 6.89602 -1.41652 0
M  V30 55800 C 1439.04 5.59201 -1.75185 0
M  V30 55801 N 1438.99 4.58235 -0.662552 0
M  V30 55802 H 1441.83 8.65116 -0.777161 0
M  V30 55803 H 1442.1 6.90173 -0.474152 0
M  V30 55804 H 1441.23 7.66548 -2.79458 0
M  V30 55805 P 1437.27 8.03563 -3.84925 0
M  V30 55806 O 1437.05 8.85821 -5.0569 0
M  V30 55807 O 1436.48 8.41101 -2.65469 0
M  V30 55808 O 1437.02 6.49734 -4.18962 0
M  V30 55809 C 1437.96 5.81037 -5.05421 0
M  V30 55810 C 1437.23 4.79018 -5.88876 0
M  V30 55811 O 1437.02 3.58359 -5.08515 0
M  V30 55812 C 1435.83 5.17448 -6.36119 0
M  V30 55813 O 1435.44 4.45322 -7.53318 0
M  V30 55814 C 1434.95 4.74639 -5.19936 0
M  V30 55815 C 1435.66 3.49432 -4.70418 0
M  V30 55816 N 1435.61 3.31776 -3.22945 0
M  V30 55817 C 1435.46 2.02742 -2.72939 0
M  V30 55818 O 1435.37 1.08301 -3.52749 0
M  V30 55819 N 1435.41 1.96117 -1.22063 0
M  V30 55820 C 1435.51 2.8878 -0.551566 0
M  V30 55821 N 1435.46 2.65609 0.750198 0
M  V30 55822 C 1435.66 4.22457 -1.03707 0
M  V30 55823 C 1435.71 4.37979 -2.39113 0
M  V30 55824 H 1438.45 6.54138 -5.7131 0
M  V30 55825 H 1438.72 5.30492 -4.44033 0
M  V30 55826 H 1437.85 4.55945 -6.76735 0
M  V30 55827 H 1435.2 2.6176 -5.18021 0
M  V30 55828 H 1434.92 5.52233 -4.41941 0
M  V30 55829 H 1433.93 4.52045 -5.53452 0
M  V30 55830 H 1435.76 6.25124 -6.55234 0
M  V30 55831 H 1435.83 5.37936 -2.80552 0
M  V30 55832 H 1435.73 5.07528 -0.359553 0
M  V30 55833 H 1435.34 1.69403 1.09847 0
M  V30 55834 H 1435.54 3.43701 1.41792 0
M  V30 55835 P 1433.89 4.23843 -7.83734 0
M  V30 55836 O 1433.67 4.19407 -9.29784 0
M  V30 55837 O 1433.1 5.24426 -7.09156 0
M  V30 55838 O 1433.64 2.7935 -7.20758 0
M  V30 55839 C 1434.58 1.7299 -7.50419 0
M  V30 55840 C 1433.85 0.406376 -7.57911 0
M  V30 55841 O 1433.64 -0.0897726 -6.21935 0
M  V30 55842 C 1432.45 0.447224 -8.1878 0
M  V30 55843 O 1432.06 -0.825065 -8.71101 0
M  V30 55844 C 1431.57 0.783801 -6.99623 0
M  V30 55845 C 1432.28 0.0619192 -5.85967 0
M  V30 55846 N 1432.23 0.790462 -4.56202 0
M  V30 55847 C 1432.31 2.13895 -4.34171 0
M  V30 55848 N 1432.24 2.46449 -3.08687 0
M  V30 55849 C 1432.09 1.2525 -2.43697 0
M  V30 55850 C 1431.96 0.914535 -1.07318 0
M  V30 55851 N 1431.95 1.80782 -0.0887348 0
M  V30 55852 N 1431.84 -0.386745 -0.768133 0
M  V30 55853 C 1431.85 -1.28096 -1.75159 0
M  V30 55854 N 1431.97 -1.09708 -3.04861 0
M  V30 55855 C 1432.09 0.214857 -3.32306 0
M  V30 55856 H 1435.07 1.93423 -8.4679 0
M  V30 55857 H 1435.34 1.68852 -6.70877 0
M  V30 55858 H 1434.47 -0.289041 -8.15388 0
M  V30 55859 H 1431.82 -0.927006 -5.72848 0
M  V30 55860 H 1431.54 1.86973 -6.82036 0
M  V30 55861 H 1430.55 0.403953 -7.13357 0
M  V30 55862 H 1432.38 1.20599 -8.97534 0
M  V30 55863 H 1432.42 2.86846 -5.14318 0
M  V30 55864 H 1432.04 2.81082 -0.302037 0
M  V30 55865 H 1431.85 1.49688 0.889064 0
M  V30 55866 H 1431.75 -2.31317 -1.43855 0
M  V30 55867 P 1430.51 -1.17771 -8.83182 0
M  V30 55868 O 1430.29 -2.07206 -9.98732 0
M  V30 55869 O 1429.72 0.0743816 -8.81969 0
M  V30 55870 O 1430.26 -1.97652 -7.47304 0
M  V30 55871 C 1431.2 -3.01133 -7.08783 0
M  V30 55872 C 1430.47 -4.12613 -6.37049 0
M  V30 55873 O 1430.26 -3.72827 -4.97879 0
M  V30 55874 C 1429.07 -4.45085 -6.88694 0
M  V30 55875 O 1428.68 -5.7877 -6.5624 0
M  V30 55876 C 1428.19 -3.47817 -6.12078 0
M  V30 55877 C 1428.9 -3.39414 -4.77697 0
M  V30 55878 N 1428.85 -2.04199 -4.15538 0
M  V30 55879 H 1431.69 -3.41248 -7.98759 0
M  V30 55880 H 1431.96 -2.57728 -6.42 0
M  V30 55881 H 1431.09 -5.02657 -6.42673 0
M  V30 55882 H 1428.44 -4.11708 -4.08956 0
M  V30 55883 H 1428.16 -2.49626 -6.61679 0
M  V30 55884 H 1427.17 -3.8662 -6.00862 0
M  V30 55885 H 1429 -4.29991 -7.97006 0
M  V30 55886 P 1427.13 -6.144 -6.45285 0
M  V30 55887 O 1426.91 -7.54673 -6.86199 0
M  V30 55888 O 1426.34 -5.12391 -7.179 0
M  V30 55889 O 1426.88 -5.99158 -4.88404 0
M  V30 55890 C 1427.82 -6.60234 -3.96415 0
M  V30 55891 C 1427.09 -7.08259 -2.72856 0
M  V30 55892 O 1426.88 -5.9427 -1.83651 0
M  V30 55893 C 1425.69 -7.64886 -2.9555 0
M  V30 55894 O 1425.3 -8.53963 -1.90717 0
M  V30 55895 C 1424.81 -6.4116 -2.90739 0
M  V30 55896 C 1425.52 -5.55375 -1.86963 0
M  V30 55897 N 1425.47 -4.09664 -2.15742 0
M  V30 55898 H 1428.31 -7.45574 -4.45629 0
M  V30 55899 H 1428.58 -5.86232 -3.67314 0
M  V30 55900 H 1427.71 -7.84412 -2.24479 0
M  V30 55901 P 1423.75 -8.7635 -1.60911 0
M  V30 55902 O 1423.53 -10.1388 -1.11561 0
M  V30 55903 O 1422.96 -8.36503 -2.79617 0
M  V30 55904 O 1423.5 -7.71806 -0.42951 0
M  V30 55905 C 1424.44 -7.67148 0.673689 0
M  V30 55906 C 1423.71 -7.33374 1.95559 0
M  V30 55907 O 1423.5 -5.88721 2.00726 0
M  V30 55908 C 1422.31 -7.92526 2.10483 0
M  V30 55909 O 1421.92 -8.02971 3.47653 0
M  V30 55910 C 1421.43 -6.89602 1.41652 0
M  V30 55911 C 1422.14 -5.59201 1.75185 0
M  V30 55912 N 1422.09 -4.58235 0.662552 0
M  V30 55913 H 1424.93 -8.65116 0.777161 0
M  V30 55914 H 1425.2 -6.90173 0.474152 0
M  V30 55915 H 1424.33 -7.66548 2.79458 0
M  V30 55916 P 1420.37 -8.03563 3.84925 0
M  V30 55917 O 1420.15 -8.85821 5.0569 0
M  V30 55918 O 1419.58 -8.41101 2.65469 0
M  V30 55919 O 1420.12 -6.4965 4.18908 0
M  V30 55920 C 1421.06 -5.81037 5.05421 0
M  V30 55921 C 1420.33 -4.78366 5.89277 0
M  V30 55922 O 1420.12 -3.58302 5.08433 0
M  V30 55923 C 1418.93 -5.17448 6.36119 0
M  V30 55924 O 1418.54 -4.45271 7.53232 0
M  V30 55925 C 1418.05 -4.74639 5.19936 0
M  V30 55926 C 1418.76 -3.49432 4.70418 0
M  V30 55927 N 1418.71 -3.31776 3.22945 0
M  V30 55928 C 1418.79 -4.27147 2.23315 0
M  V30 55929 N 1418.71 -3.78447 1.02186 0
M  V30 55930 C 1418.57 -2.41001 1.21732 0
M  V30 55931 C 1418.44 -1.36111 0.27694 0
M  V30 55932 O 1418.42 -1.42065 -0.951767 0
M  V30 55933 N 1418.32 -0.113683 0.912949 0
M  V30 55934 C 1418.32 0.0846396 2.27943 0
M  V30 55935 N 1418.19 1.34737 2.6916 0
M  V30 55936 N 1418.45 -0.902521 3.16379 0
M  V30 55937 C 1418.57 -2.11937 2.56849 0
M  V30 55938 H 1421.55 -6.54213 5.71376 0
M  V30 55939 H 1421.82 -5.30492 4.44033 0
M  V30 55940 H 1420.95 -4.55889 6.76652 0
M  V30 55941 H 1418.3 -2.6176 5.18021 0
M  V30 55942 H 1418.02 -5.52233 4.41941 0
M  V30 55943 H 1417.03 -4.52045 5.53452 0
M  V30 55944 H 1418.86 -6.25193 6.55307 0
M  V30 55945 H 1418.91 -5.3351 2.43857 0
M  V30 55946 H 1418.23 0.69331 0.330371 0
M  V30 55947 H 1418.19 1.56433 3.6988 0
M  V30 55948 H 1418.09 2.10701 2.00133 0
M  V30 55949 P 1416.99 -4.23843 7.83734 0
M  V30 55950 O 1416.77 -4.19407 9.29784 0
M  V30 55951 O 1416.2 -5.24426 7.09156 0
M  V30 55952 O 1416.74 -2.7935 7.20758 0
M  V30 55953 C 1417.68 -1.7299 7.50419 0
M  V30 55954 C 1416.95 -0.406376 7.57911 0
M  V30 55955 O 1416.74 0.0897726 6.21935 0
M  V30 55956 C 1415.55 -0.447224 8.1878 0
M  V30 55957 O 1415.16 0.825065 8.71101 0
M  V30 55958 C 1414.67 -0.783801 6.99623 0
M  V30 55959 C 1415.38 -0.0619192 5.85967 0
M  V30 55960 N 1415.33 -0.7859 4.56281 0
M  V30 55961 H 1418.17 -1.93423 8.4679 0
M  V30 55962 H 1418.44 -1.68181 6.71046 0
M  V30 55963 H 1417.57 0.289041 8.15388 0
M  V30 55964 P 1413.61 1.17771 8.83182 0
M  V30 55965 O 1413.39 2.07206 9.98732 0
M  V30 55966 O 1412.82 -0.0743816 8.81969 0
M  V30 55967 O 1413.36 1.97652 7.47304 0
M  V30 55968 C 1414.3 3.01133 7.08783 0
M  V30 55969 C 1413.57 4.12613 6.37049 0
M  V30 55970 O 1413.36 3.72827 4.97879 0
M  V30 55971 C 1412.17 4.45085 6.88694 0
M  V30 55972 O 1411.78 5.7877 6.5624 0
M  V30 55973 C 1411.29 3.47817 6.12078 0
M  V30 55974 C 1412 3.39414 4.77697 0
M  V30 55975 N 1411.95 2.04615 4.15333 0
M  V30 55976 H 1414.79 3.41248 7.98759 0
M  V30 55977 H 1415.06 2.5837 6.41742 0
M  V30 55978 H 1414.19 5.02657 6.42673 0
M  V30 55979 P 1410.23 6.144 6.45285 0
M  V30 55980 O 1410.01 7.54673 6.86199 0
M  V30 55981 O 1409.44 5.12391 7.179 0
M  V30 55982 O 1409.98 5.99236 4.88467 0
M  V30 55983 C 1410.92 6.60234 3.96415 0
M  V30 55984 C 1410.19 7.08079 2.736 0
M  V30 55985 O 1409.98 5.94365 1.8368 0
M  V30 55986 C 1408.79 7.64886 2.9555 0
M  V30 55987 O 1408.4 8.5406 1.90739 0
M  V30 55988 C 1407.91 6.4116 2.90739 0
M  V30 55989 C 1408.62 5.55375 1.86963 0
M  V30 55990 N 1408.57 4.09664 2.15742 0
M  V30 55991 C 1408.42 3.22231 1.08477 0
M  V30 55992 O 1408.33 3.68951 -0.0600489 0
M  V30 55993 N 1408.37 1.76692 1.48799 0
M  V30 55994 C 1408.47 1.41695 2.57602 0
M  V30 55995 N 1408.42 0.107296 2.75791 0
M  V30 55996 C 1408.62 2.29178 3.69733 0
M  V30 55997 C 1408.67 3.62753 3.42653 0
M  V30 55998 H 1411.41 7.45488 4.45578 0
M  V30 55999 H 1411.68 5.86232 3.67314 0
M  V30 56000 H 1410.81 7.84508 2.24507 0
M  V30 56001 H 1408.16 5.73556 0.888715 0
M  V30 56002 H 1407.88 5.9096 3.88638 0
M  V30 56003 H 1406.89 6.66053 2.58894 0
M  V30 56004 H 1408.72 8.16339 3.92049 0
M  V30 56005 H 1408.79 4.33052 4.24913 0
M  V30 56006 H 1408.69 1.9103 4.71577 0
M  V30 56007 H 1408.3 -0.521221 1.95056 0
M  V30 56008 H 1408.5 -0.286429 3.70695 0
M  V30 56009 P 1406.85 8.7635 1.60911 0
M  V30 56010 O 1406.63 10.1388 1.11561 0
M  V30 56011 O 1406.06 8.36503 2.79617 0
M  V30 56012 O 1406.6 7.71806 0.42951 0
M  V30 56013 C 1407.54 7.67148 -0.673689 0
M  V30 56014 C 1406.81 7.33374 -1.95559 0
M  V30 56015 O 1406.6 5.88721 -2.00726 0
M  V30 56016 C 1405.41 7.92526 -2.10483 0
M  V30 56017 O 1405.02 8.02971 -3.47653 0
M  V30 56018 C 1404.53 6.89602 -1.41652 0
M  V30 56019 C 1405.24 5.59201 -1.75185 0
M  V30 56020 N 1405.19 4.58235 -0.662552 0
M  V30 56021 H 1408.03 8.65116 -0.777161 0
M  V30 56022 H 1408.3 6.90173 -0.474152 0
M  V30 56023 H 1407.43 7.66548 -2.79458 0
M  V30 56024 P 1403.47 8.03563 -3.84925 0
M  V30 56025 O 1403.25 8.85821 -5.0569 0
M  V30 56026 O 1402.68 8.41101 -2.65469 0
M  V30 56027 O 1403.22 6.4965 -4.18908 0
M  V30 56028 C 1404.16 5.81037 -5.05421 0
M  V30 56029 C 1403.43 4.78366 -5.89277 0
M  V30 56030 O 1403.22 3.58302 -5.08433 0
M  V30 56031 C 1402.03 5.17448 -6.36119 0
M  V30 56032 O 1401.64 4.45271 -7.53232 0
M  V30 56033 C 1401.15 4.74639 -5.19936 0
M  V30 56034 C 1401.86 3.49432 -4.70418 0
M  V30 56035 N 1401.81 3.32099 -3.22613 0
M  V30 56036 H 1404.65 6.54213 -5.71376 0
M  V30 56037 H 1404.92 5.30936 -4.43503 0
M  V30 56038 H 1404.05 4.55889 -6.76652 0
M  V30 56039 H 1401.4 2.61715 -5.17932 0
M  V30 56040 H 1401.12 5.52155 -4.41878 0
M  V30 56041 H 1400.13 4.51981 -5.53374 0
M  V30 56042 H 1401.96 6.25124 -6.55234 0
M  V30 56043 P 1400.09 4.23843 -7.83734 0
M  V30 56044 O 1399.87 4.19407 -9.29784 0
M  V30 56045 O 1399.3 5.24426 -7.09156 0
M  V30 56046 O 1399.84 2.7935 -7.20758 0
M  V30 56047 C 1400.78 1.7299 -7.50419 0
M  V30 56048 C 1400.05 0.406376 -7.57911 0
M  V30 56049 O 1399.84 -0.0897726 -6.21935 0
M  V30 56050 C 1398.65 0.447224 -8.1878 0
M  V30 56051 O 1398.26 -0.825065 -8.71101 0
M  V30 56052 C 1397.77 0.783801 -6.99623 0
M  V30 56053 C 1398.48 0.0619192 -5.85967 0
M  V30 56054 N 1398.43 0.7859 -4.56281 0
M  V30 56055 C 1398.51 2.14308 -4.31736 0
M  V30 56056 N 1398.43 2.46106 -3.05116 0
M  V30 56057 C 1398.29 1.23422 -2.4014 0
M  V30 56058 C 1398.16 0.938381 -1.02409 0
M  V30 56059 O 1398.14 1.70876 -0.0650402 0
M  V30 56060 N 1398.04 -0.444647 -0.805413 0
M  V30 56061 C 1398.04 -1.40829 -1.79435 0
M  V30 56062 N 1397.91 -2.67213 -1.38558 0
M  V30 56063 N 1398.17 -1.12947 -3.09005 0
M  V30 56064 C 1398.29 0.204887 -3.32369 0
M  V30 56065 H 1401.27 1.93423 -8.4679 0
M  V30 56066 H 1401.54 1.68181 -6.71046 0
M  V30 56067 H 1400.67 -0.289041 -8.15388 0
M  V30 56068 H 1398.02 -0.927166 -5.72947 0
M  V30 56069 H 1397.74 1.87 -6.82132 0
M  V30 56070 H 1396.75 0.404009 -7.13457 0
M  V30 56071 H 1398.58 1.20612 -8.97633 0
M  V30 56072 H 1398.63 2.88284 -5.10874 0
M  V30 56073 H 1397.95 -0.755087 0.140242 0
M  V30 56074 H 1397.91 -3.43967 -2.0729 0
M  V30 56075 H 1397.81 -2.88096 -0.380644 0
M  V30 56076 P 1396.71 -1.17771 -8.83182 0
M  V30 56077 O 1396.49 -2.07206 -9.98732 0
M  V30 56078 O 1395.92 0.0743816 -8.81969 0
M  V30 56079 O 1396.46 -1.97652 -7.47304 0
M  V30 56080 C 1397.4 -3.01133 -7.08783 0
M  V30 56081 C 1396.67 -4.12613 -6.37049 0
M  V30 56082 O 1396.46 -3.72827 -4.97879 0
M  V30 56083 C 1395.27 -4.45085 -6.88694 0
M  V30 56084 O 1394.88 -5.7877 -6.5624 0
M  V30 56085 C 1394.39 -3.47817 -6.12078 0
M  V30 56086 C 1395.1 -3.39414 -4.77697 0
M  V30 56087 N 1395.05 -2.04615 -4.15333 0
M  V30 56088 C 1395.13 -0.803897 -4.75249 0
M  V30 56089 N 1395.05 0.197615 -3.91502 0
M  V30 56090 C 1394.91 -0.413002 -2.66823 0
M  V30 56091 C 1394.78 0.157221 -1.38007 0
M  V30 56092 N 1394.66 -0.833136 -0.390236 0
M  V30 56093 C 1394.66 -2.19402 -0.623885 0
M  V30 56094 N 1394.53 -2.97622 0.449677 0
M  V30 56095 N 1394.79 -2.73005 -1.83601 0
M  V30 56096 C 1394.91 -1.78786 -2.80935 0
M  V30 56097 H 1397.89 -3.41248 -7.98759 0
M  V30 56098 H 1398.16 -2.5837 -6.41742 0
M  V30 56099 H 1397.29 -5.02657 -6.42673 0
M  V30 56100 P 1393.33 -6.144 -6.45285 0
M  V30 56101 O 1393.11 -7.54673 -6.86199 0
M  V30 56102 O 1392.54 -5.12391 -7.179 0
M  V30 56103 O 1393.08 -5.99158 -4.88404 0
M  V30 56104 C 1394.02 -6.60234 -3.96415 0
M  V30 56105 C 1393.29 -7.08259 -2.72856 0
M  V30 56106 O 1393.08 -5.9427 -1.83651 0
M  V30 56107 C 1391.89 -7.64886 -2.9555 0
M  V30 56108 O 1391.5 -8.53963 -1.90717 0
M  V30 56109 C 1391.01 -6.4116 -2.90739 0
M  V30 56110 C 1391.72 -5.55375 -1.86963 0
M  V30 56111 N 1391.67 -4.09664 -2.15742 0
M  V30 56112 H 1394.51 -7.45574 -4.45629 0
M  V30 56113 H 1394.78 -5.86232 -3.67314 0
M  V30 56114 H 1393.91 -7.84412 -2.24479 0
M  V30 56115 P 1389.95 -8.7635 -1.60911 0
M  V30 56116 O 1389.73 -10.1388 -1.11561 0
M  V30 56117 O 1389.16 -8.36503 -2.79617 0
M  V30 56118 O 1389.7 -7.71806 -0.42951 0
M  V30 56119 C 1390.64 -7.67148 0.673689 0
M  V30 56120 C 1389.91 -7.33374 1.95559 0
M  V30 56121 O 1389.7 -5.88721 2.00726 0
M  V30 56122 C 1388.51 -7.92526 2.10483 0
M  V30 56123 O 1388.12 -8.02971 3.47653 0
M  V30 56124 C 1387.63 -6.89602 1.41652 0
M  V30 56125 C 1388.34 -5.59201 1.75185 0
M  V30 56126 N 1388.29 -4.58301 0.657969 0
M  V30 56127 H 1391.13 -8.65116 0.777161 0
M  V30 56128 H 1391.4 -6.9022 0.46725 0
M  V30 56129 H 1390.53 -7.66548 2.79458 0
M  V30 56130 H 1387.88 -5.16165 2.65183 0
M  V30 56131 H 1387.6 -7.06433 0.329384 0
M  V30 56132 H 1386.61 -6.90926 1.82021 0
M  V30 56133 H 1388.44 -8.90873 1.62657 0
M  V30 56134 P 1386.57 -8.03563 3.84925 0
M  V30 56135 O 1386.35 -8.85821 5.0569 0
M  V30 56136 O 1385.78 -8.41101 2.65469 0
M  V30 56137 O 1386.32 -6.4965 4.18908 0
M  V30 56138 C 1387.26 -5.81037 5.05421 0
M  V30 56139 C 1386.53 -4.78366 5.89277 0
M  V30 56140 O 1386.32 -3.58302 5.08433 0
M  V30 56141 C 1385.13 -5.17448 6.36119 0
M  V30 56142 O 1384.74 -4.45271 7.53232 0
M  V30 56143 C 1384.25 -4.74639 5.19936 0
M  V30 56144 C 1384.96 -3.49432 4.70418 0
M  V30 56145 N 1384.91 -3.31776 3.22945 0
M  V30 56146 H 1387.75 -6.54213 5.71376 0
M  V30 56147 H 1388.02 -5.30492 4.44033 0
M  V30 56148 H 1387.15 -4.55889 6.76652 0
M  V30 56149 P 1383.19 -4.23843 7.83734 0
M  V30 56150 O 1382.97 -4.19407 9.29784 0
M  V30 56151 O 1382.4 -5.24426 7.09156 0
M  V30 56152 O 1382.94 -2.7935 7.20758 0
M  V30 56153 C 1383.88 -1.7299 7.50419 0
M  V30 56154 C 1383.15 -0.406376 7.57911 0
M  V30 56155 O 1382.94 0.0897726 6.21935 0
M  V30 56156 C 1381.75 -0.447224 8.1878 0
M  V30 56157 O 1381.36 0.825065 8.71101 0
M  V30 56158 C 1380.87 -0.783801 6.99623 0
M  V30 56159 C 1381.58 -0.0619192 5.85967 0
M  V30 56160 N 1381.53 -0.7859 4.56281 0
M  V30 56161 C 1381.61 -2.14308 4.31736 0
M  V30 56162 N 1381.53 -2.46106 3.05116 0
M  V30 56163 C 1381.39 -1.23422 2.4014 0
M  V30 56164 C 1381.26 -0.938381 1.02409 0
M  V30 56165 O 1381.24 -1.70876 0.0650402 0
M  V30 56166 N 1381.14 0.444647 0.805413 0
M  V30 56167 C 1381.14 1.40829 1.79435 0
M  V30 56168 N 1381.01 2.67213 1.38558 0
M  V30 56169 N 1381.27 1.12947 3.09005 0
M  V30 56170 C 1381.39 -0.204887 3.32369 0
M  V30 56171 H 1384.37 -1.93423 8.4679 0
M  V30 56172 H 1384.64 -1.68181 6.71046 0
M  V30 56173 H 1383.77 0.289041 8.15388 0
M  V30 56174 H 1381.12 0.927166 5.72947 0
M  V30 56175 H 1380.84 -1.87 6.82132 0
M  V30 56176 H 1379.85 -0.404009 7.13457 0
M  V30 56177 H 1381.68 -1.20612 8.97633 0
M  V30 56178 H 1381.73 -2.88284 5.10874 0
M  V30 56179 H 1381.05 0.755087 -0.140242 0
M  V30 56180 H 1381.01 3.43967 2.0729 0
M  V30 56181 H 1380.91 2.88096 0.380644 0
M  V30 56182 P 1379.81 1.17771 8.83182 0
M  V30 56183 O 1379.59 2.07206 9.98732 0
M  V30 56184 O 1379.02 -0.0743816 8.81969 0
M  V30 56185 O 1379.56 1.97652 7.47304 0
M  V30 56186 C 1380.5 3.01133 7.08783 0
M  V30 56187 C 1379.77 4.12613 6.37049 0
M  V30 56188 O 1379.56 3.72827 4.97879 0
M  V30 56189 C 1378.37 4.45085 6.88694 0
M  V30 56190 O 1377.98 5.7877 6.5624 0
M  V30 56191 C 1377.49 3.47817 6.12078 0
M  V30 56192 C 1378.2 3.39414 4.77697 0
M  V30 56193 N 1378.15 2.04199 4.15538 0
M  V30 56194 C 1378.23 0.821545 4.76977 0
M  V30 56195 N 1378.16 -0.1794 3.94592 0
M  V30 56196 C 1378.01 0.419121 2.70776 0
M  V30 56197 C 1377.88 -0.109072 1.40577 0
M  V30 56198 N 1377.87 -1.4104 1.1344 0
M  V30 56199 N 1377.76 0.764381 0.39411 0
M  V30 56200 C 1377.77 2.06587 0.664135 0
M  V30 56201 N 1377.89 2.67948 1.82153 0
M  V30 56202 C 1378.01 1.77942 2.8147 0
M  V30 56203 H 1380.99 3.41248 7.98759 0
M  V30 56204 H 1381.26 2.57728 6.42 0
M  V30 56205 H 1380.39 5.02657 6.42673 0
M  V30 56206 H 1377.74 4.11708 4.08956 0
M  V30 56207 H 1377.46 2.49626 6.61679 0
M  V30 56208 H 1376.47 3.8662 6.00862 0
M  V30 56209 H 1378.3 4.29991 7.97006 0
M  V30 56210 H 1378.34 0.702451 5.84696 0
M  V30 56211 H 1377.96 -2.09647 1.89651 0
M  V30 56212 H 1377.77 -1.73358 0.160575 0
M  V30 56213 H 1377.67 2.71695 -0.195838 0
M  V30 56214 P 1376.43 6.144 6.45285 0
M  V30 56215 O 1376.21 7.54673 6.86199 0
M  V30 56216 O 1375.64 5.12391 7.179 0
M  V30 56217 O 1376.18 5.99158 4.88404 0
M  V30 56218 C 1377.12 6.60234 3.96415 0
M  V30 56219 C 1376.39 7.08259 2.72856 0
M  V30 56220 O 1376.18 5.9427 1.83651 0
M  V30 56221 C 1374.99 7.64886 2.9555 0
M  V30 56222 O 1374.6 8.53963 1.90717 0
M  V30 56223 C 1374.11 6.4116 2.90739 0
M  V30 56224 C 1374.82 5.55375 1.86963 0
M  V30 56225 N 1374.77 4.09664 2.15742 0
M  V30 56226 H 1377.61 7.45574 4.45629 0
M  V30 56227 H 1377.88 5.86232 3.67314 0
M  V30 56228 H 1377.01 7.84412 2.24479 0
M  V30 56229 P 1373.05 8.7635 1.60911 0
M  V30 56230 O 1372.83 10.1388 1.11561 0
M  V30 56231 O 1372.26 8.36503 2.79617 0
M  V30 56232 O 1372.8 7.71806 0.42951 0
M  V30 56233 C 1373.74 7.67148 -0.673689 0
M  V30 56234 C 1373.01 7.33374 -1.95559 0
M  V30 56235 O 1372.8 5.88721 -2.00726 0
M  V30 56236 C 1371.61 7.92526 -2.10483 0
M  V30 56237 O 1371.22 8.02971 -3.47653 0
M  V30 56238 C 1370.73 6.89602 -1.41652 0
M  V30 56239 C 1371.44 5.59201 -1.75185 0
M  V30 56240 N 1371.39 4.58301 -0.657969 0
M  V30 56241 H 1374.23 8.65116 -0.777161 0
M  V30 56242 H 1374.5 6.9022 -0.46725 0
M  V30 56243 H 1373.63 7.66548 -2.79458 0
M  V30 56244 H 1370.98 5.16165 -2.65183 0
M  V30 56245 H 1370.7 7.06433 -0.329384 0
M  V30 56246 H 1369.71 6.90926 -1.82021 0
M  V30 56247 H 1371.54 8.90873 -1.62657 0
M  V30 56248 P 1369.67 8.03563 -3.84925 0
M  V30 56249 O 1369.45 8.85821 -5.0569 0
M  V30 56250 O 1368.88 8.41101 -2.65469 0
M  V30 56251 O 1369.42 6.4965 -4.18908 0
M  V30 56252 C 1370.36 5.81037 -5.05421 0
M  V30 56253 C 1369.63 4.78366 -5.89277 0
M  V30 56254 O 1369.42 3.58302 -5.08433 0
M  V30 56255 C 1368.23 5.17448 -6.36119 0
M  V30 56256 O 1367.84 4.45271 -7.53232 0
M  V30 56257 C 1367.35 4.74639 -5.19936 0
M  V30 56258 C 1368.06 3.49432 -4.70418 0
M  V30 56259 N 1368.01 3.31776 -3.22945 0
M  V30 56260 H 1370.85 6.54213 -5.71376 0
M  V30 56261 H 1371.12 5.30492 -4.44033 0
M  V30 56262 H 1370.25 4.55889 -6.76652 0
M  V30 56263 P 1366.29 4.23843 -7.83734 0
M  V30 56264 O 1366.07 4.19407 -9.29784 0
M  V30 56265 O 1365.5 5.24426 -7.09156 0
M  V30 56266 O 1366.04 2.7935 -7.20758 0
M  V30 56267 C 1366.98 1.7299 -7.50419 0
M  V30 56268 C 1366.25 0.406376 -7.57911 0
M  V30 56269 O 1366.04 -0.0897726 -6.21935 0
M  V30 56270 C 1364.85 0.447224 -8.1878 0
M  V30 56271 O 1364.46 -0.825065 -8.71101 0
M  V30 56272 C 1363.97 0.783801 -6.99623 0
M  V30 56273 C 1364.68 0.0619192 -5.85967 0
M  V30 56274 N 1364.63 0.7859 -4.56281 0
M  V30 56275 H 1367.47 1.93423 -8.4679 0
M  V30 56276 H 1367.74 1.68181 -6.71046 0
M  V30 56277 H 1366.87 -0.289041 -8.15388 0
M  V30 56278 P 1362.91 -1.17771 -8.83182 0
M  V30 56279 O 1362.69 -2.07206 -9.98732 0
M  V30 56280 O 1362.12 0.0743816 -8.81969 0
M  V30 56281 O 1362.66 -1.97652 -7.47304 0
M  V30 56282 C 1363.6 -3.01133 -7.08783 0
M  V30 56283 C 1362.87 -4.12613 -6.37049 0
M  V30 56284 O 1362.66 -3.72827 -4.97879 0
M  V30 56285 C 1361.47 -4.45085 -6.88694 0
M  V30 56286 O 1361.08 -5.7877 -6.5624 0
M  V30 56287 C 1360.59 -3.47817 -6.12078 0
M  V30 56288 C 1361.3 -3.39414 -4.77697 0
M  V30 56289 N 1361.25 -2.04615 -4.15333 0
M  V30 56290 H 1364.09 -3.41248 -7.98759 0
M  V30 56291 H 1364.36 -2.5837 -6.41742 0
M  V30 56292 H 1363.49 -5.02657 -6.42673 0
M  V30 56293 P 1359.53 -6.144 -6.45285 0
M  V30 56294 O 1359.31 -7.54673 -6.86199 0
M  V30 56295 O 1358.74 -5.12391 -7.179 0
M  V30 56296 O 1359.28 -5.99158 -4.88404 0
M  V30 56297 C 1360.22 -6.60234 -3.96415 0
M  V30 56298 C 1359.49 -7.08259 -2.72856 0
M  V30 56299 O 1359.28 -5.9427 -1.83651 0
M  V30 56300 C 1358.09 -7.64886 -2.9555 0
M  V30 56301 O 1357.7 -8.53963 -1.90717 0
M  V30 56302 C 1357.21 -6.4116 -2.90739 0
M  V30 56303 C 1357.92 -5.55375 -1.86963 0
M  V30 56304 N 1357.87 -4.09664 -2.15742 0
M  V30 56305 H 1360.71 -7.45574 -4.45629 0
M  V30 56306 H 1360.98 -5.86232 -3.67314 0
M  V30 56307 H 1360.11 -7.84412 -2.24479 0
M  V30 56308 P 1356.15 -8.7635 -1.60911 0
M  V30 56309 O 1355.93 -10.1388 -1.11561 0
M  V30 56310 O 1355.36 -8.36503 -2.79617 0
M  V30 56311 O 1355.9 -7.71806 -0.42951 0
M  V30 56312 C 1356.84 -7.66948 0.673514 0
M  V30 56313 C 1356.11 -7.33374 1.95559 0
M  V30 56314 O 1355.9 -5.88721 2.00726 0
M  V30 56315 C 1354.71 -7.92218 2.1125 0
M  V30 56316 O 1354.32 -8.02971 3.47653 0
M  V30 56317 C 1353.83 -6.89504 1.41631 0
M  V30 56318 C 1354.54 -5.59106 1.75155 0
M  V30 56319 N 1354.49 -4.58136 0.662409 0
M  V30 56320 C 1354.34 -3.26059 1.02863 0
M  V30 56321 O 1354.25 -2.90743 2.19009 0
M  V30 56322 N 1354.3 -2.35995 -0.0155585 0
M  V30 56323 C 1354.39 -2.65248 -1.35603 0
M  V30 56324 O 1354.34 -1.75605 -2.20651 0
M  V30 56325 C 1354.54 -4.05747 -1.64698 0
M  V30 56326 C 1354.65 -4.42345 -3.09553 0
M  V30 56327 C 1354.59 -4.96734 -0.652411 0
M  V30 56328 H 1357.33 -8.64917 0.776982 0
M  V30 56329 H 1357.6 -6.89974 0.474015 0
M  V30 56330 H 1356.73 -7.66548 2.79458 0
M  V30 56331 H 1354.08 -5.16076 2.65138 0
M  V30 56332 H 1353.8 -7.06433 0.329384 0
M  V30 56333 H 1352.81 -6.90829 1.81996 0
M  V30 56334 H 1354.64 -8.90774 1.62639 0
M  V30 56335 H 1354.71 -6.02181 -0.895285 0
M  V30 56336 H 1353.68 -4.80252 -3.45468 0
M  V30 56337 H 1355.42 -5.20015 -3.22119 0
M  V30 56338 H 1354.93 -3.53269 -3.67833 0
M  V30 56339 H 1354.2 -1.39558 0.227499 0
M  V30 56340 P 1352.77 -8.03563 3.84925 0
M  V30 56341 O 1352.55 -8.85821 5.0569 0
M  V30 56342 O 1351.98 -8.41101 2.65469 0
M  V30 56343 O 1352.52 -6.4965 4.18908 0
M  V30 56344 C 1353.46 -5.81037 5.05421 0
M  V30 56345 C 1352.73 -4.78366 5.89277 0
M  V30 56346 O 1352.52 -3.58302 5.08433 0
M  V30 56347 C 1351.33 -5.17448 6.36119 0
M  V30 56348 O 1350.94 -4.45271 7.53232 0
M  V30 56349 C 1350.45 -4.74639 5.19936 0
M  V30 56350 C 1351.16 -3.49432 4.70418 0
M  V30 56351 N 1351.11 -3.31776 3.22945 0
M  V30 56352 H 1353.95 -6.54213 5.71376 0
M  V30 56353 H 1354.22 -5.30492 4.44033 0
M  V30 56354 H 1353.36 -4.55889 6.76652 0
M  V30 56355 P 1349.39 -4.23843 7.83734 0
M  V30 56356 O 1349.17 -4.19407 9.29784 0
M  V30 56357 O 1348.6 -5.24426 7.09156 0
M  V30 56358 O 1349.14 -2.7935 7.20758 0
M  V30 56359 C 1350.08 -1.7299 7.50419 0
M  V30 56360 C 1349.35 -0.406376 7.57911 0
M  V30 56361 O 1349.14 0.0897726 6.21935 0
M  V30 56362 C 1347.95 -0.447224 8.1878 0
M  V30 56363 O 1347.56 0.825065 8.71101 0
M  V30 56364 C 1347.07 -0.783801 6.99623 0
M  V30 56365 C 1347.78 -0.0619192 5.85967 0
M  V30 56366 N 1347.73 -0.7859 4.56281 0
M  V30 56367 C 1347.81 -2.14308 4.31736 0
M  V30 56368 N 1347.73 -2.46106 3.05116 0
M  V30 56369 C 1347.59 -1.23422 2.4014 0
M  V30 56370 C 1347.46 -0.938381 1.02409 0
M  V30 56371 N 1347.34 0.444647 0.805413 0
M  V30 56372 C 1347.34 1.40829 1.79435 0
M  V30 56373 N 1347.21 2.67213 1.38558 0
M  V30 56374 N 1347.47 1.12947 3.09005 0
M  V30 56375 C 1347.59 -0.204887 3.32369 0
M  V30 56376 H 1350.57 -1.93423 8.4679 0
M  V30 56377 H 1350.84 -1.68181 6.71046 0
M  V30 56378 H 1349.98 0.289041 8.15388 0
M  V30 56379 P 1346.01 1.17771 8.83182 0
M  V30 56380 O 1345.79 2.07206 9.98732 0
M  V30 56381 O 1345.22 -0.0743816 8.81969 0
M  V30 56382 O 1345.76 1.97652 7.47304 0
M  V30 56383 C 1346.7 3.01133 7.08783 0
M  V30 56384 C 1345.97 4.12613 6.37049 0
M  V30 56385 O 1345.76 3.72827 4.97879 0
M  V30 56386 C 1344.57 4.45085 6.88694 0
M  V30 56387 O 1344.18 5.7877 6.5624 0
M  V30 56388 C 1343.69 3.47817 6.12078 0
M  V30 56389 C 1344.4 3.39414 4.77697 0
M  V30 56390 N 1344.35 2.04199 4.15538 0
M  V30 56391 H 1347.19 3.41248 7.98759 0
M  V30 56392 H 1347.46 2.57728 6.42 0
M  V30 56393 H 1346.6 5.02657 6.42673 0
M  V30 56394 H 1343.94 4.11708 4.08956 0
M  V30 56395 H 1343.66 2.49626 6.61679 0
M  V30 56396 H 1342.67 3.8662 6.00862 0
M  V30 56397 H 1344.5 4.29991 7.97006 0
M  V30 56398 P 1342.63 6.144 6.45285 0
M  V30 56399 O 1342.41 7.54673 6.86199 0
M  V30 56400 O 1341.84 5.12391 7.179 0
M  V30 56401 O 1342.38 5.99158 4.88404 0
M  V30 56402 C 1343.32 6.60234 3.96415 0
M  V30 56403 C 1342.59 7.08259 2.72856 0
M  V30 56404 O 1342.38 5.9427 1.83651 0
M  V30 56405 C 1341.19 7.64886 2.9555 0
M  V30 56406 O 1340.8 8.53963 1.90717 0
M  V30 56407 C 1340.31 6.4116 2.90739 0
M  V30 56408 C 1341.02 5.55375 1.86963 0
M  V30 56409 N 1340.97 4.09664 2.15742 0
M  V30 56410 H 1343.81 7.45574 4.45629 0
M  V30 56411 H 1344.08 5.86232 3.67314 0
M  V30 56412 H 1343.22 7.84412 2.24479 0
M  V30 56413 P 1339.25 8.7635 1.60911 0
M  V30 56414 O 1339.03 10.1388 1.11561 0
M  V30 56415 O 1338.46 8.36503 2.79617 0
M  V30 56416 O 1339 7.71806 0.42951 0
M  V30 56417 C 1339.94 7.67148 -0.673689 0
M  V30 56418 C 1339.21 7.33374 -1.95559 0
M  V30 56419 O 1339 5.88721 -2.00726 0
M  V30 56420 C 1337.81 7.92526 -2.10483 0
M  V30 56421 O 1337.42 8.02971 -3.47653 0
M  V30 56422 C 1336.93 6.89602 -1.41652 0
M  V30 56423 C 1337.64 5.59201 -1.75185 0
M  V30 56424 N 1337.59 4.58235 -0.662552 0
M  V30 56425 H 1340.43 8.65116 -0.777161 0
M  V30 56426 H 1340.7 6.90173 -0.474152 0
M  V30 56427 H 1339.84 7.66548 -2.79458 0
M  V30 56428 P 1335.87 8.03563 -3.84925 0
M  V30 56429 O 1335.65 8.85821 -5.0569 0
M  V30 56430 O 1335.08 8.41101 -2.65469 0
M  V30 56431 O 1335.62 6.49734 -4.18962 0
M  V30 56432 C 1336.56 5.81037 -5.05421 0
M  V30 56433 C 1335.83 4.79018 -5.88876 0
M  V30 56434 O 1335.62 3.58359 -5.08515 0
M  V30 56435 C 1334.43 5.17448 -6.36119 0
M  V30 56436 O 1334.04 4.45322 -7.53318 0
M  V30 56437 C 1333.55 4.74639 -5.19936 0
M  V30 56438 C 1334.26 3.49432 -4.70418 0
M  V30 56439 N 1334.21 3.31776 -3.22945 0
M  V30 56440 C 1334.06 2.02742 -2.72939 0
M  V30 56441 O 1333.97 1.08301 -3.52749 0
M  V30 56442 N 1334.01 1.96117 -1.22063 0
M  V30 56443 C 1334.11 2.8878 -0.551566 0
M  V30 56444 N 1334.06 2.65609 0.750198 0
M  V30 56445 C 1334.26 4.22457 -1.03707 0
M  V30 56446 C 1334.31 4.37979 -2.39113 0
M  V30 56447 H 1337.05 6.54138 -5.7131 0
M  V30 56448 H 1337.32 5.30492 -4.44033 0
M  V30 56449 H 1336.46 4.55945 -6.76735 0
M  V30 56450 H 1333.8 2.6176 -5.18021 0
M  V30 56451 H 1333.52 5.52233 -4.41941 0
M  V30 56452 H 1332.53 4.52045 -5.53452 0
M  V30 56453 H 1334.36 6.25124 -6.55234 0
M  V30 56454 H 1334.44 5.37936 -2.80552 0
M  V30 56455 H 1334.33 5.07528 -0.359553 0
M  V30 56456 H 1333.95 1.69403 1.09847 0
M  V30 56457 H 1334.14 3.43701 1.41792 0
M  V30 56458 P 1332.49 4.23843 -7.83734 0
M  V30 56459 O 1332.27 4.19407 -9.29784 0
M  V30 56460 O 1331.7 5.24426 -7.09156 0
M  V30 56461 O 1332.24 2.7935 -7.20758 0
M  V30 56462 C 1333.18 1.7299 -7.50419 0
M  V30 56463 C 1332.45 0.406376 -7.57911 0
M  V30 56464 O 1332.24 -0.0897726 -6.21935 0
M  V30 56465 C 1331.05 0.447224 -8.1878 0
M  V30 56466 O 1330.66 -0.825065 -8.71101 0
M  V30 56467 C 1330.17 0.783801 -6.99623 0
M  V30 56468 C 1330.88 0.0619192 -5.85967 0
M  V30 56469 N 1330.83 0.790462 -4.56202 0
M  V30 56470 H 1333.67 1.93423 -8.4679 0
M  V30 56471 H 1333.94 1.68852 -6.70877 0
M  V30 56472 H 1333.08 -0.289041 -8.15388 0
M  V30 56473 H 1330.42 -0.927006 -5.72848 0
M  V30 56474 H 1330.14 1.86973 -6.82036 0
M  V30 56475 H 1329.15 0.403953 -7.13357 0
M  V30 56476 H 1330.98 1.20599 -8.97534 0
M  V30 56477 P 1329.11 -1.17771 -8.83182 0
M  V30 56478 O 1328.89 -2.07206 -9.98732 0
M  V30 56479 O 1328.32 0.0743816 -8.81969 0
M  V30 56480 O 1328.86 -1.97652 -7.47304 0
M  V30 56481 C 1329.8 -3.01133 -7.08783 0
M  V30 56482 C 1329.07 -4.12613 -6.37049 0
M  V30 56483 O 1328.86 -3.72827 -4.97879 0
M  V30 56484 C 1327.67 -4.45085 -6.88694 0
M  V30 56485 O 1327.28 -5.7877 -6.5624 0
M  V30 56486 C 1326.79 -3.47817 -6.12078 0
M  V30 56487 C 1327.5 -3.39414 -4.77697 0
M  V30 56488 N 1327.45 -2.04615 -4.15333 0
M  V30 56489 H 1330.29 -3.41248 -7.98759 0
M  V30 56490 H 1330.56 -2.5837 -6.41742 0
M  V30 56491 H 1329.7 -5.02657 -6.42673 0
M  V30 56492 P 1325.73 -6.144 -6.45285 0
M  V30 56493 O 1325.51 -7.54673 -6.86199 0
M  V30 56494 O 1324.94 -5.12391 -7.179 0
M  V30 56495 O 1325.48 -5.99158 -4.88404 0
M  V30 56496 C 1326.42 -6.60234 -3.96415 0
M  V30 56497 C 1325.69 -7.08259 -2.72856 0
M  V30 56498 O 1325.48 -5.9427 -1.83651 0
M  V30 56499 C 1324.29 -7.64886 -2.9555 0
M  V30 56500 O 1323.9 -8.53963 -1.90717 0
M  V30 56501 C 1323.41 -6.4116 -2.90739 0
M  V30 56502 C 1324.12 -5.55375 -1.86963 0
M  V30 56503 N 1324.07 -4.09664 -2.15742 0
M  V30 56504 H 1326.91 -7.45574 -4.45629 0
M  V30 56505 H 1327.18 -5.86232 -3.67314 0
M  V30 56506 H 1326.32 -7.84412 -2.24479 0
M  V30 56507 P 1322.35 -8.7635 -1.60911 0
M  V30 56508 O 1322.13 -10.1388 -1.11561 0
M  V30 56509 O 1321.56 -8.36503 -2.79617 0
M  V30 56510 O 1322.1 -7.71806 -0.42951 0
M  V30 56511 C 1323.04 -7.66948 0.673514 0
M  V30 56512 C 1322.31 -7.33374 1.95559 0
M  V30 56513 O 1322.1 -5.88721 2.00726 0
M  V30 56514 C 1320.91 -7.92218 2.1125 0
M  V30 56515 O 1320.52 -8.02971 3.47653 0
M  V30 56516 C 1320.03 -6.89504 1.41631 0
M  V30 56517 C 1320.74 -5.59106 1.75155 0
M  V30 56518 N 1320.69 -4.58136 0.662409 0
M  V30 56519 C 1320.54 -3.26059 1.02863 0
M  V30 56520 O 1320.45 -2.90743 2.19009 0
M  V30 56521 N 1320.5 -2.35995 -0.0155585 0
M  V30 56522 C 1320.59 -2.65248 -1.35603 0
M  V30 56523 O 1320.54 -1.75605 -2.20651 0
M  V30 56524 C 1320.74 -4.05747 -1.64698 0
M  V30 56525 C 1320.85 -4.42345 -3.09553 0
M  V30 56526 C 1320.79 -4.96734 -0.652411 0
M  V30 56527 H 1323.53 -8.64917 0.776982 0
M  V30 56528 H 1323.8 -6.89974 0.474015 0
M  V30 56529 H 1322.94 -7.66548 2.79458 0
M  V30 56530 H 1320.28 -5.16076 2.65138 0
M  V30 56531 H 1320 -7.06433 0.329384 0
M  V30 56532 H 1319.01 -6.90829 1.81996 0
M  V30 56533 H 1320.84 -8.90774 1.62639 0
M  V30 56534 H 1320.91 -6.02181 -0.895285 0
M  V30 56535 H 1319.88 -4.80252 -3.45468 0
M  V30 56536 H 1321.62 -5.20015 -3.22119 0
M  V30 56537 H 1321.13 -3.53269 -3.67833 0
M  V30 56538 H 1320.4 -1.39558 0.227499 0
M  V30 56539 P 1318.97 -8.03563 3.84925 0
M  V30 56540 O 1318.75 -8.85821 5.0569 0
M  V30 56541 O 1318.18 -8.41101 2.65469 0
M  V30 56542 O 1318.72 -6.4965 4.18908 0
M  V30 56543 C 1319.66 -5.81037 5.05421 0
M  V30 56544 C 1318.93 -4.78366 5.89277 0
M  V30 56545 O 1318.72 -3.58302 5.08433 0
M  V30 56546 C 1317.53 -5.17448 6.36119 0
M  V30 56547 O 1317.14 -4.45271 7.53232 0
M  V30 56548 C 1316.65 -4.74639 5.19936 0
M  V30 56549 C 1317.36 -3.49432 4.70418 0
M  V30 56550 N 1317.31 -3.32099 3.22613 0
M  V30 56551 H 1320.15 -6.54213 5.71376 0
M  V30 56552 H 1320.42 -5.30936 4.43503 0
M  V30 56553 H 1319.56 -4.55889 6.76652 0
M  V30 56554 H 1316.9 -2.61715 5.17932 0
M  V30 56555 H 1316.62 -5.52155 4.41878 0
M  V30 56556 H 1315.63 -4.51981 5.53374 0
M  V30 56557 H 1317.46 -6.25124 6.55234 0
M  V30 56558 P 1315.59 -4.23843 7.83734 0
M  V30 56559 O 1315.37 -4.19407 9.29784 0
M  V30 56560 O 1314.8 -5.24426 7.09156 0
M  V30 56561 O 1315.34 -2.7935 7.20758 0
M  V30 56562 C 1316.28 -1.7299 7.50419 0
M  V30 56563 C 1315.55 -0.406376 7.57911 0
M  V30 56564 O 1315.34 0.0897726 6.21935 0
M  V30 56565 C 1314.15 -0.447224 8.1878 0
M  V30 56566 O 1313.76 0.825065 8.71101 0
M  V30 56567 C 1313.27 -0.783801 6.99623 0
M  V30 56568 C 1313.98 -0.0619192 5.85967 0
M  V30 56569 N 1313.93 -0.7859 4.56281 0
M  V30 56570 H 1316.77 -1.93423 8.4679 0
M  V30 56571 H 1317.04 -1.68181 6.71046 0
M  V30 56572 H 1316.18 0.289041 8.15388 0
M  V30 56573 P 1312.21 1.17771 8.83182 0
M  V30 56574 O 1311.99 2.07206 9.98732 0
M  V30 56575 O 1311.42 -0.0743816 8.81969 0
M  V30 56576 O 1311.96 1.97652 7.47304 0
M  V30 56577 C 1312.9 3.01133 7.08783 0
M  V30 56578 C 1312.17 4.12613 6.37049 0
M  V30 56579 O 1311.96 3.72827 4.97879 0
M  V30 56580 C 1310.77 4.45085 6.88694 0
M  V30 56581 O 1310.38 5.7877 6.5624 0
M  V30 56582 C 1309.89 3.47817 6.12078 0
M  V30 56583 C 1310.6 3.39414 4.77697 0
M  V30 56584 N 1310.55 2.04615 4.15333 0
M  V30 56585 H 1313.39 3.41248 7.98759 0
M  V30 56586 H 1313.66 2.5837 6.41742 0
M  V30 56587 H 1312.8 5.02657 6.42673 0
M  V30 56588 P 1308.83 6.144 6.45285 0
M  V30 56589 O 1308.61 7.54673 6.86199 0
M  V30 56590 O 1308.04 5.12391 7.179 0
M  V30 56591 O 1308.58 5.99158 4.88404 0
M  V30 56592 C 1309.52 6.60234 3.96415 0
M  V30 56593 C 1308.79 7.08259 2.72856 0
M  V30 56594 O 1308.58 5.9427 1.83651 0
M  V30 56595 C 1307.39 7.64886 2.9555 0
M  V30 56596 O 1307 8.53963 1.90717 0
M  V30 56597 C 1306.51 6.4116 2.90739 0
M  V30 56598 C 1307.22 5.55375 1.86963 0
M  V30 56599 N 1307.17 4.09448 2.16152 0
M  V30 56600 H 1310.01 7.45574 4.45629 0
M  V30 56601 H 1310.28 5.85864 3.679 0
M  V30 56602 H 1309.42 7.84412 2.24479 0
M  V30 56603 H 1306.76 5.73457 0.888562 0
M  V30 56604 H 1306.48 5.90877 3.88583 0
M  V30 56605 H 1305.49 6.6596 2.58858 0
M  V30 56606 H 1307.32 8.16339 3.92049 0
M  V30 56607 P 1305.45 8.7635 1.60911 0
M  V30 56608 O 1305.23 10.1388 1.11561 0
M  V30 56609 O 1304.66 8.36503 2.79617 0
M  V30 56610 O 1305.2 7.71806 0.42951 0
M  V30 56611 C 1306.14 7.67148 -0.673689 0
M  V30 56612 C 1305.41 7.33374 -1.95559 0
M  V30 56613 O 1305.2 5.88721 -2.00726 0
M  V30 56614 C 1304.01 7.92526 -2.10483 0
M  V30 56615 O 1303.62 8.02971 -3.47653 0
M  V30 56616 C 1303.13 6.89602 -1.41652 0
M  V30 56617 C 1303.84 5.59201 -1.75185 0
M  V30 56618 N 1303.79 4.58235 -0.662552 0
M  V30 56619 H 1306.63 8.65116 -0.777161 0
M  V30 56620 H 1306.9 6.90173 -0.474152 0
M  V30 56621 H 1306.04 7.66548 -2.79458 0
M  V30 56622 P 1302.07 8.03563 -3.84925 0
M  V30 56623 O 1301.85 8.85821 -5.0569 0
M  V30 56624 O 1301.28 8.41101 -2.65469 0
M  V30 56625 O 1301.82 6.4965 -4.18908 0
M  V30 56626 C 1302.76 5.81037 -5.05421 0
M  V30 56627 C 1302.03 4.78366 -5.89277 0
M  V30 56628 O 1301.82 3.58302 -5.08433 0
M  V30 56629 C 1300.63 5.17448 -6.36119 0
M  V30 56630 O 1300.24 4.45271 -7.53232 0
M  V30 56631 C 1299.75 4.74639 -5.19936 0
M  V30 56632 C 1300.46 3.49432 -4.70418 0
M  V30 56633 N 1300.41 3.32099 -3.22613 0
M  V30 56634 H 1303.25 6.54213 -5.71376 0
M  V30 56635 H 1303.52 5.30936 -4.43503 0
M  V30 56636 H 1302.66 4.55889 -6.76652 0
M  V30 56637 H 1300 2.61715 -5.17932 0
M  V30 56638 H 1299.72 5.52155 -4.41878 0
M  V30 56639 H 1298.73 4.51981 -5.53374 0
M  V30 56640 H 1300.56 6.25124 -6.55234 0
M  V30 56641 P 1298.69 4.23843 -7.83734 0
M  V30 56642 O 1298.47 4.19407 -9.29784 0
M  V30 56643 O 1297.9 5.24426 -7.09156 0
M  V30 56644 O 1298.44 2.7935 -7.20758 0
M  V30 56645 C 1299.38 1.7299 -7.50419 0
M  V30 56646 C 1298.65 0.406376 -7.57911 0
M  V30 56647 O 1298.44 -0.0897726 -6.21935 0
M  V30 56648 C 1297.25 0.447224 -8.1878 0
M  V30 56649 O 1296.86 -0.825065 -8.71101 0
M  V30 56650 C 1296.37 0.783801 -6.99623 0
M  V30 56651 C 1297.08 0.0619192 -5.85967 0
M  V30 56652 N 1297.03 0.7859 -4.56281 0
M  V30 56653 H 1299.87 1.93423 -8.4679 0
M  V30 56654 H 1300.14 1.68181 -6.71046 0
M  V30 56655 H 1299.28 -0.289041 -8.15388 0
M  V30 56656 P 1295.31 -1.17771 -8.83182 0
M  V30 56657 O 1295.09 -2.07206 -9.98732 0
M  V30 56658 O 1294.52 0.0743816 -8.81969 0
M  V30 56659 O 1295.06 -1.97652 -7.47304 0
M  V30 56660 C 1296 -3.01133 -7.08783 0
M  V30 56661 C 1295.27 -4.12613 -6.37049 0
M  V30 56662 O 1295.06 -3.72827 -4.97879 0
M  V30 56663 C 1293.87 -4.45085 -6.88694 0
M  V30 56664 O 1293.48 -5.7877 -6.5624 0
M  V30 56665 C 1292.99 -3.47817 -6.12078 0
M  V30 56666 C 1293.7 -3.39414 -4.77697 0
M  V30 56667 N 1293.65 -2.04615 -4.15333 0
M  V30 56668 H 1296.49 -3.41248 -7.98759 0
M  V30 56669 H 1296.76 -2.5837 -6.41742 0
M  V30 56670 H 1295.9 -5.02657 -6.42673 0
M  V30 56671 P 1291.93 -6.144 -6.45285 0
M  V30 56672 O 1291.71 -7.54673 -6.86199 0
M  V30 56673 O 1291.14 -5.12391 -7.179 0
M  V30 56674 O 1291.68 -5.99158 -4.88404 0
M  V30 56675 C 1292.62 -6.60234 -3.96415 0
M  V30 56676 C 1291.89 -7.08259 -2.72856 0
M  V30 56677 O 1291.68 -5.9427 -1.83651 0
M  V30 56678 C 1290.49 -7.64886 -2.9555 0
M  V30 56679 O 1290.1 -8.53963 -1.90717 0
M  V30 56680 C 1289.61 -6.4116 -2.90739 0
M  V30 56681 C 1290.32 -5.55375 -1.86963 0
M  V30 56682 N 1290.27 -4.09448 -2.16152 0
M  V30 56683 C 1290.35 -3.46824 -3.37593 0
M  V30 56684 N 1290.28 -2.17422 -3.29777 0
M  V30 56685 C 1290.13 -1.93065 -1.94427 0
M  V30 56686 C 1290 -0.738053 -1.20141 0
M  V30 56687 N 1289.99 0.474256 -1.74676 0
M  V30 56688 N 1289.88 -0.850049 0.13045 0
M  V30 56689 C 1289.89 -2.06169 0.676992 0
M  V30 56690 N 1290.01 -3.23842 0.101312 0
M  V30 56691 C 1290.13 -3.09402 -1.23122 0
M  V30 56692 H 1293.11 -7.45574 -4.45629 0
M  V30 56693 H 1293.38 -5.85864 -3.679 0
M  V30 56694 H 1292.52 -7.84412 -2.24479 0
M  V30 56695 H 1289.86 -5.73457 -0.888562 0
M  V30 56696 H 1289.58 -5.90877 -3.88583 0
M  V30 56697 H 1288.59 -6.6596 -2.58858 0
M  V30 56698 H 1290.42 -8.16339 -3.92049 0
M  V30 56699 H 1290.46 -4.00505 -4.3174 0
M  V30 56700 H 1290.08 0.581337 -2.76658 0
M  V30 56701 H 1289.89 1.30811 -1.14888 0
M  V30 56702 H 1289.79 -2.08295 1.75542 0
M  V30 56703 P 1288.55 -8.7635 -1.60911 0
M  V30 56704 O 1288.33 -10.1388 -1.11561 0
M  V30 56705 O 1287.76 -8.36503 -2.79617 0
M  V30 56706 O 1288.3 -7.71806 -0.42951 0
M  V30 56707 C 1289.24 -7.67148 0.673689 0
M  V30 56708 C 1288.51 -7.33374 1.95559 0
M  V30 56709 O 1288.3 -5.88721 2.00726 0
M  V30 56710 C 1287.11 -7.92526 2.10483 0
M  V30 56711 O 1286.72 -8.02971 3.47653 0
M  V30 56712 C 1286.23 -6.89602 1.41652 0
M  V30 56713 C 1286.94 -5.59201 1.75185 0
M  V30 56714 N 1286.89 -4.58235 0.662552 0
M  V30 56715 H 1289.73 -8.65116 0.777161 0
M  V30 56716 H 1290 -6.90173 0.474152 0
M  V30 56717 H 1289.14 -7.66548 2.79458 0
M  V30 56718 P 1285.17 -8.03563 3.84925 0
M  V30 56719 O 1284.95 -8.85821 5.0569 0
M  V30 56720 O 1284.38 -8.41101 2.65469 0
M  V30 56721 O 1284.92 -6.4965 4.18908 0
M  V30 56722 C 1285.86 -5.81037 5.05421 0
M  V30 56723 C 1285.13 -4.78366 5.89277 0
M  V30 56724 O 1284.92 -3.58302 5.08433 0
M  V30 56725 C 1283.73 -5.17448 6.36119 0
M  V30 56726 O 1283.34 -4.45271 7.53232 0
M  V30 56727 C 1282.85 -4.74639 5.19936 0
M  V30 56728 C 1283.56 -3.49432 4.70418 0
M  V30 56729 N 1283.51 -3.31776 3.22945 0
M  V30 56730 H 1286.35 -6.54213 5.71376 0
M  V30 56731 H 1286.62 -5.30492 4.44033 0
M  V30 56732 H 1285.76 -4.55889 6.76652 0
M  V30 56733 P 1281.79 -4.23843 7.83734 0
M  V30 56734 O 1281.57 -4.19407 9.29784 0
M  V30 56735 O 1281 -5.24426 7.09156 0
M  V30 56736 O 1281.54 -2.7935 7.20758 0
M  V30 56737 C 1282.48 -1.7299 7.50419 0
M  V30 56738 C 1281.75 -0.406376 7.57911 0
M  V30 56739 O 1281.54 0.0897726 6.21935 0
M  V30 56740 C 1280.35 -0.447224 8.1878 0
M  V30 56741 O 1279.96 0.825065 8.71101 0
M  V30 56742 C 1279.47 -0.783801 6.99623 0
M  V30 56743 C 1280.18 -0.0619192 5.85967 0
M  V30 56744 N 1280.13 -0.7859 4.56281 0
M  V30 56745 H 1282.97 -1.93423 8.4679 0
M  V30 56746 H 1283.24 -1.68181 6.71046 0
M  V30 56747 H 1282.38 0.289041 8.15388 0
M  V30 56748 P 1278.41 1.17771 8.83182 0
M  V30 56749 O 1278.19 2.07206 9.98732 0
M  V30 56750 O 1277.62 -0.0743816 8.81969 0
M  V30 56751 O 1278.16 1.97652 7.47304 0
M  V30 56752 C 1279.1 3.01133 7.08783 0
M  V30 56753 C 1278.37 4.12613 6.37049 0
M  V30 56754 O 1278.16 3.72827 4.97879 0
M  V30 56755 C 1276.97 4.45085 6.88694 0
M  V30 56756 O 1276.58 5.7877 6.5624 0
M  V30 56757 C 1276.09 3.47817 6.12078 0
M  V30 56758 C 1276.8 3.39414 4.77697 0
M  V30 56759 N 1276.75 2.04615 4.15333 0
M  V30 56760 H 1279.59 3.41248 7.98759 0
M  V30 56761 H 1279.86 2.5837 6.41742 0
M  V30 56762 H 1279 5.02657 6.42673 0
M  V30 56763 P 1275.03 6.144 6.45285 0
M  V30 56764 O 1274.81 7.54673 6.86199 0
M  V30 56765 O 1274.24 5.12391 7.179 0
M  V30 56766 O 1274.78 5.99158 4.88404 0
M  V30 56767 C 1275.72 6.60234 3.96415 0
M  V30 56768 C 1274.99 7.08259 2.72856 0
M  V30 56769 O 1274.78 5.9427 1.83651 0
M  V30 56770 C 1273.59 7.64886 2.9555 0
M  V30 56771 O 1273.2 8.53963 1.90717 0
M  V30 56772 C 1272.71 6.4116 2.90739 0
M  V30 56773 C 1273.42 5.55375 1.86963 0
M  V30 56774 N 1273.37 4.09664 2.15742 0
M  V30 56775 H 1276.21 7.45574 4.45629 0
M  V30 56776 H 1276.48 5.86232 3.67314 0
M  V30 56777 H 1275.62 7.84412 2.24479 0
M  V30 56778 P 1271.65 8.7635 1.60911 0
M  V30 56779 O 1271.43 10.1388 1.11561 0
M  V30 56780 O 1270.86 8.36503 2.79617 0
M  V30 56781 O 1271.4 7.71806 0.42951 0
M  V30 56782 C 1272.34 7.67148 -0.673689 0
M  V30 56783 C 1271.61 7.33374 -1.95559 0
M  V30 56784 O 1271.4 5.88721 -2.00726 0
M  V30 56785 C 1270.21 7.92526 -2.10483 0
M  V30 56786 O 1269.82 8.02971 -3.47653 0
M  V30 56787 C 1269.33 6.89602 -1.41652 0
M  V30 56788 C 1270.04 5.59201 -1.75185 0
M  V30 56789 N 1269.99 4.58301 -0.657969 0
M  V30 56790 H 1272.83 8.65116 -0.777161 0
M  V30 56791 H 1273.1 6.9022 -0.46725 0
M  V30 56792 H 1272.24 7.66548 -2.79458 0
M  V30 56793 H 1269.58 5.16165 -2.65183 0
M  V30 56794 H 1269.3 7.06433 -0.329384 0
M  V30 56795 H 1268.31 6.90926 -1.82021 0
M  V30 56796 H 1270.14 8.90873 -1.62657 0
M  V30 56797 P 1268.27 8.03563 -3.84925 0
M  V30 56798 O 1268.05 8.85821 -5.0569 0
M  V30 56799 O 1267.48 8.41101 -2.65469 0
M  V30 56800 O 1268.02 6.4965 -4.18908 0
M  V30 56801 C 1268.96 5.81037 -5.05421 0
M  V30 56802 C 1268.23 4.78366 -5.89277 0
M  V30 56803 O 1268.02 3.58302 -5.08433 0
M  V30 56804 C 1266.83 5.17448 -6.36119 0
M  V30 56805 O 1266.44 4.45271 -7.53232 0
M  V30 56806 C 1265.95 4.74639 -5.19936 0
M  V30 56807 C 1266.66 3.49432 -4.70418 0
M  V30 56808 N 1266.61 3.31776 -3.22945 0
M  V30 56809 H 1269.45 6.54213 -5.71376 0
M  V30 56810 H 1269.72 5.30492 -4.44033 0
M  V30 56811 H 1268.86 4.55889 -6.76652 0
M  V30 56812 P 1264.89 4.23843 -7.83734 0
M  V30 56813 O 1264.67 4.19407 -9.29784 0
M  V30 56814 O 1264.1 5.24426 -7.09156 0
M  V30 56815 O 1264.64 2.7935 -7.20758 0
M  V30 56816 C 1265.58 1.72945 -7.50224 0
M  V30 56817 C 1264.85 0.406376 -7.57911 0
M  V30 56818 O 1264.64 -0.0897726 -6.21935 0
M  V30 56819 C 1263.45 0.438983 -8.18724 0
M  V30 56820 O 1263.06 -0.825065 -8.71101 0
M  V30 56821 C 1262.57 0.783689 -6.99524 0
M  V30 56822 C 1263.28 0.0619086 -5.85867 0
M  V30 56823 N 1263.23 0.78573 -4.56183 0
M  V30 56824 C 1263.08 0.0292889 -3.41887 0
M  V30 56825 O 1262.99 -1.18445 -3.4419 0
M  V30 56826 N 1263.04 0.744061 -2.23964 0
M  V30 56827 C 1263.13 2.10932 -2.10362 0
M  V30 56828 O 1263.08 2.64117 -0.98825 0
M  V30 56829 C 1263.28 2.8202 -3.34994 0
M  V30 56830 C 1263.39 4.31095 -3.25037 0
M  V30 56831 C 1263.33 2.15547 -4.52261 0
M  V30 56832 H 1266.07 1.93379 -8.46595 0
M  V30 56833 H 1266.34 1.68132 -6.70852 0
M  V30 56834 H 1265.48 -0.289041 -8.15388 0
M  V30 56835 H 1262.82 -0.926847 -5.72749 0
M  V30 56836 H 1262.54 1.86973 -6.82036 0
M  V30 56837 H 1261.55 0.403896 -7.13257 0
M  V30 56838 H 1263.38 1.20585 -8.97435 0
M  V30 56839 H 1263.45 2.71231 -5.45042 0
M  V30 56840 H 1262.42 4.76966 -3.49992 0
M  V30 56841 H 1264.16 4.67047 -3.95024 0
M  V30 56842 H 1263.67 4.58996 -2.22312 0
M  V30 56843 H 1262.94 0.214893 -1.39758 0
M  V30 56844 P 1261.51 -1.17771 -8.83182 0
M  V30 56845 O 1261.29 -2.07206 -9.98732 0
M  V30 56846 O 1260.72 0.0743816 -8.81969 0
M  V30 56847 O 1261.26 -1.97652 -7.47304 0
M  V30 56848 C 1262.2 -3.01133 -7.08783 0
M  V30 56849 C 1261.47 -4.12613 -6.37049 0
M  V30 56850 O 1261.26 -3.72827 -4.97879 0
M  V30 56851 C 1260.07 -4.45085 -6.88694 0
M  V30 56852 O 1259.68 -5.7877 -6.5624 0
M  V30 56853 C 1259.19 -3.47817 -6.12078 0
M  V30 56854 C 1259.9 -3.39414 -4.77697 0
M  V30 56855 N 1259.85 -2.04199 -4.15538 0
M  V30 56856 H 1262.69 -3.41248 -7.98759 0
M  V30 56857 H 1262.96 -2.57728 -6.42 0
M  V30 56858 H 1262.1 -5.02657 -6.42673 0
M  V30 56859 H 1259.44 -4.11708 -4.08956 0
M  V30 56860 H 1259.16 -2.49626 -6.61679 0
M  V30 56861 H 1258.17 -3.8662 -6.00862 0
M  V30 56862 H 1260 -4.29991 -7.97006 0
M  V30 56863 P 1258.13 -6.144 -6.45285 0
M  V30 56864 O 1257.91 -7.54673 -6.86199 0
M  V30 56865 O 1257.34 -5.12391 -7.179 0
M  V30 56866 O 1257.88 -5.99158 -4.88404 0
M  V30 56867 C 1258.82 -6.60234 -3.96415 0
M  V30 56868 C 1258.09 -7.08259 -2.72856 0
M  V30 56869 O 1257.88 -5.9427 -1.83651 0
M  V30 56870 C 1256.69 -7.64886 -2.9555 0
M  V30 56871 O 1256.3 -8.53963 -1.90717 0
M  V30 56872 C 1255.81 -6.4116 -2.90739 0
M  V30 56873 C 1256.52 -5.55375 -1.86963 0
M  V30 56874 N 1256.47 -4.09664 -2.15742 0
M  V30 56875 H 1259.31 -7.45574 -4.45629 0
M  V30 56876 H 1259.58 -5.86232 -3.67314 0
M  V30 56877 H 1258.72 -7.84412 -2.24479 0
M  V30 56878 P 1254.75 -8.7635 -1.60911 0
M  V30 56879 O 1254.53 -10.1388 -1.11561 0
M  V30 56880 O 1253.96 -8.36503 -2.79617 0
M  V30 56881 O 1254.5 -7.71806 -0.42951 0
M  V30 56882 C 1255.44 -7.67148 0.673689 0
M  V30 56883 C 1254.71 -7.33374 1.95559 0
M  V30 56884 O 1254.5 -5.88721 2.00726 0
M  V30 56885 C 1253.31 -7.92526 2.10483 0
M  V30 56886 O 1252.92 -8.02971 3.47653 0
M  V30 56887 C 1252.43 -6.89602 1.41652 0
M  V30 56888 C 1253.14 -5.59201 1.75185 0
M  V30 56889 N 1253.09 -4.58235 0.662552 0
M  V30 56890 H 1255.93 -8.65116 0.777161 0
M  V30 56891 H 1256.2 -6.90173 0.474152 0
M  V30 56892 H 1255.34 -7.66548 2.79458 0
M  V30 56893 P 1251.37 -8.03563 3.84925 0
M  V30 56894 O 1251.15 -8.85821 5.0569 0
M  V30 56895 O 1250.58 -8.41101 2.65469 0
M  V30 56896 O 1251.12 -6.4965 4.18908 0
M  V30 56897 C 1252.06 -5.81037 5.05421 0
M  V30 56898 C 1251.33 -4.78366 5.89277 0
M  V30 56899 O 1251.12 -3.58302 5.08433 0
M  V30 56900 C 1249.93 -5.17448 6.36119 0
M  V30 56901 O 1249.54 -4.45271 7.53232 0
M  V30 56902 C 1249.05 -4.74639 5.19936 0
M  V30 56903 C 1249.76 -3.49432 4.70418 0
M  V30 56904 N 1249.71 -3.31776 3.22945 0
M  V30 56905 H 1252.55 -6.54213 5.71376 0
M  V30 56906 H 1252.82 -5.30492 4.44033 0
M  V30 56907 H 1251.96 -4.55889 6.76652 0
M  V30 56908 P 1247.99 -4.23843 7.83734 0
M  V30 56909 O 1247.77 -4.19407 9.29784 0
M  V30 56910 O 1247.2 -5.24426 7.09156 0
M  V30 56911 O 1247.74 -2.7935 7.20758 0
M  V30 56912 C 1248.68 -1.7299 7.50419 0
M  V30 56913 C 1247.95 -0.406376 7.57911 0
M  V30 56914 O 1247.74 0.0897726 6.21935 0
M  V30 56915 C 1246.55 -0.447224 8.1878 0
M  V30 56916 O 1246.16 0.825065 8.71101 0
M  V30 56917 C 1245.67 -0.783801 6.99623 0
M  V30 56918 C 1246.38 -0.0619192 5.85967 0
M  V30 56919 N 1246.33 -0.7859 4.56281 0
M  V30 56920 H 1249.17 -1.93423 8.4679 0
M  V30 56921 H 1249.44 -1.68181 6.71046 0
M  V30 56922 H 1248.58 0.289041 8.15388 0
M  V30 56923 P 1244.61 1.17771 8.83182 0
M  V30 56924 O 1244.39 2.07206 9.98732 0
M  V30 56925 O 1243.82 -0.0743816 8.81969 0
M  V30 56926 O 1244.36 1.97678 7.474 0
M  V30 56927 C 1245.3 3.01133 7.08783 0
M  V30 56928 C 1244.57 4.1203 6.37546 0
M  V30 56929 O 1244.36 3.72887 4.9796 0
M  V30 56930 C 1243.17 4.45085 6.88694 0
M  V30 56931 O 1242.78 5.78836 6.56315 0
M  V30 56932 C 1242.29 3.47817 6.12078 0
M  V30 56933 C 1243 3.39414 4.77697 0
M  V30 56934 N 1242.95 2.04615 4.15333 0
M  V30 56935 C 1242.8 1.96929 2.77162 0
M  V30 56936 O 1242.71 3.02017 2.12006 0
M  V30 56937 N 1242.75 0.55485 2.24237 0
M  V30 56938 C 1242.85 -0.367808 2.9169 0
M  V30 56939 N 1242.8 -1.53426 2.29427 0
M  V30 56940 C 1243 -0.319148 4.33828 0
M  V30 56941 C 1243.05 0.920672 4.90433 0
M  V30 56942 H 1245.79 3.41209 7.98667 0
M  V30 56943 H 1246.06 2.5837 6.41742 0
M  V30 56944 H 1245.2 5.02718 6.42752 0
M  V30 56945 H 1242.54 4.11779 4.09026 0
M  V30 56946 H 1242.26 2.49661 6.61772 0
M  V30 56947 H 1241.27 3.86674 6.00946 0
M  V30 56948 H 1243.1 4.29991 7.97006 0
M  V30 56949 H 1243.18 1.00589 5.98303 0
M  V30 56950 H 1243.07 -1.22639 4.93799 0
M  V30 56951 H 1242.69 -1.56819 1.27167 0
M  V30 56952 H 1242.88 -2.41062 2.83063 0
M  V30 56953 P 1241.23 6.144 6.45285 0
M  V30 56954 O 1241.01 7.54673 6.86199 0
M  V30 56955 O 1240.44 5.12391 7.179 0
M  V30 56956 O 1240.98 5.99158 4.88404 0
M  V30 56957 C 1241.92 6.60234 3.96415 0
M  V30 56958 C 1241.19 7.08259 2.72856 0
M  V30 56959 O 1240.98 5.9427 1.83651 0
M  V30 56960 C 1239.79 7.64886 2.9555 0
M  V30 56961 O 1239.4 8.53963 1.90717 0
M  V30 56962 C 1238.91 6.4116 2.90739 0
M  V30 56963 C 1239.62 5.55375 1.86963 0
M  V30 56964 N 1239.57 4.09664 2.15742 0
M  V30 56965 C 1239.65 3.44381 3.37233 0
M  V30 56966 N 1239.57 2.14131 3.28347 0
M  V30 56967 C 1239.43 1.90247 1.91588 0
M  V30 56968 C 1239.3 0.683992 1.20892 0
M  V30 56969 N 1239.18 0.903396 -0.173998 0
M  V30 56970 C 1239.18 2.14171 -0.784879 0
M  V30 56971 N 1239.05 2.1435 -2.11317 0
M  V30 56972 N 1239.31 3.28784 -0.119316 0
M  V30 56973 C 1239.43 3.0977 1.22194 0
M  V30 56974 H 1242.41 7.45574 4.45629 0
M  V30 56975 H 1242.68 5.86232 3.67314 0
M  V30 56976 H 1241.82 7.84412 2.24479 0
M  V30 56977 P 1237.85 8.7635 1.60911 0
M  V30 56978 O 1237.63 10.1388 1.11561 0
M  V30 56979 O 1237.06 8.36503 2.79617 0
M  V30 56980 O 1237.6 7.71806 0.42951 0
M  V30 56981 C 1238.54 7.67148 -0.673689 0
M  V30 56982 C 1237.81 7.33374 -1.95559 0
M  V30 56983 O 1237.6 5.88721 -2.00726 0
M  V30 56984 C 1236.41 7.92526 -2.10483 0
M  V30 56985 O 1236.02 8.02971 -3.47653 0
M  V30 56986 C 1235.53 6.89602 -1.41652 0
M  V30 56987 C 1236.24 5.59201 -1.75185 0
M  V30 56988 N 1236.19 4.58301 -0.657969 0
M  V30 56989 H 1239.03 8.65116 -0.777161 0
M  V30 56990 H 1239.3 6.9022 -0.46725 0
M  V30 56991 H 1238.44 7.66548 -2.79458 0
M  V30 56992 H 1235.78 5.16165 -2.65183 0
M  V30 56993 H 1235.5 7.06433 -0.329384 0
M  V30 56994 H 1234.51 6.90926 -1.82021 0
M  V30 56995 H 1236.34 8.90873 -1.62657 0
M  V30 56996 P 1234.47 8.03563 -3.84925 0
M  V30 56997 O 1234.25 8.85821 -5.0569 0
M  V30 56998 O 1233.68 8.41101 -2.65469 0
M  V30 56999 O 1234.22 6.4965 -4.18908 0
M  V30 57000 C 1235.16 5.81037 -5.05421 0
M  V30 57001 C 1234.43 4.78366 -5.89277 0
M  V30 57002 O 1234.22 3.58302 -5.08433 0
M  V30 57003 C 1233.03 5.17448 -6.36119 0
M  V30 57004 O 1232.64 4.45271 -7.53232 0
M  V30 57005 C 1232.15 4.74639 -5.19936 0
M  V30 57006 C 1232.86 3.49432 -4.70418 0
M  V30 57007 N 1232.81 3.31776 -3.22945 0
M  V30 57008 H 1235.65 6.54213 -5.71376 0
M  V30 57009 H 1235.92 5.30492 -4.44033 0
M  V30 57010 H 1235.06 4.55889 -6.76652 0
M  V30 57011 P 1231.09 4.23843 -7.83734 0
M  V30 57012 O 1230.87 4.19407 -9.29784 0
M  V30 57013 O 1230.3 5.24426 -7.09156 0
M  V30 57014 O 1230.84 2.7935 -7.20758 0
M  V30 57015 C 1231.78 1.7299 -7.50419 0
M  V30 57016 C 1231.05 0.406376 -7.57911 0
M  V30 57017 O 1230.84 -0.0897726 -6.21935 0
M  V30 57018 C 1229.65 0.447224 -8.1878 0
M  V30 57019 O 1229.26 -0.825065 -8.71101 0
M  V30 57020 C 1228.77 0.783801 -6.99623 0
M  V30 57021 C 1229.48 0.0619192 -5.85967 0
M  V30 57022 N 1229.43 0.790462 -4.56202 0
M  V30 57023 H 1232.27 1.93423 -8.4679 0
M  V30 57024 H 1232.54 1.68852 -6.70877 0
M  V30 57025 H 1231.68 -0.289041 -8.15388 0
M  V30 57026 H 1229.02 -0.927006 -5.72848 0
M  V30 57027 H 1228.74 1.86973 -6.82036 0
M  V30 57028 H 1227.75 0.403953 -7.13357 0
M  V30 57029 H 1229.58 1.20599 -8.97534 0
M  V30 57030 P 1227.71 -1.17771 -8.83182 0
M  V30 57031 O 1227.49 -2.07206 -9.98732 0
M  V30 57032 O 1226.92 0.0743816 -8.81969 0
M  V30 57033 O 1227.46 -1.97652 -7.47304 0
M  V30 57034 C 1228.4 -3.01133 -7.08783 0
M  V30 57035 C 1227.67 -4.12613 -6.37049 0
M  V30 57036 O 1227.46 -3.72827 -4.97879 0
M  V30 57037 C 1226.27 -4.45085 -6.88694 0
M  V30 57038 O 1225.88 -5.7877 -6.5624 0
M  V30 57039 C 1225.39 -3.47817 -6.12078 0
M  V30 57040 C 1226.1 -3.39414 -4.77697 0
M  V30 57041 N 1226.05 -2.04615 -4.15333 0
M  V30 57042 H 1228.89 -3.41248 -7.98759 0
M  V30 57043 H 1229.16 -2.5837 -6.41742 0
M  V30 57044 H 1228.3 -5.02657 -6.42673 0
M  V30 57045 P 1224.33 -6.144 -6.45285 0
M  V30 57046 O 1224.11 -7.54673 -6.86199 0
M  V30 57047 O 1223.54 -5.12391 -7.179 0
M  V30 57048 O 1224.08 -5.99158 -4.88404 0
M  V30 57049 C 1225.02 -6.60234 -3.96415 0
M  V30 57050 C 1224.29 -7.08259 -2.72856 0
M  V30 57051 O 1224.08 -5.9427 -1.83651 0
M  V30 57052 C 1222.89 -7.64886 -2.9555 0
M  V30 57053 O 1222.5 -8.53963 -1.90717 0
M  V30 57054 C 1222.01 -6.4116 -2.90739 0
M  V30 57055 C 1222.72 -5.55375 -1.86963 0
M  V30 57056 N 1222.67 -4.09448 -2.16152 0
M  V30 57057 H 1225.51 -7.45574 -4.45629 0
M  V30 57058 H 1225.78 -5.85864 -3.679 0
M  V30 57059 H 1224.92 -7.84412 -2.24479 0
M  V30 57060 H 1222.26 -5.73457 -0.888562 0
M  V30 57061 H 1221.98 -5.90877 -3.88583 0
M  V30 57062 H 1220.99 -6.6596 -2.58858 0
M  V30 57063 H 1222.82 -8.16339 -3.92049 0
M  V30 57064 P 1220.95 -8.7635 -1.60911 0
M  V30 57065 O 1220.73 -10.1388 -1.11561 0
M  V30 57066 O 1220.16 -8.36503 -2.79617 0
M  V30 57067 O 1220.7 -7.71806 -0.42951 0
M  V30 57068 C 1221.64 -7.67148 0.673689 0
M  V30 57069 C 1220.91 -7.33374 1.95559 0
M  V30 57070 O 1220.7 -5.88721 2.00726 0
M  V30 57071 C 1219.51 -7.92526 2.10483 0
M  V30 57072 O 1219.12 -8.02971 3.47653 0
M  V30 57073 C 1218.63 -6.89602 1.41652 0
M  V30 57074 C 1219.34 -5.59201 1.75185 0
M  V30 57075 N 1219.29 -4.58301 0.657969 0
M  V30 57076 H 1222.13 -8.65116 0.777161 0
M  V30 57077 H 1222.4 -6.9022 0.46725 0
M  V30 57078 H 1221.54 -7.66548 2.79458 0
M  V30 57079 H 1218.88 -5.16165 2.65183 0
M  V30 57080 H 1218.6 -7.06433 0.329384 0
M  V30 57081 H 1217.61 -6.90926 1.82021 0
M  V30 57082 H 1219.44 -8.90873 1.62657 0
M  V30 57083 P 1217.57 -8.03563 3.84925 0
M  V30 57084 O 1217.35 -8.85821 5.0569 0
M  V30 57085 O 1216.78 -8.41101 2.65469 0
M  V30 57086 O 1217.32 -6.4965 4.18908 0
M  V30 57087 C 1218.26 -5.81037 5.05421 0
M  V30 57088 C 1217.53 -4.78366 5.89277 0
M  V30 57089 O 1217.32 -3.58302 5.08433 0
M  V30 57090 C 1216.13 -5.17448 6.36119 0
M  V30 57091 O 1215.74 -4.45271 7.53232 0
M  V30 57092 C 1215.25 -4.74639 5.19936 0
M  V30 57093 C 1215.96 -3.49432 4.70418 0
M  V30 57094 N 1215.91 -3.31776 3.22945 0
M  V30 57095 H 1218.75 -6.54213 5.71376 0
M  V30 57096 H 1219.02 -5.30492 4.44033 0
M  V30 57097 H 1218.16 -4.55889 6.76652 0
M  V30 57098 P 1214.19 -4.23843 7.83734 0
M  V30 57099 O 1213.97 -4.19407 9.29784 0
M  V30 57100 O 1213.4 -5.24426 7.09156 0
M  V30 57101 O 1213.94 -2.7935 7.20758 0
M  V30 57102 C 1214.88 -1.7299 7.50419 0
M  V30 57103 C 1214.15 -0.406376 7.57911 0
M  V30 57104 O 1213.94 0.0897726 6.21935 0
M  V30 57105 C 1212.75 -0.447224 8.1878 0
M  V30 57106 O 1212.36 0.825065 8.71101 0
M  V30 57107 C 1211.87 -0.783801 6.99623 0
M  V30 57108 C 1212.58 -0.0619192 5.85967 0
M  V30 57109 N 1212.53 -0.7859 4.56281 0
M  V30 57110 C 1212.61 -2.14308 4.31736 0
M  V30 57111 N 1212.53 -2.46106 3.05116 0
M  V30 57112 C 1212.39 -1.23422 2.4014 0
M  V30 57113 C 1212.26 -0.938381 1.02409 0
M  V30 57114 N 1212.14 0.444647 0.805413 0
M  V30 57115 C 1212.14 1.40829 1.79435 0
M  V30 57116 N 1212.01 2.67213 1.38558 0
M  V30 57117 N 1212.27 1.12947 3.09005 0
M  V30 57118 C 1212.39 -0.204887 3.32369 0
M  V30 57119 H 1215.37 -1.93423 8.4679 0
M  V30 57120 H 1215.64 -1.68181 6.71046 0
M  V30 57121 H 1214.78 0.289041 8.15388 0
M  V30 57122 P 1210.81 1.17771 8.83182 0
M  V30 57123 O 1210.59 2.07206 9.98732 0
M  V30 57124 O 1210.02 -0.0743816 8.81969 0
M  V30 57125 O 1210.56 1.97652 7.47304 0
M  V30 57126 C 1211.5 3.01133 7.08783 0
M  V30 57127 C 1210.77 4.12613 6.37049 0
M  V30 57128 O 1210.56 3.72827 4.97879 0
M  V30 57129 C 1209.37 4.45085 6.88694 0
M  V30 57130 O 1208.98 5.7877 6.5624 0
M  V30 57131 C 1208.49 3.47817 6.12078 0
M  V30 57132 C 1209.2 3.39414 4.77697 0
M  V30 57133 N 1209.15 2.04615 4.15333 0
M  V30 57134 H 1211.99 3.41248 7.98759 0
M  V30 57135 H 1212.26 2.5837 6.41742 0
M  V30 57136 H 1211.4 5.02657 6.42673 0
M  V30 57137 P 1207.43 6.144 6.45285 0
M  V30 57138 O 1207.21 7.54673 6.86199 0
M  V30 57139 O 1206.64 5.12391 7.179 0
M  V30 57140 O 1207.18 5.99236 4.88467 0
M  V30 57141 C 1208.12 6.60234 3.96415 0
M  V30 57142 C 1207.39 7.08079 2.736 0
M  V30 57143 O 1207.18 5.94365 1.8368 0
M  V30 57144 C 1205.99 7.64886 2.9555 0
M  V30 57145 O 1205.6 8.5406 1.90739 0
M  V30 57146 C 1205.11 6.4116 2.90739 0
M  V30 57147 C 1205.82 5.55375 1.86963 0
M  V30 57148 N 1205.77 4.09664 2.15742 0
M  V30 57149 C 1205.62 3.22231 1.08477 0
M  V30 57150 O 1205.53 3.68951 -0.0600489 0
M  V30 57151 N 1205.57 1.76692 1.48799 0
M  V30 57152 C 1205.67 1.41695 2.57602 0
M  V30 57153 N 1205.62 0.107296 2.75791 0
M  V30 57154 C 1205.82 2.29178 3.69733 0
M  V30 57155 C 1205.87 3.62753 3.42653 0
M  V30 57156 H 1208.61 7.45488 4.45578 0
M  V30 57157 H 1208.88 5.86232 3.67314 0
M  V30 57158 H 1208.02 7.84508 2.24507 0
M  V30 57159 H 1205.36 5.73556 0.888715 0
M  V30 57160 H 1205.08 5.9096 3.88638 0
M  V30 57161 H 1204.09 6.66053 2.58894 0
M  V30 57162 H 1205.92 8.16339 3.92049 0
M  V30 57163 H 1206 4.33052 4.24913 0
M  V30 57164 H 1205.89 1.9103 4.71577 0
M  V30 57165 H 1205.51 -0.521221 1.95056 0
M  V30 57166 H 1205.7 -0.286429 3.70695 0
M  V30 57167 P 1204.05 8.7635 1.60911 0
M  V30 57168 O 1203.83 10.1388 1.11561 0
M  V30 57169 O 1203.26 8.36503 2.79617 0
M  V30 57170 O 1203.8 7.71806 0.42951 0
M  V30 57171 C 1204.74 7.67148 -0.673689 0
M  V30 57172 C 1204.01 7.33374 -1.95559 0
M  V30 57173 O 1203.8 5.88721 -2.00726 0
M  V30 57174 C 1202.61 7.92526 -2.10483 0
M  V30 57175 O 1202.22 8.02971 -3.47653 0
M  V30 57176 C 1201.73 6.89602 -1.41652 0
M  V30 57177 C 1202.44 5.59201 -1.75185 0
M  V30 57178 N 1202.39 4.58235 -0.662552 0
M  V30 57179 C 1202.47 4.7683 0.704049 0
M  V30 57180 N 1202.39 3.66233 1.39775 0
M  V30 57181 C 1202.25 2.66526 0.431739 0
M  V30 57182 C 1202.12 1.26394 0.575992 0
M  V30 57183 O 1202.1 0.589894 1.60503 0
M  V30 57184 N 1202 0.62859 -0.67177 0
M  V30 57185 C 1202 1.27134 -1.89385 0
M  V30 57186 N 1201.87 0.492035 -2.96951 0
M  V30 57187 N 1202.13 2.58978 -2.02907 0
M  V30 57188 C 1202.25 3.22433 -0.832218 0
M  V30 57189 H 1205.23 8.65116 -0.777161 0
M  V30 57190 H 1205.5 6.90173 -0.474152 0
M  V30 57191 H 1204.64 7.66548 -2.79458 0
M  V30 57192 H 1201.98 5.16254 -2.65229 0
M  V30 57193 H 1201.7 7.06532 -0.329431 0
M  V30 57194 H 1200.71 6.91023 -1.82047 0
M  V30 57195 H 1202.54 8.90971 -1.62675 0
M  V30 57196 H 1202.59 5.74954 1.16305 0
M  V30 57197 H 1201.91 -0.366713 -0.674793 0
M  V30 57198 H 1201.87 0.908532 -3.91188 0
M  V30 57199 H 1201.77 -0.528253 -2.85758 0
M  V30 57200 P 1200.67 8.03563 -3.84925 0
M  V30 57201 O 1200.45 8.85821 -5.0569 0
M  V30 57202 O 1199.88 8.41101 -2.65469 0
M  V30 57203 O 1200.42 6.4965 -4.18908 0
M  V30 57204 C 1201.36 5.81037 -5.05421 0
M  V30 57205 C 1200.63 4.78366 -5.89277 0
M  V30 57206 O 1200.42 3.58302 -5.08433 0
M  V30 57207 C 1199.23 5.17448 -6.36119 0
M  V30 57208 O 1198.84 4.45271 -7.53232 0
M  V30 57209 C 1198.35 4.74639 -5.19936 0
M  V30 57210 C 1199.06 3.49432 -4.70418 0
M  V30 57211 N 1199.01 3.31776 -3.22945 0
M  V30 57212 H 1201.85 6.54213 -5.71376 0
M  V30 57213 H 1202.12 5.30492 -4.44033 0
M  V30 57214 H 1201.26 4.55889 -6.76652 0
M  V30 57215 P 1197.29 4.23843 -7.83734 0
M  V30 57216 O 1197.07 4.19407 -9.29784 0
M  V30 57217 O 1196.5 5.24426 -7.09156 0
M  V30 57218 O 1197.04 2.7935 -7.20758 0
M  V30 57219 C 1197.98 1.7299 -7.50419 0
M  V30 57220 C 1197.25 0.406376 -7.57911 0
M  V30 57221 O 1197.04 -0.0897726 -6.21935 0
M  V30 57222 C 1195.85 0.447224 -8.1878 0
M  V30 57223 O 1195.46 -0.825065 -8.71101 0
M  V30 57224 C 1194.97 0.783801 -6.99623 0
M  V30 57225 C 1195.68 0.0619192 -5.85967 0
M  V30 57226 N 1195.63 0.7859 -4.56281 0
M  V30 57227 H 1198.47 1.93423 -8.4679 0
M  V30 57228 H 1198.74 1.68181 -6.71046 0
M  V30 57229 H 1197.88 -0.289041 -8.15388 0
M  V30 57230 P 1193.91 -1.17771 -8.83182 0
M  V30 57231 O 1193.69 -2.07206 -9.98732 0
M  V30 57232 O 1193.12 0.0743816 -8.81969 0
M  V30 57233 O 1193.66 -1.97652 -7.47304 0
M  V30 57234 C 1194.6 -3.01133 -7.08783 0
M  V30 57235 C 1193.87 -4.12613 -6.37049 0
M  V30 57236 O 1193.66 -3.72827 -4.97879 0
M  V30 57237 C 1192.47 -4.45085 -6.88694 0
M  V30 57238 O 1192.08 -5.7877 -6.5624 0
M  V30 57239 C 1191.59 -3.47817 -6.12078 0
M  V30 57240 C 1192.3 -3.39414 -4.77697 0
M  V30 57241 N 1192.25 -2.04615 -4.15333 0
M  V30 57242 C 1192.33 -0.803897 -4.75249 0
M  V30 57243 N 1192.25 0.197615 -3.91502 0
M  V30 57244 C 1192.11 -0.413002 -2.66823 0
M  V30 57245 C 1191.98 0.157221 -1.38007 0
M  V30 57246 O 1191.96 1.34419 -1.057 0
M  V30 57247 N 1191.86 -0.833136 -0.390236 0
M  V30 57248 C 1191.86 -2.19402 -0.623885 0
M  V30 57249 N 1191.73 -2.97622 0.449677 0
M  V30 57250 N 1191.99 -2.73005 -1.83601 0
M  V30 57251 C 1192.11 -1.78786 -2.80935 0
M  V30 57252 H 1195.09 -3.41248 -7.98759 0
M  V30 57253 H 1195.36 -2.5837 -6.41742 0
M  V30 57254 H 1194.5 -5.02657 -6.42673 0
M  V30 57255 H 1191.84 -4.11779 -4.09026 0
M  V30 57256 H 1191.56 -2.49661 -6.61772 0
M  V30 57257 H 1190.57 -3.86674 -6.00946 0
M  V30 57258 H 1192.4 -4.30038 -7.97094 0
M  V30 57259 H 1192.45 -0.670579 -5.82754 0
M  V30 57260 H 1191.77 -0.528446 0.557287 0
M  V30 57261 H 1191.73 -4.00117 0.344773 0
M  V30 57262 H 1191.63 -2.55448 1.38544 0
M  V30 57263 P 1190.53 -6.144 -6.45285 0
M  V30 57264 O 1190.31 -7.54673 -6.86199 0
M  V30 57265 O 1189.74 -5.12391 -7.179 0
M  V30 57266 O 1190.28 -5.99158 -4.88404 0
M  V30 57267 C 1191.22 -6.60234 -3.96415 0
M  V30 57268 C 1190.49 -7.08259 -2.72856 0
M  V30 57269 O 1190.28 -5.9427 -1.83651 0
M  V30 57270 C 1189.09 -7.64886 -2.9555 0
M  V30 57271 O 1188.7 -8.53963 -1.90717 0
M  V30 57272 C 1188.21 -6.4116 -2.90739 0
M  V30 57273 C 1188.92 -5.55375 -1.86963 0
M  V30 57274 N 1188.87 -4.09448 -2.16152 0
M  V30 57275 H 1191.71 -7.45574 -4.45629 0
M  V30 57276 H 1191.98 -5.85864 -3.679 0
M  V30 57277 H 1191.12 -7.84412 -2.24479 0
M  V30 57278 H 1188.46 -5.73457 -0.888562 0
M  V30 57279 H 1188.18 -5.90877 -3.88583 0
M  V30 57280 H 1187.19 -6.6596 -2.58858 0
M  V30 57281 H 1189.02 -8.16339 -3.92049 0
M  V30 57282 P 1187.15 -8.7635 -1.60911 0
M  V30 57283 O 1186.93 -10.1388 -1.11561 0
M  V30 57284 O 1186.36 -8.36503 -2.79617 0
M  V30 57285 O 1186.9 -7.71806 -0.42951 0
M  V30 57286 C 1187.84 -7.67148 0.673689 0
M  V30 57287 C 1187.11 -7.33374 1.95559 0
M  V30 57288 O 1186.9 -5.88721 2.00726 0
M  V30 57289 C 1185.71 -7.92526 2.10483 0
M  V30 57290 O 1185.32 -8.02971 3.47653 0
M  V30 57291 C 1184.83 -6.89602 1.41652 0
M  V30 57292 C 1185.54 -5.59201 1.75185 0
M  V30 57293 N 1185.49 -4.58235 0.662552 0
M  V30 57294 H 1188.33 -8.65116 0.777161 0
M  V30 57295 H 1188.6 -6.90173 0.474152 0
M  V30 57296 H 1187.74 -7.66548 2.79458 0
M  V30 57297 P 1183.77 -8.03563 3.84925 0
M  V30 57298 O 1183.55 -8.85821 5.0569 0
M  V30 57299 O 1182.98 -8.41101 2.65469 0
M  V30 57300 O 1183.52 -6.4965 4.18908 0
M  V30 57301 C 1184.46 -5.81037 5.05421 0
M  V30 57302 C 1183.73 -4.78366 5.89277 0
M  V30 57303 O 1183.52 -3.58302 5.08433 0
M  V30 57304 C 1182.33 -5.17448 6.36119 0
M  V30 57305 O 1181.94 -4.45271 7.53232 0
M  V30 57306 C 1181.45 -4.74639 5.19936 0
M  V30 57307 C 1182.16 -3.49432 4.70418 0
M  V30 57308 N 1182.11 -3.31776 3.22945 0
M  V30 57309 H 1184.95 -6.54213 5.71376 0
M  V30 57310 H 1185.22 -5.30492 4.44033 0
M  V30 57311 H 1184.36 -4.55889 6.76652 0
M  V30 57312 P 1180.39 -4.23843 7.83734 0
M  V30 57313 O 1180.17 -4.19407 9.29784 0
M  V30 57314 O 1179.6 -5.24426 7.09156 0
M  V30 57315 O 1180.14 -2.7935 7.20758 0
M  V30 57316 C 1181.08 -1.7299 7.50419 0
M  V30 57317 C 1180.35 -0.406376 7.57911 0
M  V30 57318 O 1180.14 0.0897726 6.21935 0
M  V30 57319 C 1178.95 -0.447224 8.1878 0
M  V30 57320 O 1178.56 0.825065 8.71101 0
M  V30 57321 C 1178.07 -0.783801 6.99623 0
M  V30 57322 C 1178.78 -0.0619192 5.85967 0
M  V30 57323 N 1178.73 -0.7859 4.56281 0
M  V30 57324 H 1181.57 -1.93423 8.4679 0
M  V30 57325 H 1181.84 -1.68181 6.71046 0
M  V30 57326 H 1180.98 0.289041 8.15388 0
M  V30 57327 P 1177.01 1.17771 8.83182 0
M  V30 57328 O 1176.79 2.07206 9.98732 0
M  V30 57329 O 1176.22 -0.0743816 8.81969 0
M  V30 57330 O 1176.76 1.97652 7.47304 0
M  V30 57331 C 1177.7 3.01133 7.08783 0
M  V30 57332 C 1176.97 4.12613 6.37049 0
M  V30 57333 O 1176.76 3.72827 4.97879 0
M  V30 57334 C 1175.57 4.45085 6.88694 0
M  V30 57335 O 1175.18 5.7877 6.5624 0
M  V30 57336 C 1174.69 3.47817 6.12078 0
M  V30 57337 C 1175.4 3.39414 4.77697 0
M  V30 57338 N 1175.35 2.04199 4.15538 0
M  V30 57339 C 1175.43 0.821545 4.76977 0
M  V30 57340 N 1175.36 -0.1794 3.94592 0
M  V30 57341 C 1175.21 0.419121 2.70776 0
M  V30 57342 C 1175.08 -0.109072 1.40577 0
M  V30 57343 N 1175.07 -1.4104 1.1344 0
M  V30 57344 N 1174.96 0.764381 0.39411 0
M  V30 57345 C 1174.97 2.06587 0.664135 0
M  V30 57346 N 1175.09 2.67948 1.82153 0
M  V30 57347 C 1175.21 1.77942 2.8147 0
M  V30 57348 H 1178.19 3.41248 7.98759 0
M  V30 57349 H 1178.46 2.57728 6.42 0
M  V30 57350 H 1177.6 5.02657 6.42673 0
M  V30 57351 H 1174.94 4.11708 4.08956 0
M  V30 57352 H 1174.66 2.49626 6.61679 0
M  V30 57353 H 1173.67 3.8662 6.00862 0
M  V30 57354 H 1175.5 4.29991 7.97006 0
M  V30 57355 H 1175.55 0.702451 5.84696 0
M  V30 57356 H 1175.16 -2.09647 1.89651 0
M  V30 57357 H 1174.98 -1.73358 0.160575 0
M  V30 57358 H 1174.87 2.71695 -0.195838 0
M  V30 57359 P 1173.63 6.144 6.45285 0
M  V30 57360 O 1173.41 7.54673 6.86199 0
M  V30 57361 O 1172.84 5.12391 7.179 0
M  V30 57362 O 1173.38 5.99158 4.88404 0
M  V30 57363 C 1174.32 6.60234 3.96415 0
M  V30 57364 C 1173.59 7.08259 2.72856 0
M  V30 57365 O 1173.38 5.9427 1.83651 0
M  V30 57366 C 1172.19 7.64886 2.9555 0
M  V30 57367 O 1171.8 8.53963 1.90717 0
M  V30 57368 C 1171.31 6.4116 2.90739 0
M  V30 57369 C 1172.02 5.55375 1.86963 0
M  V30 57370 N 1171.97 4.09448 2.16152 0
M  V30 57371 H 1174.81 7.45574 4.45629 0
M  V30 57372 H 1175.08 5.85864 3.679 0
M  V30 57373 H 1174.22 7.84412 2.24479 0
M  V30 57374 H 1171.56 5.73457 0.888562 0
M  V30 57375 H 1171.28 5.90877 3.88583 0
M  V30 57376 H 1170.29 6.6596 2.58858 0
M  V30 57377 H 1172.12 8.16339 3.92049 0
M  V30 57378 P 1170.25 8.7635 1.60911 0
M  V30 57379 O 1170.03 10.1388 1.11561 0
M  V30 57380 O 1169.46 8.36503 2.79617 0
M  V30 57381 O 1170 7.71806 0.42951 0
M  V30 57382 C 1170.94 7.67148 -0.673689 0
M  V30 57383 C 1170.21 7.33374 -1.95559 0
M  V30 57384 O 1170 5.88721 -2.00726 0
M  V30 57385 C 1168.81 7.92526 -2.10483 0
M  V30 57386 O 1168.42 8.02971 -3.47653 0
M  V30 57387 C 1167.93 6.89602 -1.41652 0
M  V30 57388 C 1168.64 5.59201 -1.75185 0
M  V30 57389 N 1168.59 4.58301 -0.657969 0
M  V30 57390 H 1171.43 8.65116 -0.777161 0
M  V30 57391 H 1171.7 6.9022 -0.46725 0
M  V30 57392 H 1170.84 7.66548 -2.79458 0
M  V30 57393 H 1168.18 5.16165 -2.65183 0
M  V30 57394 H 1167.9 7.06433 -0.329384 0
M  V30 57395 H 1166.91 6.90926 -1.82021 0
M  V30 57396 H 1168.74 8.90873 -1.62657 0
M  V30 57397 P 1166.87 8.03563 -3.84925 0
M  V30 57398 O 1166.65 8.85821 -5.0569 0
M  V30 57399 O 1166.08 8.41101 -2.65469 0
M  V30 57400 O 1166.62 6.4965 -4.18908 0
M  V30 57401 C 1167.56 5.81037 -5.05421 0
M  V30 57402 C 1166.83 4.78366 -5.89277 0
M  V30 57403 O 1166.62 3.58302 -5.08433 0
M  V30 57404 C 1165.43 5.17448 -6.36119 0
M  V30 57405 O 1165.04 4.45271 -7.53232 0
M  V30 57406 C 1164.55 4.74639 -5.19936 0
M  V30 57407 C 1165.26 3.49432 -4.70418 0
M  V30 57408 N 1165.21 3.31776 -3.22945 0
M  V30 57409 H 1168.05 6.54213 -5.71376 0
M  V30 57410 H 1168.32 5.30492 -4.44033 0
M  V30 57411 H 1167.46 4.55889 -6.76652 0
M  V30 57412 P 1163.49 4.23843 -7.83734 0
M  V30 57413 O 1163.27 4.19407 -9.29784 0
M  V30 57414 O 1162.7 5.24426 -7.09156 0
M  V30 57415 O 1163.24 2.7935 -7.20758 0
M  V30 57416 C 1164.18 1.7299 -7.50419 0
M  V30 57417 C 1163.45 0.406376 -7.57911 0
M  V30 57418 O 1163.24 -0.0897726 -6.21935 0
M  V30 57419 C 1162.05 0.447224 -8.1878 0
M  V30 57420 O 1161.66 -0.825065 -8.71101 0
M  V30 57421 C 1161.17 0.783801 -6.99623 0
M  V30 57422 C 1161.88 0.0619192 -5.85967 0
M  V30 57423 N 1161.83 0.7859 -4.56281 0
M  V30 57424 H 1164.67 1.93423 -8.4679 0
M  V30 57425 H 1164.94 1.68181 -6.71046 0
M  V30 57426 H 1164.08 -0.289041 -8.15388 0
M  V30 57427 P 1160.11 -1.17771 -8.83182 0
M  V30 57428 O 1159.89 -2.07206 -9.98732 0
M  V30 57429 O 1159.32 0.0743816 -8.81969 0
M  V30 57430 O 1159.86 -1.97652 -7.47304 0
M  V30 57431 C 1160.8 -3.01133 -7.08783 0
M  V30 57432 C 1160.07 -4.12613 -6.37049 0
M  V30 57433 O 1159.86 -3.72827 -4.97879 0
M  V30 57434 C 1158.67 -4.45085 -6.88694 0
M  V30 57435 O 1158.28 -5.7877 -6.5624 0
M  V30 57436 C 1157.79 -3.47817 -6.12078 0
M  V30 57437 C 1158.5 -3.39414 -4.77697 0
M  V30 57438 N 1158.45 -2.04615 -4.15333 0
M  V30 57439 H 1161.29 -3.41248 -7.98759 0
M  V30 57440 H 1161.56 -2.5837 -6.41742 0
M  V30 57441 H 1160.7 -5.02657 -6.42673 0
M  V30 57442 P 1156.73 -6.144 -6.45285 0
M  V30 57443 O 1156.51 -7.54673 -6.86199 0
M  V30 57444 O 1155.94 -5.12391 -7.179 0
M  V30 57445 O 1156.48 -5.99158 -4.88404 0
M  V30 57446 C 1157.42 -6.60234 -3.96415 0
M  V30 57447 C 1156.69 -7.08259 -2.72856 0
M  V30 57448 O 1156.48 -5.9427 -1.83651 0
M  V30 57449 C 1155.29 -7.64886 -2.9555 0
M  V30 57450 O 1154.9 -8.53963 -1.90717 0
M  V30 57451 C 1154.41 -6.4116 -2.90739 0
M  V30 57452 C 1155.12 -5.55375 -1.86963 0
M  V30 57453 N 1155.07 -4.09448 -2.16152 0
M  V30 57454 C 1155.15 -3.46824 -3.37593 0
M  V30 57455 N 1155.08 -2.17422 -3.29777 0
M  V30 57456 C 1154.93 -1.93065 -1.94427 0
M  V30 57457 C 1154.8 -0.738053 -1.20141 0
M  V30 57458 N 1154.79 0.474256 -1.74676 0
M  V30 57459 N 1154.68 -0.850049 0.13045 0
M  V30 57460 C 1154.69 -2.06169 0.676992 0
M  V30 57461 N 1154.81 -3.23842 0.101312 0
M  V30 57462 C 1154.93 -3.09402 -1.23122 0
M  V30 57463 H 1157.91 -7.45574 -4.45629 0
M  V30 57464 H 1158.18 -5.85864 -3.679 0
M  V30 57465 H 1157.32 -7.84412 -2.24479 0
M  V30 57466 H 1154.66 -5.73457 -0.888562 0
M  V30 57467 H 1154.38 -5.90877 -3.88583 0
M  V30 57468 H 1153.39 -6.6596 -2.58858 0
M  V30 57469 H 1155.22 -8.16339 -3.92049 0
M  V30 57470 H 1155.27 -4.00505 -4.3174 0
M  V30 57471 H 1154.88 0.581337 -2.76658 0
M  V30 57472 H 1154.7 1.30811 -1.14888 0
M  V30 57473 H 1154.59 -2.08295 1.75542 0
M  V30 57474 P 1153.35 -8.7635 -1.60911 0
M  V30 57475 O 1153.13 -10.1388 -1.11561 0
M  V30 57476 O 1152.56 -8.36503 -2.79617 0
M  V30 57477 O 1153.1 -7.71806 -0.42951 0
M  V30 57478 C 1154.04 -7.67148 0.673689 0
M  V30 57479 C 1153.31 -7.33374 1.95559 0
M  V30 57480 O 1153.1 -5.88721 2.00726 0
M  V30 57481 C 1151.91 -7.92526 2.10483 0
M  V30 57482 O 1151.52 -8.02971 3.47653 0
M  V30 57483 C 1151.03 -6.89602 1.41652 0
M  V30 57484 C 1151.74 -5.59201 1.75185 0
M  V30 57485 N 1151.69 -4.58301 0.657969 0
M  V30 57486 H 1154.53 -8.65116 0.777161 0
M  V30 57487 H 1154.8 -6.9022 0.46725 0
M  V30 57488 H 1153.94 -7.66548 2.79458 0
M  V30 57489 H 1151.28 -5.16165 2.65183 0
M  V30 57490 H 1151 -7.06433 0.329384 0
M  V30 57491 H 1150.01 -6.90926 1.82021 0
M  V30 57492 H 1151.84 -8.90873 1.62657 0
M  V30 57493 P 1149.97 -8.03563 3.84925 0
M  V30 57494 O 1149.75 -8.85821 5.0569 0
M  V30 57495 O 1149.18 -8.41101 2.65469 0
M  V30 57496 O 1149.72 -6.4965 4.18908 0
M  V30 57497 C 1150.66 -5.80886 5.05289 0
M  V30 57498 C 1149.93 -4.78366 5.89277 0
M  V30 57499 O 1149.72 -3.58302 5.08433 0
M  V30 57500 C 1148.53 -5.16748 6.36559 0
M  V30 57501 O 1148.14 -4.45271 7.53232 0
M  V30 57502 C 1147.65 -4.74572 5.19863 0
M  V30 57503 C 1148.36 -3.49373 4.70338 0
M  V30 57504 N 1148.31 -3.31704 3.22876 0
M  V30 57505 C 1148.16 -2.03326 2.74871 0
M  V30 57506 O 1148.07 -1.06486 3.48076 0
M  V30 57507 N 1148.12 -1.91838 1.37456 0
M  V30 57508 C 1148.21 -2.94295 0.462035 0
M  V30 57509 O 1148.16 -2.71763 -0.752928 0
M  V30 57510 C 1148.36 -4.25064 1.05249 0
M  V30 57511 C 1148.47 -5.39815 0.095697 0
M  V30 57512 C 1148.41 -4.40214 2.39192 0
M  V30 57513 H 1151.15 -6.54063 5.71245 0
M  V30 57514 H 1151.42 -5.30339 4.43905 0
M  V30 57515 H 1150.56 -4.55889 6.76652 0
M  V30 57516 H 1147.9 -2.6167 5.17842 0
M  V30 57517 H 1147.62 -5.52155 4.41878 0
M  V30 57518 H 1146.63 -4.51918 5.53297 0
M  V30 57519 H 1148.46 -6.25055 6.55162 0
M  V30 57520 H 1148.54 -5.39798 2.81523 0
M  V30 57521 H 1147.51 -5.91593 0.0279582 0
M  V30 57522 H 1149.24 -6.10038 0.450573 0
M  V30 57523 H 1148.75 -5.02007 -0.89937 0
M  V30 57524 H 1148.02 -0.995326 1.00435 0
M  V30 57525 P 1146.59 -4.23843 7.83734 0
M  V30 57526 O 1146.37 -4.19407 9.29784 0
M  V30 57527 O 1145.8 -5.24426 7.09156 0
M  V30 57528 O 1146.34 -2.7935 7.20758 0
M  V30 57529 C 1147.28 -1.72945 7.50224 0
M  V30 57530 C 1146.55 -0.406376 7.57911 0
M  V30 57531 O 1146.34 0.0897726 6.21935 0
M  V30 57532 C 1145.15 -0.438983 8.18724 0
M  V30 57533 O 1144.76 0.825065 8.71101 0
M  V30 57534 C 1144.27 -0.783689 6.99524 0
M  V30 57535 C 1144.98 -0.0619086 5.85867 0
M  V30 57536 N 1144.93 -0.78573 4.56183 0
M  V30 57537 C 1144.78 -0.0292889 3.41887 0
M  V30 57538 O 1144.69 1.18445 3.4419 0
M  V30 57539 N 1144.74 -0.744061 2.23964 0
M  V30 57540 C 1144.83 -2.10932 2.10362 0
M  V30 57541 C 1144.98 -2.8202 3.34994 0
M  V30 57542 C 1145.03 -2.15547 4.52261 0
M  V30 57543 H 1147.77 -1.93379 8.46595 0
M  V30 57544 H 1148.04 -1.68132 6.70852 0
M  V30 57545 H 1147.18 0.289041 8.15388 0
M  V30 57546 H 1144.52 0.926847 5.72749 0
M  V30 57547 H 1144.24 -1.86973 6.82036 0
M  V30 57548 H 1143.25 -0.403896 7.13257 0
M  V30 57549 H 1145.08 -1.20585 8.97435 0
M  V30 57550 H 1145.16 -2.71231 5.45042 0
M  V30 57551 P 1143.21 1.17771 8.83182 0
M  V30 57552 O 1142.99 2.07206 9.98732 0
M  V30 57553 O 1142.42 -0.0743816 8.81969 0
M  V30 57554 O 1142.96 1.97652 7.47304 0
M  V30 57555 C 1143.9 3.01055 7.08599 0
M  V30 57556 C 1143.17 4.12613 6.37049 0
M  V30 57557 O 1142.96 3.72827 4.97879 0
M  V30 57558 C 1141.77 4.45719 6.88164 0
M  V30 57559 O 1141.38 5.7877 6.5624 0
M  V30 57560 C 1140.89 3.47768 6.11991 0
M  V30 57561 C 1141.6 3.39356 4.77615 0
M  V30 57562 N 1141.55 2.04571 4.15244 0
M  V30 57563 C 1141.4 1.98587 2.78314 0
M  V30 57564 O 1141.31 2.98134 2.08835 0
M  V30 57565 N 1141.36 0.714467 2.24925 0
M  V30 57566 C 1141.45 -0.470001 2.94169 0
M  V30 57567 O 1141.4 -1.55587 2.35195 0
M  V30 57568 C 1141.6 -0.312541 4.36783 0
M  V30 57569 C 1141.71 -1.57711 5.16352 0
M  V30 57570 C 1141.65 0.914512 4.92583 0
M  V30 57571 H 1144.39 3.41169 7.98575 0
M  V30 57572 H 1144.66 2.58295 6.41556 0
M  V30 57573 H 1143.8 5.02657 6.42673 0
M  V30 57574 H 1141.14 4.11637 4.08885 0
M  V30 57575 H 1140.86 2.49626 6.61679 0
M  V30 57576 H 1139.87 3.86566 6.00778 0
M  V30 57577 H 1141.7 4.29943 7.96918 0
M  V30 57578 H 1141.78 1.00937 6.00374 0
M  V30 57579 H 1140.75 -1.80153 5.63503 0
M  V30 57580 H 1142.48 -1.4566 5.94104 0
M  V30 57581 H 1141.99 -2.40664 4.49645 0
M  V30 57582 H 1141.26 0.647622 1.25697 0
M  V30 57583 P 1139.83 6.144 6.45285 0
M  V30 57584 O 1139.61 7.54673 6.86199 0
M  V30 57585 O 1139.04 5.12391 7.179 0
M  V30 57586 O 1139.58 5.99158 4.88404 0
M  V30 57587 C 1140.52 6.60234 3.96415 0
M  V30 57588 C 1139.79 7.08259 2.72856 0
M  V30 57589 O 1139.58 5.9427 1.83651 0
M  V30 57590 C 1138.39 7.64886 2.9555 0
M  V30 57591 O 1138 8.53963 1.90717 0
M  V30 57592 C 1137.51 6.4116 2.90739 0
M  V30 57593 C 1138.22 5.55375 1.86963 0
M  V30 57594 N 1138.17 4.09664 2.15742 0
M  V30 57595 H 1141.01 7.45574 4.45629 0
M  V30 57596 H 1141.28 5.86232 3.67314 0
M  V30 57597 H 1140.42 7.84412 2.24479 0
M  V30 57598 P 1136.45 8.7635 1.60911 0
M  V30 57599 O 1136.23 10.1388 1.11561 0
M  V30 57600 O 1135.66 8.36503 2.79617 0
M  V30 57601 O 1136.2 7.71806 0.42951 0
M  V30 57602 C 1137.14 7.67148 -0.673689 0
M  V30 57603 C 1136.41 7.33374 -1.95559 0
M  V30 57604 O 1136.2 5.88721 -2.00726 0
M  V30 57605 C 1135.01 7.92526 -2.10483 0
M  V30 57606 O 1134.62 8.02971 -3.47653 0
M  V30 57607 C 1134.13 6.89602 -1.41652 0
M  V30 57608 C 1134.84 5.59201 -1.75185 0
M  V30 57609 N 1134.79 4.58301 -0.657969 0
M  V30 57610 H 1137.63 8.65116 -0.777161 0
M  V30 57611 H 1137.9 6.9022 -0.46725 0
M  V30 57612 H 1137.04 7.66548 -2.79458 0
M  V30 57613 H 1134.38 5.16165 -2.65183 0
M  V30 57614 H 1134.1 7.06433 -0.329384 0
M  V30 57615 H 1133.11 6.90926 -1.82021 0
M  V30 57616 H 1134.94 8.90873 -1.62657 0
M  V30 57617 P 1133.07 8.03563 -3.84925 0
M  V30 57618 O 1132.85 8.85821 -5.0569 0
M  V30 57619 O 1132.28 8.41101 -2.65469 0
M  V30 57620 O 1132.82 6.4965 -4.18908 0
M  V30 57621 C 1133.76 5.81037 -5.05421 0
M  V30 57622 C 1133.03 4.78366 -5.89277 0
M  V30 57623 O 1132.82 3.58302 -5.08433 0
M  V30 57624 C 1131.63 5.17448 -6.36119 0
M  V30 57625 O 1131.24 4.45271 -7.53232 0
M  V30 57626 C 1130.75 4.74639 -5.19936 0
M  V30 57627 C 1131.46 3.49432 -4.70418 0
M  V30 57628 N 1131.41 3.32099 -3.22613 0
M  V30 57629 H 1134.25 6.54213 -5.71376 0
M  V30 57630 H 1134.52 5.30936 -4.43503 0
M  V30 57631 H 1133.66 4.55889 -6.76652 0
M  V30 57632 H 1131 2.61715 -5.17932 0
M  V30 57633 H 1130.72 5.52155 -4.41878 0
M  V30 57634 H 1129.73 4.51981 -5.53374 0
M  V30 57635 H 1131.56 6.25124 -6.55234 0
M  V30 57636 P 1129.69 4.23843 -7.83734 0
M  V30 57637 O 1129.47 4.19407 -9.29784 0
M  V30 57638 O 1128.9 5.24426 -7.09156 0
M  V30 57639 O 1129.44 2.7935 -7.20758 0
M  V30 57640 C 1130.38 1.7299 -7.50419 0
M  V30 57641 C 1129.65 0.406376 -7.57911 0
M  V30 57642 O 1129.44 -0.0897726 -6.21935 0
M  V30 57643 C 1128.25 0.447224 -8.1878 0
M  V30 57644 O 1127.86 -0.825065 -8.71101 0
M  V30 57645 C 1127.37 0.783801 -6.99623 0
M  V30 57646 C 1128.08 0.0619192 -5.85967 0
M  V30 57647 N 1128.03 0.7859 -4.56281 0
M  V30 57648 H 1130.87 1.93423 -8.4679 0
M  V30 57649 H 1131.14 1.68181 -6.71046 0
M  V30 57650 H 1130.28 -0.289041 -8.15388 0
M  V30 57651 P 1126.31 -1.17771 -8.83182 0
M  V30 57652 O 1126.09 -2.07206 -9.98732 0
M  V30 57653 O 1125.52 0.0743816 -8.81969 0
M  V30 57654 O 1126.06 -1.97652 -7.47304 0
M  V30 57655 C 1127 -3.01133 -7.08783 0
M  V30 57656 C 1126.27 -4.12613 -6.37049 0
M  V30 57657 O 1126.06 -3.72827 -4.97879 0
M  V30 57658 C 1124.87 -4.45085 -6.88694 0
M  V30 57659 O 1124.48 -5.7877 -6.5624 0
M  V30 57660 C 1123.99 -3.47817 -6.12078 0
M  V30 57661 C 1124.7 -3.39414 -4.77697 0
M  V30 57662 N 1124.65 -2.04199 -4.15538 0
M  V30 57663 C 1124.73 -0.821545 -4.76977 0
M  V30 57664 N 1124.66 0.1794 -3.94592 0
M  V30 57665 C 1124.51 -0.419121 -2.70776 0
M  V30 57666 C 1124.38 0.109072 -1.40577 0
M  V30 57667 N 1124.37 1.4104 -1.1344 0
M  V30 57668 N 1124.26 -0.764381 -0.39411 0
M  V30 57669 C 1124.27 -2.06587 -0.664135 0
M  V30 57670 N 1124.39 -2.67948 -1.82153 0
M  V30 57671 C 1124.51 -1.77942 -2.8147 0
M  V30 57672 H 1127.49 -3.41248 -7.98759 0
M  V30 57673 H 1127.76 -2.57728 -6.42 0
M  V30 57674 H 1126.9 -5.02657 -6.42673 0
M  V30 57675 H 1124.24 -4.11708 -4.08956 0
M  V30 57676 H 1123.96 -2.49626 -6.61679 0
M  V30 57677 H 1122.97 -3.8662 -6.00862 0
M  V30 57678 H 1124.8 -4.29991 -7.97006 0
M  V30 57679 H 1124.85 -0.702451 -5.84696 0
M  V30 57680 H 1124.46 2.09647 -1.89651 0
M  V30 57681 H 1124.28 1.73358 -0.160575 0
M  V30 57682 H 1124.17 -2.71695 0.195838 0
M  V30 57683 P 1122.93 -6.144 -6.45285 0
M  V30 57684 O 1122.71 -7.54673 -6.86199 0
M  V30 57685 O 1122.14 -5.12391 -7.179 0
M  V30 57686 O 1122.68 -5.99158 -4.88404 0
M  V30 57687 C 1123.62 -6.60234 -3.96415 0
M  V30 57688 C 1122.89 -7.08259 -2.72856 0
M  V30 57689 O 1122.68 -5.9427 -1.83651 0
M  V30 57690 C 1121.49 -7.64886 -2.9555 0
M  V30 57691 O 1121.1 -8.53963 -1.90717 0
M  V30 57692 C 1120.61 -6.4116 -2.90739 0
M  V30 57693 C 1121.32 -5.55375 -1.86963 0
M  V30 57694 N 1121.27 -4.09664 -2.15742 0
M  V30 57695 H 1124.11 -7.45574 -4.45629 0
M  V30 57696 H 1124.38 -5.86232 -3.67314 0
M  V30 57697 H 1123.52 -7.84412 -2.24479 0
M  V30 57698 P 1119.55 -8.7635 -1.60911 0
M  V30 57699 O 1119.33 -10.1388 -1.11561 0
M  V30 57700 O 1118.76 -8.36503 -2.79617 0
M  V30 57701 O 1119.3 -7.71806 -0.42951 0
M  V30 57702 C 1120.24 -7.67148 0.673689 0
M  V30 57703 C 1119.51 -7.33374 1.95559 0
M  V30 57704 O 1119.3 -5.88721 2.00726 0
M  V30 57705 C 1118.11 -7.92526 2.10483 0
M  V30 57706 O 1117.72 -8.02971 3.47653 0
M  V30 57707 C 1117.23 -6.89602 1.41652 0
M  V30 57708 C 1117.94 -5.59201 1.75185 0
M  V30 57709 N 1117.89 -4.58235 0.662552 0
M  V30 57710 H 1120.73 -8.65116 0.777161 0
M  V30 57711 H 1121 -6.90173 0.474152 0
M  V30 57712 H 1120.14 -7.66548 2.79458 0
M  V30 57713 P 1116.17 -8.03563 3.84925 0
M  V30 57714 O 1115.95 -8.85821 5.0569 0
M  V30 57715 O 1115.38 -8.41101 2.65469 0
M  V30 57716 O 1115.92 -6.4965 4.18908 0
M  V30 57717 C 1116.86 -5.81037 5.05421 0
M  V30 57718 C 1116.13 -4.78366 5.89277 0
M  V30 57719 O 1115.92 -3.58302 5.08433 0
M  V30 57720 C 1114.73 -5.17448 6.36119 0
M  V30 57721 O 1114.34 -4.45271 7.53232 0
M  V30 57722 C 1113.85 -4.74639 5.19936 0
M  V30 57723 C 1114.56 -3.49432 4.70418 0
M  V30 57724 N 1114.51 -3.32099 3.22613 0
M  V30 57725 H 1117.35 -6.54213 5.71376 0
M  V30 57726 H 1117.62 -5.30936 4.43503 0
M  V30 57727 H 1116.76 -4.55889 6.76652 0
M  V30 57728 H 1114.1 -2.61715 5.17932 0
M  V30 57729 H 1113.82 -5.52155 4.41878 0
M  V30 57730 H 1112.83 -4.51981 5.53374 0
M  V30 57731 H 1114.66 -6.25124 6.55234 0
M  V30 57732 P 1112.79 -4.23843 7.83734 0
M  V30 57733 O 1112.57 -4.19407 9.29784 0
M  V30 57734 O 1112 -5.24426 7.09156 0
M  V30 57735 O 1112.54 -2.7935 7.20758 0
M  V30 57736 C 1113.48 -1.7299 7.50419 0
M  V30 57737 C 1112.75 -0.406376 7.57911 0
M  V30 57738 O 1112.54 0.0897726 6.21935 0
M  V30 57739 C 1111.35 -0.447224 8.1878 0
M  V30 57740 O 1110.96 0.825065 8.71101 0
M  V30 57741 C 1110.47 -0.783801 6.99623 0
M  V30 57742 C 1111.18 -0.0619192 5.85967 0
M  V30 57743 N 1111.13 -0.7859 4.56281 0
M  V30 57744 H 1113.97 -1.93423 8.4679 0
M  V30 57745 H 1114.24 -1.68181 6.71046 0
M  V30 57746 H 1113.38 0.289041 8.15388 0
M  V30 57747 P 1109.41 1.17771 8.83182 0
M  V30 57748 O 1109.19 2.07206 9.98732 0
M  V30 57749 O 1108.62 -0.0743816 8.81969 0
M  V30 57750 O 1109.16 1.97652 7.47304 0
M  V30 57751 C 1110.1 3.01133 7.08783 0
M  V30 57752 C 1109.37 4.12613 6.37049 0
M  V30 57753 O 1109.16 3.72827 4.97879 0
M  V30 57754 C 1107.97 4.45085 6.88694 0
M  V30 57755 O 1107.58 5.7877 6.5624 0
M  V30 57756 C 1107.09 3.47817 6.12078 0
M  V30 57757 C 1107.8 3.39414 4.77697 0
M  V30 57758 N 1107.75 2.04199 4.15538 0
M  V30 57759 C 1107.83 0.821545 4.76977 0
M  V30 57760 N 1107.76 -0.1794 3.94592 0
M  V30 57761 C 1107.61 0.419121 2.70776 0
M  V30 57762 C 1107.48 -0.109072 1.40577 0
M  V30 57763 N 1107.47 -1.4104 1.1344 0
M  V30 57764 N 1107.36 0.764381 0.39411 0
M  V30 57765 C 1107.37 2.06587 0.664135 0
M  V30 57766 N 1107.49 2.67948 1.82153 0
M  V30 57767 C 1107.61 1.77942 2.8147 0
M  V30 57768 H 1110.59 3.41248 7.98759 0
M  V30 57769 H 1110.86 2.57728 6.42 0
M  V30 57770 H 1110 5.02657 6.42673 0
M  V30 57771 H 1107.34 4.11708 4.08956 0
M  V30 57772 H 1107.06 2.49626 6.61679 0
M  V30 57773 H 1106.07 3.8662 6.00862 0
M  V30 57774 H 1107.9 4.29991 7.97006 0
M  V30 57775 H 1107.95 0.702451 5.84696 0
M  V30 57776 H 1107.56 -2.09647 1.89651 0
M  V30 57777 H 1107.38 -1.73358 0.160575 0
M  V30 57778 H 1107.27 2.71695 -0.195838 0
M  V30 57779 P 1106.03 6.144 6.45285 0
M  V30 57780 O 1105.81 7.54673 6.86199 0
M  V30 57781 O 1105.24 5.12391 7.179 0
M  V30 57782 O 1105.78 5.99158 4.88404 0
M  V30 57783 C 1106.72 6.60234 3.96415 0
M  V30 57784 C 1105.99 7.08259 2.72856 0
M  V30 57785 O 1105.78 5.9427 1.83651 0
M  V30 57786 C 1104.59 7.64886 2.9555 0
M  V30 57787 O 1104.2 8.53963 1.90717 0
M  V30 57788 C 1103.71 6.4116 2.90739 0
M  V30 57789 C 1104.42 5.55375 1.86963 0
M  V30 57790 N 1104.37 4.09448 2.16152 0
M  V30 57791 C 1104.45 3.46824 3.37593 0
M  V30 57792 N 1104.38 2.17422 3.29777 0
M  V30 57793 C 1104.23 1.93065 1.94427 0
M  V30 57794 C 1104.1 0.738053 1.20141 0
M  V30 57795 N 1104.09 -0.474256 1.74676 0
M  V30 57796 N 1103.98 0.850049 -0.13045 0
M  V30 57797 C 1103.99 2.06169 -0.676992 0
M  V30 57798 N 1104.11 3.23842 -0.101312 0
M  V30 57799 C 1104.23 3.09402 1.23122 0
M  V30 57800 H 1107.21 7.45574 4.45629 0
M  V30 57801 H 1107.48 5.85864 3.679 0
M  V30 57802 H 1106.62 7.84412 2.24479 0
M  V30 57803 H 1103.96 5.73457 0.888562 0
M  V30 57804 H 1103.68 5.90877 3.88583 0
M  V30 57805 H 1102.69 6.6596 2.58858 0
M  V30 57806 H 1104.52 8.16339 3.92049 0
M  V30 57807 H 1104.57 4.00505 4.3174 0
M  V30 57808 H 1104.18 -0.581337 2.76658 0
M  V30 57809 H 1104 -1.30811 1.14888 0
M  V30 57810 H 1103.89 2.08295 -1.75542 0
M  V30 57811 P 1102.65 8.7635 1.60911 0
M  V30 57812 O 1102.43 10.1388 1.11561 0
M  V30 57813 O 1101.86 8.36503 2.79617 0
M  V30 57814 O 1102.4 7.71806 0.42951 0
M  V30 57815 C 1103.34 7.67148 -0.673689 0
M  V30 57816 C 1102.61 7.33374 -1.95559 0
M  V30 57817 O 1102.4 5.88721 -2.00726 0
M  V30 57818 C 1101.21 7.92526 -2.10483 0
M  V30 57819 O 1100.82 8.02971 -3.47653 0
M  V30 57820 C 1100.33 6.89602 -1.41652 0
M  V30 57821 C 1101.04 5.59201 -1.75185 0
M  V30 57822 N 1100.99 4.58301 -0.657969 0
M  V30 57823 H 1103.83 8.65116 -0.777161 0
M  V30 57824 H 1104.1 6.9022 -0.46725 0
M  V30 57825 H 1103.24 7.66548 -2.79458 0
M  V30 57826 H 1100.58 5.16165 -2.65183 0
M  V30 57827 H 1100.3 7.06433 -0.329384 0
M  V30 57828 H 1099.31 6.90926 -1.82021 0
M  V30 57829 H 1101.14 8.90873 -1.62657 0
M  V30 57830 P 1099.27 8.03563 -3.84925 0
M  V30 57831 O 1099.05 8.85821 -5.0569 0
M  V30 57832 O 1098.48 8.41101 -2.65469 0
M  V30 57833 O 1099.02 6.4965 -4.18908 0
M  V30 57834 C 1099.96 5.80886 -5.05289 0
M  V30 57835 C 1099.23 4.78366 -5.89277 0
M  V30 57836 O 1099.02 3.58302 -5.08433 0
M  V30 57837 C 1097.83 5.16748 -6.36559 0
M  V30 57838 O 1097.44 4.45271 -7.53232 0
M  V30 57839 C 1096.95 4.74572 -5.19863 0
M  V30 57840 C 1097.66 3.49373 -4.70338 0
M  V30 57841 N 1097.61 3.31704 -3.22876 0
M  V30 57842 C 1097.46 2.03326 -2.74871 0
M  V30 57843 O 1097.37 1.06486 -3.48076 0
M  V30 57844 N 1097.42 1.91838 -1.37456 0
M  V30 57845 C 1097.51 2.94295 -0.462035 0
M  V30 57846 C 1097.66 4.25064 -1.05249 0
M  V30 57847 C 1097.71 4.40214 -2.39192 0
M  V30 57848 H 1100.45 6.54063 -5.71245 0
M  V30 57849 H 1100.72 5.30339 -4.43905 0
M  V30 57850 H 1099.86 4.55889 -6.76652 0
M  V30 57851 H 1097.2 2.6167 -5.17842 0
M  V30 57852 H 1096.92 5.52155 -4.41878 0
M  V30 57853 H 1095.93 4.51918 -5.53297 0
M  V30 57854 H 1097.76 6.25055 -6.55162 0
M  V30 57855 H 1097.84 5.39798 -2.81523 0
M  V30 57856 P 1095.89 4.23843 -7.83734 0
M  V30 57857 O 1095.67 4.19407 -9.29784 0
M  V30 57858 O 1095.1 5.24426 -7.09156 0
M  V30 57859 O 1095.64 2.7935 -7.20758 0
M  V30 57860 C 1096.58 1.72945 -7.50224 0
M  V30 57861 C 1095.85 0.406376 -7.57911 0
M  V30 57862 O 1095.64 -0.0897726 -6.21935 0
M  V30 57863 C 1094.45 0.438983 -8.18724 0
M  V30 57864 O 1094.06 -0.825065 -8.71101 0
M  V30 57865 C 1093.57 0.783689 -6.99524 0
M  V30 57866 C 1094.28 0.0619086 -5.85867 0
M  V30 57867 N 1094.23 0.78573 -4.56183 0
M  V30 57868 C 1094.08 0.0292889 -3.41887 0
M  V30 57869 O 1093.99 -1.18445 -3.4419 0
M  V30 57870 N 1094.04 0.744061 -2.23964 0
M  V30 57871 C 1094.13 2.10932 -2.10362 0
M  V30 57872 C 1094.28 2.8202 -3.34994 0
M  V30 57873 C 1094.33 2.15547 -4.52261 0
M  V30 57874 H 1097.07 1.93379 -8.46595 0
M  V30 57875 H 1097.34 1.68132 -6.70852 0
M  V30 57876 H 1096.48 -0.289041 -8.15388 0
M  V30 57877 H 1093.82 -0.926847 -5.72749 0
M  V30 57878 H 1093.54 1.86973 -6.82036 0
M  V30 57879 H 1092.55 0.403896 -7.13257 0
M  V30 57880 H 1094.38 1.20585 -8.97435 0
M  V30 57881 H 1094.46 2.71231 -5.45042 0
M  V30 57882 P 1092.51 -1.17771 -8.83182 0
M  V30 57883 O 1092.29 -2.07206 -9.98732 0
M  V30 57884 O 1091.72 0.0743816 -8.81969 0
M  V30 57885 O 1092.26 -1.97652 -7.47304 0
M  V30 57886 C 1093.2 -3.01133 -7.08783 0
M  V30 57887 C 1092.47 -4.12613 -6.37049 0
M  V30 57888 O 1092.26 -3.72827 -4.97879 0
M  V30 57889 C 1091.07 -4.45085 -6.88694 0
M  V30 57890 O 1090.68 -5.7877 -6.5624 0
M  V30 57891 C 1090.19 -3.47817 -6.12078 0
M  V30 57892 C 1090.9 -3.39414 -4.77697 0
M  V30 57893 N 1090.85 -2.04199 -4.15538 0
M  V30 57894 H 1093.69 -3.41248 -7.98759 0
M  V30 57895 H 1093.96 -2.57728 -6.42 0
M  V30 57896 H 1093.1 -5.02657 -6.42673 0
M  V30 57897 H 1090.44 -4.11708 -4.08956 0
M  V30 57898 H 1090.16 -2.49626 -6.61679 0
M  V30 57899 H 1089.17 -3.8662 -6.00862 0
M  V30 57900 H 1091 -4.29991 -7.97006 0
M  V30 57901 P 1089.13 -6.144 -6.45285 0
M  V30 57902 O 1088.91 -7.54673 -6.86199 0
M  V30 57903 O 1088.34 -5.12391 -7.179 0
M  V30 57904 O 1088.88 -5.99158 -4.88404 0
M  V30 57905 C 1089.82 -6.60234 -3.96415 0
M  V30 57906 C 1089.09 -7.08259 -2.72856 0
M  V30 57907 O 1088.88 -5.9427 -1.83651 0
M  V30 57908 C 1087.69 -7.64886 -2.9555 0
M  V30 57909 O 1087.3 -8.53963 -1.90717 0
M  V30 57910 C 1086.81 -6.4116 -2.90739 0
M  V30 57911 C 1087.52 -5.55375 -1.86963 0
M  V30 57912 N 1087.47 -4.09664 -2.15742 0
M  V30 57913 H 1090.31 -7.45574 -4.45629 0
M  V30 57914 H 1090.58 -5.86232 -3.67314 0
M  V30 57915 H 1089.72 -7.84412 -2.24479 0
M  V30 57916 P 1085.75 -8.7635 -1.60911 0
M  V30 57917 O 1085.53 -10.1388 -1.11561 0
M  V30 57918 O 1084.96 -8.36503 -2.79617 0
M  V30 57919 O 1085.5 -7.71806 -0.42951 0
M  V30 57920 C 1086.44 -7.67148 0.673689 0
M  V30 57921 C 1085.71 -7.33374 1.95559 0
M  V30 57922 O 1085.5 -5.88721 2.00726 0
M  V30 57923 C 1084.31 -7.92526 2.10483 0
M  V30 57924 O 1083.92 -8.02971 3.47653 0
M  V30 57925 C 1083.43 -6.89602 1.41652 0
M  V30 57926 C 1084.14 -5.59201 1.75185 0
M  V30 57927 N 1084.09 -4.58235 0.662552 0
M  V30 57928 H 1086.93 -8.65116 0.777161 0
M  V30 57929 H 1087.2 -6.90173 0.474152 0
M  V30 57930 H 1086.34 -7.66548 2.79458 0
M  V30 57931 P 1082.37 -8.03563 3.84925 0
M  V30 57932 O 1082.15 -8.85821 5.0569 0
M  V30 57933 O 1081.58 -8.41101 2.65469 0
M  V30 57934 O 1082.12 -6.4965 4.18908 0
M  V30 57935 C 1083.06 -5.81037 5.05421 0
M  V30 57936 C 1082.33 -4.78366 5.89277 0
M  V30 57937 O 1082.12 -3.58302 5.08433 0
M  V30 57938 C 1080.93 -5.17448 6.36119 0
M  V30 57939 O 1080.54 -4.45271 7.53232 0
M  V30 57940 C 1080.05 -4.74639 5.19936 0
M  V30 57941 C 1080.76 -3.49432 4.70418 0
M  V30 57942 N 1080.71 -3.32099 3.22613 0
M  V30 57943 H 1083.55 -6.54213 5.71376 0
M  V30 57944 H 1083.82 -5.30936 4.43503 0
M  V30 57945 H 1082.96 -4.55889 6.76652 0
M  V30 57946 H 1080.3 -2.61715 5.17932 0
M  V30 57947 H 1080.02 -5.52155 4.41878 0
M  V30 57948 H 1079.03 -4.51981 5.53374 0
M  V30 57949 H 1080.86 -6.25124 6.55234 0
M  V30 57950 P 1078.99 -4.23843 7.83734 0
M  V30 57951 O 1078.77 -4.19407 9.29784 0
M  V30 57952 O 1078.2 -5.24426 7.09156 0
M  V30 57953 O 1078.74 -2.7935 7.20758 0
M  V30 57954 C 1079.68 -1.7299 7.50419 0
M  V30 57955 C 1078.95 -0.406376 7.57911 0
M  V30 57956 O 1078.74 0.0897726 6.21935 0
M  V30 57957 C 1077.55 -0.447224 8.1878 0
M  V30 57958 O 1077.16 0.825065 8.71101 0
M  V30 57959 C 1076.67 -0.783801 6.99623 0
M  V30 57960 C 1077.38 -0.0619192 5.85967 0
M  V30 57961 N 1077.33 -0.7859 4.56281 0
M  V30 57962 H 1080.17 -1.93423 8.4679 0
M  V30 57963 H 1080.44 -1.68181 6.71046 0
M  V30 57964 H 1079.58 0.289041 8.15388 0
M  V30 57965 P 1075.61 1.17771 8.83182 0
M  V30 57966 O 1075.39 2.07206 9.98732 0
M  V30 57967 O 1074.82 -0.0743816 8.81969 0
M  V30 57968 O 1075.36 1.97652 7.47304 0
M  V30 57969 C 1076.3 3.01133 7.08783 0
M  V30 57970 C 1075.57 4.12613 6.37049 0
M  V30 57971 O 1075.36 3.72827 4.97879 0
M  V30 57972 C 1074.17 4.45085 6.88694 0
M  V30 57973 O 1073.78 5.7877 6.5624 0
M  V30 57974 C 1073.29 3.47817 6.12078 0
M  V30 57975 C 1074 3.39414 4.77697 0
M  V30 57976 N 1073.95 2.04199 4.15538 0
M  V30 57977 H 1076.79 3.41248 7.98759 0
M  V30 57978 H 1077.06 2.57728 6.42 0
M  V30 57979 H 1076.2 5.02657 6.42673 0
M  V30 57980 H 1073.54 4.11708 4.08956 0
M  V30 57981 H 1073.26 2.49626 6.61679 0
M  V30 57982 H 1072.27 3.8662 6.00862 0
M  V30 57983 H 1074.1 4.29991 7.97006 0
M  V30 57984 P 1072.23 6.144 6.45285 0
M  V30 57985 O 1072.01 7.54673 6.86199 0
M  V30 57986 O 1071.44 5.12391 7.179 0
M  V30 57987 O 1071.98 5.99158 4.88404 0
M  V30 57988 C 1072.92 6.60234 3.96415 0
M  V30 57989 C 1072.19 7.08259 2.72856 0
M  V30 57990 O 1071.98 5.9427 1.83651 0
M  V30 57991 C 1070.79 7.64886 2.9555 0
M  V30 57992 O 1070.4 8.53963 1.90717 0
M  V30 57993 C 1069.91 6.4116 2.90739 0
M  V30 57994 C 1070.62 5.55375 1.86963 0
M  V30 57995 N 1070.57 4.09664 2.15742 0
M  V30 57996 H 1073.41 7.45574 4.45629 0
M  V30 57997 H 1073.68 5.86232 3.67314 0
M  V30 57998 H 1072.82 7.84412 2.24479 0
M  V30 57999 P 1068.85 8.7635 1.60911 0
M  V30 58000 O 1068.63 10.1388 1.11561 0
M  V30 58001 O 1068.06 8.36503 2.79617 0
M  V30 58002 O 1068.6 7.71806 0.42951 0
M  V30 58003 C 1069.54 7.67148 -0.673689 0
M  V30 58004 C 1068.81 7.33374 -1.95559 0
M  V30 58005 O 1068.6 5.88721 -2.00726 0
M  V30 58006 C 1067.41 7.92526 -2.10483 0
M  V30 58007 O 1067.02 8.02971 -3.47653 0
M  V30 58008 C 1066.53 6.89602 -1.41652 0
M  V30 58009 C 1067.24 5.59201 -1.75185 0
M  V30 58010 N 1067.19 4.58301 -0.657969 0
M  V30 58011 H 1070.03 8.65116 -0.777161 0
M  V30 58012 H 1070.3 6.9022 -0.46725 0
M  V30 58013 H 1069.44 7.66548 -2.79458 0
M  V30 58014 H 1066.78 5.16165 -2.65183 0
M  V30 58015 H 1066.5 7.06433 -0.329384 0
M  V30 58016 H 1065.51 6.90926 -1.82021 0
M  V30 58017 H 1067.34 8.90873 -1.62657 0
M  V30 58018 P 1065.47 8.03563 -3.84925 0
M  V30 58019 O 1065.25 8.85821 -5.0569 0
M  V30 58020 O 1064.68 8.41101 -2.65469 0
M  V30 58021 O 1065.22 6.4965 -4.18908 0
M  V30 58022 C 1066.16 5.81037 -5.05421 0
M  V30 58023 C 1065.43 4.78366 -5.89277 0
M  V30 58024 O 1065.22 3.58302 -5.08433 0
M  V30 58025 C 1064.03 5.17448 -6.36119 0
M  V30 58026 O 1063.64 4.45271 -7.53232 0
M  V30 58027 C 1063.15 4.74639 -5.19936 0
M  V30 58028 C 1063.86 3.49432 -4.70418 0
M  V30 58029 N 1063.81 3.32099 -3.22613 0
M  V30 58030 H 1066.65 6.54213 -5.71376 0
M  V30 58031 H 1066.92 5.30936 -4.43503 0
M  V30 58032 H 1066.06 4.55889 -6.76652 0
M  V30 58033 H 1063.4 2.61715 -5.17932 0
M  V30 58034 H 1063.12 5.52155 -4.41878 0
M  V30 58035 H 1062.13 4.51981 -5.53374 0
M  V30 58036 H 1063.96 6.25124 -6.55234 0
M  V30 58037 P 1062.09 4.23843 -7.83734 0
M  V30 58038 O 1061.87 4.19407 -9.29784 0
M  V30 58039 O 1061.3 5.24426 -7.09156 0
M  V30 58040 O 1061.84 2.7935 -7.20758 0
M  V30 58041 C 1062.78 1.7299 -7.50419 0
M  V30 58042 C 1062.05 0.406376 -7.57911 0
M  V30 58043 O 1061.84 -0.0897726 -6.21935 0
M  V30 58044 C 1060.65 0.447224 -8.1878 0
M  V30 58045 O 1060.26 -0.825065 -8.71101 0
M  V30 58046 C 1059.77 0.783801 -6.99623 0
M  V30 58047 C 1060.48 0.0619192 -5.85967 0
M  V30 58048 N 1060.43 0.7859 -4.56281 0
M  V30 58049 H 1063.27 1.93423 -8.4679 0
M  V30 58050 H 1063.54 1.68181 -6.71046 0
M  V30 58051 H 1062.68 -0.289041 -8.15388 0
M  V30 58052 P 1058.71 -1.17771 -8.83182 0
M  V30 58053 O 1058.49 -2.07206 -9.98732 0
M  V30 58054 O 1057.92 0.0743816 -8.81969 0
M  V30 58055 O 1058.46 -1.97652 -7.47304 0
M  V30 58056 C 1059.4 -3.01133 -7.08783 0
M  V30 58057 C 1058.67 -4.12613 -6.37049 0
M  V30 58058 O 1058.46 -3.72827 -4.97879 0
M  V30 58059 C 1057.27 -4.45085 -6.88694 0
M  V30 58060 O 1056.88 -5.7877 -6.5624 0
M  V30 58061 C 1056.39 -3.47817 -6.12078 0
M  V30 58062 C 1057.1 -3.39414 -4.77697 0
M  V30 58063 N 1057.05 -2.04199 -4.15538 0
M  V30 58064 H 1059.89 -3.41248 -7.98759 0
M  V30 58065 H 1060.16 -2.57728 -6.42 0
M  V30 58066 H 1059.3 -5.02657 -6.42673 0
M  V30 58067 H 1056.64 -4.11708 -4.08956 0
M  V30 58068 H 1056.36 -2.49626 -6.61679 0
M  V30 58069 H 1055.37 -3.8662 -6.00862 0
M  V30 58070 H 1057.2 -4.29991 -7.97006 0
M  V30 58071 P 1055.33 -6.144 -6.45285 0
M  V30 58072 O 1055.11 -7.54673 -6.86199 0
M  V30 58073 O 1054.54 -5.12391 -7.179 0
M  V30 58074 O 1055.08 -5.99158 -4.88404 0
M  V30 58075 C 1056.02 -6.60234 -3.96415 0
M  V30 58076 C 1055.29 -7.08259 -2.72856 0
M  V30 58077 O 1055.08 -5.9427 -1.83651 0
M  V30 58078 C 1053.89 -7.64886 -2.9555 0
M  V30 58079 O 1053.5 -8.53963 -1.90717 0
M  V30 58080 C 1053.01 -6.4116 -2.90739 0
M  V30 58081 C 1053.72 -5.55375 -1.86963 0
M  V30 58082 N 1053.67 -4.09448 -2.16152 0
M  V30 58083 H 1056.51 -7.45574 -4.45629 0
M  V30 58084 H 1056.78 -5.85864 -3.679 0
M  V30 58085 H 1055.92 -7.84412 -2.24479 0
M  V30 58086 H 1053.26 -5.73457 -0.888562 0
M  V30 58087 H 1052.98 -5.90877 -3.88583 0
M  V30 58088 H 1051.99 -6.6596 -2.58858 0
M  V30 58089 H 1053.82 -8.16339 -3.92049 0
M  V30 58090 P 1051.95 -8.7635 -1.60911 0
M  V30 58091 O 1051.73 -10.1388 -1.11561 0
M  V30 58092 O 1051.16 -8.36503 -2.79617 0
M  V30 58093 O 1051.7 -7.71806 -0.42951 0
M  V30 58094 C 1052.64 -7.67148 0.673689 0
M  V30 58095 C 1051.91 -7.33374 1.95559 0
M  V30 58096 O 1051.7 -5.88721 2.00726 0
M  V30 58097 C 1050.51 -7.92526 2.10483 0
M  V30 58098 O 1050.12 -8.02971 3.47653 0
M  V30 58099 C 1049.63 -6.89602 1.41652 0
M  V30 58100 C 1050.34 -5.59201 1.75185 0
M  V30 58101 N 1050.29 -4.58235 0.662552 0
M  V30 58102 H 1053.13 -8.65116 0.777161 0
M  V30 58103 H 1053.4 -6.90173 0.474152 0
M  V30 58104 H 1052.54 -7.66548 2.79458 0
M  V30 58105 P 1048.57 -8.03563 3.84925 0
M  V30 58106 O 1048.35 -8.85821 5.0569 0
M  V30 58107 O 1047.78 -8.41101 2.65469 0
M  V30 58108 O 1048.32 -6.4965 4.18908 0
M  V30 58109 C 1049.26 -5.81037 5.05421 0
M  V30 58110 C 1048.53 -4.78366 5.89277 0
M  V30 58111 O 1048.32 -3.58302 5.08433 0
M  V30 58112 C 1047.13 -5.17448 6.36119 0
M  V30 58113 O 1046.74 -4.45271 7.53232 0
M  V30 58114 C 1046.25 -4.74639 5.19936 0
M  V30 58115 C 1046.96 -3.49432 4.70418 0
M  V30 58116 N 1046.91 -3.31776 3.22945 0
M  V30 58117 H 1049.75 -6.54213 5.71376 0
M  V30 58118 H 1050.02 -5.30492 4.44033 0
M  V30 58119 H 1049.16 -4.55889 6.76652 0
M  V30 58120 P 1045.19 -4.23843 7.83734 0
M  V30 58121 O 1044.97 -4.19407 9.29784 0
M  V30 58122 O 1044.4 -5.24426 7.09156 0
M  V30 58123 O 1044.94 -2.7935 7.20758 0
M  V30 58124 C 1045.88 -1.7299 7.50419 0
M  V30 58125 C 1045.15 -0.406376 7.57911 0
M  V30 58126 O 1044.94 0.0897726 6.21935 0
M  V30 58127 C 1043.75 -0.447224 8.1878 0
M  V30 58128 O 1043.36 0.825065 8.71101 0
M  V30 58129 C 1042.87 -0.783801 6.99623 0
M  V30 58130 C 1043.58 -0.0619192 5.85967 0
M  V30 58131 N 1043.53 -0.7859 4.56281 0
M  V30 58132 H 1046.37 -1.93423 8.4679 0
M  V30 58133 H 1046.64 -1.68181 6.71046 0
M  V30 58134 H 1045.78 0.289041 8.15388 0
M  V30 58135 P 1041.81 1.17771 8.83182 0
M  V30 58136 O 1041.59 2.07206 9.98732 0
M  V30 58137 O 1041.02 -0.0743816 8.81969 0
M  V30 58138 O 1041.56 1.97652 7.47304 0
M  V30 58139 C 1042.5 3.01133 7.08783 0
M  V30 58140 C 1041.77 4.12613 6.37049 0
M  V30 58141 O 1041.56 3.72827 4.97879 0
M  V30 58142 C 1040.37 4.45085 6.88694 0
M  V30 58143 O 1039.98 5.7877 6.5624 0
M  V30 58144 C 1039.49 3.47817 6.12078 0
M  V30 58145 C 1040.2 3.39414 4.77697 0
M  V30 58146 N 1040.15 2.04615 4.15333 0
M  V30 58147 H 1042.99 3.41248 7.98759 0
M  V30 58148 H 1043.26 2.5837 6.41742 0
M  V30 58149 H 1042.4 5.02657 6.42673 0
M  V30 58150 P 1038.43 6.144 6.45285 0
M  V30 58151 O 1038.21 7.54673 6.86199 0
M  V30 58152 O 1037.64 5.12391 7.179 0
M  V30 58153 O 1038.18 5.99158 4.88404 0
M  V30 58154 C 1039.12 6.60234 3.96415 0
M  V30 58155 C 1038.39 7.08259 2.72856 0
M  V30 58156 O 1038.18 5.9427 1.83651 0
M  V30 58157 C 1036.99 7.64886 2.9555 0
M  V30 58158 O 1036.6 8.53963 1.90717 0
M  V30 58159 C 1036.11 6.4116 2.90739 0
M  V30 58160 C 1036.82 5.55375 1.86963 0
M  V30 58161 N 1036.77 4.09664 2.15742 0
M  V30 58162 H 1039.61 7.45574 4.45629 0
M  V30 58163 H 1039.88 5.86232 3.67314 0
M  V30 58164 H 1039.02 7.84412 2.24479 0
M  V30 58165 P 1035.05 8.7635 1.60911 0
M  V30 58166 O 1034.83 10.1388 1.11561 0
M  V30 58167 O 1034.26 8.36503 2.79617 0
M  V30 58168 O 1034.8 7.71806 0.42951 0
M  V30 58169 C 1035.74 7.67148 -0.673689 0
M  V30 58170 C 1035.01 7.33374 -1.95559 0
M  V30 58171 O 1034.8 5.88721 -2.00726 0
M  V30 58172 C 1033.61 7.92526 -2.10483 0
M  V30 58173 O 1033.22 8.02971 -3.47653 0
M  V30 58174 C 1032.73 6.89602 -1.41652 0
M  V30 58175 C 1033.44 5.59201 -1.75185 0
M  V30 58176 N 1033.39 4.58301 -0.657969 0
M  V30 58177 H 1036.23 8.65116 -0.777161 0
M  V30 58178 H 1036.5 6.9022 -0.46725 0
M  V30 58179 H 1035.64 7.66548 -2.79458 0
M  V30 58180 H 1032.98 5.16165 -2.65183 0
M  V30 58181 H 1032.7 7.06433 -0.329384 0
M  V30 58182 H 1031.71 6.90926 -1.82021 0
M  V30 58183 H 1033.54 8.90873 -1.62657 0
M  V30 58184 P 1031.67 8.03563 -3.84925 0
M  V30 58185 O 1031.45 8.85821 -5.0569 0
M  V30 58186 O 1030.88 8.41101 -2.65469 0
M  V30 58187 O 1031.42 6.4965 -4.18908 0
M  V30 58188 C 1032.36 5.81037 -5.05421 0
M  V30 58189 C 1031.63 4.78366 -5.89277 0
M  V30 58190 O 1031.42 3.58302 -5.08433 0
M  V30 58191 C 1030.23 5.17448 -6.36119 0
M  V30 58192 O 1029.84 4.45271 -7.53232 0
M  V30 58193 C 1029.35 4.74639 -5.19936 0
M  V30 58194 C 1030.06 3.49432 -4.70418 0
M  V30 58195 N 1030.01 3.31776 -3.22945 0
M  V30 58196 H 1032.85 6.54213 -5.71376 0
M  V30 58197 H 1033.12 5.30492 -4.44033 0
M  V30 58198 H 1032.26 4.55889 -6.76652 0
M  V30 58199 P 1028.29 4.23843 -7.83734 0
M  V30 58200 O 1028.07 4.19407 -9.29784 0
M  V30 58201 O 1027.5 5.24426 -7.09156 0
M  V30 58202 O 1028.04 2.7935 -7.20758 0
M  V30 58203 C 1028.98 1.7299 -7.50419 0
M  V30 58204 C 1028.25 0.406376 -7.57911 0
M  V30 58205 O 1028.04 -0.0897726 -6.21935 0
M  V30 58206 C 1026.85 0.447224 -8.1878 0
M  V30 58207 O 1026.46 -0.825065 -8.71101 0
M  V30 58208 C 1025.97 0.783801 -6.99623 0
M  V30 58209 C 1026.68 0.0619192 -5.85967 0
M  V30 58210 N 1026.63 0.7859 -4.56281 0
M  V30 58211 H 1029.47 1.93423 -8.4679 0
M  V30 58212 H 1029.74 1.68181 -6.71046 0
M  V30 58213 H 1028.88 -0.289041 -8.15388 0
M  V30 58214 P 1024.91 -1.17771 -8.83182 0
M  V30 58215 O 1024.69 -2.07206 -9.98732 0
M  V30 58216 O 1024.12 0.0743816 -8.81969 0
M  V30 58217 O 1024.66 -1.97652 -7.47304 0
M  V30 58218 C 1025.6 -3.01133 -7.08783 0
M  V30 58219 C 1024.87 -4.12613 -6.37049 0
M  V30 58220 O 1024.66 -3.72827 -4.97879 0
M  V30 58221 C 1023.47 -4.45085 -6.88694 0
M  V30 58222 O 1023.08 -5.7877 -6.5624 0
M  V30 58223 C 1022.59 -3.47817 -6.12078 0
M  V30 58224 C 1023.3 -3.39414 -4.77697 0
M  V30 58225 N 1023.25 -2.04615 -4.15333 0
M  V30 58226 H 1026.09 -3.41248 -7.98759 0
M  V30 58227 H 1026.36 -2.5837 -6.41742 0
M  V30 58228 H 1025.5 -5.02657 -6.42673 0
M  V30 58229 P 1021.53 -6.144 -6.45285 0
M  V30 58230 O 1021.31 -7.54673 -6.86199 0
M  V30 58231 O 1020.74 -5.12391 -7.179 0
M  V30 58232 O 1021.28 -5.99158 -4.88404 0
M  V30 58233 C 1022.22 -6.60234 -3.96415 0
M  V30 58234 C 1021.49 -7.08259 -2.72856 0
M  V30 58235 O 1021.28 -5.9427 -1.83651 0
M  V30 58236 C 1020.09 -7.64886 -2.9555 0
M  V30 58237 O 1019.7 -8.53963 -1.90717 0
M  V30 58238 C 1019.21 -6.4116 -2.90739 0
M  V30 58239 C 1019.92 -5.55375 -1.86963 0
M  V30 58240 N 1019.87 -4.09448 -2.16152 0
M  V30 58241 H 1022.71 -7.45574 -4.45629 0
M  V30 58242 H 1022.98 -5.85864 -3.679 0
M  V30 58243 H 1022.12 -7.84412 -2.24479 0
M  V30 58244 H 1019.46 -5.73457 -0.888562 0
M  V30 58245 H 1019.18 -5.90877 -3.88583 0
M  V30 58246 H 1018.19 -6.6596 -2.58858 0
M  V30 58247 H 1020.02 -8.16339 -3.92049 0
M  V30 58248 P 1018.15 -8.7635 -1.60911 0
M  V30 58249 O 1017.93 -10.1388 -1.11561 0
M  V30 58250 O 1017.36 -8.36503 -2.79617 0
M  V30 58251 O 1017.9 -7.71806 -0.42951 0
M  V30 58252 C 1018.84 -7.67148 0.673689 0
M  V30 58253 C 1018.11 -7.33374 1.95559 0
M  V30 58254 O 1017.9 -5.88721 2.00726 0
M  V30 58255 C 1016.71 -7.92526 2.10483 0
M  V30 58256 O 1016.32 -8.02971 3.47653 0
M  V30 58257 C 1015.83 -6.89602 1.41652 0
M  V30 58258 C 1016.54 -5.59201 1.75185 0
M  V30 58259 N 1016.49 -4.58235 0.662552 0
M  V30 58260 H 1019.33 -8.65116 0.777161 0
M  V30 58261 H 1019.61 -6.90173 0.474152 0
M  V30 58262 H 1018.74 -7.66548 2.79458 0
M  V30 58263 P 1014.77 -8.03563 3.84925 0
M  V30 58264 O 1014.55 -8.85821 5.0569 0
M  V30 58265 O 1013.98 -8.41101 2.65469 0
M  V30 58266 O 1014.52 -6.4965 4.18908 0
M  V30 58267 C 1015.46 -5.81037 5.05421 0
M  V30 58268 C 1014.73 -4.78366 5.89277 0
M  V30 58269 O 1014.52 -3.58302 5.08433 0
M  V30 58270 C 1013.33 -5.17448 6.36119 0
M  V30 58271 O 1012.94 -4.45271 7.53232 0
M  V30 58272 C 1012.45 -4.74639 5.19936 0
M  V30 58273 C 1013.16 -3.49432 4.70418 0
M  V30 58274 N 1013.11 -3.31776 3.22945 0
M  V30 58275 H 1015.95 -6.54213 5.71376 0
M  V30 58276 H 1016.23 -5.30492 4.44033 0
M  V30 58277 H 1015.36 -4.55889 6.76652 0
M  V30 58278 P 1011.39 -4.23843 7.83734 0
M  V30 58279 O 1011.17 -4.19407 9.29784 0
M  V30 58280 O 1010.6 -5.24426 7.09156 0
M  V30 58281 O 1011.14 -2.7935 7.20758 0
M  V30 58282 C 1012.08 -1.7299 7.50419 0
M  V30 58283 C 1011.35 -0.406376 7.57911 0
M  V30 58284 O 1011.14 0.0897726 6.21935 0
M  V30 58285 C 1009.95 -0.447224 8.1878 0
M  V30 58286 O 1009.56 0.825065 8.71101 0
M  V30 58287 C 1009.07 -0.783801 6.99623 0
M  V30 58288 C 1009.78 -0.0619192 5.85967 0
M  V30 58289 N 1009.73 -0.7859 4.56281 0
M  V30 58290 H 1012.57 -1.93423 8.4679 0
M  V30 58291 H 1012.85 -1.68181 6.71046 0
M  V30 58292 H 1011.98 0.289041 8.15388 0
M  V30 58293 P 1008.01 1.17771 8.83182 0
M  V30 58294 O 1007.79 2.07206 9.98732 0
M  V30 58295 O 1007.22 -0.0743816 8.81969 0
M  V30 58296 O 1007.76 1.97652 7.47304 0
M  V30 58297 C 1008.7 3.01055 7.08599 0
M  V30 58298 C 1007.97 4.12613 6.37049 0
M  V30 58299 O 1007.76 3.72827 4.97879 0
M  V30 58300 C 1006.57 4.45719 6.88164 0
M  V30 58301 O 1006.18 5.7877 6.5624 0
M  V30 58302 C 1005.69 3.47768 6.11991 0
M  V30 58303 C 1006.4 3.39356 4.77615 0
M  V30 58304 N 1006.35 2.04571 4.15244 0
M  V30 58305 C 1006.2 1.98587 2.78314 0
M  V30 58306 O 1006.11 2.98134 2.08835 0
M  V30 58307 N 1006.16 0.714467 2.24925 0
M  V30 58308 C 1006.25 -0.470001 2.94169 0
M  V30 58309 C 1006.4 -0.312541 4.36783 0
M  V30 58310 C 1006.45 0.914512 4.92583 0
M  V30 58311 H 1009.2 3.41169 7.98575 0
M  V30 58312 H 1009.46 2.58295 6.41556 0
M  V30 58313 H 1008.6 5.02657 6.42673 0
M  V30 58314 H 1005.94 4.11637 4.08885 0
M  V30 58315 H 1005.66 2.49626 6.61679 0
M  V30 58316 H 1004.67 3.86566 6.00778 0
M  V30 58317 H 1006.51 4.29943 7.96918 0
M  V30 58318 H 1006.58 1.00937 6.00374 0
M  V30 58319 P 1004.63 6.144 6.45285 0
M  V30 58320 O 1004.41 7.54673 6.86199 0
M  V30 58321 O 1003.84 5.12391 7.179 0
M  V30 58322 O 1004.38 5.99158 4.88404 0
M  V30 58323 C 1005.32 6.60062 3.96313 0
M  V30 58324 C 1004.59 7.08259 2.72856 0
M  V30 58325 O 1004.38 5.9427 1.83651 0
M  V30 58326 C 1003.19 7.65087 2.94749 0
M  V30 58327 O 1002.8 8.53963 1.90717 0
M  V30 58328 C 1002.31 6.41069 2.90698 0
M  V30 58329 C 1003.02 5.5528 1.86931 0
M  V30 58330 N 1002.97 4.09575 2.15696 0
M  V30 58331 C 1002.82 3.24249 1.08435 0
M  V30 58332 O 1002.73 3.63946 -0.0628747 0
M  V30 58333 N 1002.78 1.90009 1.39973 0
M  V30 58334 C 1002.87 1.34884 2.65614 0
M  V30 58335 C 1003.02 2.3145 3.71736 0
M  V30 58336 C 1003.07 3.63518 3.44754 0
M  V30 58337 H 1005.82 7.45402 4.45526 0
M  V30 58338 H 1006.08 5.86062 3.67208 0
M  V30 58339 H 1005.22 7.84412 2.24479 0
M  V30 58340 H 1002.56 5.73358 0.888409 0
M  V30 58341 H 1002.28 5.90877 3.88583 0
M  V30 58342 H 1001.29 6.65867 2.58821 0
M  V30 58343 H 1003.13 8.16248 3.92006 0
M  V30 58344 H 1003.2 4.34551 4.26383 0
M  V30 58345 P 1001.25 8.7635 1.60911 0
M  V30 58346 O 1001.03 10.1388 1.11561 0
M  V30 58347 O 1000.46 8.36503 2.79617 0
M  V30 58348 O 1001 7.71806 0.42951 0
M  V30 58349 C 1001.94 7.67148 -0.673689 0
M  V30 58350 C 1001.21 7.33374 -1.95559 0
M  V30 58351 O 1001 5.88721 -2.00726 0
M  V30 58352 C 999.814 7.92526 -2.10483 0
M  V30 58353 O 999.424 8.02971 -3.47653 0
M  V30 58354 C 998.934 6.89602 -1.41652 0
M  V30 58355 C 999.644 5.59201 -1.75185 0
M  V30 58356 N 999.594 4.58301 -0.657969 0
M  V30 58357 H 1002.43 8.65116 -0.777161 0
M  V30 58358 H 1002.71 6.9022 -0.46725 0
M  V30 58359 H 1001.84 7.66548 -2.79458 0
M  V30 58360 H 999.182 5.16165 -2.65183 0
M  V30 58361 H 998.902 7.06433 -0.329384 0
M  V30 58362 H 997.911 6.90926 -1.82021 0
M  V30 58363 H 999.745 8.90873 -1.62657 0
M  V30 58364 P 997.874 8.03563 -3.84925 0
M  V30 58365 O 997.654 8.85821 -5.0569 0
M  V30 58366 O 997.084 8.41101 -2.65469 0
M  V30 58367 O 997.624 6.4965 -4.18908 0
M  V30 58368 C 998.564 5.80886 -5.05289 0
M  V30 58369 C 997.834 4.78366 -5.89277 0
M  V30 58370 O 997.624 3.58302 -5.08433 0
M  V30 58371 C 996.434 5.16748 -6.36559 0
M  V30 58372 O 996.044 4.45271 -7.53232 0
M  V30 58373 C 995.554 4.74572 -5.19863 0
M  V30 58374 C 996.264 3.49373 -4.70338 0
M  V30 58375 N 996.214 3.31704 -3.22876 0
M  V30 58376 C 996.064 2.03326 -2.74871 0
M  V30 58377 O 995.974 1.06486 -3.48076 0
M  V30 58378 N 996.024 1.91838 -1.37456 0
M  V30 58379 C 996.114 2.94295 -0.462035 0
M  V30 58380 O 996.064 2.71763 0.752928 0
M  V30 58381 C 996.264 4.25064 -1.05249 0
M  V30 58382 C 996.374 5.39815 -0.095697 0
M  V30 58383 C 996.314 4.40214 -2.39192 0
M  V30 58384 H 999.055 6.54063 -5.71245 0
M  V30 58385 H 999.324 5.30339 -4.43905 0
M  V30 58386 H 998.457 4.55889 -6.76652 0
M  V30 58387 H 995.802 2.6167 -5.17842 0
M  V30 58388 H 995.523 5.52155 -4.41878 0
M  V30 58389 H 994.531 4.51918 -5.53297 0
M  V30 58390 H 996.365 6.25055 -6.55162 0
M  V30 58391 H 996.436 5.39798 -2.81523 0
M  V30 58392 H 995.406 5.91593 -0.0279582 0
M  V30 58393 H 997.143 6.10038 -0.450573 0
M  V30 58394 H 996.655 5.02007 0.89937 0
M  V30 58395 H 995.919 0.995326 -1.00435 0
M  V30 58396 P 994.494 4.23843 -7.83734 0
M  V30 58397 O 994.274 4.19407 -9.29784 0
M  V30 58398 O 993.704 5.24426 -7.09156 0
M  V30 58399 O 994.244 2.7935 -7.20758 0
M  V30 58400 C 995.184 1.72945 -7.50224 0
M  V30 58401 C 994.454 0.406376 -7.57911 0
M  V30 58402 O 994.244 -0.0897726 -6.21935 0
M  V30 58403 C 993.054 0.438983 -8.18724 0
M  V30 58404 O 992.664 -0.825065 -8.71101 0
M  V30 58405 C 992.174 0.783689 -6.99524 0
M  V30 58406 C 992.884 0.0619086 -5.85867 0
M  V30 58407 N 992.834 0.78573 -4.56183 0
M  V30 58408 C 992.684 0.0292889 -3.41887 0
M  V30 58409 O 992.594 -1.18445 -3.4419 0
M  V30 58410 N 992.644 0.744061 -2.23964 0
M  V30 58411 C 992.734 2.10932 -2.10362 0
M  V30 58412 O 992.684 2.64117 -0.98825 0
M  V30 58413 C 992.884 2.8202 -3.34994 0
M  V30 58414 C 992.994 4.31095 -3.25037 0
M  V30 58415 C 992.934 2.15547 -4.52261 0
M  V30 58416 H 995.675 1.93379 -8.46595 0
M  V30 58417 H 995.944 1.68132 -6.70852 0
M  V30 58418 H 995.077 -0.289041 -8.15388 0
M  V30 58419 H 992.422 -0.926847 -5.72749 0
M  V30 58420 H 992.143 1.86973 -6.82036 0
M  V30 58421 H 991.151 0.403896 -7.13257 0
M  V30 58422 H 992.985 1.20585 -8.97435 0
M  V30 58423 H 993.056 2.71231 -5.45042 0
M  V30 58424 H 992.026 4.76966 -3.49992 0
M  V30 58425 H 993.763 4.67047 -3.95024 0
M  V30 58426 H 993.275 4.58996 -2.22312 0
M  V30 58427 H 992.539 0.214893 -1.39758 0
M  V30 58428 P 991.114 -1.17771 -8.83182 0
M  V30 58429 O 990.894 -2.07206 -9.98732 0
M  V30 58430 O 990.324 0.0743816 -8.81969 0
M  V30 58431 O 990.864 -1.97652 -7.47304 0
M  V30 58432 C 991.804 -3.01133 -7.08783 0
M  V30 58433 C 991.074 -4.12613 -6.37049 0
M  V30 58434 O 990.864 -3.72827 -4.97879 0
M  V30 58435 C 989.674 -4.45085 -6.88694 0
M  V30 58436 O 989.284 -5.7877 -6.5624 0
M  V30 58437 C 988.794 -3.47817 -6.12078 0
M  V30 58438 C 989.504 -3.39414 -4.77697 0
M  V30 58439 N 989.454 -2.04615 -4.15333 0
M  V30 58440 H 992.293 -3.41248 -7.98759 0
M  V30 58441 H 992.565 -2.5837 -6.41742 0
M  V30 58442 H 991.697 -5.02657 -6.42673 0
M  V30 58443 P 987.734 -6.144 -6.45285 0
M  V30 58444 O 987.514 -7.54673 -6.86199 0
M  V30 58445 O 986.944 -5.12391 -7.179 0
M  V30 58446 O 987.484 -5.99158 -4.88404 0
M  V30 58447 C 988.424 -6.60234 -3.96415 0
M  V30 58448 C 987.694 -7.08259 -2.72856 0
M  V30 58449 O 987.484 -5.9427 -1.83651 0
M  V30 58450 C 986.294 -7.64886 -2.9555 0
M  V30 58451 O 985.904 -8.53963 -1.90717 0
M  V30 58452 C 985.414 -6.4116 -2.90739 0
M  V30 58453 C 986.124 -5.55375 -1.86963 0
M  V30 58454 N 986.074 -4.09448 -2.16152 0
M  V30 58455 H 988.913 -7.45574 -4.45629 0
M  V30 58456 H 989.185 -5.85864 -3.679 0
M  V30 58457 H 988.317 -7.84412 -2.24479 0
M  V30 58458 H 985.662 -5.73457 -0.888562 0
M  V30 58459 H 985.382 -5.90877 -3.88583 0
M  V30 58460 H 984.391 -6.6596 -2.58858 0
M  V30 58461 H 986.225 -8.16339 -3.92049 0
M  V30 58462 P 984.354 -8.7635 -1.60911 0
M  V30 58463 O 984.134 -10.1388 -1.11561 0
M  V30 58464 O 983.564 -8.36503 -2.79617 0
M  V30 58465 O 984.104 -7.71806 -0.42951 0
M  V30 58466 C 985.044 -7.67148 0.673689 0
M  V30 58467 C 984.314 -7.33374 1.95559 0
M  V30 58468 O 984.104 -5.88721 2.00726 0
M  V30 58469 C 982.914 -7.92526 2.10483 0
M  V30 58470 O 982.524 -8.02971 3.47653 0
M  V30 58471 C 982.034 -6.89602 1.41652 0
M  V30 58472 C 982.744 -5.59201 1.75185 0
M  V30 58473 N 982.694 -4.58301 0.657969 0
M  V30 58474 H 985.533 -8.65116 0.777161 0
M  V30 58475 H 985.805 -6.9022 0.46725 0
M  V30 58476 H 984.937 -7.66548 2.79458 0
M  V30 58477 H 982.282 -5.16165 2.65183 0
M  V30 58478 H 982.002 -7.06433 0.329384 0
M  V30 58479 H 981.011 -6.90926 1.82021 0
M  V30 58480 H 982.845 -8.90873 1.62657 0
M  V30 58481 P 980.974 -8.03563 3.84925 0
M  V30 58482 O 980.754 -8.85821 5.0569 0
M  V30 58483 O 980.184 -8.41101 2.65469 0
M  V30 58484 O 980.724 -6.4965 4.18908 0
M  V30 58485 C 981.664 -5.81037 5.05421 0
M  V30 58486 C 980.934 -4.78366 5.89277 0
M  V30 58487 O 980.724 -3.58302 5.08433 0
M  V30 58488 C 979.534 -5.17448 6.36119 0
M  V30 58489 O 979.144 -4.45271 7.53232 0
M  V30 58490 C 978.654 -4.74639 5.19936 0
M  V30 58491 C 979.364 -3.49432 4.70418 0
M  V30 58492 N 979.314 -3.31776 3.22945 0
M  V30 58493 H 982.153 -6.54213 5.71376 0
M  V30 58494 H 982.425 -5.30492 4.44033 0
M  V30 58495 H 981.557 -4.55889 6.76652 0
M  V30 58496 P 977.594 -4.23843 7.83734 0
M  V30 58497 O 977.374 -4.19407 9.29784 0
M  V30 58498 O 976.804 -5.24426 7.09156 0
M  V30 58499 O 977.344 -2.7935 7.20758 0
M  V30 58500 C 978.284 -1.7299 7.50419 0
M  V30 58501 C 977.554 -0.406376 7.57911 0
M  V30 58502 O 977.344 0.0897726 6.21935 0
M  V30 58503 C 976.154 -0.447224 8.1878 0
M  V30 58504 O 975.764 0.825065 8.71101 0
M  V30 58505 C 975.274 -0.783801 6.99623 0
M  V30 58506 C 975.984 -0.0619192 5.85967 0
M  V30 58507 N 975.934 -0.7859 4.56281 0
M  V30 58508 H 978.773 -1.93423 8.4679 0
M  V30 58509 H 979.045 -1.68181 6.71046 0
M  V30 58510 H 978.177 0.289041 8.15388 0
M  V30 58511 P 974.214 1.17771 8.83182 0
M  V30 58512 O 973.994 2.07206 9.98732 0
M  V30 58513 O 973.424 -0.0743816 8.81969 0
M  V30 58514 O 973.964 1.97652 7.47304 0
M  V30 58515 C 974.904 3.01133 7.08783 0
M  V30 58516 C 974.174 4.12613 6.37049 0
M  V30 58517 O 973.964 3.72827 4.97879 0
M  V30 58518 C 972.774 4.45085 6.88694 0
M  V30 58519 O 972.384 5.7877 6.5624 0
M  V30 58520 C 971.894 3.47817 6.12078 0
M  V30 58521 C 972.604 3.39414 4.77697 0
M  V30 58522 N 972.554 2.04199 4.15538 0
M  V30 58523 H 975.393 3.41248 7.98759 0
M  V30 58524 H 975.665 2.57728 6.42 0
M  V30 58525 H 974.797 5.02657 6.42673 0
M  V30 58526 H 972.142 4.11708 4.08956 0
M  V30 58527 H 971.862 2.49626 6.61679 0
M  V30 58528 H 970.871 3.8662 6.00862 0
M  V30 58529 H 972.705 4.29991 7.97006 0
M  V30 58530 P 970.834 6.144 6.45285 0
M  V30 58531 O 970.614 7.54673 6.86199 0
M  V30 58532 O 970.044 5.12391 7.179 0
M  V30 58533 O 970.584 5.99158 4.88404 0
M  V30 58534 C 971.524 6.60062 3.96313 0
M  V30 58535 C 970.794 7.08259 2.72856 0
M  V30 58536 O 970.584 5.9427 1.83651 0
M  V30 58537 C 969.394 7.65087 2.94749 0
M  V30 58538 O 969.004 8.53963 1.90717 0
M  V30 58539 C 968.514 6.41069 2.90698 0
M  V30 58540 C 969.224 5.5528 1.86931 0
M  V30 58541 N 969.174 4.09575 2.15696 0
M  V30 58542 C 969.024 3.24249 1.08435 0
M  V30 58543 O 968.934 3.63946 -0.0628747 0
M  V30 58544 N 968.984 1.90009 1.39973 0
M  V30 58545 C 969.074 1.34884 2.65614 0
M  V30 58546 C 969.224 2.3145 3.71736 0
M  V30 58547 C 969.274 3.63518 3.44754 0
M  V30 58548 H 972.015 7.45402 4.45526 0
M  V30 58549 H 972.284 5.86062 3.67208 0
M  V30 58550 H 971.417 7.84412 2.24479 0
M  V30 58551 H 968.762 5.73358 0.888409 0
M  V30 58552 H 968.483 5.90877 3.88583 0
M  V30 58553 H 967.491 6.65867 2.58821 0
M  V30 58554 H 969.325 8.16248 3.92006 0
M  V30 58555 H 969.396 4.34551 4.26383 0
M  V30 58556 P 967.454 8.7635 1.60911 0
M  V30 58557 O 967.234 10.1388 1.11561 0
M  V30 58558 O 966.664 8.36503 2.79617 0
M  V30 58559 O 967.204 7.71806 0.42951 0
M  V30 58560 C 968.144 7.67148 -0.673689 0
M  V30 58561 C 967.414 7.33374 -1.95559 0
M  V30 58562 O 967.204 5.88721 -2.00726 0
M  V30 58563 C 966.014 7.92526 -2.10483 0
M  V30 58564 O 965.624 8.02971 -3.47653 0
M  V30 58565 C 965.134 6.89602 -1.41652 0
M  V30 58566 C 965.844 5.59201 -1.75185 0
M  V30 58567 N 965.794 4.58235 -0.662552 0
M  V30 58568 H 968.633 8.65116 -0.777161 0
M  V30 58569 H 968.905 6.90173 -0.474152 0
M  V30 58570 H 968.037 7.66548 -2.79458 0
M  V30 58571 P 964.074 8.03563 -3.84925 0
M  V30 58572 O 963.854 8.85821 -5.0569 0
M  V30 58573 O 963.284 8.41101 -2.65469 0
M  V30 58574 O 963.824 6.4965 -4.18908 0
M  V30 58575 C 964.764 5.81037 -5.05421 0
M  V30 58576 C 964.034 4.78366 -5.89277 0
M  V30 58577 O 963.824 3.58302 -5.08433 0
M  V30 58578 C 962.634 5.17448 -6.36119 0
M  V30 58579 O 962.244 4.45271 -7.53232 0
M  V30 58580 C 961.754 4.74639 -5.19936 0
M  V30 58581 C 962.464 3.49432 -4.70418 0
M  V30 58582 N 962.414 3.32099 -3.22613 0
M  V30 58583 H 965.253 6.54213 -5.71376 0
M  V30 58584 H 965.525 5.30936 -4.43503 0
M  V30 58585 H 964.657 4.55889 -6.76652 0
M  V30 58586 H 962.002 2.61715 -5.17932 0
M  V30 58587 H 961.722 5.52155 -4.41878 0
M  V30 58588 H 960.731 4.51981 -5.53374 0
M  V30 58589 H 962.565 6.25124 -6.55234 0
M  V30 58590 P 960.694 4.23843 -7.83734 0
M  V30 58591 O 960.474 4.19407 -9.29784 0
M  V30 58592 O 959.904 5.24426 -7.09156 0
M  V30 58593 O 960.444 2.7935 -7.20758 0
M  V30 58594 C 961.384 1.7299 -7.50419 0
M  V30 58595 C 960.654 0.406376 -7.57911 0
M  V30 58596 O 960.444 -0.0897726 -6.21935 0
M  V30 58597 C 959.254 0.447224 -8.1878 0
M  V30 58598 O 958.864 -0.825065 -8.71101 0
M  V30 58599 C 958.374 0.783801 -6.99623 0
M  V30 58600 C 959.084 0.0619192 -5.85967 0
M  V30 58601 N 959.034 0.790462 -4.56202 0
M  V30 58602 H 961.873 1.93423 -8.4679 0
M  V30 58603 H 962.145 1.68852 -6.70877 0
M  V30 58604 H 961.277 -0.289041 -8.15388 0
M  V30 58605 H 958.622 -0.927006 -5.72848 0
M  V30 58606 H 958.342 1.86973 -6.82036 0
M  V30 58607 H 957.351 0.403953 -7.13357 0
M  V30 58608 H 959.185 1.20599 -8.97534 0
M  V30 58609 P 957.314 -1.17771 -8.83182 0
M  V30 58610 O 957.094 -2.07206 -9.98732 0
M  V30 58611 O 956.524 0.0743816 -8.81969 0
M  V30 58612 O 957.064 -1.97652 -7.47304 0
M  V30 58613 C 958.004 -3.01133 -7.08783 0
M  V30 58614 C 957.274 -4.12613 -6.37049 0
M  V30 58615 O 957.064 -3.72827 -4.97879 0
M  V30 58616 C 955.874 -4.45085 -6.88694 0
M  V30 58617 O 955.484 -5.7877 -6.5624 0
M  V30 58618 C 954.994 -3.47817 -6.12078 0
M  V30 58619 C 955.704 -3.39414 -4.77697 0
M  V30 58620 N 955.654 -2.04615 -4.15333 0
M  V30 58621 H 958.493 -3.41248 -7.98759 0
M  V30 58622 H 958.765 -2.5837 -6.41742 0
M  V30 58623 H 957.897 -5.02657 -6.42673 0
M  V30 58624 P 953.934 -6.144 -6.45285 0
M  V30 58625 O 953.714 -7.54673 -6.86199 0
M  V30 58626 O 953.144 -5.12391 -7.179 0
M  V30 58627 O 953.684 -5.99158 -4.88404 0
M  V30 58628 C 954.624 -6.60234 -3.96415 0
M  V30 58629 C 953.894 -7.08259 -2.72856 0
M  V30 58630 O 953.684 -5.9427 -1.83651 0
M  V30 58631 C 952.494 -7.64886 -2.9555 0
M  V30 58632 O 952.104 -8.53963 -1.90717 0
M  V30 58633 C 951.614 -6.4116 -2.90739 0
M  V30 58634 C 952.324 -5.55375 -1.86963 0
M  V30 58635 N 952.274 -4.09448 -2.16152 0
M  V30 58636 H 955.113 -7.45574 -4.45629 0
M  V30 58637 H 955.385 -5.85864 -3.679 0
M  V30 58638 H 954.517 -7.84412 -2.24479 0
M  V30 58639 H 951.862 -5.73457 -0.888562 0
M  V30 58640 H 951.582 -5.90877 -3.88583 0
M  V30 58641 H 950.591 -6.6596 -2.58858 0
M  V30 58642 H 952.425 -8.16339 -3.92049 0
M  V30 58643 P 950.554 -8.7635 -1.60911 0
M  V30 58644 O 950.334 -10.1388 -1.11561 0
M  V30 58645 O 949.764 -8.36503 -2.79617 0
M  V30 58646 O 950.304 -7.71806 -0.42951 0
M  V30 58647 C 951.244 -7.67148 0.673689 0
M  V30 58648 C 950.514 -7.33374 1.95559 0
M  V30 58649 O 950.304 -5.88721 2.00726 0
M  V30 58650 C 949.114 -7.92526 2.10483 0
M  V30 58651 O 948.724 -8.02971 3.47653 0
M  V30 58652 C 948.234 -6.89602 1.41652 0
M  V30 58653 C 948.944 -5.59201 1.75185 0
M  V30 58654 N 948.894 -4.58301 0.657969 0
M  V30 58655 H 951.733 -8.65116 0.777161 0
M  V30 58656 H 952.005 -6.9022 0.46725 0
M  V30 58657 H 951.137 -7.66548 2.79458 0
M  V30 58658 H 948.482 -5.16165 2.65183 0
M  V30 58659 H 948.202 -7.06433 0.329384 0
M  V30 58660 H 947.211 -6.90926 1.82021 0
M  V30 58661 H 949.045 -8.90873 1.62657 0
M  V30 58662 P 947.174 -8.03563 3.84925 0
M  V30 58663 O 946.954 -8.85821 5.0569 0
M  V30 58664 O 946.384 -8.41101 2.65469 0
M  V30 58665 O 946.924 -6.4965 4.18908 0
M  V30 58666 C 947.864 -5.81037 5.05421 0
M  V30 58667 C 947.134 -4.78366 5.89277 0
M  V30 58668 O 946.924 -3.58302 5.08433 0
M  V30 58669 C 945.734 -5.17448 6.36119 0
M  V30 58670 O 945.344 -4.45271 7.53232 0
M  V30 58671 C 944.854 -4.74639 5.19936 0
M  V30 58672 C 945.564 -3.49432 4.70418 0
M  V30 58673 N 945.514 -3.31776 3.22945 0
M  V30 58674 H 948.353 -6.54213 5.71376 0
M  V30 58675 H 948.625 -5.30492 4.44033 0
M  V30 58676 H 947.757 -4.55889 6.76652 0
M  V30 58677 P 943.794 -4.23843 7.83734 0
M  V30 58678 O 943.574 -4.19407 9.29784 0
M  V30 58679 O 943.004 -5.24426 7.09156 0
M  V30 58680 O 943.544 -2.7935 7.20758 0
M  V30 58681 C 944.484 -1.7299 7.50419 0
M  V30 58682 C 943.754 -0.406376 7.57911 0
M  V30 58683 O 943.544 0.0897726 6.21935 0
M  V30 58684 C 942.354 -0.447224 8.1878 0
M  V30 58685 O 941.964 0.825065 8.71101 0
M  V30 58686 C 941.474 -0.783801 6.99623 0
M  V30 58687 C 942.184 -0.0619192 5.85967 0
M  V30 58688 N 942.134 -0.790462 4.56202 0
M  V30 58689 H 944.973 -1.93423 8.4679 0
M  V30 58690 H 945.245 -1.68852 6.70877 0
M  V30 58691 H 944.377 0.289041 8.15388 0
M  V30 58692 H 941.722 0.927006 5.72848 0
M  V30 58693 H 941.442 -1.86973 6.82036 0
M  V30 58694 H 940.451 -0.403953 7.13357 0
M  V30 58695 H 942.285 -1.20599 8.97534 0
M  V30 58696 P 940.414 1.17771 8.83182 0
M  V30 58697 O 940.194 2.07206 9.98732 0
M  V30 58698 O 939.624 -0.0743816 8.81969 0
M  V30 58699 O 940.164 1.97678 7.474 0
M  V30 58700 C 941.104 3.01133 7.08783 0
M  V30 58701 C 940.374 4.1203 6.37546 0
M  V30 58702 O 940.164 3.72887 4.9796 0
M  V30 58703 C 938.974 4.45085 6.88694 0
M  V30 58704 O 938.584 5.78836 6.56315 0
M  V30 58705 C 938.094 3.47817 6.12078 0
M  V30 58706 C 938.804 3.39414 4.77697 0
M  V30 58707 N 938.754 2.04615 4.15333 0
M  V30 58708 C 938.604 1.96929 2.77162 0
M  V30 58709 O 938.514 3.02017 2.12006 0
M  V30 58710 N 938.554 0.55485 2.24237 0
M  V30 58711 C 938.654 -0.367808 2.9169 0
M  V30 58712 N 938.604 -1.53426 2.29427 0
M  V30 58713 C 938.804 -0.319148 4.33828 0
M  V30 58714 C 938.854 0.920672 4.90433 0
M  V30 58715 H 941.594 3.41209 7.98667 0
M  V30 58716 H 941.864 2.5837 6.41742 0
M  V30 58717 H 940.997 5.02718 6.42752 0
M  V30 58718 H 938.342 4.11779 4.09026 0
M  V30 58719 H 938.062 2.49661 6.61772 0
M  V30 58720 H 937.071 3.86674 6.00946 0
M  V30 58721 H 938.905 4.29991 7.97006 0
M  V30 58722 H 938.977 1.00589 5.98303 0
M  V30 58723 H 938.875 -1.22639 4.93799 0
M  V30 58724 H 938.487 -1.56819 1.27167 0
M  V30 58725 H 938.683 -2.41062 2.83063 0
M  V30 58726 P 937.034 6.144 6.45285 0
M  V30 58727 O 936.814 7.54673 6.86199 0
M  V30 58728 O 936.244 5.12391 7.179 0
M  V30 58729 O 936.784 5.99158 4.88404 0
M  V30 58730 C 937.724 6.60234 3.96415 0
M  V30 58731 C 936.994 7.08259 2.72856 0
M  V30 58732 O 936.784 5.9427 1.83651 0
M  V30 58733 C 935.594 7.64886 2.9555 0
M  V30 58734 O 935.204 8.53963 1.90717 0
M  V30 58735 C 934.714 6.4116 2.90739 0
M  V30 58736 C 935.424 5.55375 1.86963 0
M  V30 58737 N 935.374 4.09448 2.16152 0
M  V30 58738 H 938.213 7.45574 4.45629 0
M  V30 58739 H 938.485 5.85864 3.679 0
M  V30 58740 H 937.617 7.84412 2.24479 0
M  V30 58741 H 934.962 5.73457 0.888562 0
M  V30 58742 H 934.682 5.90877 3.88583 0
M  V30 58743 H 933.691 6.6596 2.58858 0
M  V30 58744 H 935.525 8.16339 3.92049 0
M  V30 58745 P 933.655 8.7635 1.60911 0
M  V30 58746 O 933.435 10.1388 1.11561 0
M  V30 58747 O 932.865 8.36503 2.79617 0
M  V30 58748 O 933.405 7.71806 0.42951 0
M  V30 58749 C 934.345 7.67148 -0.673689 0
M  V30 58750 C 933.615 7.33374 -1.95559 0
M  V30 58751 O 933.405 5.88721 -2.00726 0
M  V30 58752 C 932.215 7.92526 -2.10483 0
M  V30 58753 O 931.825 8.02971 -3.47653 0
M  V30 58754 C 931.335 6.89602 -1.41652 0
M  V30 58755 C 932.045 5.59201 -1.75185 0
M  V30 58756 N 931.995 4.58235 -0.662552 0
M  V30 58757 H 934.834 8.65116 -0.777161 0
M  V30 58758 H 935.106 6.90173 -0.474152 0
M  V30 58759 H 934.238 7.66548 -2.79458 0
M  V30 58760 P 930.275 8.03563 -3.84925 0
M  V30 58761 O 930.055 8.85821 -5.0569 0
M  V30 58762 O 929.485 8.41101 -2.65469 0
M  V30 58763 O 930.025 6.4965 -4.18908 0
M  V30 58764 C 930.965 5.81037 -5.05421 0
M  V30 58765 C 930.235 4.78366 -5.89277 0
M  V30 58766 O 930.025 3.58302 -5.08433 0
M  V30 58767 C 928.835 5.17448 -6.36119 0
M  V30 58768 O 928.445 4.45271 -7.53232 0
M  V30 58769 C 927.955 4.74639 -5.19936 0
M  V30 58770 C 928.665 3.49432 -4.70418 0
M  V30 58771 N 928.615 3.32099 -3.22613 0
M  V30 58772 H 931.454 6.54213 -5.71376 0
M  V30 58773 H 931.726 5.30936 -4.43503 0
M  V30 58774 H 930.858 4.55889 -6.76652 0
M  V30 58775 H 928.203 2.61715 -5.17932 0
M  V30 58776 H 927.923 5.52155 -4.41878 0
M  V30 58777 H 926.932 4.51981 -5.53374 0
M  V30 58778 H 928.766 6.25124 -6.55234 0
M  V30 58779 P 926.895 4.23843 -7.83734 0
M  V30 58780 O 926.675 4.19407 -9.29784 0
M  V30 58781 O 926.105 5.24426 -7.09156 0
M  V30 58782 O 926.645 2.7935 -7.20758 0
M  V30 58783 C 927.585 1.7299 -7.50419 0
M  V30 58784 C 926.855 0.406376 -7.57911 0
M  V30 58785 O 926.645 -0.0897726 -6.21935 0
M  V30 58786 C 925.455 0.447224 -8.1878 0
M  V30 58787 O 925.065 -0.825065 -8.71101 0
M  V30 58788 C 924.575 0.783801 -6.99623 0
M  V30 58789 C 925.285 0.0619192 -5.85967 0
M  V30 58790 N 925.235 0.7859 -4.56281 0
M  V30 58791 H 928.074 1.93423 -8.4679 0
M  V30 58792 H 928.346 1.68181 -6.71046 0
M  V30 58793 H 927.478 -0.289041 -8.15388 0
M  V30 58794 P 923.515 -1.17771 -8.83182 0
M  V30 58795 O 923.295 -2.07206 -9.98732 0
M  V30 58796 O 922.725 0.0743816 -8.81969 0
M  V30 58797 O 923.265 -1.97652 -7.47304 0
M  V30 58798 C 924.205 -3.01133 -7.08783 0
M  V30 58799 C 923.475 -4.12613 -6.37049 0
M  V30 58800 O 923.265 -3.72827 -4.97879 0
M  V30 58801 C 922.075 -4.45085 -6.88694 0
M  V30 58802 O 921.685 -5.7877 -6.5624 0
M  V30 58803 C 921.195 -3.47817 -6.12078 0
M  V30 58804 C 921.905 -3.39414 -4.77697 0
M  V30 58805 N 921.855 -2.04199 -4.15538 0
M  V30 58806 H 924.694 -3.41248 -7.98759 0
M  V30 58807 H 924.966 -2.57728 -6.42 0
M  V30 58808 H 924.098 -5.02657 -6.42673 0
M  V30 58809 H 921.443 -4.11708 -4.08956 0
M  V30 58810 H 921.163 -2.49626 -6.61679 0
M  V30 58811 H 920.172 -3.8662 -6.00862 0
M  V30 58812 H 922.006 -4.29991 -7.97006 0
M  V30 58813 P 920.135 -6.144 -6.45285 0
M  V30 58814 O 919.915 -7.54673 -6.86199 0
M  V30 58815 O 919.345 -5.12391 -7.179 0
M  V30 58816 O 919.885 -5.99158 -4.88404 0
M  V30 58817 C 920.825 -6.60062 -3.96313 0
M  V30 58818 C 920.095 -7.08259 -2.72856 0
M  V30 58819 O 919.885 -5.9427 -1.83651 0
M  V30 58820 C 918.695 -7.65087 -2.94749 0
M  V30 58821 O 918.305 -8.53963 -1.90717 0
M  V30 58822 C 917.815 -6.41069 -2.90698 0
M  V30 58823 C 918.525 -5.5528 -1.86931 0
M  V30 58824 N 918.475 -4.09575 -2.15696 0
M  V30 58825 C 918.325 -3.24249 -1.08435 0
M  V30 58826 O 918.235 -3.63946 0.0628747 0
M  V30 58827 N 918.285 -1.90009 -1.39973 0
M  V30 58828 C 918.375 -1.34884 -2.65614 0
M  V30 58829 O 918.325 -0.123716 -2.81728 0
M  V30 58830 C 918.525 -2.3145 -3.71736 0
M  V30 58831 C 918.635 -1.75913 -5.10438 0
M  V30 58832 C 918.575 -3.63518 -3.44754 0
M  V30 58833 H 921.316 -7.45402 -4.45526 0
M  V30 58834 H 921.585 -5.86062 -3.67208 0
M  V30 58835 H 920.718 -7.84412 -2.24479 0
M  V30 58836 H 918.063 -5.73358 -0.888409 0
M  V30 58837 H 917.784 -5.90877 -3.88583 0
M  V30 58838 H 916.792 -6.65867 -2.58821 0
M  V30 58839 H 918.626 -8.16248 -3.92006 0
M  V30 58840 H 918.697 -4.34551 -4.26383 0
M  V30 58841 H 917.667 -1.85471 -5.61775 0
M  V30 58842 H 919.404 -2.31364 -5.66257 0
M  V30 58843 H 918.916 -0.695936 -5.05229 0
M  V30 58844 H 918.18 -1.26277 -0.63625 0
M  V30 58845 P 916.755 -8.7635 -1.60911 0
M  V30 58846 O 916.535 -10.1388 -1.11561 0
M  V30 58847 O 915.965 -8.36503 -2.79617 0
M  V30 58848 O 916.505 -7.71806 -0.42951 0
M  V30 58849 C 917.445 -7.67148 0.673689 0
M  V30 58850 C 916.715 -7.33374 1.95559 0
M  V30 58851 O 916.505 -5.88721 2.00726 0
M  V30 58852 C 915.315 -7.92526 2.10483 0
M  V30 58853 O 914.925 -8.02971 3.47653 0
M  V30 58854 C 914.435 -6.89602 1.41652 0
M  V30 58855 C 915.145 -5.59201 1.75185 0
M  V30 58856 N 915.095 -4.58235 0.662552 0
M  V30 58857 H 917.934 -8.65116 0.777161 0
M  V30 58858 H 918.206 -6.90173 0.474152 0
M  V30 58859 H 917.338 -7.66548 2.79458 0
M  V30 58860 P 913.375 -8.03563 3.84925 0
M  V30 58861 O 913.155 -8.85821 5.0569 0
M  V30 58862 O 912.585 -8.41101 2.65469 0
M  V30 58863 O 913.125 -6.4965 4.18908 0
M  V30 58864 C 914.065 -5.81037 5.05421 0
M  V30 58865 C 913.335 -4.78366 5.89277 0
M  V30 58866 O 913.125 -3.58302 5.08433 0
M  V30 58867 C 911.935 -5.17448 6.36119 0
M  V30 58868 O 911.545 -4.45271 7.53232 0
M  V30 58869 C 911.055 -4.74639 5.19936 0
M  V30 58870 C 911.765 -3.49432 4.70418 0
M  V30 58871 N 911.715 -3.31776 3.22945 0
M  V30 58872 H 914.554 -6.54213 5.71376 0
M  V30 58873 H 914.826 -5.30492 4.44033 0
M  V30 58874 H 913.958 -4.55889 6.76652 0
M  V30 58875 P 909.995 -4.23843 7.83734 0
M  V30 58876 O 909.775 -4.19407 9.29784 0
M  V30 58877 O 909.205 -5.24426 7.09156 0
M  V30 58878 O 909.745 -2.79386 7.20852 0
M  V30 58879 C 910.685 -1.7299 7.50419 0
M  V30 58880 C 909.955 -0.41401 7.5797 0
M  V30 58881 O 909.745 0.089787 6.22035 0
M  V30 58882 C 908.555 -0.447224 8.1878 0
M  V30 58883 O 908.165 0.825159 8.71201 0
M  V30 58884 C 907.675 -0.783801 6.99623 0
M  V30 58885 C 908.385 -0.0619192 5.85967 0
M  V30 58886 N 908.335 -0.7859 4.56281 0
M  V30 58887 C 908.185 -0.0359258 3.39981 0
M  V30 58888 O 908.095 1.19723 3.49038 0
M  V30 58889 N 908.135 -0.869151 2.14025 0
M  V30 58890 C 908.235 -2.01207 2.14363 0
M  V30 58891 N 908.185 -2.58978 0.954287 0
M  V30 58892 C 908.385 -2.80817 3.32215 0
M  V30 58893 C 908.435 -2.13785 4.50884 0
M  V30 58894 H 911.175 -1.93401 8.46693 0
M  V30 58895 H 911.445 -1.68181 6.71046 0
M  V30 58896 H 910.578 0.289076 8.15488 0
M  V30 58897 H 907.923 0.927166 5.72947 0
M  V30 58898 H 907.643 -1.87 6.82132 0
M  V30 58899 H 906.652 -0.404009 7.13457 0
M  V30 58900 H 908.486 -1.20599 8.97534 0
M  V30 58901 H 908.558 -2.70295 5.43162 0
M  V30 58902 H 908.456 -3.89465 3.27406 0
M  V30 58903 H 908.068 -2.01616 0.107046 0
M  V30 58904 H 908.264 -3.61403 0.873101 0
M  V30 58905 P 906.615 1.17771 8.83182 0
M  V30 58906 O 906.395 2.07206 9.98732 0
M  V30 58907 O 905.825 -0.0743816 8.81969 0
M  V30 58908 O 906.365 1.97652 7.47304 0
M  V30 58909 C 907.305 3.01055 7.08599 0
M  V30 58910 C 906.575 4.12613 6.37049 0
M  V30 58911 O 906.365 3.72827 4.97879 0
M  V30 58912 C 905.175 4.45719 6.88164 0
M  V30 58913 O 904.785 5.7877 6.5624 0
M  V30 58914 C 904.295 3.47768 6.11991 0
M  V30 58915 C 905.005 3.39356 4.77615 0
M  V30 58916 N 904.955 2.04571 4.15244 0
M  V30 58917 C 904.805 1.98587 2.78314 0
M  V30 58918 O 904.715 2.98134 2.08835 0
M  V30 58919 N 904.765 0.714467 2.24925 0
M  V30 58920 C 904.855 -0.470001 2.94169 0
M  V30 58921 O 904.805 -1.55587 2.35195 0
M  V30 58922 C 905.005 -0.312541 4.36783 0
M  V30 58923 C 905.115 -1.57711 5.16352 0
M  V30 58924 C 905.055 0.914512 4.92583 0
M  V30 58925 H 907.796 3.41169 7.98575 0
M  V30 58926 H 908.065 2.58295 6.41556 0
M  V30 58927 H 907.198 5.02657 6.42673 0
M  V30 58928 H 904.543 4.11637 4.08885 0
M  V30 58929 H 904.264 2.49626 6.61679 0
M  V30 58930 H 903.272 3.86566 6.00778 0
M  V30 58931 H 905.106 4.29943 7.96918 0
M  V30 58932 H 905.177 1.00937 6.00374 0
M  V30 58933 H 904.147 -1.80153 5.63503 0
M  V30 58934 H 905.884 -1.4566 5.94104 0
M  V30 58935 H 905.396 -2.40664 4.49645 0
M  V30 58936 H 904.66 0.647622 1.25697 0
M  V30 58937 P 903.235 6.144 6.45285 0
M  V30 58938 O 903.015 7.54673 6.86199 0
M  V30 58939 O 902.445 5.12391 7.179 0
M  V30 58940 O 902.985 5.99158 4.88404 0
M  V30 58941 C 903.925 6.60062 3.96313 0
M  V30 58942 C 903.195 7.08259 2.72856 0
M  V30 58943 O 902.985 5.9427 1.83651 0
M  V30 58944 C 901.795 7.65087 2.94749 0
M  V30 58945 O 901.405 8.53963 1.90717 0
M  V30 58946 C 900.915 6.41069 2.90698 0
M  V30 58947 C 901.625 5.5528 1.86931 0
M  V30 58948 N 901.575 4.09575 2.15696 0
M  V30 58949 C 901.425 3.24249 1.08435 0
M  V30 58950 O 901.335 3.63946 -0.0628747 0
M  V30 58951 N 901.385 1.90009 1.39973 0
M  V30 58952 C 901.475 1.34884 2.65614 0
M  V30 58953 C 901.625 2.3145 3.71736 0
M  V30 58954 C 901.675 3.63518 3.44754 0
M  V30 58955 H 904.416 7.45402 4.45526 0
M  V30 58956 H 904.685 5.86062 3.67208 0
M  V30 58957 H 903.818 7.84412 2.24479 0
M  V30 58958 H 901.163 5.73358 0.888409 0
M  V30 58959 H 900.884 5.90877 3.88583 0
M  V30 58960 H 899.892 6.65867 2.58821 0
M  V30 58961 H 901.726 8.16248 3.92006 0
M  V30 58962 H 901.797 4.34551 4.26383 0
M  V30 58963 P 899.855 8.7635 1.60911 0
M  V30 58964 O 899.635 10.1388 1.11561 0
M  V30 58965 O 899.065 8.36503 2.79617 0
M  V30 58966 O 899.605 7.71806 0.42951 0
M  V30 58967 C 900.545 7.66948 -0.673514 0
M  V30 58968 C 899.815 7.33374 -1.95559 0
M  V30 58969 O 899.605 5.88721 -2.00726 0
M  V30 58970 C 898.415 7.92218 -2.1125 0
M  V30 58971 O 898.025 8.02971 -3.47653 0
M  V30 58972 C 897.535 6.89504 -1.41631 0
M  V30 58973 C 898.245 5.59106 -1.75155 0
M  V30 58974 N 898.195 4.58136 -0.662409 0
M  V30 58975 C 898.045 3.26059 -1.02863 0
M  V30 58976 O 897.955 2.90743 -2.19009 0
M  V30 58977 N 898.005 2.35995 0.0155585 0
M  V30 58978 C 898.095 2.65248 1.35603 0
M  V30 58979 O 898.045 1.75605 2.20651 0
M  V30 58980 C 898.245 4.05747 1.64698 0
M  V30 58981 C 898.355 4.42345 3.09553 0
M  V30 58982 C 898.295 4.96734 0.652411 0
M  V30 58983 H 901.036 8.64917 -0.776982 0
M  V30 58984 H 901.305 6.89974 -0.474015 0
M  V30 58985 H 900.438 7.66548 -2.79458 0
M  V30 58986 H 897.783 5.16076 -2.65138 0
M  V30 58987 H 897.504 7.06433 -0.329384 0
M  V30 58988 H 896.512 6.90829 -1.81996 0
M  V30 58989 H 898.346 8.90774 -1.62639 0
M  V30 58990 H 898.417 6.02181 0.895285 0
M  V30 58991 H 897.387 4.80252 3.45468 0
M  V30 58992 H 899.124 5.20015 3.22119 0
M  V30 58993 H 898.636 3.53269 3.67833 0
M  V30 58994 H 897.9 1.39558 -0.227499 0
M  V30 58995 P 896.475 8.03563 -3.84925 0
M  V30 58996 O 896.255 8.85821 -5.0569 0
M  V30 58997 O 895.685 8.41101 -2.65469 0
M  V30 58998 O 896.225 6.4965 -4.18908 0
M  V30 58999 C 897.165 5.81037 -5.05421 0
M  V30 59000 C 896.435 4.78366 -5.89277 0
M  V30 59001 O 896.225 3.58302 -5.08433 0
M  V30 59002 C 895.035 5.17448 -6.36119 0
M  V30 59003 O 894.645 4.45271 -7.53232 0
M  V30 59004 C 894.155 4.74639 -5.19936 0
M  V30 59005 C 894.865 3.49432 -4.70418 0
M  V30 59006 N 894.815 3.31776 -3.22945 0
M  V30 59007 H 897.654 6.54213 -5.71376 0
M  V30 59008 H 897.926 5.30492 -4.44033 0
M  V30 59009 H 897.058 4.55889 -6.76652 0
M  V30 59010 P 893.095 4.23843 -7.83734 0
M  V30 59011 O 892.875 4.19407 -9.29784 0
M  V30 59012 O 892.305 5.24426 -7.09156 0
M  V30 59013 O 892.845 2.7935 -7.20758 0
M  V30 59014 C 893.785 1.72945 -7.50224 0
M  V30 59015 C 893.055 0.406376 -7.57911 0
M  V30 59016 O 892.845 -0.0897726 -6.21935 0
M  V30 59017 C 891.655 0.438983 -8.18724 0
M  V30 59018 O 891.265 -0.825065 -8.71101 0
M  V30 59019 C 890.775 0.783689 -6.99524 0
M  V30 59020 C 891.485 0.0619086 -5.85867 0
M  V30 59021 N 891.435 0.78573 -4.56183 0
M  V30 59022 C 891.285 0.0292889 -3.41887 0
M  V30 59023 O 891.195 -1.18445 -3.4419 0
M  V30 59024 N 891.245 0.744061 -2.23964 0
M  V30 59025 C 891.335 2.10932 -2.10362 0
M  V30 59026 C 891.485 2.8202 -3.34994 0
M  V30 59027 C 891.535 2.15547 -4.52261 0
M  V30 59028 H 894.276 1.93379 -8.46595 0
M  V30 59029 H 894.545 1.68132 -6.70852 0
M  V30 59030 H 893.678 -0.289041 -8.15388 0
M  V30 59031 H 891.023 -0.926847 -5.72749 0
M  V30 59032 H 890.744 1.86973 -6.82036 0
M  V30 59033 H 889.752 0.403896 -7.13257 0
M  V30 59034 H 891.586 1.20585 -8.97435 0
M  V30 59035 H 891.657 2.71231 -5.45042 0
M  V30 59036 P 889.715 -1.17771 -8.83182 0
M  V30 59037 O 889.495 -2.07206 -9.98732 0
M  V30 59038 O 888.925 0.0743816 -8.81969 0
M  V30 59039 O 889.465 -1.97652 -7.47304 0
M  V30 59040 C 890.405 -3.01133 -7.08783 0
M  V30 59041 C 889.675 -4.12613 -6.37049 0
M  V30 59042 O 889.465 -3.72827 -4.97879 0
M  V30 59043 C 888.275 -4.45085 -6.88694 0
M  V30 59044 O 887.885 -5.7877 -6.5624 0
M  V30 59045 C 887.395 -3.47817 -6.12078 0
M  V30 59046 C 888.105 -3.39414 -4.77697 0
M  V30 59047 N 888.055 -2.04199 -4.15538 0
M  V30 59048 H 890.894 -3.41248 -7.98759 0
M  V30 59049 H 891.166 -2.57728 -6.42 0
M  V30 59050 H 890.298 -5.02657 -6.42673 0
M  V30 59051 H 887.643 -4.11708 -4.08956 0
M  V30 59052 H 887.363 -2.49626 -6.61679 0
M  V30 59053 H 886.372 -3.8662 -6.00862 0
M  V30 59054 H 888.206 -4.29991 -7.97006 0
M  V30 59055 P 886.335 -6.144 -6.45285 0
M  V30 59056 O 886.115 -7.54673 -6.86199 0
M  V30 59057 O 885.545 -5.12391 -7.179 0
M  V30 59058 O 886.085 -5.99158 -4.88404 0
M  V30 59059 C 887.025 -6.60234 -3.96415 0
M  V30 59060 C 886.295 -7.08259 -2.72856 0
M  V30 59061 O 886.085 -5.9427 -1.83651 0
M  V30 59062 C 884.895 -7.64886 -2.9555 0
M  V30 59063 O 884.505 -8.53963 -1.90717 0
M  V30 59064 C 884.015 -6.4116 -2.90739 0
M  V30 59065 C 884.725 -5.55375 -1.86963 0
M  V30 59066 N 884.675 -4.09664 -2.15742 0
M  V30 59067 H 887.514 -7.45574 -4.45629 0
M  V30 59068 H 887.786 -5.86232 -3.67314 0
M  V30 59069 H 886.918 -7.84412 -2.24479 0
M  V30 59070 P 882.955 -8.7635 -1.60911 0
M  V30 59071 O 882.735 -10.1388 -1.11561 0
M  V30 59072 O 882.165 -8.36503 -2.79617 0
M  V30 59073 O 882.705 -7.71806 -0.42951 0
M  V30 59074 C 883.645 -7.67148 0.673689 0
M  V30 59075 C 882.915 -7.33374 1.95559 0
M  V30 59076 O 882.705 -5.88721 2.00726 0
M  V30 59077 C 881.515 -7.92526 2.10483 0
M  V30 59078 O 881.125 -8.02971 3.47653 0
M  V30 59079 C 880.635 -6.89602 1.41652 0
M  V30 59080 C 881.345 -5.59201 1.75185 0
M  V30 59081 N 881.295 -4.58235 0.662552 0
M  V30 59082 H 884.134 -8.65116 0.777161 0
M  V30 59083 H 884.406 -6.90173 0.474152 0
M  V30 59084 H 883.538 -7.66548 2.79458 0
M  V30 59085 P 879.575 -8.03563 3.84925 0
M  V30 59086 O 879.355 -8.85821 5.0569 0
M  V30 59087 O 878.785 -8.41101 2.65469 0
M  V30 59088 O 879.325 -6.4965 4.18908 0
M  V30 59089 C 880.265 -5.81037 5.05421 0
M  V30 59090 C 879.535 -4.78366 5.89277 0
M  V30 59091 O 879.325 -3.58302 5.08433 0
M  V30 59092 C 878.135 -5.17448 6.36119 0
M  V30 59093 O 877.745 -4.45271 7.53232 0
M  V30 59094 C 877.255 -4.74639 5.19936 0
M  V30 59095 C 877.965 -3.49432 4.70418 0
M  V30 59096 N 877.915 -3.31776 3.22945 0
M  V30 59097 H 880.754 -6.54213 5.71376 0
M  V30 59098 H 881.026 -5.30492 4.44033 0
M  V30 59099 H 880.158 -4.55889 6.76652 0
M  V30 59100 P 876.195 -4.23843 7.83734 0
M  V30 59101 O 875.975 -4.19407 9.29784 0
M  V30 59102 O 875.405 -5.24426 7.09156 0
M  V30 59103 O 875.945 -2.7935 7.20758 0
M  V30 59104 C 876.885 -1.7299 7.50419 0
M  V30 59105 C 876.155 -0.406376 7.57911 0
M  V30 59106 O 875.945 0.0897726 6.21935 0
M  V30 59107 C 874.755 -0.447224 8.1878 0
M  V30 59108 O 874.365 0.825065 8.71101 0
M  V30 59109 C 873.875 -0.783801 6.99623 0
M  V30 59110 C 874.585 -0.0619192 5.85967 0
M  V30 59111 N 874.535 -0.790462 4.56202 0
M  V30 59112 H 877.374 -1.93423 8.4679 0
M  V30 59113 H 877.646 -1.68852 6.70877 0
M  V30 59114 H 876.778 0.289041 8.15388 0
M  V30 59115 H 874.123 0.927006 5.72848 0
M  V30 59116 H 873.843 -1.86973 6.82036 0
M  V30 59117 H 872.852 -0.403953 7.13357 0
M  V30 59118 H 874.686 -1.20599 8.97534 0
M  V30 59119 P 872.815 1.17771 8.83182 0
M  V30 59120 O 872.595 2.07206 9.98732 0
M  V30 59121 O 872.025 -0.0743816 8.81969 0
M  V30 59122 O 872.565 1.97652 7.47304 0
M  V30 59123 C 873.505 3.01133 7.08783 0
M  V30 59124 C 872.775 4.12613 6.37049 0
M  V30 59125 O 872.565 3.72827 4.97879 0
M  V30 59126 C 871.375 4.45085 6.88694 0
M  V30 59127 O 870.985 5.7877 6.5624 0
M  V30 59128 C 870.495 3.47817 6.12078 0
M  V30 59129 C 871.205 3.39414 4.77697 0
M  V30 59130 N 871.155 2.04615 4.15333 0
M  V30 59131 H 873.994 3.41248 7.98759 0
M  V30 59132 H 874.266 2.5837 6.41742 0
M  V30 59133 H 873.398 5.02657 6.42673 0
M  V30 59134 P 869.435 6.144 6.45285 0
M  V30 59135 O 869.215 7.54673 6.86199 0
M  V30 59136 O 868.645 5.12391 7.179 0
M  V30 59137 O 869.185 5.99158 4.88404 0
M  V30 59138 C 870.125 6.60234 3.96415 0
M  V30 59139 C 869.395 7.08259 2.72856 0
M  V30 59140 O 869.185 5.9427 1.83651 0
M  V30 59141 C 867.995 7.64886 2.9555 0
M  V30 59142 O 867.605 8.53963 1.90717 0
M  V30 59143 C 867.115 6.4116 2.90739 0
M  V30 59144 C 867.825 5.55375 1.86963 0
M  V30 59145 N 867.775 4.09448 2.16152 0
M  V30 59146 H 870.614 7.45574 4.45629 0
M  V30 59147 H 870.886 5.85864 3.679 0
M  V30 59148 H 870.018 7.84412 2.24479 0
M  V30 59149 H 867.363 5.73457 0.888562 0
M  V30 59150 H 867.083 5.90877 3.88583 0
M  V30 59151 H 866.092 6.6596 2.58858 0
M  V30 59152 H 867.926 8.16339 3.92049 0
M  V30 59153 P 866.055 8.7635 1.60911 0
M  V30 59154 O 865.835 10.1388 1.11561 0
M  V30 59155 O 865.265 8.36503 2.79617 0
M  V30 59156 O 865.805 7.71806 0.42951 0
M  V30 59157 C 866.745 7.67148 -0.673689 0
M  V30 59158 C 866.015 7.33374 -1.95559 0
M  V30 59159 O 865.805 5.88721 -2.00726 0
M  V30 59160 C 864.615 7.92526 -2.10483 0
M  V30 59161 O 864.225 8.02971 -3.47653 0
M  V30 59162 C 863.735 6.89602 -1.41652 0
M  V30 59163 C 864.445 5.59201 -1.75185 0
M  V30 59164 N 864.395 4.58235 -0.662552 0
M  V30 59165 H 867.234 8.65116 -0.777161 0
M  V30 59166 H 867.506 6.90173 -0.474152 0
M  V30 59167 H 866.638 7.66548 -2.79458 0
M  V30 59168 P 862.675 8.03563 -3.84925 0
M  V30 59169 O 862.455 8.85821 -5.0569 0
M  V30 59170 O 861.885 8.41101 -2.65469 0
M  V30 59171 O 862.425 6.4965 -4.18908 0
M  V30 59172 C 863.365 5.81037 -5.05421 0
M  V30 59173 C 862.635 4.78366 -5.89277 0
M  V30 59174 O 862.425 3.58302 -5.08433 0
M  V30 59175 C 861.235 5.17448 -6.36119 0
M  V30 59176 O 860.845 4.45271 -7.53232 0
M  V30 59177 C 860.355 4.74639 -5.19936 0
M  V30 59178 C 861.065 3.49432 -4.70418 0
M  V30 59179 N 861.015 3.32099 -3.22613 0
M  V30 59180 H 863.854 6.54213 -5.71376 0
M  V30 59181 H 864.126 5.30936 -4.43503 0
M  V30 59182 H 863.258 4.55889 -6.76652 0
M  V30 59183 H 860.603 2.61715 -5.17932 0
M  V30 59184 H 860.323 5.52155 -4.41878 0
M  V30 59185 H 859.332 4.51981 -5.53374 0
M  V30 59186 H 861.166 6.25124 -6.55234 0
M  V30 59187 P 859.295 4.23843 -7.83734 0
M  V30 59188 O 859.075 4.19407 -9.29784 0
M  V30 59189 O 858.505 5.24426 -7.09156 0
M  V30 59190 O 859.045 2.7935 -7.20758 0
M  V30 59191 C 859.985 1.7299 -7.50419 0
M  V30 59192 C 859.255 0.406376 -7.57911 0
M  V30 59193 O 859.045 -0.0897726 -6.21935 0
M  V30 59194 C 857.855 0.447224 -8.1878 0
M  V30 59195 O 857.465 -0.825065 -8.71101 0
M  V30 59196 C 856.975 0.783801 -6.99623 0
M  V30 59197 C 857.685 0.0619192 -5.85967 0
M  V30 59198 N 857.635 0.7859 -4.56281 0
M  V30 59199 H 860.474 1.93423 -8.4679 0
M  V30 59200 H 860.746 1.68181 -6.71046 0
M  V30 59201 H 859.878 -0.289041 -8.15388 0
M  V30 59202 P 855.915 -1.17771 -8.83182 0
M  V30 59203 O 855.695 -2.07206 -9.98732 0
M  V30 59204 O 855.125 0.0743816 -8.81969 0
M  V30 59205 O 855.665 -1.97652 -7.47304 0
M  V30 59206 C 856.605 -3.01133 -7.08783 0
M  V30 59207 C 855.875 -4.12613 -6.37049 0
M  V30 59208 O 855.665 -3.72827 -4.97879 0
M  V30 59209 C 854.475 -4.45085 -6.88694 0
M  V30 59210 O 854.085 -5.7877 -6.5624 0
M  V30 59211 C 853.595 -3.47817 -6.12078 0
M  V30 59212 C 854.305 -3.39414 -4.77697 0
M  V30 59213 N 854.255 -2.04199 -4.15538 0
M  V30 59214 C 854.335 -0.821545 -4.76977 0
M  V30 59215 N 854.265 0.1794 -3.94592 0
M  V30 59216 C 854.115 -0.419121 -2.70776 0
M  V30 59217 C 853.985 0.109072 -1.40577 0
M  V30 59218 N 853.975 1.4104 -1.1344 0
M  V30 59219 N 853.865 -0.764381 -0.39411 0
M  V30 59220 C 853.875 -2.06587 -0.664135 0
M  V30 59221 N 853.995 -2.67948 -1.82153 0
M  V30 59222 C 854.115 -1.77942 -2.8147 0
M  V30 59223 H 857.094 -3.41248 -7.98759 0
M  V30 59224 H 857.366 -2.57728 -6.42 0
M  V30 59225 H 856.498 -5.02657 -6.42673 0
M  V30 59226 H 853.843 -4.11708 -4.08956 0
M  V30 59227 H 853.563 -2.49626 -6.61679 0
M  V30 59228 H 852.572 -3.8662 -6.00862 0
M  V30 59229 H 854.406 -4.29991 -7.97006 0
M  V30 59230 H 854.447 -0.702451 -5.84696 0
M  V30 59231 H 854.066 2.09647 -1.89651 0
M  V30 59232 H 853.877 1.73358 -0.160575 0
M  V30 59233 H 853.769 -2.71695 0.195838 0
M  V30 59234 P 852.535 -6.144 -6.45285 0
M  V30 59235 O 852.315 -7.54673 -6.86199 0
M  V30 59236 O 851.745 -5.12391 -7.179 0
M  V30 59237 O 852.285 -5.99158 -4.88404 0
M  V30 59238 C 853.225 -6.60234 -3.96415 0
M  V30 59239 C 852.495 -7.08259 -2.72856 0
M  V30 59240 O 852.285 -5.9427 -1.83651 0
M  V30 59241 C 851.095 -7.64886 -2.9555 0
M  V30 59242 O 850.705 -8.53963 -1.90717 0
M  V30 59243 C 850.215 -6.4116 -2.90739 0
M  V30 59244 C 850.925 -5.55375 -1.86963 0
M  V30 59245 N 850.875 -4.09664 -2.15742 0
M  V30 59246 H 853.714 -7.45574 -4.45629 0
M  V30 59247 H 853.986 -5.86232 -3.67314 0
M  V30 59248 H 853.118 -7.84412 -2.24479 0
M  V30 59249 P 849.155 -8.7635 -1.60911 0
M  V30 59250 O 848.935 -10.1388 -1.11561 0
M  V30 59251 O 848.365 -8.36503 -2.79617 0
M  V30 59252 O 848.905 -7.71806 -0.42951 0
M  V30 59253 C 849.845 -7.67148 0.673689 0
M  V30 59254 C 849.115 -7.33374 1.95559 0
M  V30 59255 O 848.905 -5.88721 2.00726 0
M  V30 59256 C 847.715 -7.92526 2.10483 0
M  V30 59257 O 847.325 -8.02971 3.47653 0
M  V30 59258 C 846.835 -6.89602 1.41652 0
M  V30 59259 C 847.545 -5.59201 1.75185 0
M  V30 59260 N 847.495 -4.58235 0.662552 0
M  V30 59261 H 850.334 -8.65116 0.777161 0
M  V30 59262 H 850.606 -6.90173 0.474152 0
M  V30 59263 H 849.738 -7.66548 2.79458 0
M  V30 59264 P 845.775 -8.03563 3.84925 0
M  V30 59265 O 845.555 -8.85821 5.0569 0
M  V30 59266 O 844.985 -8.41101 2.65469 0
M  V30 59267 O 845.525 -6.4965 4.18908 0
M  V30 59268 C 846.465 -5.81037 5.05421 0
M  V30 59269 C 845.735 -4.78366 5.89277 0
M  V30 59270 O 845.525 -3.58302 5.08433 0
M  V30 59271 C 844.335 -5.17448 6.36119 0
M  V30 59272 O 843.945 -4.45271 7.53232 0
M  V30 59273 C 843.455 -4.74639 5.19936 0
M  V30 59274 C 844.165 -3.49432 4.70418 0
M  V30 59275 N 844.115 -3.32099 3.22613 0
M  V30 59276 H 846.954 -6.54213 5.71376 0
M  V30 59277 H 847.226 -5.30936 4.43503 0
M  V30 59278 H 846.358 -4.55889 6.76652 0
M  V30 59279 H 843.703 -2.61715 5.17932 0
M  V30 59280 H 843.423 -5.52155 4.41878 0
M  V30 59281 H 842.432 -4.51981 5.53374 0
M  V30 59282 H 844.266 -6.25124 6.55234 0
M  V30 59283 P 842.395 -4.23843 7.83734 0
M  V30 59284 O 842.175 -4.19407 9.29784 0
M  V30 59285 O 841.605 -5.24426 7.09156 0
M  V30 59286 O 842.145 -2.7935 7.20758 0
M  V30 59287 C 843.085 -1.7299 7.50419 0
M  V30 59288 C 842.355 -0.406376 7.57911 0
M  V30 59289 O 842.145 0.0897726 6.21935 0
M  V30 59290 C 840.955 -0.447224 8.1878 0
M  V30 59291 O 840.565 0.825065 8.71101 0
M  V30 59292 C 840.075 -0.783801 6.99623 0
M  V30 59293 C 840.785 -0.0619192 5.85967 0
M  V30 59294 N 840.735 -0.790462 4.56202 0
M  V30 59295 C 840.815 -2.13895 4.34171 0
M  V30 59296 N 840.745 -2.46449 3.08687 0
M  V30 59297 C 840.595 -1.2525 2.43697 0
M  V30 59298 C 840.465 -0.914535 1.07318 0
M  V30 59299 N 840.455 -1.80782 0.0887348 0
M  V30 59300 N 840.345 0.386745 0.768133 0
M  V30 59301 C 840.355 1.28096 1.75159 0
M  V30 59302 N 840.475 1.09708 3.04861 0
M  V30 59303 C 840.595 -0.214857 3.32306 0
M  V30 59304 H 843.574 -1.93423 8.4679 0
M  V30 59305 H 843.846 -1.68852 6.70877 0
M  V30 59306 H 842.978 0.289041 8.15388 0
M  V30 59307 H 840.323 0.927006 5.72848 0
M  V30 59308 H 840.043 -1.86973 6.82036 0
M  V30 59309 H 839.052 -0.403953 7.13357 0
M  V30 59310 H 840.886 -1.20599 8.97534 0
M  V30 59311 H 840.927 -2.86846 5.14318 0
M  V30 59312 H 840.546 -2.81082 0.302037 0
M  V30 59313 H 840.357 -1.49688 -0.889064 0
M  V30 59314 H 840.249 2.31317 1.43855 0
M  V30 59315 P 839.015 1.17771 8.83182 0
M  V30 59316 O 838.795 2.07206 9.98732 0
M  V30 59317 O 838.225 -0.0743816 8.81969 0
M  V30 59318 O 838.765 1.97652 7.47304 0
M  V30 59319 C 839.705 3.01133 7.08783 0
M  V30 59320 C 838.975 4.12613 6.37049 0
M  V30 59321 O 838.765 3.72827 4.97879 0
M  V30 59322 C 837.575 4.45085 6.88694 0
M  V30 59323 O 837.185 5.7877 6.5624 0
M  V30 59324 C 836.695 3.47817 6.12078 0
M  V30 59325 C 837.405 3.39414 4.77697 0
M  V30 59326 N 837.355 2.04615 4.15333 0
M  V30 59327 H 840.194 3.41248 7.98759 0
M  V30 59328 H 840.466 2.5837 6.41742 0
M  V30 59329 H 839.598 5.02657 6.42673 0
M  V30 59330 P 835.635 6.144 6.45285 0
M  V30 59331 O 835.415 7.54673 6.86199 0
M  V30 59332 O 834.845 5.12391 7.179 0
M  V30 59333 O 835.385 5.99158 4.88404 0
M  V30 59334 C 836.325 6.60234 3.96415 0
M  V30 59335 C 835.595 7.08259 2.72856 0
M  V30 59336 O 835.385 5.9427 1.83651 0
M  V30 59337 C 834.195 7.64886 2.9555 0
M  V30 59338 O 833.805 8.53963 1.90717 0
M  V30 59339 C 833.315 6.4116 2.90739 0
M  V30 59340 C 834.025 5.55375 1.86963 0
M  V30 59341 N 833.975 4.09448 2.16152 0
M  V30 59342 H 836.814 7.45574 4.45629 0
M  V30 59343 H 837.086 5.85864 3.679 0
M  V30 59344 H 836.218 7.84412 2.24479 0
M  V30 59345 H 833.563 5.73457 0.888562 0
M  V30 59346 H 833.283 5.90877 3.88583 0
M  V30 59347 H 832.292 6.6596 2.58858 0
M  V30 59348 H 834.126 8.16339 3.92049 0
M  V30 59349 P 832.255 8.7635 1.60911 0
M  V30 59350 O 832.035 10.1388 1.11561 0
M  V30 59351 O 831.465 8.36503 2.79617 0
M  V30 59352 O 832.005 7.71806 0.42951 0
M  V30 59353 C 832.945 7.66948 -0.673514 0
M  V30 59354 C 832.215 7.33374 -1.95559 0
M  V30 59355 O 832.005 5.88721 -2.00726 0
M  V30 59356 C 830.815 7.92218 -2.1125 0
M  V30 59357 O 830.425 8.02971 -3.47653 0
M  V30 59358 C 829.935 6.89504 -1.41631 0
M  V30 59359 C 830.645 5.59106 -1.75155 0
M  V30 59360 N 830.595 4.58136 -0.662409 0
M  V30 59361 C 830.445 3.26059 -1.02863 0
M  V30 59362 O 830.355 2.90743 -2.19009 0
M  V30 59363 N 830.405 2.35995 0.0155585 0
M  V30 59364 C 830.495 2.65248 1.35603 0
M  V30 59365 C 830.645 4.05747 1.64698 0
M  V30 59366 C 830.695 4.96734 0.652411 0
M  V30 59367 H 833.436 8.64917 -0.776982 0
M  V30 59368 H 833.705 6.89974 -0.474015 0
M  V30 59369 H 832.838 7.66548 -2.79458 0
M  V30 59370 H 830.183 5.16076 -2.65138 0
M  V30 59371 H 829.904 7.06433 -0.329384 0
M  V30 59372 H 828.912 6.90829 -1.81996 0
M  V30 59373 H 830.746 8.90774 -1.62639 0
M  V30 59374 H 830.817 6.02181 0.895285 0
M  V30 59375 P 828.875 8.03563 -3.84925 0
M  V30 59376 O 828.655 8.85821 -5.0569 0
M  V30 59377 O 828.085 8.41101 -2.65469 0
M  V30 59378 O 828.625 6.4965 -4.18908 0
M  V30 59379 C 829.565 5.81037 -5.05421 0
M  V30 59380 C 828.835 4.78366 -5.89277 0
M  V30 59381 O 828.625 3.58302 -5.08433 0
M  V30 59382 C 827.435 5.17448 -6.36119 0
M  V30 59383 O 827.045 4.45271 -7.53232 0
M  V30 59384 C 826.555 4.74639 -5.19936 0
M  V30 59385 C 827.265 3.49432 -4.70418 0
M  V30 59386 N 827.215 3.31776 -3.22945 0
M  V30 59387 H 830.054 6.54213 -5.71376 0
M  V30 59388 H 830.326 5.30492 -4.44033 0
M  V30 59389 H 829.458 4.55889 -6.76652 0
M  V30 59390 P 825.495 4.23843 -7.83734 0
M  V30 59391 O 825.275 4.19407 -9.29784 0
M  V30 59392 O 824.705 5.24426 -7.09156 0
M  V30 59393 O 825.245 2.7935 -7.20758 0
M  V30 59394 C 826.185 1.72945 -7.50224 0
M  V30 59395 C 825.455 0.406376 -7.57911 0
M  V30 59396 O 825.245 -0.0897726 -6.21935 0
M  V30 59397 C 824.055 0.438983 -8.18724 0
M  V30 59398 O 823.665 -0.825065 -8.71101 0
M  V30 59399 C 823.175 0.783689 -6.99524 0
M  V30 59400 C 823.885 0.0619086 -5.85867 0
M  V30 59401 N 823.835 0.78573 -4.56183 0
M  V30 59402 C 823.685 0.0292889 -3.41887 0
M  V30 59403 O 823.595 -1.18445 -3.4419 0
M  V30 59404 N 823.645 0.744061 -2.23964 0
M  V30 59405 C 823.735 2.10932 -2.10362 0
M  V30 59406 C 823.885 2.8202 -3.34994 0
M  V30 59407 C 823.935 2.15547 -4.52261 0
M  V30 59408 H 826.676 1.93379 -8.46595 0
M  V30 59409 H 826.945 1.68132 -6.70852 0
M  V30 59410 H 826.078 -0.289041 -8.15388 0
M  V30 59411 H 823.423 -0.926847 -5.72749 0
M  V30 59412 H 823.144 1.86973 -6.82036 0
M  V30 59413 H 822.152 0.403896 -7.13257 0
M  V30 59414 H 823.986 1.20585 -8.97435 0
M  V30 59415 H 824.057 2.71231 -5.45042 0
M  V30 59416 P 822.115 -1.17771 -8.83182 0
M  V30 59417 O 821.895 -2.07206 -9.98732 0
M  V30 59418 O 821.325 0.0743816 -8.81969 0
M  V30 59419 O 821.865 -1.97652 -7.47304 0
M  V30 59420 C 822.805 -3.01133 -7.08783 0
M  V30 59421 C 822.075 -4.12613 -6.37049 0
M  V30 59422 O 821.865 -3.72827 -4.97879 0
M  V30 59423 C 820.675 -4.45085 -6.88694 0
M  V30 59424 O 820.285 -5.7877 -6.5624 0
M  V30 59425 C 819.795 -3.47817 -6.12078 0
M  V30 59426 C 820.505 -3.39414 -4.77697 0
M  V30 59427 N 820.455 -2.04199 -4.15538 0
M  V30 59428 H 823.294 -3.41248 -7.98759 0
M  V30 59429 H 823.566 -2.57728 -6.42 0
M  V30 59430 H 822.698 -5.02657 -6.42673 0
M  V30 59431 H 820.043 -4.11708 -4.08956 0
M  V30 59432 H 819.763 -2.49626 -6.61679 0
M  V30 59433 H 818.772 -3.8662 -6.00862 0
M  V30 59434 H 820.606 -4.29991 -7.97006 0
M  V30 59435 P 818.735 -6.144 -6.45285 0
M  V30 59436 O 818.515 -7.54673 -6.86199 0
M  V30 59437 O 817.945 -5.12391 -7.179 0
M  V30 59438 O 818.485 -5.99158 -4.88404 0
M  V30 59439 C 819.425 -6.60234 -3.96415 0
M  V30 59440 C 818.695 -7.08259 -2.72856 0
M  V30 59441 O 818.485 -5.9427 -1.83651 0
M  V30 59442 C 817.295 -7.64886 -2.9555 0
M  V30 59443 O 816.905 -8.53963 -1.90717 0
M  V30 59444 C 816.415 -6.4116 -2.90739 0
M  V30 59445 C 817.125 -5.55375 -1.86963 0
M  V30 59446 N 817.075 -4.09664 -2.15742 0
M  V30 59447 H 819.914 -7.45574 -4.45629 0
M  V30 59448 H 820.186 -5.86232 -3.67314 0
M  V30 59449 H 819.318 -7.84412 -2.24479 0
M  V30 59450 P 815.355 -8.7635 -1.60911 0
M  V30 59451 O 815.135 -10.1388 -1.11561 0
M  V30 59452 O 814.565 -8.36503 -2.79617 0
M  V30 59453 O 815.105 -7.71806 -0.42951 0
M  V30 59454 C 816.045 -7.67148 0.673689 0
M  V30 59455 C 815.315 -7.33374 1.95559 0
M  V30 59456 O 815.105 -5.88721 2.00726 0
M  V30 59457 C 813.915 -7.92526 2.10483 0
M  V30 59458 O 813.525 -8.02971 3.47653 0
M  V30 59459 C 813.035 -6.89602 1.41652 0
M  V30 59460 C 813.745 -5.59201 1.75185 0
M  V30 59461 N 813.695 -4.58235 0.662552 0
M  V30 59462 H 816.534 -8.65116 0.777161 0
M  V30 59463 H 816.806 -6.90173 0.474152 0
M  V30 59464 H 815.938 -7.66548 2.79458 0
M  V30 59465 P 811.975 -8.03563 3.84925 0
M  V30 59466 O 811.755 -8.85821 5.0569 0
M  V30 59467 O 811.185 -8.41101 2.65469 0
M  V30 59468 O 811.725 -6.4965 4.18908 0
M  V30 59469 C 812.665 -5.81037 5.05421 0
M  V30 59470 C 811.935 -4.78366 5.89277 0
M  V30 59471 O 811.725 -3.58302 5.08433 0
M  V30 59472 C 810.535 -5.17448 6.36119 0
M  V30 59473 O 810.145 -4.45271 7.53232 0
M  V30 59474 C 809.655 -4.74639 5.19936 0
M  V30 59475 C 810.365 -3.49432 4.70418 0
M  V30 59476 N 810.315 -3.32099 3.22613 0
M  V30 59477 H 813.154 -6.54213 5.71376 0
M  V30 59478 H 813.426 -5.30936 4.43503 0
M  V30 59479 H 812.558 -4.55889 6.76652 0
M  V30 59480 H 809.903 -2.61715 5.17932 0
M  V30 59481 H 809.623 -5.52155 4.41878 0
M  V30 59482 H 808.632 -4.51981 5.53374 0
M  V30 59483 H 810.466 -6.25124 6.55234 0
M  V30 59484 P 808.595 -4.23843 7.83734 0
M  V30 59485 O 808.375 -4.19407 9.29784 0
M  V30 59486 O 807.805 -5.24426 7.09156 0
M  V30 59487 O 808.345 -2.7935 7.20758 0
M  V30 59488 C 809.285 -1.7299 7.50419 0
M  V30 59489 C 808.555 -0.406376 7.57911 0
M  V30 59490 O 808.345 0.0897726 6.21935 0
M  V30 59491 C 807.155 -0.447224 8.1878 0
M  V30 59492 O 806.765 0.825065 8.71101 0
M  V30 59493 C 806.275 -0.783801 6.99623 0
M  V30 59494 C 806.985 -0.0619192 5.85967 0
M  V30 59495 N 806.935 -0.7859 4.56281 0
M  V30 59496 H 809.774 -1.93423 8.4679 0
M  V30 59497 H 810.046 -1.68181 6.71046 0
M  V30 59498 H 809.178 0.289041 8.15388 0
M  V30 59499 P 805.215 1.17771 8.83182 0
M  V30 59500 O 804.995 2.07206 9.98732 0
M  V30 59501 O 804.425 -0.0743816 8.81969 0
M  V30 59502 O 804.965 1.97652 7.47304 0
M  V30 59503 C 805.905 3.01133 7.08783 0
M  V30 59504 C 805.175 4.12613 6.37049 0
M  V30 59505 O 804.965 3.72827 4.97879 0
M  V30 59506 C 803.775 4.45085 6.88694 0
M  V30 59507 O 803.385 5.7877 6.5624 0
M  V30 59508 C 802.895 3.47817 6.12078 0
M  V30 59509 C 803.605 3.39414 4.77697 0
M  V30 59510 N 803.555 2.04199 4.15538 0
M  V30 59511 H 806.394 3.41248 7.98759 0
M  V30 59512 H 806.666 2.57728 6.42 0
M  V30 59513 H 805.798 5.02657 6.42673 0
M  V30 59514 H 803.143 4.11708 4.08956 0
M  V30 59515 H 802.863 2.49626 6.61679 0
M  V30 59516 H 801.872 3.8662 6.00862 0
M  V30 59517 H 803.706 4.29991 7.97006 0
M  V30 59518 P 801.835 6.144 6.45285 0
M  V30 59519 O 801.615 7.54673 6.86199 0
M  V30 59520 O 801.045 5.12391 7.179 0
M  V30 59521 O 801.585 5.99158 4.88404 0
M  V30 59522 C 802.525 6.60062 3.96313 0
M  V30 59523 C 801.795 7.08259 2.72856 0
M  V30 59524 O 801.585 5.9427 1.83651 0
M  V30 59525 C 800.395 7.65087 2.94749 0
M  V30 59526 O 800.005 8.53963 1.90717 0
M  V30 59527 C 799.515 6.41069 2.90698 0
M  V30 59528 C 800.225 5.5528 1.86931 0
M  V30 59529 N 800.175 4.09575 2.15696 0
M  V30 59530 C 800.025 3.24249 1.08435 0
M  V30 59531 O 799.935 3.63946 -0.0628747 0
M  V30 59532 N 799.985 1.90009 1.39973 0
M  V30 59533 C 800.075 1.34884 2.65614 0
M  V30 59534 C 800.225 2.3145 3.71736 0
M  V30 59535 C 800.275 3.63518 3.44754 0
M  V30 59536 H 803.016 7.45402 4.45526 0
M  V30 59537 H 803.285 5.86062 3.67208 0
M  V30 59538 H 802.418 7.84412 2.24479 0
M  V30 59539 H 799.763 5.73358 0.888409 0
M  V30 59540 H 799.484 5.90877 3.88583 0
M  V30 59541 H 798.492 6.65867 2.58821 0
M  V30 59542 H 800.326 8.16248 3.92006 0
M  V30 59543 H 800.397 4.34551 4.26383 0
M  V30 59544 P 798.455 8.7635 1.60911 0
M  V30 59545 O 798.235 10.1388 1.11561 0
M  V30 59546 O 797.665 8.36503 2.79617 0
M  V30 59547 O 798.205 7.71806 0.42951 0
M  V30 59548 C 799.145 7.67148 -0.673689 0
M  V30 59549 C 798.415 7.33374 -1.95559 0
M  V30 59550 O 798.205 5.88721 -2.00726 0
M  V30 59551 C 797.015 7.92526 -2.10483 0
M  V30 59552 O 796.625 8.02971 -3.47653 0
M  V30 59553 C 796.135 6.89602 -1.41652 0
M  V30 59554 C 796.845 5.59201 -1.75185 0
M  V30 59555 N 796.795 4.58235 -0.662552 0
M  V30 59556 H 799.634 8.65116 -0.777161 0
M  V30 59557 H 799.906 6.90173 -0.474152 0
M  V30 59558 H 799.038 7.66548 -2.79458 0
M  V30 59559 P 795.075 8.03563 -3.84925 0
M  V30 59560 O 794.855 8.85821 -5.0569 0
M  V30 59561 O 794.285 8.41101 -2.65469 0
M  V30 59562 O 794.825 6.4965 -4.18908 0
M  V30 59563 C 795.765 5.81037 -5.05421 0
M  V30 59564 C 795.035 4.78366 -5.89277 0
M  V30 59565 O 794.825 3.58302 -5.08433 0
M  V30 59566 C 793.635 5.17448 -6.36119 0
M  V30 59567 O 793.245 4.45271 -7.53232 0
M  V30 59568 C 792.755 4.74639 -5.19936 0
M  V30 59569 C 793.465 3.49432 -4.70418 0
M  V30 59570 N 793.415 3.31776 -3.22945 0
M  V30 59571 H 796.254 6.54213 -5.71376 0
M  V30 59572 H 796.526 5.30492 -4.44033 0
M  V30 59573 H 795.658 4.55889 -6.76652 0
M  V30 59574 P 791.695 4.23843 -7.83734 0
M  V30 59575 O 791.475 4.19407 -9.29784 0
M  V30 59576 O 790.905 5.24426 -7.09156 0
M  V30 59577 O 791.445 2.7935 -7.20758 0
M  V30 59578 C 792.385 1.7299 -7.50419 0
M  V30 59579 C 791.655 0.406376 -7.57911 0
M  V30 59580 O 791.445 -0.0897726 -6.21935 0
M  V30 59581 C 790.255 0.447224 -8.1878 0
M  V30 59582 O 789.865 -0.825065 -8.71101 0
M  V30 59583 C 789.375 0.783801 -6.99623 0
M  V30 59584 C 790.085 0.0619192 -5.85967 0
M  V30 59585 N 790.035 0.7859 -4.56281 0
M  V30 59586 H 792.874 1.93423 -8.4679 0
M  V30 59587 H 793.146 1.68181 -6.71046 0
M  V30 59588 H 792.278 -0.289041 -8.15388 0
M  V30 59589 P 788.315 -1.17771 -8.83182 0
M  V30 59590 O 788.095 -2.07206 -9.98732 0
M  V30 59591 O 787.525 0.0743816 -8.81969 0
M  V30 59592 O 788.065 -1.97652 -7.47304 0
M  V30 59593 C 789.005 -3.01133 -7.08783 0
M  V30 59594 C 788.275 -4.12613 -6.37049 0
M  V30 59595 O 788.065 -3.72827 -4.97879 0
M  V30 59596 C 786.875 -4.45085 -6.88694 0
M  V30 59597 O 786.485 -5.7877 -6.5624 0
M  V30 59598 C 785.995 -3.47817 -6.12078 0
M  V30 59599 C 786.705 -3.39414 -4.77697 0
M  V30 59600 N 786.655 -2.04199 -4.15538 0
M  V30 59601 H 789.494 -3.41248 -7.98759 0
M  V30 59602 H 789.766 -2.57728 -6.42 0
M  V30 59603 H 788.898 -5.02657 -6.42673 0
M  V30 59604 H 786.243 -4.11708 -4.08956 0
M  V30 59605 H 785.963 -2.49626 -6.61679 0
M  V30 59606 H 784.972 -3.8662 -6.00862 0
M  V30 59607 H 786.806 -4.29991 -7.97006 0
M  V30 59608 P 784.935 -6.144 -6.45285 0
M  V30 59609 O 784.715 -7.54673 -6.86199 0
M  V30 59610 O 784.145 -5.12391 -7.179 0
M  V30 59611 O 784.685 -5.99158 -4.88404 0
M  V30 59612 C 785.625 -6.60234 -3.96415 0
M  V30 59613 C 784.895 -7.08259 -2.72856 0
M  V30 59614 O 784.685 -5.9427 -1.83651 0
M  V30 59615 C 783.495 -7.64886 -2.9555 0
M  V30 59616 O 783.105 -8.53963 -1.90717 0
M  V30 59617 C 782.615 -6.4116 -2.90739 0
M  V30 59618 C 783.325 -5.55375 -1.86963 0
M  V30 59619 N 783.275 -4.09664 -2.15742 0
M  V30 59620 H 786.114 -7.45574 -4.45629 0
M  V30 59621 H 786.386 -5.86232 -3.67314 0
M  V30 59622 H 785.518 -7.84412 -2.24479 0
M  V30 59623 P 781.555 -8.7635 -1.60911 0
M  V30 59624 O 781.335 -10.1388 -1.11561 0
M  V30 59625 O 780.765 -8.36503 -2.79617 0
M  V30 59626 O 781.305 -7.71806 -0.42951 0
M  V30 59627 C 782.245 -7.67148 0.673689 0
M  V30 59628 C 781.515 -7.33374 1.95559 0
M  V30 59629 O 781.305 -5.88721 2.00726 0
M  V30 59630 C 780.115 -7.92526 2.10483 0
M  V30 59631 O 779.725 -8.02971 3.47653 0
M  V30 59632 C 779.235 -6.89602 1.41652 0
M  V30 59633 C 779.945 -5.59201 1.75185 0
M  V30 59634 N 779.895 -4.58301 0.657969 0
M  V30 59635 C 779.975 -4.79019 -0.692603 0
M  V30 59636 N 779.905 -3.69736 -1.38998 0
M  V30 59637 C 779.755 -2.70474 -0.438135 0
M  V30 59638 C 779.625 -1.30327 -0.538142 0
M  V30 59639 N 779.615 -0.64304 -1.69192 0
M  V30 59640 N 779.505 -0.611027 0.605183 0
M  V30 59641 C 779.515 -1.27002 1.75953 0
M  V30 59642 N 779.635 -2.56038 1.98546 0
M  V30 59643 C 779.755 -3.22681 0.822541 0
M  V30 59644 H 782.734 -8.65116 0.777161 0
M  V30 59645 H 783.006 -6.9022 0.46725 0
M  V30 59646 H 782.138 -7.66548 2.79458 0
M  V30 59647 H 779.483 -5.16165 2.65183 0
M  V30 59648 H 779.203 -7.06433 0.329384 0
M  V30 59649 H 778.212 -6.90926 1.82021 0
M  V30 59650 H 780.046 -8.90873 1.62657 0
M  V30 59651 H 780.087 -5.77785 -1.13874 0
M  V30 59652 H 779.706 -1.15585 -2.57991 0
M  V30 59653 H 779.517 0.382989 -1.69835 0
M  V30 59654 H 779.409 -0.653331 2.64449 0
M  V30 59655 P 778.175 -8.03563 3.84925 0
M  V30 59656 O 777.955 -8.85821 5.0569 0
M  V30 59657 O 777.385 -8.41101 2.65469 0
M  V30 59658 O 777.925 -6.4965 4.18908 0
M  V30 59659 C 778.865 -5.80886 5.05289 0
M  V30 59660 C 778.135 -4.78366 5.89277 0
M  V30 59661 O 777.925 -3.58302 5.08433 0
M  V30 59662 C 776.735 -5.16748 6.36559 0
M  V30 59663 O 776.345 -4.45271 7.53232 0
M  V30 59664 C 775.855 -4.74572 5.19863 0
M  V30 59665 C 776.565 -3.49373 4.70338 0
M  V30 59666 N 776.515 -3.31704 3.22876 0
M  V30 59667 C 776.365 -2.03326 2.74871 0
M  V30 59668 O 776.275 -1.06486 3.48076 0
M  V30 59669 N 776.325 -1.91838 1.37456 0
M  V30 59670 C 776.415 -2.94295 0.462035 0
M  V30 59671 C 776.565 -4.25064 1.05249 0
M  V30 59672 C 776.615 -4.40214 2.39192 0
M  V30 59673 H 779.356 -6.54063 5.71245 0
M  V30 59674 H 779.625 -5.30339 4.43905 0
M  V30 59675 H 778.758 -4.55889 6.76652 0
M  V30 59676 H 776.103 -2.6167 5.17842 0
M  V30 59677 H 775.824 -5.52155 4.41878 0
M  V30 59678 H 774.832 -4.51918 5.53297 0
M  V30 59679 H 776.666 -6.25055 6.55162 0
M  V30 59680 H 776.737 -5.39798 2.81523 0
M  V30 59681 P 774.795 -4.23843 7.83734 0
M  V30 59682 O 774.575 -4.19407 9.29784 0
M  V30 59683 O 774.005 -5.24426 7.09156 0
M  V30 59684 O 774.545 -2.7935 7.20758 0
M  V30 59685 C 775.485 -1.7299 7.50419 0
M  V30 59686 C 774.755 -0.406376 7.57911 0
M  V30 59687 O 774.545 0.0897726 6.21935 0
M  V30 59688 C 773.355 -0.447224 8.1878 0
M  V30 59689 O 772.965 0.825065 8.71101 0
M  V30 59690 C 772.475 -0.783801 6.99623 0
M  V30 59691 C 773.185 -0.0619192 5.85967 0
M  V30 59692 N 773.135 -0.790462 4.56202 0
M  V30 59693 C 773.215 -2.13895 4.34171 0
M  V30 59694 N 773.145 -2.46449 3.08687 0
M  V30 59695 C 772.995 -1.2525 2.43697 0
M  V30 59696 C 772.865 -0.914535 1.07318 0
M  V30 59697 N 772.855 -1.80782 0.0887348 0
M  V30 59698 N 772.745 0.386745 0.768133 0
M  V30 59699 C 772.755 1.28096 1.75159 0
M  V30 59700 N 772.875 1.09708 3.04861 0
M  V30 59701 C 772.995 -0.214857 3.32306 0
M  V30 59702 H 775.974 -1.93423 8.4679 0
M  V30 59703 H 776.246 -1.68852 6.70877 0
M  V30 59704 H 775.378 0.289041 8.15388 0
M  V30 59705 H 772.723 0.927006 5.72848 0
M  V30 59706 H 772.443 -1.86973 6.82036 0
M  V30 59707 H 771.452 -0.403953 7.13357 0
M  V30 59708 H 773.286 -1.20599 8.97534 0
M  V30 59709 H 773.327 -2.86846 5.14318 0
M  V30 59710 H 772.946 -2.81082 0.302037 0
M  V30 59711 H 772.757 -1.49688 -0.889064 0
M  V30 59712 H 772.649 2.31317 1.43855 0
M  V30 59713 P 771.415 1.17771 8.83182 0
M  V30 59714 O 771.195 2.07206 9.98732 0
M  V30 59715 O 770.625 -0.0743816 8.81969 0
M  V30 59716 O 771.165 1.97678 7.474 0
M  V30 59717 C 772.105 3.01133 7.08783 0
M  V30 59718 C 771.375 4.1203 6.37546 0
M  V30 59719 O 771.165 3.72887 4.9796 0
M  V30 59720 C 769.975 4.45085 6.88694 0
M  V30 59721 O 769.585 5.78836 6.56315 0
M  V30 59722 C 769.095 3.47817 6.12078 0
M  V30 59723 C 769.805 3.39414 4.77697 0
M  V30 59724 N 769.755 2.04615 4.15333 0
M  V30 59725 C 769.605 1.96929 2.77162 0
M  V30 59726 O 769.515 3.02017 2.12006 0
M  V30 59727 N 769.555 0.55485 2.24237 0
M  V30 59728 C 769.655 -0.367808 2.9169 0
M  V30 59729 N 769.605 -1.53426 2.29427 0
M  V30 59730 C 769.805 -0.319148 4.33828 0
M  V30 59731 C 769.855 0.920672 4.90433 0
M  V30 59732 H 772.595 3.41209 7.98667 0
M  V30 59733 H 772.865 2.5837 6.41742 0
M  V30 59734 H 771.998 5.02718 6.42752 0
M  V30 59735 H 769.343 4.11779 4.09026 0
M  V30 59736 H 769.063 2.49661 6.61772 0
M  V30 59737 H 768.072 3.86674 6.00946 0
M  V30 59738 H 769.906 4.29991 7.97006 0
M  V30 59739 H 769.978 1.00589 5.98303 0
M  V30 59740 H 769.876 -1.22639 4.93799 0
M  V30 59741 H 769.488 -1.56819 1.27167 0
M  V30 59742 H 769.684 -2.41062 2.83063 0
M  V30 59743 P 768.035 6.144 6.45285 0
M  V30 59744 O 767.815 7.54673 6.86199 0
M  V30 59745 O 767.245 5.12391 7.179 0
M  V30 59746 O 767.785 5.99158 4.88404 0
M  V30 59747 C 768.725 6.60234 3.96415 0
M  V30 59748 C 767.995 7.08259 2.72856 0
M  V30 59749 O 767.785 5.9427 1.83651 0
M  V30 59750 C 766.595 7.64886 2.9555 0
M  V30 59751 O 766.205 8.53963 1.90717 0
M  V30 59752 C 765.715 6.4116 2.90739 0
M  V30 59753 C 766.425 5.55375 1.86963 0
M  V30 59754 N 766.375 4.09448 2.16152 0
M  V30 59755 H 769.214 7.45574 4.45629 0
M  V30 59756 H 769.486 5.85864 3.679 0
M  V30 59757 H 768.618 7.84412 2.24479 0
M  V30 59758 H 765.963 5.73457 0.888562 0
M  V30 59759 H 765.683 5.90877 3.88583 0
M  V30 59760 H 764.692 6.6596 2.58858 0
M  V30 59761 H 766.526 8.16339 3.92049 0
M  V30 59762 P 764.656 8.7635 1.60911 0
M  V30 59763 O 764.436 10.1388 1.11561 0
M  V30 59764 O 763.866 8.36503 2.79617 0
M  V30 59765 O 764.406 7.71806 0.42951 0
M  V30 59766 C 765.346 7.67148 -0.673689 0
M  V30 59767 C 764.616 7.33374 -1.95559 0
M  V30 59768 O 764.406 5.88721 -2.00726 0
M  V30 59769 C 763.216 7.92526 -2.10483 0
M  V30 59770 O 762.826 8.02971 -3.47653 0
M  V30 59771 C 762.336 6.89602 -1.41652 0
M  V30 59772 C 763.046 5.59201 -1.75185 0
M  V30 59773 N 762.996 4.58301 -0.657969 0
M  V30 59774 H 765.835 8.65116 -0.777161 0
M  V30 59775 H 766.107 6.9022 -0.46725 0
M  V30 59776 H 765.239 7.66548 -2.79458 0
M  V30 59777 H 762.584 5.16165 -2.65183 0
M  V30 59778 H 762.304 7.06433 -0.329384 0
M  V30 59779 H 761.313 6.90926 -1.82021 0
M  V30 59780 H 763.147 8.90873 -1.62657 0
M  V30 59781 P 761.276 8.03563 -3.84925 0
M  V30 59782 O 761.056 8.85821 -5.0569 0
M  V30 59783 O 760.486 8.41101 -2.65469 0
M  V30 59784 O 761.026 6.4965 -4.18908 0
M  V30 59785 C 761.966 5.80886 -5.05289 0
M  V30 59786 C 761.236 4.78366 -5.89277 0
M  V30 59787 O 761.026 3.58302 -5.08433 0
M  V30 59788 C 759.836 5.16748 -6.36559 0
M  V30 59789 O 759.446 4.45271 -7.53232 0
M  V30 59790 C 758.956 4.74572 -5.19863 0
M  V30 59791 C 759.666 3.49373 -4.70338 0
M  V30 59792 N 759.616 3.31704 -3.22876 0
M  V30 59793 C 759.466 2.03326 -2.74871 0
M  V30 59794 O 759.376 1.06486 -3.48076 0
M  V30 59795 N 759.426 1.91838 -1.37456 0
M  V30 59796 C 759.516 2.94295 -0.462035 0
M  V30 59797 O 759.466 2.71763 0.752928 0
M  V30 59798 C 759.666 4.25064 -1.05249 0
M  V30 59799 C 759.776 5.39815 -0.095697 0
M  V30 59800 C 759.716 4.40214 -2.39192 0
M  V30 59801 H 762.457 6.54063 -5.71245 0
M  V30 59802 H 762.726 5.30339 -4.43905 0
M  V30 59803 H 761.859 4.55889 -6.76652 0
M  V30 59804 H 759.204 2.6167 -5.17842 0
M  V30 59805 H 758.925 5.52155 -4.41878 0
M  V30 59806 H 757.933 4.51918 -5.53297 0
M  V30 59807 H 759.767 6.25055 -6.55162 0
M  V30 59808 H 759.838 5.39798 -2.81523 0
M  V30 59809 H 758.808 5.91593 -0.0279582 0
M  V30 59810 H 760.545 6.10038 -0.450573 0
M  V30 59811 H 760.057 5.02007 0.89937 0
M  V30 59812 H 759.321 0.995326 -1.00435 0
M  V30 59813 P 757.896 4.23843 -7.83734 0
M  V30 59814 O 757.676 4.19407 -9.29784 0
M  V30 59815 O 757.106 5.24426 -7.09156 0
M  V30 59816 O 757.646 2.7935 -7.20758 0
M  V30 59817 C 758.586 1.72945 -7.50224 0
M  V30 59818 C 757.856 0.406376 -7.57911 0
M  V30 59819 O 757.646 -0.0897726 -6.21935 0
M  V30 59820 C 756.456 0.438983 -8.18724 0
M  V30 59821 O 756.066 -0.825065 -8.71101 0
M  V30 59822 C 755.576 0.783689 -6.99524 0
M  V30 59823 C 756.286 0.0619086 -5.85867 0
M  V30 59824 N 756.236 0.78573 -4.56183 0
M  V30 59825 C 756.086 0.0292889 -3.41887 0
M  V30 59826 O 755.996 -1.18445 -3.4419 0
M  V30 59827 N 756.046 0.744061 -2.23964 0
M  V30 59828 C 756.136 2.10932 -2.10362 0
M  V30 59829 C 756.286 2.8202 -3.34994 0
M  V30 59830 C 756.336 2.15547 -4.52261 0
M  V30 59831 H 759.077 1.93379 -8.46595 0
M  V30 59832 H 759.346 1.68132 -6.70852 0
M  V30 59833 H 758.479 -0.289041 -8.15388 0
M  V30 59834 H 755.824 -0.926847 -5.72749 0
M  V30 59835 H 755.545 1.86973 -6.82036 0
M  V30 59836 H 754.553 0.403896 -7.13257 0
M  V30 59837 H 756.387 1.20585 -8.97435 0
M  V30 59838 H 756.458 2.71231 -5.45042 0
M  V30 59839 P 754.516 -1.17771 -8.83182 0
M  V30 59840 O 754.296 -2.07206 -9.98732 0
M  V30 59841 O 753.726 0.0743816 -8.81969 0
M  V30 59842 O 754.266 -1.97652 -7.47304 0
M  V30 59843 C 755.206 -3.01133 -7.08783 0
M  V30 59844 C 754.476 -4.12613 -6.37049 0
M  V30 59845 O 754.266 -3.72827 -4.97879 0
M  V30 59846 C 753.076 -4.45085 -6.88694 0
M  V30 59847 O 752.686 -5.7877 -6.5624 0
M  V30 59848 C 752.196 -3.47817 -6.12078 0
M  V30 59849 C 752.906 -3.39414 -4.77697 0
M  V30 59850 N 752.856 -2.04615 -4.15333 0
M  V30 59851 H 755.695 -3.41248 -7.98759 0
M  V30 59852 H 755.967 -2.5837 -6.41742 0
M  V30 59853 H 755.099 -5.02657 -6.42673 0
M  V30 59854 P 751.136 -6.144 -6.45285 0
M  V30 59855 O 750.916 -7.54673 -6.86199 0
M  V30 59856 O 750.346 -5.12391 -7.179 0
M  V30 59857 O 750.886 -5.99158 -4.88404 0
M  V30 59858 C 751.826 -6.60234 -3.96415 0
M  V30 59859 C 751.096 -7.08259 -2.72856 0
M  V30 59860 O 750.886 -5.9427 -1.83651 0
M  V30 59861 C 749.696 -7.64886 -2.9555 0
M  V30 59862 O 749.306 -8.53963 -1.90717 0
M  V30 59863 C 748.816 -6.4116 -2.90739 0
M  V30 59864 C 749.526 -5.55375 -1.86963 0
M  V30 59865 N 749.476 -4.09664 -2.15742 0
M  V30 59866 H 752.315 -7.45574 -4.45629 0
M  V30 59867 H 752.587 -5.86232 -3.67314 0
M  V30 59868 H 751.719 -7.84412 -2.24479 0
M  V30 59869 P 747.756 -8.7635 -1.60911 0
M  V30 59870 O 747.536 -10.1388 -1.11561 0
M  V30 59871 O 746.966 -8.36503 -2.79617 0
M  V30 59872 O 747.506 -7.71806 -0.42951 0
M  V30 59873 C 748.446 -7.67148 0.673689 0
M  V30 59874 C 747.716 -7.33374 1.95559 0
M  V30 59875 O 747.506 -5.88721 2.00726 0
M  V30 59876 C 746.316 -7.92526 2.10483 0
M  V30 59877 O 745.926 -8.02971 3.47653 0
M  V30 59878 C 745.436 -6.89602 1.41652 0
M  V30 59879 C 746.146 -5.59201 1.75185 0
M  V30 59880 N 746.096 -4.58235 0.662552 0
M  V30 59881 H 748.935 -8.65116 0.777161 0
M  V30 59882 H 749.207 -6.90173 0.474152 0
M  V30 59883 H 748.339 -7.66548 2.79458 0
M  V30 59884 P 744.376 -8.03563 3.84925 0
M  V30 59885 O 744.156 -8.85821 5.0569 0
M  V30 59886 O 743.586 -8.41101 2.65469 0
M  V30 59887 O 744.126 -6.4965 4.18908 0
M  V30 59888 C 745.066 -5.81037 5.05421 0
M  V30 59889 C 744.336 -4.78366 5.89277 0
M  V30 59890 O 744.126 -3.58302 5.08433 0
M  V30 59891 C 742.936 -5.17448 6.36119 0
M  V30 59892 O 742.546 -4.45271 7.53232 0
M  V30 59893 C 742.056 -4.74639 5.19936 0
M  V30 59894 C 742.766 -3.49432 4.70418 0
M  V30 59895 N 742.716 -3.31776 3.22945 0
M  V30 59896 H 745.555 -6.54213 5.71376 0
M  V30 59897 H 745.827 -5.30492 4.44033 0
M  V30 59898 H 744.959 -4.55889 6.76652 0
M  V30 59899 P 740.996 -4.23843 7.83734 0
M  V30 59900 O 740.776 -4.19407 9.29784 0
M  V30 59901 O 740.206 -5.24426 7.09156 0
M  V30 59902 O 740.746 -2.7935 7.20758 0
M  V30 59903 C 741.686 -1.72945 7.50224 0
M  V30 59904 C 740.956 -0.406376 7.57911 0
M  V30 59905 O 740.746 0.0897726 6.21935 0
M  V30 59906 C 739.556 -0.438983 8.18724 0
M  V30 59907 O 739.166 0.825065 8.71101 0
M  V30 59908 C 738.676 -0.783689 6.99524 0
M  V30 59909 C 739.386 -0.0619086 5.85867 0
M  V30 59910 N 739.336 -0.78573 4.56183 0
M  V30 59911 C 739.186 -0.0292889 3.41887 0
M  V30 59912 O 739.096 1.18445 3.4419 0
M  V30 59913 N 739.146 -0.744061 2.23964 0
M  V30 59914 C 739.236 -2.10932 2.10362 0
M  V30 59915 O 739.186 -2.64117 0.98825 0
M  V30 59916 C 739.386 -2.8202 3.34994 0
M  V30 59917 C 739.496 -4.31095 3.25037 0
M  V30 59918 C 739.436 -2.15547 4.52261 0
M  V30 59919 H 742.177 -1.93379 8.46595 0
M  V30 59920 H 742.446 -1.68132 6.70852 0
M  V30 59921 H 741.579 0.289041 8.15388 0
M  V30 59922 H 738.924 0.926847 5.72749 0
M  V30 59923 H 738.645 -1.86973 6.82036 0
M  V30 59924 H 737.653 -0.403896 7.13257 0
M  V30 59925 H 739.487 -1.20585 8.97435 0
M  V30 59926 H 739.558 -2.71231 5.45042 0
M  V30 59927 H 738.528 -4.76966 3.49992 0
M  V30 59928 H 740.265 -4.67047 3.95024 0
M  V30 59929 H 739.777 -4.58996 2.22312 0
M  V30 59930 H 739.041 -0.214893 1.39758 0
M  V30 59931 P 737.616 1.17771 8.83182 0
M  V30 59932 O 737.396 2.07206 9.98732 0
M  V30 59933 O 736.826 -0.0743816 8.81969 0
M  V30 59934 O 737.366 1.97652 7.47304 0
M  V30 59935 C 738.306 3.01133 7.08783 0
M  V30 59936 C 737.576 4.12613 6.37049 0
M  V30 59937 O 737.366 3.72827 4.97879 0
M  V30 59938 C 736.176 4.45085 6.88694 0
M  V30 59939 O 735.786 5.7877 6.5624 0
M  V30 59940 C 735.296 3.47817 6.12078 0
M  V30 59941 C 736.006 3.39414 4.77697 0
M  V30 59942 N 735.956 2.04615 4.15333 0
M  V30 59943 H 738.795 3.41248 7.98759 0
M  V30 59944 H 739.067 2.5837 6.41742 0
M  V30 59945 H 738.199 5.02657 6.42673 0
M  V30 59946 P 734.236 6.144 6.45285 0
M  V30 59947 O 734.016 7.54673 6.86199 0
M  V30 59948 O 733.446 5.12391 7.179 0
M  V30 59949 O 733.986 5.99158 4.88404 0
M  V30 59950 C 734.926 6.60234 3.96415 0
M  V30 59951 C 734.196 7.08259 2.72856 0
M  V30 59952 O 733.986 5.9427 1.83651 0
M  V30 59953 C 732.796 7.64886 2.9555 0
M  V30 59954 O 732.406 8.53963 1.90717 0
M  V30 59955 C 731.916 6.4116 2.90739 0
M  V30 59956 C 732.626 5.55375 1.86963 0
M  V30 59957 N 732.576 4.09664 2.15742 0
M  V30 59958 H 735.415 7.45574 4.45629 0
M  V30 59959 H 735.687 5.86232 3.67314 0
M  V30 59960 H 734.819 7.84412 2.24479 0
M  V30 59961 P 730.856 8.7635 1.60911 0
M  V30 59962 O 730.636 10.1388 1.11561 0
M  V30 59963 O 730.066 8.36503 2.79617 0
M  V30 59964 O 730.606 7.71806 0.42951 0
M  V30 59965 C 731.546 7.67148 -0.673689 0
M  V30 59966 C 730.816 7.33374 -1.95559 0
M  V30 59967 O 730.606 5.88721 -2.00726 0
M  V30 59968 C 729.416 7.92526 -2.10483 0
M  V30 59969 O 729.026 8.02971 -3.47653 0
M  V30 59970 C 728.536 6.89602 -1.41652 0
M  V30 59971 C 729.246 5.59201 -1.75185 0
M  V30 59972 N 729.196 4.58235 -0.662552 0
M  V30 59973 H 732.035 8.65116 -0.777161 0
M  V30 59974 H 732.307 6.90173 -0.474152 0
M  V30 59975 H 731.439 7.66548 -2.79458 0
M  V30 59976 P 727.476 8.03563 -3.84925 0
M  V30 59977 O 727.256 8.85821 -5.0569 0
M  V30 59978 O 726.686 8.41101 -2.65469 0
M  V30 59979 O 727.226 6.4965 -4.18908 0
M  V30 59980 C 728.166 5.80886 -5.05289 0
M  V30 59981 C 727.436 4.78366 -5.89277 0
M  V30 59982 O 727.226 3.58302 -5.08433 0
M  V30 59983 C 726.036 5.16748 -6.36559 0
M  V30 59984 O 725.646 4.45271 -7.53232 0
M  V30 59985 C 725.156 4.74572 -5.19863 0
M  V30 59986 C 725.866 3.49373 -4.70338 0
M  V30 59987 N 725.816 3.31704 -3.22876 0
M  V30 59988 C 725.666 2.03326 -2.74871 0
M  V30 59989 O 725.576 1.06486 -3.48076 0
M  V30 59990 N 725.626 1.91838 -1.37456 0
M  V30 59991 C 725.716 2.94295 -0.462035 0
M  V30 59992 C 725.866 4.25064 -1.05249 0
M  V30 59993 C 725.916 4.40214 -2.39192 0
M  V30 59994 H 728.657 6.54063 -5.71245 0
M  V30 59995 H 728.926 5.30339 -4.43905 0
M  V30 59996 H 728.059 4.55889 -6.76652 0
M  V30 59997 H 725.404 2.6167 -5.17842 0
M  V30 59998 H 725.125 5.52155 -4.41878 0
M  V30 59999 H 724.133 4.51918 -5.53297 0
M  V30 60000 H 725.967 6.25055 -6.55162 0
M  V30 60001 H 726.038 5.39798 -2.81523 0
M  V30 60002 P 724.096 4.23843 -7.83734 0
M  V30 60003 O 723.876 4.19407 -9.29784 0
M  V30 60004 O 723.306 5.24426 -7.09156 0
M  V30 60005 O 723.846 2.7935 -7.20758 0
M  V30 60006 C 724.786 1.72945 -7.50224 0
M  V30 60007 C 724.056 0.406376 -7.57911 0
M  V30 60008 O 723.846 -0.0897726 -6.21935 0
M  V30 60009 C 722.656 0.438983 -8.18724 0
M  V30 60010 O 722.266 -0.825065 -8.71101 0
M  V30 60011 C 721.776 0.783689 -6.99524 0
M  V30 60012 C 722.486 0.0619086 -5.85867 0
M  V30 60013 N 722.436 0.78573 -4.56183 0
M  V30 60014 C 722.286 0.0292889 -3.41887 0
M  V30 60015 O 722.196 -1.18445 -3.4419 0
M  V30 60016 N 722.246 0.744061 -2.23964 0
M  V30 60017 C 722.336 2.10932 -2.10362 0
M  V30 60018 O 722.286 2.64117 -0.98825 0
M  V30 60019 C 722.486 2.8202 -3.34994 0
M  V30 60020 C 722.596 4.31095 -3.25037 0
M  V30 60021 C 722.536 2.15547 -4.52261 0
M  V30 60022 H 725.277 1.93379 -8.46595 0
M  V30 60023 H 725.546 1.68132 -6.70852 0
M  V30 60024 H 724.679 -0.289041 -8.15388 0
M  V30 60025 H 722.024 -0.926847 -5.72749 0
M  V30 60026 H 721.745 1.86973 -6.82036 0
M  V30 60027 H 720.753 0.403896 -7.13257 0
M  V30 60028 H 722.587 1.20585 -8.97435 0
M  V30 60029 H 722.658 2.71231 -5.45042 0
M  V30 60030 H 721.628 4.76966 -3.49992 0
M  V30 60031 H 723.365 4.67047 -3.95024 0
M  V30 60032 H 722.877 4.58996 -2.22312 0
M  V30 60033 H 722.141 0.214893 -1.39758 0
M  V30 60034 P 720.716 -1.17771 -8.83182 0
M  V30 60035 O 720.496 -2.07206 -9.98732 0
M  V30 60036 O 719.926 0.0743816 -8.81969 0
M  V30 60037 O 720.466 -1.97652 -7.47304 0
M  V30 60038 C 721.406 -3.01133 -7.08783 0
M  V30 60039 C 720.676 -4.12613 -6.37049 0
M  V30 60040 O 720.466 -3.72827 -4.97879 0
M  V30 60041 C 719.276 -4.45085 -6.88694 0
M  V30 60042 O 718.886 -5.7877 -6.5624 0
M  V30 60043 C 718.396 -3.47817 -6.12078 0
M  V30 60044 C 719.106 -3.39414 -4.77697 0
M  V30 60045 N 719.056 -2.04615 -4.15333 0
M  V30 60046 H 721.895 -3.41248 -7.98759 0
M  V30 60047 H 722.167 -2.5837 -6.41742 0
M  V30 60048 H 721.299 -5.02657 -6.42673 0
M  V30 60049 P 717.336 -6.144 -6.45285 0
M  V30 60050 O 717.116 -7.54673 -6.86199 0
M  V30 60051 O 716.546 -5.12391 -7.179 0
M  V30 60052 O 717.086 -5.99158 -4.88404 0
M  V30 60053 C 718.026 -6.60062 -3.96313 0
M  V30 60054 C 717.296 -7.08259 -2.72856 0
M  V30 60055 O 717.086 -5.9427 -1.83651 0
M  V30 60056 C 715.896 -7.65087 -2.94749 0
M  V30 60057 O 715.506 -8.53963 -1.90717 0
M  V30 60058 C 715.016 -6.41069 -2.90698 0
M  V30 60059 C 715.726 -5.5528 -1.86931 0
M  V30 60060 N 715.676 -4.09575 -2.15696 0
M  V30 60061 C 715.526 -3.24249 -1.08435 0
M  V30 60062 O 715.436 -3.63946 0.0628747 0
M  V30 60063 N 715.486 -1.90009 -1.39973 0
M  V30 60064 C 715.576 -1.34884 -2.65614 0
M  V30 60065 C 715.726 -2.3145 -3.71736 0
M  V30 60066 C 715.776 -3.63518 -3.44754 0
M  V30 60067 H 718.517 -7.45402 -4.45526 0
M  V30 60068 H 718.786 -5.86062 -3.67208 0
M  V30 60069 H 717.919 -7.84412 -2.24479 0
M  V30 60070 H 715.264 -5.73358 -0.888409 0
M  V30 60071 H 714.985 -5.90877 -3.88583 0
M  V30 60072 H 713.993 -6.65867 -2.58821 0
M  V30 60073 H 715.827 -8.16248 -3.92006 0
M  V30 60074 H 715.898 -4.34551 -4.26383 0
M  V30 60075 P 713.956 -8.7635 -1.60911 0
M  V30 60076 O 713.736 -10.1388 -1.11561 0
M  V30 60077 O 713.166 -8.36503 -2.79617 0
M  V30 60078 O 713.706 -7.71806 -0.42951 0
M  V30 60079 C 714.646 -7.67148 0.673689 0
M  V30 60080 C 713.916 -7.33374 1.95559 0
M  V30 60081 O 713.706 -5.88721 2.00726 0
M  V30 60082 C 712.516 -7.92526 2.10483 0
M  V30 60083 O 712.126 -8.02971 3.47653 0
M  V30 60084 C 711.636 -6.89602 1.41652 0
M  V30 60085 C 712.346 -5.59201 1.75185 0
M  V30 60086 N 712.296 -4.58235 0.662552 0
M  V30 60087 H 715.135 -8.65116 0.777161 0
M  V30 60088 H 715.407 -6.90173 0.474152 0
M  V30 60089 H 714.539 -7.66548 2.79458 0
M  V30 60090 P 710.576 -8.03563 3.84925 0
M  V30 60091 O 710.356 -8.85821 5.0569 0
M  V30 60092 O 709.786 -8.41101 2.65469 0
M  V30 60093 O 710.326 -6.4965 4.18908 0
M  V30 60094 C 711.266 -5.80886 5.05289 0
M  V30 60095 C 710.536 -4.78366 5.89277 0
M  V30 60096 O 710.326 -3.58302 5.08433 0
M  V30 60097 C 709.136 -5.16748 6.36559 0
M  V30 60098 O 708.746 -4.45271 7.53232 0
M  V30 60099 C 708.256 -4.74572 5.19863 0
M  V30 60100 C 708.966 -3.49373 4.70338 0
M  V30 60101 N 708.916 -3.31704 3.22876 0
M  V30 60102 C 708.766 -2.03326 2.74871 0
M  V30 60103 O 708.676 -1.06486 3.48076 0
M  V30 60104 N 708.726 -1.91838 1.37456 0
M  V30 60105 C 708.816 -2.94295 0.462035 0
M  V30 60106 C 708.966 -4.25064 1.05249 0
M  V30 60107 C 709.016 -4.40214 2.39192 0
M  V30 60108 H 711.757 -6.54063 5.71245 0
M  V30 60109 H 712.026 -5.30339 4.43905 0
M  V30 60110 H 711.159 -4.55889 6.76652 0
M  V30 60111 H 708.504 -2.6167 5.17842 0
M  V30 60112 H 708.225 -5.52155 4.41878 0
M  V30 60113 H 707.233 -4.51918 5.53297 0
M  V30 60114 H 709.067 -6.25055 6.55162 0
M  V30 60115 H 709.138 -5.39798 2.81523 0
M  V30 60116 P 707.196 -4.23843 7.83734 0
M  V30 60117 O 706.976 -4.19407 9.29784 0
M  V30 60118 O 706.406 -5.24426 7.09156 0
M  V30 60119 O 706.946 -2.7935 7.20758 0
M  V30 60120 C 707.886 -1.7299 7.50419 0
M  V30 60121 C 707.156 -0.406376 7.57911 0
M  V30 60122 O 706.946 0.0897726 6.21935 0
M  V30 60123 C 705.756 -0.447224 8.1878 0
M  V30 60124 O 705.366 0.825065 8.71101 0
M  V30 60125 C 704.876 -0.783801 6.99623 0
M  V30 60126 C 705.586 -0.0619192 5.85967 0
M  V30 60127 N 705.536 -0.790462 4.56202 0
M  V30 60128 H 708.375 -1.93423 8.4679 0
M  V30 60129 H 708.647 -1.68852 6.70877 0
M  V30 60130 H 707.779 0.289041 8.15388 0
M  V30 60131 H 705.124 0.927006 5.72848 0
M  V30 60132 H 704.844 -1.86973 6.82036 0
M  V30 60133 H 703.853 -0.403953 7.13357 0
M  V30 60134 H 705.687 -1.20599 8.97534 0
M  V30 60135 P 703.816 1.17771 8.83182 0
M  V30 60136 O 703.596 2.07206 9.98732 0
M  V30 60137 O 703.026 -0.0743816 8.81969 0
M  V30 60138 O 703.566 1.97652 7.47304 0
M  V30 60139 C 704.506 3.01133 7.08783 0
M  V30 60140 C 703.776 4.12613 6.37049 0
M  V30 60141 O 703.566 3.72827 4.97879 0
M  V30 60142 C 702.376 4.45085 6.88694 0
M  V30 60143 O 701.986 5.7877 6.5624 0
M  V30 60144 C 701.496 3.47817 6.12078 0
M  V30 60145 C 702.206 3.39414 4.77697 0
M  V30 60146 N 702.156 2.04199 4.15538 0
M  V30 60147 C 702.236 0.821545 4.76977 0
M  V30 60148 N 702.166 -0.1794 3.94592 0
M  V30 60149 C 702.016 0.419121 2.70776 0
M  V30 60150 C 701.886 -0.109072 1.40577 0
M  V30 60151 N 701.876 -1.4104 1.1344 0
M  V30 60152 N 701.766 0.764381 0.39411 0
M  V30 60153 C 701.776 2.06587 0.664135 0
M  V30 60154 N 701.896 2.67948 1.82153 0
M  V30 60155 C 702.016 1.77942 2.8147 0
M  V30 60156 H 704.995 3.41248 7.98759 0
M  V30 60157 H 705.267 2.57728 6.42 0
M  V30 60158 H 704.399 5.02657 6.42673 0
M  V30 60159 H 701.744 4.11708 4.08956 0
M  V30 60160 H 701.464 2.49626 6.61679 0
M  V30 60161 H 700.473 3.8662 6.00862 0
M  V30 60162 H 702.307 4.29991 7.97006 0
M  V30 60163 H 702.348 0.702451 5.84696 0
M  V30 60164 H 701.967 -2.09647 1.89651 0
M  V30 60165 H 701.778 -1.73358 0.160575 0
M  V30 60166 H 701.67 2.71695 -0.195838 0
M  V30 60167 P 700.436 6.144 6.45285 0
M  V30 60168 O 700.216 7.54673 6.86199 0
M  V30 60169 O 699.646 5.12391 7.179 0
M  V30 60170 O 700.186 5.99158 4.88404 0
M  V30 60171 C 701.126 6.60234 3.96415 0
M  V30 60172 C 700.396 7.08259 2.72856 0
M  V30 60173 O 700.186 5.9427 1.83651 0
M  V30 60174 C 698.996 7.64886 2.9555 0
M  V30 60175 O 698.606 8.53963 1.90717 0
M  V30 60176 C 698.116 6.4116 2.90739 0
M  V30 60177 C 698.826 5.55375 1.86963 0
M  V30 60178 N 698.776 4.09664 2.15742 0
M  V30 60179 H 701.615 7.45574 4.45629 0
M  V30 60180 H 701.887 5.86232 3.67314 0
M  V30 60181 H 701.019 7.84412 2.24479 0
M  V30 60182 P 697.056 8.7635 1.60911 0
M  V30 60183 O 696.836 10.1388 1.11561 0
M  V30 60184 O 696.266 8.36503 2.79617 0
M  V30 60185 O 696.806 7.71806 0.42951 0
M  V30 60186 C 697.746 7.66948 -0.673514 0
M  V30 60187 C 697.016 7.33374 -1.95559 0
M  V30 60188 O 696.806 5.88721 -2.00726 0
M  V30 60189 C 695.616 7.92218 -2.1125 0
M  V30 60190 O 695.226 8.02971 -3.47653 0
M  V30 60191 C 694.736 6.89504 -1.41631 0
M  V30 60192 C 695.446 5.59106 -1.75155 0
M  V30 60193 N 695.396 4.58136 -0.662409 0
M  V30 60194 C 695.246 3.26059 -1.02863 0
M  V30 60195 O 695.156 2.90743 -2.19009 0
M  V30 60196 N 695.206 2.35995 0.0155585 0
M  V30 60197 C 695.296 2.65248 1.35603 0
M  V30 60198 C 695.446 4.05747 1.64698 0
M  V30 60199 C 695.496 4.96734 0.652411 0
M  V30 60200 H 698.237 8.64917 -0.776982 0
M  V30 60201 H 698.506 6.89974 -0.474015 0
M  V30 60202 H 697.639 7.66548 -2.79458 0
M  V30 60203 H 694.984 5.16076 -2.65138 0
M  V30 60204 H 694.705 7.06433 -0.329384 0
M  V30 60205 H 693.713 6.90829 -1.81996 0
M  V30 60206 H 695.547 8.90774 -1.62639 0
M  V30 60207 H 695.618 6.02181 0.895285 0
M  V30 60208 P 693.676 8.03563 -3.84925 0
M  V30 60209 O 693.456 8.85821 -5.0569 0
M  V30 60210 O 692.886 8.41101 -2.65469 0
M  V30 60211 O 693.426 6.4965 -4.18908 0
M  V30 60212 C 694.366 5.80886 -5.05289 0
M  V30 60213 C 693.636 4.78366 -5.89277 0
M  V30 60214 O 693.426 3.58302 -5.08433 0
M  V30 60215 C 692.236 5.16748 -6.36559 0
M  V30 60216 O 691.846 4.45271 -7.53232 0
M  V30 60217 C 691.356 4.74572 -5.19863 0
M  V30 60218 C 692.066 3.49373 -4.70338 0
M  V30 60219 N 692.016 3.31704 -3.22876 0
M  V30 60220 C 691.866 2.03326 -2.74871 0
M  V30 60221 O 691.776 1.06486 -3.48076 0
M  V30 60222 N 691.826 1.91838 -1.37456 0
M  V30 60223 C 691.916 2.94295 -0.462035 0
M  V30 60224 C 692.066 4.25064 -1.05249 0
M  V30 60225 C 692.116 4.40214 -2.39192 0
M  V30 60226 H 694.857 6.54063 -5.71245 0
M  V30 60227 H 695.126 5.30339 -4.43905 0
M  V30 60228 H 694.259 4.55889 -6.76652 0
M  V30 60229 H 691.604 2.6167 -5.17842 0
M  V30 60230 H 691.325 5.52155 -4.41878 0
M  V30 60231 H 690.333 4.51918 -5.53297 0
M  V30 60232 H 692.167 6.25055 -6.55162 0
M  V30 60233 H 692.238 5.39798 -2.81523 0
M  V30 60234 P 690.296 4.23843 -7.83734 0
M  V30 60235 O 690.076 4.19407 -9.29784 0
M  V30 60236 O 689.506 5.24426 -7.09156 0
M  V30 60237 O 690.046 2.7935 -7.20758 0
M  V30 60238 C 690.986 1.72945 -7.50224 0
M  V30 60239 C 690.256 0.406376 -7.57911 0
M  V30 60240 O 690.046 -0.0897726 -6.21935 0
M  V30 60241 C 688.856 0.438983 -8.18724 0
M  V30 60242 O 688.466 -0.825065 -8.71101 0
M  V30 60243 C 687.976 0.783689 -6.99524 0
M  V30 60244 C 688.686 0.0619086 -5.85867 0
M  V30 60245 N 688.636 0.78573 -4.56183 0
M  V30 60246 C 688.486 0.0292889 -3.41887 0
M  V30 60247 O 688.396 -1.18445 -3.4419 0
M  V30 60248 N 688.446 0.744061 -2.23964 0
M  V30 60249 C 688.536 2.10932 -2.10362 0
M  V30 60250 C 688.686 2.8202 -3.34994 0
M  V30 60251 C 688.736 2.15547 -4.52261 0
M  V30 60252 H 691.477 1.93379 -8.46595 0
M  V30 60253 H 691.746 1.68132 -6.70852 0
M  V30 60254 H 690.879 -0.289041 -8.15388 0
M  V30 60255 H 688.224 -0.926847 -5.72749 0
M  V30 60256 H 687.945 1.86973 -6.82036 0
M  V30 60257 H 686.953 0.403896 -7.13257 0
M  V30 60258 H 688.787 1.20585 -8.97435 0
M  V30 60259 H 688.858 2.71231 -5.45042 0
M  V30 60260 P 686.916 -1.17771 -8.83182 0
M  V30 60261 O 686.696 -2.07206 -9.98732 0
M  V30 60262 O 686.126 0.0743816 -8.81969 0
M  V30 60263 O 686.666 -1.97652 -7.47304 0
M  V30 60264 C 687.606 -3.01133 -7.08783 0
M  V30 60265 C 686.876 -4.12613 -6.37049 0
M  V30 60266 O 686.666 -3.72827 -4.97879 0
M  V30 60267 C 685.476 -4.45085 -6.88694 0
M  V30 60268 O 685.086 -5.7877 -6.5624 0
M  V30 60269 C 684.596 -3.47817 -6.12078 0
M  V30 60270 C 685.306 -3.39414 -4.77697 0
M  V30 60271 N 685.256 -2.04199 -4.15538 0
M  V30 60272 H 688.095 -3.41248 -7.98759 0
M  V30 60273 H 688.367 -2.57728 -6.42 0
M  V30 60274 H 687.499 -5.02657 -6.42673 0
M  V30 60275 H 684.844 -4.11708 -4.08956 0
M  V30 60276 H 684.564 -2.49626 -6.61679 0
M  V30 60277 H 683.573 -3.8662 -6.00862 0
M  V30 60278 H 685.407 -4.29991 -7.97006 0
M  V30 60279 P 683.536 -6.144 -6.45285 0
M  V30 60280 O 683.316 -7.54673 -6.86199 0
M  V30 60281 O 682.746 -5.12391 -7.179 0
M  V30 60282 O 683.286 -5.99158 -4.88404 0
M  V30 60283 C 684.226 -6.60234 -3.96415 0
M  V30 60284 C 683.496 -7.08259 -2.72856 0
M  V30 60285 O 683.286 -5.9427 -1.83651 0
M  V30 60286 C 682.096 -7.64886 -2.9555 0
M  V30 60287 O 681.706 -8.53963 -1.90717 0
M  V30 60288 C 681.216 -6.4116 -2.90739 0
M  V30 60289 C 681.926 -5.55375 -1.86963 0
M  V30 60290 N 681.876 -4.09664 -2.15742 0
M  V30 60291 H 684.715 -7.45574 -4.45629 0
M  V30 60292 H 684.987 -5.86232 -3.67314 0
M  V30 60293 H 684.119 -7.84412 -2.24479 0
M  V30 60294 P 680.156 -8.7635 -1.60911 0
M  V30 60295 O 679.936 -10.1388 -1.11561 0
M  V30 60296 O 679.366 -8.36503 -2.79617 0
M  V30 60297 O 679.906 -7.71806 -0.42951 0
M  V30 60298 C 680.846 -7.67148 0.673689 0
M  V30 60299 C 680.116 -7.33374 1.95559 0
M  V30 60300 O 679.906 -5.88721 2.00726 0
M  V30 60301 C 678.716 -7.92526 2.10483 0
M  V30 60302 O 678.326 -8.02971 3.47653 0
M  V30 60303 C 677.836 -6.89602 1.41652 0
M  V30 60304 C 678.546 -5.59201 1.75185 0
M  V30 60305 N 678.496 -4.58301 0.657969 0
M  V30 60306 H 681.335 -8.65116 0.777161 0
M  V30 60307 H 681.607 -6.9022 0.46725 0
M  V30 60308 H 680.739 -7.66548 2.79458 0
M  V30 60309 H 678.084 -5.16165 2.65183 0
M  V30 60310 H 677.804 -7.06433 0.329384 0
M  V30 60311 H 676.813 -6.90926 1.82021 0
M  V30 60312 H 678.647 -8.90873 1.62657 0
M  V30 60313 P 676.776 -8.03563 3.84925 0
M  V30 60314 O 676.556 -8.85821 5.0569 0
M  V30 60315 O 675.986 -8.41101 2.65469 0
M  V30 60316 O 676.526 -6.4965 4.18908 0
M  V30 60317 C 677.466 -5.81037 5.05421 0
M  V30 60318 C 676.736 -4.78366 5.89277 0
M  V30 60319 O 676.526 -3.58302 5.08433 0
M  V30 60320 C 675.336 -5.17448 6.36119 0
M  V30 60321 O 674.946 -4.45271 7.53232 0
M  V30 60322 C 674.456 -4.74639 5.19936 0
M  V30 60323 C 675.166 -3.49432 4.70418 0
M  V30 60324 N 675.116 -3.31776 3.22945 0
M  V30 60325 H 677.955 -6.54213 5.71376 0
M  V30 60326 H 678.227 -5.30492 4.44033 0
M  V30 60327 H 677.359 -4.55889 6.76652 0
M  V30 60328 P 673.396 -4.23843 7.83734 0
M  V30 60329 O 673.176 -4.19407 9.29784 0
M  V30 60330 O 672.606 -5.24426 7.09156 0
M  V30 60331 O 673.146 -2.7935 7.20758 0
M  V30 60332 C 674.086 -1.7299 7.50419 0
M  V30 60333 C 673.356 -0.406376 7.57911 0
M  V30 60334 O 673.146 0.0897726 6.21935 0
M  V30 60335 C 671.956 -0.447224 8.1878 0
M  V30 60336 O 671.566 0.825065 8.71101 0
M  V30 60337 C 671.076 -0.783801 6.99623 0
M  V30 60338 C 671.786 -0.0619192 5.85967 0
M  V30 60339 N 671.736 -0.790462 4.56202 0
M  V30 60340 H 674.575 -1.93423 8.4679 0
M  V30 60341 H 674.847 -1.68852 6.70877 0
M  V30 60342 H 673.979 0.289041 8.15388 0
M  V30 60343 H 671.324 0.927006 5.72848 0
M  V30 60344 H 671.044 -1.86973 6.82036 0
M  V30 60345 H 670.053 -0.403953 7.13357 0
M  V30 60346 H 671.887 -1.20599 8.97534 0
M  V30 60347 P 670.016 1.17771 8.83182 0
M  V30 60348 O 669.796 2.07206 9.98732 0
M  V30 60349 O 669.226 -0.0743816 8.81969 0
M  V30 60350 O 669.766 1.97652 7.47304 0
M  V30 60351 C 670.706 3.01133 7.08783 0
M  V30 60352 C 669.976 4.12613 6.37049 0
M  V30 60353 O 669.766 3.72827 4.97879 0
M  V30 60354 C 668.576 4.45085 6.88694 0
M  V30 60355 O 668.186 5.7877 6.5624 0
M  V30 60356 C 667.696 3.47817 6.12078 0
M  V30 60357 C 668.406 3.39414 4.77697 0
M  V30 60358 N 668.356 2.04199 4.15538 0
M  V30 60359 H 671.195 3.41248 7.98759 0
M  V30 60360 H 671.467 2.57728 6.42 0
M  V30 60361 H 670.599 5.02657 6.42673 0
M  V30 60362 H 667.944 4.11708 4.08956 0
M  V30 60363 H 667.664 2.49626 6.61679 0
M  V30 60364 H 666.673 3.8662 6.00862 0
M  V30 60365 H 668.507 4.29991 7.97006 0
M  V30 60366 P 666.636 6.144 6.45285 0
M  V30 60367 O 666.416 7.54673 6.86199 0
M  V30 60368 O 665.846 5.12391 7.179 0
M  V30 60369 O 666.386 5.99158 4.88404 0
M  V30 60370 C 667.326 6.60234 3.96415 0
M  V30 60371 C 666.596 7.08259 2.72856 0
M  V30 60372 O 666.386 5.9427 1.83651 0
M  V30 60373 C 665.196 7.64886 2.9555 0
M  V30 60374 O 664.806 8.53963 1.90717 0
M  V30 60375 C 664.316 6.4116 2.90739 0
M  V30 60376 C 665.026 5.55375 1.86963 0
M  V30 60377 N 664.976 4.09448 2.16152 0
M  V30 60378 H 667.815 7.45574 4.45629 0
M  V30 60379 H 668.087 5.85864 3.679 0
M  V30 60380 H 667.219 7.84412 2.24479 0
M  V30 60381 H 664.564 5.73457 0.888562 0
M  V30 60382 H 664.284 5.90877 3.88583 0
M  V30 60383 H 663.293 6.6596 2.58858 0
M  V30 60384 H 665.127 8.16339 3.92049 0
M  V30 60385 P 663.256 8.7635 1.60911 0
M  V30 60386 O 663.036 10.1388 1.11561 0
M  V30 60387 O 662.466 8.36503 2.79617 0
M  V30 60388 O 663.006 7.71806 0.42951 0
M  V30 60389 C 663.946 7.67148 -0.673689 0
M  V30 60390 C 663.216 7.33374 -1.95559 0
M  V30 60391 O 663.006 5.88721 -2.00726 0
M  V30 60392 C 661.816 7.92526 -2.10483 0
M  V30 60393 O 661.426 8.02971 -3.47653 0
M  V30 60394 C 660.936 6.89602 -1.41652 0
M  V30 60395 C 661.646 5.59201 -1.75185 0
M  V30 60396 N 661.596 4.58235 -0.662552 0
M  V30 60397 H 664.435 8.65116 -0.777161 0
M  V30 60398 H 664.707 6.90173 -0.474152 0
M  V30 60399 H 663.839 7.66548 -2.79458 0
M  V30 60400 P 659.876 8.03563 -3.84925 0
M  V30 60401 O 659.656 8.85821 -5.0569 0
M  V30 60402 O 659.086 8.41101 -2.65469 0
M  V30 60403 O 659.626 6.4965 -4.18908 0
M  V30 60404 C 660.566 5.81037 -5.05421 0
M  V30 60405 C 659.836 4.78366 -5.89277 0
M  V30 60406 O 659.626 3.58302 -5.08433 0
M  V30 60407 C 658.436 5.17448 -6.36119 0
M  V30 60408 O 658.046 4.45271 -7.53232 0
M  V30 60409 C 657.556 4.74639 -5.19936 0
M  V30 60410 C 658.266 3.49432 -4.70418 0
M  V30 60411 N 658.216 3.31776 -3.22945 0
M  V30 60412 H 661.055 6.54213 -5.71376 0
M  V30 60413 H 661.327 5.30492 -4.44033 0
M  V30 60414 H 660.459 4.55889 -6.76652 0
M  V30 60415 P 656.496 4.23843 -7.83734 0
M  V30 60416 O 656.276 4.19407 -9.29784 0
M  V30 60417 O 655.706 5.24426 -7.09156 0
M  V30 60418 O 656.246 2.7935 -7.20758 0
M  V30 60419 C 657.186 1.7299 -7.50419 0
M  V30 60420 C 656.456 0.406376 -7.57911 0
M  V30 60421 O 656.246 -0.0897726 -6.21935 0
M  V30 60422 C 655.056 0.447224 -8.1878 0
M  V30 60423 O 654.666 -0.825065 -8.71101 0
M  V30 60424 C 654.176 0.783801 -6.99623 0
M  V30 60425 C 654.886 0.0619192 -5.85967 0
M  V30 60426 N 654.836 0.790462 -4.56202 0
M  V30 60427 H 657.675 1.93423 -8.4679 0
M  V30 60428 H 657.947 1.68852 -6.70877 0
M  V30 60429 H 657.079 -0.289041 -8.15388 0
M  V30 60430 H 654.424 -0.927006 -5.72848 0
M  V30 60431 H 654.144 1.86973 -6.82036 0
M  V30 60432 H 653.153 0.403953 -7.13357 0
M  V30 60433 H 654.987 1.20599 -8.97534 0
M  V30 60434 P 653.116 -1.17771 -8.83182 0
M  V30 60435 O 652.896 -2.07206 -9.98732 0
M  V30 60436 O 652.326 0.0743816 -8.81969 0
M  V30 60437 O 652.866 -1.97652 -7.47304 0
M  V30 60438 C 653.806 -3.01133 -7.08783 0
M  V30 60439 C 653.076 -4.12613 -6.37049 0
M  V30 60440 O 652.866 -3.72827 -4.97879 0
M  V30 60441 C 651.676 -4.45085 -6.88694 0
M  V30 60442 O 651.286 -5.7877 -6.5624 0
M  V30 60443 C 650.796 -3.47817 -6.12078 0
M  V30 60444 C 651.506 -3.39414 -4.77697 0
M  V30 60445 N 651.456 -2.04615 -4.15333 0
M  V30 60446 H 654.295 -3.41248 -7.98759 0
M  V30 60447 H 654.567 -2.5837 -6.41742 0
M  V30 60448 H 653.699 -5.02657 -6.42673 0
M  V30 60449 P 649.736 -6.144 -6.45285 0
M  V30 60450 O 649.516 -7.54673 -6.86199 0
M  V30 60451 O 648.946 -5.12391 -7.179 0
M  V30 60452 O 649.486 -5.99158 -4.88404 0
M  V30 60453 C 650.426 -6.60234 -3.96415 0
M  V30 60454 C 649.696 -7.08259 -2.72856 0
M  V30 60455 O 649.486 -5.9427 -1.83651 0
M  V30 60456 C 648.296 -7.64886 -2.9555 0
M  V30 60457 O 647.906 -8.53963 -1.90717 0
M  V30 60458 C 647.416 -6.4116 -2.90739 0
M  V30 60459 C 648.126 -5.55375 -1.86963 0
M  V30 60460 N 648.076 -4.09448 -2.16152 0
M  V30 60461 H 650.915 -7.45574 -4.45629 0
M  V30 60462 H 651.187 -5.85864 -3.679 0
M  V30 60463 H 650.319 -7.84412 -2.24479 0
M  V30 60464 H 647.664 -5.73457 -0.888562 0
M  V30 60465 H 647.384 -5.90877 -3.88583 0
M  V30 60466 H 646.393 -6.6596 -2.58858 0
M  V30 60467 H 648.227 -8.16339 -3.92049 0
M  V30 60468 P 646.356 -8.7635 -1.60911 0
M  V30 60469 O 646.136 -10.1388 -1.11561 0
M  V30 60470 O 645.566 -8.36503 -2.79617 0
M  V30 60471 O 646.106 -7.71806 -0.42951 0
M  V30 60472 C 647.046 -7.67148 0.673689 0
M  V30 60473 C 646.316 -7.33374 1.95559 0
M  V30 60474 O 646.106 -5.88721 2.00726 0
M  V30 60475 C 644.916 -7.92526 2.10483 0
M  V30 60476 O 644.526 -8.02971 3.47653 0
M  V30 60477 C 644.036 -6.89602 1.41652 0
M  V30 60478 C 644.746 -5.59201 1.75185 0
M  V30 60479 N 644.696 -4.58235 0.662552 0
M  V30 60480 H 647.535 -8.65116 0.777161 0
M  V30 60481 H 647.807 -6.90173 0.474152 0
M  V30 60482 H 646.939 -7.66548 2.79458 0
M  V30 60483 P 642.976 -8.03563 3.84925 0
M  V30 60484 O 642.756 -8.85821 5.0569 0
M  V30 60485 O 642.186 -8.41101 2.65469 0
M  V30 60486 O 642.726 -6.4965 4.18908 0
M  V30 60487 C 643.666 -5.81037 5.05421 0
M  V30 60488 C 642.936 -4.78366 5.89277 0
M  V30 60489 O 642.726 -3.58302 5.08433 0
M  V30 60490 C 641.536 -5.17448 6.36119 0
M  V30 60491 O 641.146 -4.45271 7.53232 0
M  V30 60492 C 640.656 -4.74639 5.19936 0
M  V30 60493 C 641.366 -3.49432 4.70418 0
M  V30 60494 N 641.316 -3.32099 3.22613 0
M  V30 60495 H 644.155 -6.54213 5.71376 0
M  V30 60496 H 644.427 -5.30936 4.43503 0
M  V30 60497 H 643.559 -4.55889 6.76652 0
M  V30 60498 H 640.904 -2.61715 5.17932 0
M  V30 60499 H 640.624 -5.52155 4.41878 0
M  V30 60500 H 639.633 -4.51981 5.53374 0
M  V30 60501 H 641.467 -6.25124 6.55234 0
M  V30 60502 P 639.596 -4.23843 7.83734 0
M  V30 60503 O 639.376 -4.19407 9.29784 0
M  V30 60504 O 638.806 -5.24426 7.09156 0
M  V30 60505 O 639.346 -2.7935 7.20758 0
M  V30 60506 C 640.286 -1.7299 7.50419 0
M  V30 60507 C 639.556 -0.406376 7.57911 0
M  V30 60508 O 639.346 0.0897726 6.21935 0
M  V30 60509 C 638.156 -0.447224 8.1878 0
M  V30 60510 O 637.766 0.825065 8.71101 0
M  V30 60511 C 637.276 -0.783801 6.99623 0
M  V30 60512 C 637.986 -0.0619192 5.85967 0
M  V30 60513 N 637.936 -0.790462 4.56202 0
M  V30 60514 H 640.775 -1.93423 8.4679 0
M  V30 60515 H 641.047 -1.68852 6.70877 0
M  V30 60516 H 640.179 0.289041 8.15388 0
M  V30 60517 H 637.524 0.927006 5.72848 0
M  V30 60518 H 637.244 -1.86973 6.82036 0
M  V30 60519 H 636.253 -0.403953 7.13357 0
M  V30 60520 H 638.087 -1.20599 8.97534 0
M  V30 60521 P 636.216 1.17771 8.83182 0
M  V30 60522 O 635.996 2.07206 9.98732 0
M  V30 60523 O 635.426 -0.0743816 8.81969 0
M  V30 60524 O 635.966 1.97652 7.47304 0
M  V30 60525 C 636.906 3.01133 7.08783 0
M  V30 60526 C 636.176 4.12613 6.37049 0
M  V30 60527 O 635.966 3.72827 4.97879 0
M  V30 60528 C 634.776 4.45085 6.88694 0
M  V30 60529 O 634.386 5.7877 6.5624 0
M  V30 60530 C 633.896 3.47817 6.12078 0
M  V30 60531 C 634.606 3.39414 4.77697 0
M  V30 60532 N 634.556 2.04199 4.15538 0
M  V30 60533 H 637.395 3.41248 7.98759 0
M  V30 60534 H 637.667 2.57728 6.42 0
M  V30 60535 H 636.799 5.02657 6.42673 0
M  V30 60536 H 634.144 4.11708 4.08956 0
M  V30 60537 H 633.864 2.49626 6.61679 0
M  V30 60538 H 632.873 3.8662 6.00862 0
M  V30 60539 H 634.707 4.29991 7.97006 0
M  V30 60540 P 632.836 6.144 6.45285 0
M  V30 60541 O 632.616 7.54673 6.86199 0
M  V30 60542 O 632.046 5.12391 7.179 0
M  V30 60543 O 632.586 5.99158 4.88404 0
M  V30 60544 C 633.526 6.60062 3.96313 0
M  V30 60545 C 632.796 7.08259 2.72856 0
M  V30 60546 O 632.586 5.9427 1.83651 0
M  V30 60547 C 631.396 7.65087 2.94749 0
M  V30 60548 O 631.006 8.53963 1.90717 0
M  V30 60549 C 630.516 6.41069 2.90698 0
M  V30 60550 C 631.226 5.5528 1.86931 0
M  V30 60551 N 631.176 4.09575 2.15696 0
M  V30 60552 C 631.026 3.24249 1.08435 0
M  V30 60553 O 630.936 3.63946 -0.0628747 0
M  V30 60554 N 630.986 1.90009 1.39973 0
M  V30 60555 C 631.076 1.34884 2.65614 0
M  V30 60556 O 631.026 0.123716 2.81728 0
M  V30 60557 C 631.226 2.3145 3.71736 0
M  V30 60558 C 631.336 1.75913 5.10438 0
M  V30 60559 C 631.276 3.63518 3.44754 0
M  V30 60560 H 634.017 7.45402 4.45526 0
M  V30 60561 H 634.286 5.86062 3.67208 0
M  V30 60562 H 633.419 7.84412 2.24479 0
M  V30 60563 H 630.764 5.73358 0.888409 0
M  V30 60564 H 630.485 5.90877 3.88583 0
M  V30 60565 H 629.493 6.65867 2.58821 0
M  V30 60566 H 631.327 8.16248 3.92006 0
M  V30 60567 H 631.398 4.34551 4.26383 0
M  V30 60568 H 630.368 1.85471 5.61775 0
M  V30 60569 H 632.105 2.31364 5.66257 0
M  V30 60570 H 631.617 0.695936 5.05229 0
M  V30 60571 H 630.881 1.26277 0.63625 0
M  V30 60572 P 629.456 8.7635 1.60911 0
M  V30 60573 O 629.236 10.1388 1.11561 0
M  V30 60574 O 628.666 8.36503 2.79617 0
M  V30 60575 O 629.206 7.71806 0.42951 0
M  V30 60576 C 630.146 7.66948 -0.673514 0
M  V30 60577 C 629.416 7.33374 -1.95559 0
M  V30 60578 O 629.206 5.88721 -2.00726 0
M  V30 60579 C 628.016 7.92218 -2.1125 0
M  V30 60580 O 627.626 8.02971 -3.47653 0
M  V30 60581 C 627.136 6.89504 -1.41631 0
M  V30 60582 C 627.846 5.59106 -1.75155 0
M  V30 60583 N 627.796 4.58136 -0.662409 0
M  V30 60584 C 627.646 3.26059 -1.02863 0
M  V30 60585 O 627.556 2.90743 -2.19009 0
M  V30 60586 N 627.606 2.35995 0.0155585 0
M  V30 60587 C 627.696 2.65248 1.35603 0
M  V30 60588 C 627.846 4.05747 1.64698 0
M  V30 60589 C 627.896 4.96734 0.652411 0
M  V30 60590 H 630.637 8.64917 -0.776982 0
M  V30 60591 H 630.906 6.89974 -0.474015 0
M  V30 60592 H 630.039 7.66548 -2.79458 0
M  V30 60593 H 627.384 5.16076 -2.65138 0
M  V30 60594 H 627.105 7.06433 -0.329384 0
M  V30 60595 H 626.113 6.90829 -1.81996 0
M  V30 60596 H 627.947 8.90774 -1.62639 0
M  V30 60597 H 628.018 6.02181 0.895285 0
M  V30 60598 P 626.076 8.03563 -3.84925 0
M  V30 60599 O 625.856 8.85821 -5.0569 0
M  V30 60600 O 625.286 8.41101 -2.65469 0
M  V30 60601 O 625.826 6.4965 -4.18908 0
M  V30 60602 C 626.766 5.81037 -5.05421 0
M  V30 60603 C 626.036 4.78366 -5.89277 0
M  V30 60604 O 625.826 3.58302 -5.08433 0
M  V30 60605 C 624.636 5.17448 -6.36119 0
M  V30 60606 O 624.246 4.45271 -7.53232 0
M  V30 60607 C 623.756 4.74639 -5.19936 0
M  V30 60608 C 624.466 3.49432 -4.70418 0
M  V30 60609 N 624.416 3.31776 -3.22945 0
M  V30 60610 H 627.255 6.54213 -5.71376 0
M  V30 60611 H 627.527 5.30492 -4.44033 0
M  V30 60612 H 626.659 4.55889 -6.76652 0
M  V30 60613 P 622.696 4.23843 -7.83734 0
M  V30 60614 O 622.476 4.19407 -9.29784 0
M  V30 60615 O 621.906 5.24426 -7.09156 0
M  V30 60616 O 622.446 2.7935 -7.20758 0
M  V30 60617 C 623.386 1.7299 -7.50419 0
M  V30 60618 C 622.656 0.406376 -7.57911 0
M  V30 60619 O 622.446 -0.0897726 -6.21935 0
M  V30 60620 C 621.256 0.447224 -8.1878 0
M  V30 60621 O 620.866 -0.825065 -8.71101 0
M  V30 60622 C 620.376 0.783801 -6.99623 0
M  V30 60623 C 621.086 0.0619192 -5.85967 0
M  V30 60624 N 621.036 0.790462 -4.56202 0
M  V30 60625 H 623.875 1.93423 -8.4679 0
M  V30 60626 H 624.147 1.68852 -6.70877 0
M  V30 60627 H 623.279 -0.289041 -8.15388 0
M  V30 60628 H 620.624 -0.927006 -5.72848 0
M  V30 60629 H 620.344 1.86973 -6.82036 0
M  V30 60630 H 619.353 0.403953 -7.13357 0
M  V30 60631 H 621.187 1.20599 -8.97534 0
M  V30 60632 P 619.316 -1.17771 -8.83182 0
M  V30 60633 O 619.096 -2.07206 -9.98732 0
M  V30 60634 O 618.526 0.0743816 -8.81969 0
M  V30 60635 O 619.066 -1.97652 -7.47304 0
M  V30 60636 C 620.006 -3.01133 -7.08783 0
M  V30 60637 C 619.276 -4.12613 -6.37049 0
M  V30 60638 O 619.066 -3.72827 -4.97879 0
M  V30 60639 C 617.876 -4.45085 -6.88694 0
M  V30 60640 O 617.486 -5.7877 -6.5624 0
M  V30 60641 C 616.996 -3.47817 -6.12078 0
M  V30 60642 C 617.706 -3.39414 -4.77697 0
M  V30 60643 N 617.656 -2.04615 -4.15333 0
M  V30 60644 H 620.495 -3.41248 -7.98759 0
M  V30 60645 H 620.767 -2.5837 -6.41742 0
M  V30 60646 H 619.899 -5.02657 -6.42673 0
M  V30 60647 P 615.936 -6.144 -6.45285 0
M  V30 60648 O 615.716 -7.54673 -6.86199 0
M  V30 60649 O 615.146 -5.12391 -7.179 0
M  V30 60650 O 615.686 -5.99158 -4.88404 0
M  V30 60651 C 616.626 -6.60234 -3.96415 0
M  V30 60652 C 615.896 -7.08259 -2.72856 0
M  V30 60653 O 615.686 -5.9427 -1.83651 0
M  V30 60654 C 614.496 -7.64886 -2.9555 0
M  V30 60655 O 614.106 -8.53963 -1.90717 0
M  V30 60656 C 613.616 -6.4116 -2.90739 0
M  V30 60657 C 614.326 -5.55375 -1.86963 0
M  V30 60658 N 614.276 -4.09664 -2.15742 0
M  V30 60659 H 617.115 -7.45574 -4.45629 0
M  V30 60660 H 617.387 -5.86232 -3.67314 0
M  V30 60661 H 616.519 -7.84412 -2.24479 0
M  V30 60662 P 612.556 -8.7635 -1.60911 0
M  V30 60663 O 612.336 -10.1388 -1.11561 0
M  V30 60664 O 611.766 -8.36503 -2.79617 0
M  V30 60665 O 612.306 -7.71806 -0.42951 0
M  V30 60666 C 613.246 -7.67148 0.673689 0
M  V30 60667 C 612.516 -7.33374 1.95559 0
M  V30 60668 O 612.306 -5.88721 2.00726 0
M  V30 60669 C 611.116 -7.92526 2.10483 0
M  V30 60670 O 610.726 -8.02971 3.47653 0
M  V30 60671 C 610.236 -6.89602 1.41652 0
M  V30 60672 C 610.946 -5.59201 1.75185 0
M  V30 60673 N 610.896 -4.58235 0.662552 0
M  V30 60674 H 613.735 -8.65116 0.777161 0
M  V30 60675 H 614.007 -6.90173 0.474152 0
M  V30 60676 H 613.139 -7.66548 2.79458 0
M  V30 60677 P 609.176 -8.03563 3.84925 0
M  V30 60678 O 608.956 -8.85821 5.0569 0
M  V30 60679 O 608.386 -8.41101 2.65469 0
M  V30 60680 O 608.926 -6.4965 4.18908 0
M  V30 60681 C 609.866 -5.81037 5.05421 0
M  V30 60682 C 609.136 -4.78366 5.89277 0
M  V30 60683 O 608.926 -3.58302 5.08433 0
M  V30 60684 C 607.736 -5.17448 6.36119 0
M  V30 60685 O 607.346 -4.45271 7.53232 0
M  V30 60686 C 606.856 -4.74639 5.19936 0
M  V30 60687 C 607.566 -3.49432 4.70418 0
M  V30 60688 N 607.516 -3.31776 3.22945 0
M  V30 60689 H 610.355 -6.54213 5.71376 0
M  V30 60690 H 610.627 -5.30492 4.44033 0
M  V30 60691 H 609.759 -4.55889 6.76652 0
M  V30 60692 P 605.796 -4.23843 7.83734 0
M  V30 60693 O 605.576 -4.19407 9.29784 0
M  V30 60694 O 605.006 -5.24426 7.09156 0
M  V30 60695 O 605.546 -2.7935 7.20758 0
M  V30 60696 C 606.486 -1.7299 7.50419 0
M  V30 60697 C 605.756 -0.406376 7.57911 0
M  V30 60698 O 605.546 0.0897726 6.21935 0
M  V30 60699 C 604.356 -0.447224 8.1878 0
M  V30 60700 O 603.966 0.825065 8.71101 0
M  V30 60701 C 603.476 -0.783801 6.99623 0
M  V30 60702 C 604.186 -0.0619192 5.85967 0
M  V30 60703 N 604.136 -0.790462 4.56202 0
M  V30 60704 H 606.975 -1.93423 8.4679 0
M  V30 60705 H 607.247 -1.68852 6.70877 0
M  V30 60706 H 606.379 0.289041 8.15388 0
M  V30 60707 H 603.724 0.927006 5.72848 0
M  V30 60708 H 603.444 -1.86973 6.82036 0
M  V30 60709 H 602.453 -0.403953 7.13357 0
M  V30 60710 H 604.287 -1.20599 8.97534 0
M  V30 60711 P 602.416 1.17771 8.83182 0
M  V30 60712 O 602.196 2.07206 9.98732 0
M  V30 60713 O 601.626 -0.0743816 8.81969 0
M  V30 60714 O 602.166 1.97652 7.47304 0
M  V30 60715 C 603.106 3.01055 7.08599 0
M  V30 60716 C 602.376 4.12613 6.37049 0
M  V30 60717 O 602.166 3.72827 4.97879 0
M  V30 60718 C 600.976 4.45719 6.88164 0
M  V30 60719 O 600.586 5.7877 6.5624 0
M  V30 60720 C 600.096 3.47768 6.11991 0
M  V30 60721 C 600.806 3.39356 4.77615 0
M  V30 60722 N 600.756 2.04571 4.15244 0
M  V30 60723 C 600.606 1.98587 2.78314 0
M  V30 60724 O 600.516 2.98134 2.08835 0
M  V30 60725 N 600.566 0.714467 2.24925 0
M  V30 60726 C 600.656 -0.470001 2.94169 0
M  V30 60727 C 600.806 -0.312541 4.36783 0
M  V30 60728 C 600.856 0.914512 4.92583 0
M  V30 60729 H 603.597 3.41169 7.98575 0
M  V30 60730 H 603.866 2.58295 6.41556 0
M  V30 60731 H 602.999 5.02657 6.42673 0
M  V30 60732 H 600.344 4.11637 4.08885 0
M  V30 60733 H 600.065 2.49626 6.61679 0
M  V30 60734 H 599.073 3.86566 6.00778 0
M  V30 60735 H 600.907 4.29943 7.96918 0
M  V30 60736 H 600.978 1.00937 6.00374 0
M  V30 60737 P 599.036 6.144 6.45285 0
M  V30 60738 O 598.816 7.54673 6.86199 0
M  V30 60739 O 598.246 5.12391 7.179 0
M  V30 60740 O 598.786 5.99158 4.88404 0
M  V30 60741 C 599.726 6.60234 3.96415 0
M  V30 60742 C 598.996 7.08259 2.72856 0
M  V30 60743 O 598.786 5.9427 1.83651 0
M  V30 60744 C 597.596 7.64886 2.9555 0
M  V30 60745 O 597.206 8.53963 1.90717 0
M  V30 60746 C 596.716 6.4116 2.90739 0
M  V30 60747 C 597.426 5.55375 1.86963 0
M  V30 60748 N 597.376 4.09448 2.16152 0
M  V30 60749 H 600.215 7.45574 4.45629 0
M  V30 60750 H 600.487 5.85864 3.679 0
M  V30 60751 H 599.619 7.84412 2.24479 0
M  V30 60752 H 596.964 5.73457 0.888562 0
M  V30 60753 H 596.684 5.90877 3.88583 0
M  V30 60754 H 595.693 6.6596 2.58858 0
M  V30 60755 H 597.527 8.16339 3.92049 0
M  V30 60756 P 595.656 8.7635 1.60911 0
M  V30 60757 O 595.436 10.1388 1.11561 0
M  V30 60758 O 594.866 8.36503 2.79617 0
M  V30 60759 O 595.406 7.71806 0.42951 0
M  V30 60760 C 596.346 7.66948 -0.673514 0
M  V30 60761 C 595.616 7.33374 -1.95559 0
M  V30 60762 O 595.406 5.88721 -2.00726 0
M  V30 60763 C 594.216 7.92218 -2.1125 0
M  V30 60764 O 593.826 8.02971 -3.47653 0
M  V30 60765 C 593.336 6.89504 -1.41631 0
M  V30 60766 C 594.046 5.59106 -1.75155 0
M  V30 60767 N 593.996 4.58136 -0.662409 0
M  V30 60768 C 593.846 3.26059 -1.02863 0
M  V30 60769 O 593.756 2.90743 -2.19009 0
M  V30 60770 N 593.806 2.35995 0.0155585 0
M  V30 60771 C 593.896 2.65248 1.35603 0
M  V30 60772 O 593.846 1.75605 2.20651 0
M  V30 60773 C 594.046 4.05747 1.64698 0
M  V30 60774 C 594.156 4.42345 3.09553 0
M  V30 60775 C 594.096 4.96734 0.652411 0
M  V30 60776 H 596.837 8.64917 -0.776982 0
M  V30 60777 H 597.106 6.89974 -0.474015 0
M  V30 60778 H 596.239 7.66548 -2.79458 0
M  V30 60779 H 593.584 5.16076 -2.65138 0
M  V30 60780 H 593.305 7.06433 -0.329384 0
M  V30 60781 H 592.313 6.90829 -1.81996 0
M  V30 60782 H 594.147 8.90774 -1.62639 0
M  V30 60783 H 594.218 6.02181 0.895285 0
M  V30 60784 H 593.188 4.80252 3.45468 0
M  V30 60785 H 594.925 5.20015 3.22119 0
M  V30 60786 H 594.437 3.53269 3.67833 0
M  V30 60787 H 593.701 1.39558 -0.227499 0
M  V30 60788 P 592.277 8.03563 -3.84925 0
M  V30 60789 O 592.057 8.85821 -5.0569 0
M  V30 60790 O 591.487 8.41101 -2.65469 0
M  V30 60791 O 592.027 6.4965 -4.18908 0
M  V30 60792 C 592.967 5.81037 -5.05421 0
M  V30 60793 C 592.237 4.78366 -5.89277 0
M  V30 60794 O 592.027 3.58302 -5.08433 0
M  V30 60795 C 590.837 5.17448 -6.36119 0
M  V30 60796 O 590.447 4.45271 -7.53232 0
M  V30 60797 C 589.957 4.74639 -5.19936 0
M  V30 60798 C 590.667 3.49432 -4.70418 0
M  V30 60799 N 590.617 3.31776 -3.22945 0
M  V30 60800 H 593.456 6.54213 -5.71376 0
M  V30 60801 H 593.728 5.30492 -4.44033 0
M  V30 60802 H 592.86 4.55889 -6.76652 0
M  V30 60803 P 588.897 4.23843 -7.83734 0
M  V30 60804 O 588.677 4.19407 -9.29784 0
M  V30 60805 O 588.107 5.24426 -7.09156 0
M  V30 60806 O 588.647 2.79386 -7.20852 0
M  V30 60807 C 589.587 1.7299 -7.50419 0
M  V30 60808 C 588.857 0.41401 -7.5797 0
M  V30 60809 O 588.647 -0.089787 -6.22035 0
M  V30 60810 C 587.457 0.447224 -8.1878 0
M  V30 60811 O 587.067 -0.825159 -8.71201 0
M  V30 60812 C 586.577 0.783801 -6.99623 0
M  V30 60813 C 587.287 0.0619192 -5.85967 0
M  V30 60814 N 587.237 0.7859 -4.56281 0
M  V30 60815 C 587.087 0.0359258 -3.39981 0
M  V30 60816 O 586.997 -1.19723 -3.49038 0
M  V30 60817 N 587.037 0.869151 -2.14025 0
M  V30 60818 C 587.137 2.01207 -2.14363 0
M  V30 60819 N 587.087 2.58978 -0.954287 0
M  V30 60820 C 587.287 2.80817 -3.32215 0
M  V30 60821 C 587.337 2.13785 -4.50884 0
M  V30 60822 H 590.077 1.93401 -8.46693 0
M  V30 60823 H 590.347 1.68181 -6.71046 0
M  V30 60824 H 589.48 -0.289076 -8.15488 0
M  V30 60825 H 586.825 -0.927166 -5.72947 0
M  V30 60826 H 586.545 1.87 -6.82132 0
M  V30 60827 H 585.554 0.404009 -7.13457 0
M  V30 60828 H 587.388 1.20599 -8.97534 0
M  V30 60829 H 587.46 2.70295 -5.43162 0
M  V30 60830 H 587.358 3.89465 -3.27406 0
M  V30 60831 H 586.97 2.01616 -0.107046 0
M  V30 60832 H 587.166 3.61403 -0.873101 0
M  V30 60833 P 585.517 -1.17771 -8.83182 0
M  V30 60834 O 585.297 -2.07206 -9.98732 0
M  V30 60835 O 584.727 0.0743816 -8.81969 0
M  V30 60836 O 585.267 -1.97652 -7.47304 0
M  V30 60837 C 586.207 -3.01133 -7.08783 0
M  V30 60838 C 585.477 -4.12613 -6.37049 0
M  V30 60839 O 585.267 -3.72827 -4.97879 0
M  V30 60840 C 584.077 -4.45085 -6.88694 0
M  V30 60841 O 583.687 -5.7877 -6.5624 0
M  V30 60842 C 583.197 -3.47817 -6.12078 0
M  V30 60843 C 583.907 -3.39414 -4.77697 0
M  V30 60844 N 583.857 -2.04199 -4.15538 0
M  V30 60845 H 586.696 -3.41248 -7.98759 0
M  V30 60846 H 586.968 -2.57728 -6.42 0
M  V30 60847 H 586.1 -5.02657 -6.42673 0
M  V30 60848 H 583.445 -4.11708 -4.08956 0
M  V30 60849 H 583.165 -2.49626 -6.61679 0
M  V30 60850 H 582.174 -3.8662 -6.00862 0
M  V30 60851 H 584.008 -4.29991 -7.97006 0
M  V30 60852 P 582.137 -6.144 -6.45285 0
M  V30 60853 O 581.917 -7.54673 -6.86199 0
M  V30 60854 O 581.347 -5.12391 -7.179 0
M  V30 60855 O 581.887 -5.99158 -4.88404 0
M  V30 60856 C 582.827 -6.60062 -3.96313 0
M  V30 60857 C 582.097 -7.08259 -2.72856 0
M  V30 60858 O 581.887 -5.9427 -1.83651 0
M  V30 60859 C 580.697 -7.65087 -2.94749 0
M  V30 60860 O 580.307 -8.53963 -1.90717 0
M  V30 60861 C 579.817 -6.41069 -2.90698 0
M  V30 60862 C 580.527 -5.5528 -1.86931 0
M  V30 60863 N 580.477 -4.09575 -2.15696 0
M  V30 60864 C 580.327 -3.24249 -1.08435 0
M  V30 60865 O 580.237 -3.63946 0.0628747 0
M  V30 60866 N 580.287 -1.90009 -1.39973 0
M  V30 60867 C 580.377 -1.34884 -2.65614 0
M  V30 60868 O 580.327 -0.123716 -2.81728 0
M  V30 60869 C 580.527 -2.3145 -3.71736 0
M  V30 60870 C 580.637 -1.75913 -5.10438 0
M  V30 60871 C 580.577 -3.63518 -3.44754 0
M  V30 60872 H 583.318 -7.45402 -4.45526 0
M  V30 60873 H 583.587 -5.86062 -3.67208 0
M  V30 60874 H 582.72 -7.84412 -2.24479 0
M  V30 60875 H 580.065 -5.73358 -0.888409 0
M  V30 60876 H 579.786 -5.90877 -3.88583 0
M  V30 60877 H 578.794 -6.65867 -2.58821 0
M  V30 60878 H 580.628 -8.16248 -3.92006 0
M  V30 60879 H 580.699 -4.34551 -4.26383 0
M  V30 60880 H 579.669 -1.85471 -5.61775 0
M  V30 60881 H 581.406 -2.31364 -5.66257 0
M  V30 60882 H 580.918 -0.695936 -5.05229 0
M  V30 60883 H 580.182 -1.26277 -0.63625 0
M  V30 60884 P 578.757 -8.7635 -1.60911 0
M  V30 60885 O 578.537 -10.1388 -1.11561 0
M  V30 60886 O 577.967 -8.36503 -2.79617 0
M  V30 60887 O 578.507 -7.71806 -0.42951 0
M  V30 60888 C 579.447 -7.67148 0.673689 0
M  V30 60889 C 578.717 -7.33374 1.95559 0
M  V30 60890 O 578.507 -5.88721 2.00726 0
M  V30 60891 C 577.317 -7.92526 2.10483 0
M  V30 60892 O 576.927 -8.02971 3.47653 0
M  V30 60893 C 576.437 -6.89602 1.41652 0
M  V30 60894 C 577.147 -5.59201 1.75185 0
M  V30 60895 N 577.097 -4.58235 0.662552 0
M  V30 60896 H 579.936 -8.65116 0.777161 0
M  V30 60897 H 580.208 -6.90173 0.474152 0
M  V30 60898 H 579.34 -7.66548 2.79458 0
M  V30 60899 P 575.377 -8.03563 3.84925 0
M  V30 60900 O 575.157 -8.85821 5.0569 0
M  V30 60901 O 574.587 -8.41101 2.65469 0
M  V30 60902 O 575.127 -6.4965 4.18908 0
M  V30 60903 C 576.067 -5.81037 5.05421 0
M  V30 60904 C 575.337 -4.78366 5.89277 0
M  V30 60905 O 575.127 -3.58302 5.08433 0
M  V30 60906 C 573.937 -5.17448 6.36119 0
M  V30 60907 O 573.547 -4.45271 7.53232 0
M  V30 60908 C 573.057 -4.74639 5.19936 0
M  V30 60909 C 573.767 -3.49432 4.70418 0
M  V30 60910 N 573.717 -3.31776 3.22945 0
M  V30 60911 H 576.556 -6.54213 5.71376 0
M  V30 60912 H 576.828 -5.30492 4.44033 0
M  V30 60913 H 575.96 -4.55889 6.76652 0
M  V30 60914 P 571.997 -4.23843 7.83734 0
M  V30 60915 O 571.777 -4.19407 9.29784 0
M  V30 60916 O 571.207 -5.24426 7.09156 0
M  V30 60917 O 571.747 -2.7935 7.20758 0
M  V30 60918 C 572.687 -1.7299 7.50419 0
M  V30 60919 C 571.957 -0.406376 7.57911 0
M  V30 60920 O 571.747 0.0897726 6.21935 0
M  V30 60921 C 570.557 -0.447224 8.1878 0
M  V30 60922 O 570.167 0.825065 8.71101 0
M  V30 60923 C 569.677 -0.783801 6.99623 0
M  V30 60924 C 570.387 -0.0619192 5.85967 0
M  V30 60925 N 570.337 -0.790462 4.56202 0
M  V30 60926 H 573.176 -1.93423 8.4679 0
M  V30 60927 H 573.448 -1.68852 6.70877 0
M  V30 60928 H 572.58 0.289041 8.15388 0
M  V30 60929 H 569.925 0.927006 5.72848 0
M  V30 60930 H 569.645 -1.86973 6.82036 0
M  V30 60931 H 568.654 -0.403953 7.13357 0
M  V30 60932 H 570.488 -1.20599 8.97534 0
M  V30 60933 P 568.617 1.17771 8.83182 0
M  V30 60934 O 568.397 2.07206 9.98732 0
M  V30 60935 O 567.827 -0.0743816 8.81969 0
M  V30 60936 O 568.367 1.97652 7.47304 0
M  V30 60937 C 569.307 3.01133 7.08783 0
M  V30 60938 C 568.577 4.12613 6.37049 0
M  V30 60939 O 568.367 3.72827 4.97879 0
M  V30 60940 C 567.177 4.45085 6.88694 0
M  V30 60941 O 566.787 5.7877 6.5624 0
M  V30 60942 C 566.297 3.47817 6.12078 0
M  V30 60943 C 567.007 3.39414 4.77697 0
M  V30 60944 N 566.957 2.04199 4.15538 0
M  V30 60945 C 567.037 0.821545 4.76977 0
M  V30 60946 N 566.967 -0.1794 3.94592 0
M  V30 60947 C 566.817 0.419121 2.70776 0
M  V30 60948 C 566.687 -0.109072 1.40577 0
M  V30 60949 N 566.677 -1.4104 1.1344 0
M  V30 60950 N 566.567 0.764381 0.39411 0
M  V30 60951 C 566.577 2.06587 0.664135 0
M  V30 60952 N 566.697 2.67948 1.82153 0
M  V30 60953 C 566.817 1.77942 2.8147 0
M  V30 60954 H 569.796 3.41248 7.98759 0
M  V30 60955 H 570.068 2.57728 6.42 0
M  V30 60956 H 569.2 5.02657 6.42673 0
M  V30 60957 H 566.545 4.11708 4.08956 0
M  V30 60958 H 566.265 2.49626 6.61679 0
M  V30 60959 H 565.274 3.8662 6.00862 0
M  V30 60960 H 567.108 4.29991 7.97006 0
M  V30 60961 H 567.149 0.702451 5.84696 0
M  V30 60962 H 566.768 -2.09647 1.89651 0
M  V30 60963 H 566.579 -1.73358 0.160575 0
M  V30 60964 H 566.471 2.71695 -0.195838 0
M  V30 60965 P 565.237 6.144 6.45285 0
M  V30 60966 O 565.017 7.54673 6.86199 0
M  V30 60967 O 564.447 5.12391 7.179 0
M  V30 60968 O 564.987 5.99158 4.88404 0
M  V30 60969 C 565.927 6.60234 3.96415 0
M  V30 60970 C 565.197 7.08259 2.72856 0
M  V30 60971 O 564.987 5.9427 1.83651 0
M  V30 60972 C 563.797 7.64886 2.9555 0
M  V30 60973 O 563.407 8.53963 1.90717 0
M  V30 60974 C 562.917 6.4116 2.90739 0
M  V30 60975 C 563.627 5.55375 1.86963 0
M  V30 60976 N 563.577 4.09664 2.15742 0
M  V30 60977 H 566.416 7.45574 4.45629 0
M  V30 60978 H 566.688 5.86232 3.67314 0
M  V30 60979 H 565.82 7.84412 2.24479 0
M  V30 60980 P 561.857 8.7635 1.60911 0
M  V30 60981 O 561.637 10.1388 1.11561 0
M  V30 60982 O 561.067 8.36503 2.79617 0
M  V30 60983 O 561.607 7.71806 0.42951 0
M  V30 60984 C 562.547 7.67148 -0.673689 0
M  V30 60985 C 561.817 7.33374 -1.95559 0
M  V30 60986 O 561.607 5.88721 -2.00726 0
M  V30 60987 C 560.417 7.92526 -2.10483 0
M  V30 60988 O 560.027 8.02971 -3.47653 0
M  V30 60989 C 559.537 6.89602 -1.41652 0
M  V30 60990 C 560.247 5.59201 -1.75185 0
M  V30 60991 N 560.197 4.58301 -0.657969 0
M  V30 60992 C 560.277 4.79019 0.692603 0
M  V30 60993 N 560.207 3.69736 1.38998 0
M  V30 60994 C 560.057 2.70474 0.438135 0
M  V30 60995 C 559.927 1.30327 0.538142 0
M  V30 60996 N 559.917 0.64304 1.69192 0
M  V30 60997 N 559.807 0.611027 -0.605183 0
M  V30 60998 C 559.817 1.27002 -1.75953 0
M  V30 60999 N 559.937 2.56038 -1.98546 0
M  V30 61000 C 560.057 3.22681 -0.822541 0
M  V30 61001 H 563.036 8.65116 -0.777161 0
M  V30 61002 H 563.308 6.9022 -0.46725 0
M  V30 61003 H 562.44 7.66548 -2.79458 0
M  V30 61004 H 559.785 5.16165 -2.65183 0
M  V30 61005 H 559.505 7.06433 -0.329384 0
M  V30 61006 H 558.514 6.90926 -1.82021 0
M  V30 61007 H 560.348 8.90873 -1.62657 0
M  V30 61008 H 560.389 5.77785 1.13874 0
M  V30 61009 H 560.008 1.15585 2.57991 0
M  V30 61010 H 559.819 -0.382989 1.69835 0
M  V30 61011 H 559.711 0.653331 -2.64449 0
M  V30 61012 P 558.477 8.03563 -3.84925 0
M  V30 61013 O 558.257 8.85821 -5.0569 0
M  V30 61014 O 557.687 8.41101 -2.65469 0
M  V30 61015 O 558.227 6.4965 -4.18908 0
M  V30 61016 C 559.167 5.81037 -5.05421 0
M  V30 61017 C 558.437 4.78366 -5.89277 0
M  V30 61018 O 558.227 3.58302 -5.08433 0
M  V30 61019 C 557.037 5.17448 -6.36119 0
M  V30 61020 O 556.647 4.45271 -7.53232 0
M  V30 61021 C 556.157 4.74639 -5.19936 0
M  V30 61022 C 556.867 3.49432 -4.70418 0
M  V30 61023 N 556.817 3.32099 -3.22613 0
M  V30 61024 C 556.897 4.28245 -2.25527 0
M  V30 61025 N 556.827 3.80823 -1.04874 0
M  V30 61026 C 556.677 2.44571 -1.23535 0
M  V30 61027 C 556.547 1.37068 -0.330675 0
M  V30 61028 N 556.537 1.51472 0.990824 0
M  V30 61029 N 556.427 0.138614 -0.848756 0
M  V30 61030 C 556.437 -0.00675923 -2.16999 0
M  V30 61031 N 556.557 0.904372 -3.11122 0
M  V30 61032 C 556.677 2.12707 -2.56212 0
M  V30 61033 H 559.656 6.54213 -5.71376 0
M  V30 61034 H 559.928 5.30936 -4.43503 0
M  V30 61035 H 559.06 4.55889 -6.76652 0
M  V30 61036 H 556.405 2.61715 -5.17932 0
M  V30 61037 H 556.125 5.52155 -4.41878 0
M  V30 61038 H 555.134 4.51981 -5.53374 0
M  V30 61039 H 556.968 6.25124 -6.55234 0
M  V30 61040 H 557.009 5.34372 -2.47488 0
M  V30 61041 H 556.628 2.45153 1.4078 0
M  V30 61042 H 556.439 0.688422 1.59911 0
M  V30 61043 H 556.331 -1.02584 -2.52346 0
M  V30 61044 P 555.097 4.23843 -7.83734 0
M  V30 61045 O 554.877 4.19407 -9.29784 0
M  V30 61046 O 554.307 5.24426 -7.09156 0
M  V30 61047 O 554.847 2.7935 -7.20758 0
M  V30 61048 C 555.787 1.7299 -7.50419 0
M  V30 61049 C 555.057 0.406376 -7.57911 0
M  V30 61050 O 554.847 -0.0897726 -6.21935 0
M  V30 61051 C 553.657 0.447224 -8.1878 0
M  V30 61052 O 553.267 -0.825065 -8.71101 0
M  V30 61053 C 552.777 0.783801 -6.99623 0
M  V30 61054 C 553.487 0.0619192 -5.85967 0
M  V30 61055 N 553.437 0.7859 -4.56281 0
M  V30 61056 H 556.276 1.93423 -8.4679 0
M  V30 61057 H 556.548 1.68181 -6.71046 0
M  V30 61058 H 555.68 -0.289041 -8.15388 0
M  V30 61059 P 551.717 -1.17771 -8.83182 0
M  V30 61060 O 551.497 -2.07206 -9.98732 0
M  V30 61061 O 550.927 0.0743816 -8.81969 0
M  V30 61062 O 551.467 -1.97652 -7.47304 0
M  V30 61063 C 552.407 -3.01055 -7.08599 0
M  V30 61064 C 551.677 -4.12613 -6.37049 0
M  V30 61065 O 551.467 -3.72827 -4.97879 0
M  V30 61066 C 550.277 -4.45719 -6.88164 0
M  V30 61067 O 549.887 -5.7877 -6.5624 0
M  V30 61068 C 549.397 -3.47768 -6.11991 0
M  V30 61069 C 550.107 -3.39356 -4.77615 0
M  V30 61070 N 550.057 -2.04571 -4.15244 0
M  V30 61071 C 549.907 -1.98587 -2.78314 0
M  V30 61072 O 549.817 -2.98134 -2.08835 0
M  V30 61073 N 549.867 -0.714467 -2.24925 0
M  V30 61074 C 549.957 0.470001 -2.94169 0
M  V30 61075 C 550.107 0.312541 -4.36783 0
M  V30 61076 C 550.157 -0.914512 -4.92583 0
M  V30 61077 H 552.898 -3.41169 -7.98575 0
M  V30 61078 H 553.167 -2.58295 -6.41556 0
M  V30 61079 H 552.3 -5.02657 -6.42673 0
M  V30 61080 H 549.645 -4.11637 -4.08885 0
M  V30 61081 H 549.366 -2.49626 -6.61679 0
M  V30 61082 H 548.374 -3.86566 -6.00778 0
M  V30 61083 H 550.208 -4.29943 -7.96918 0
M  V30 61084 H 550.279 -1.00937 -6.00374 0
M  V30 61085 P 548.337 -6.144 -6.45285 0
M  V30 61086 O 548.117 -7.54673 -6.86199 0
M  V30 61087 O 547.547 -5.12391 -7.179 0
M  V30 61088 O 548.087 -5.99158 -4.88404 0
M  V30 61089 C 549.027 -6.60234 -3.96415 0
M  V30 61090 C 548.297 -7.08259 -2.72856 0
M  V30 61091 O 548.087 -5.9427 -1.83651 0
M  V30 61092 C 546.897 -7.64886 -2.9555 0
M  V30 61093 O 546.507 -8.53963 -1.90717 0
M  V30 61094 C 546.017 -6.4116 -2.90739 0
M  V30 61095 C 546.727 -5.55375 -1.86963 0
M  V30 61096 N 546.677 -4.09448 -2.16152 0
M  V30 61097 C 546.757 -3.46824 -3.37593 0
M  V30 61098 N 546.687 -2.17422 -3.29777 0
M  V30 61099 C 546.537 -1.93065 -1.94427 0
M  V30 61100 C 546.407 -0.738053 -1.20141 0
M  V30 61101 N 546.397 0.474256 -1.74676 0
M  V30 61102 N 546.287 -0.850049 0.13045 0
M  V30 61103 C 546.297 -2.06169 0.676992 0
M  V30 61104 N 546.417 -3.23842 0.101312 0
M  V30 61105 C 546.537 -3.09402 -1.23122 0
M  V30 61106 H 549.516 -7.45574 -4.45629 0
M  V30 61107 H 549.788 -5.85864 -3.679 0
M  V30 61108 H 548.92 -7.84412 -2.24479 0
M  V30 61109 H 546.265 -5.73457 -0.888562 0
M  V30 61110 H 545.985 -5.90877 -3.88583 0
M  V30 61111 H 544.994 -6.6596 -2.58858 0
M  V30 61112 H 546.828 -8.16339 -3.92049 0
M  V30 61113 H 546.869 -4.00505 -4.3174 0
M  V30 61114 H 546.488 0.581337 -2.76658 0
M  V30 61115 H 546.299 1.30811 -1.14888 0
M  V30 61116 H 546.191 -2.08295 1.75542 0
M  V30 61117 P 544.957 -8.7635 -1.60911 0
M  V30 61118 O 544.737 -10.1388 -1.11561 0
M  V30 61119 O 544.167 -8.36503 -2.79617 0
M  V30 61120 O 544.707 -7.71806 -0.42951 0
M  V30 61121 C 545.647 -7.67148 0.673689 0
M  V30 61122 C 544.917 -7.33374 1.95559 0
M  V30 61123 O 544.707 -5.88721 2.00726 0
M  V30 61124 C 543.517 -7.92526 2.10483 0
M  V30 61125 O 543.127 -8.02971 3.47653 0
M  V30 61126 C 542.637 -6.89602 1.41652 0
M  V30 61127 C 543.347 -5.59201 1.75185 0
M  V30 61128 N 543.297 -4.58301 0.657969 0
M  V30 61129 H 546.136 -8.65116 0.777161 0
M  V30 61130 H 546.408 -6.9022 0.46725 0
M  V30 61131 H 545.54 -7.66548 2.79458 0
M  V30 61132 H 542.885 -5.16165 2.65183 0
M  V30 61133 H 542.605 -7.06433 0.329384 0
M  V30 61134 H 541.614 -6.90926 1.82021 0
M  V30 61135 H 543.448 -8.90873 1.62657 0
M  V30 61136 P 541.577 -8.03563 3.84925 0
M  V30 61137 O 541.357 -8.85821 5.0569 0
M  V30 61138 O 540.787 -8.41101 2.65469 0
M  V30 61139 O 541.327 -6.4965 4.18908 0
M  V30 61140 C 542.267 -5.81037 5.05421 0
M  V30 61141 C 541.537 -4.78366 5.89277 0
M  V30 61142 O 541.327 -3.58302 5.08433 0
M  V30 61143 C 540.137 -5.17448 6.36119 0
M  V30 61144 O 539.747 -4.45271 7.53232 0
M  V30 61145 C 539.257 -4.74639 5.19936 0
M  V30 61146 C 539.967 -3.49432 4.70418 0
M  V30 61147 N 539.917 -3.32099 3.22613 0
M  V30 61148 H 542.756 -6.54213 5.71376 0
M  V30 61149 H 543.028 -5.30936 4.43503 0
M  V30 61150 H 542.16 -4.55889 6.76652 0
M  V30 61151 H 539.505 -2.61715 5.17932 0
M  V30 61152 H 539.225 -5.52155 4.41878 0
M  V30 61153 H 538.234 -4.51981 5.53374 0
M  V30 61154 H 540.068 -6.25124 6.55234 0
M  V30 61155 P 538.197 -4.23843 7.83734 0
M  V30 61156 O 537.977 -4.19407 9.29784 0
M  V30 61157 O 537.407 -5.24426 7.09156 0
M  V30 61158 O 537.947 -2.7935 7.20758 0
M  V30 61159 C 538.887 -1.72945 7.50224 0
M  V30 61160 C 538.157 -0.406376 7.57911 0
M  V30 61161 O 537.947 0.0897726 6.21935 0
M  V30 61162 C 536.757 -0.438983 8.18724 0
M  V30 61163 O 536.367 0.825065 8.71101 0
M  V30 61164 C 535.877 -0.783689 6.99524 0
M  V30 61165 C 536.587 -0.0619086 5.85867 0
M  V30 61166 N 536.537 -0.78573 4.56183 0
M  V30 61167 C 536.387 -0.0292889 3.41887 0
M  V30 61168 O 536.297 1.18445 3.4419 0
M  V30 61169 N 536.347 -0.744061 2.23964 0
M  V30 61170 C 536.437 -2.10932 2.10362 0
M  V30 61171 C 536.587 -2.8202 3.34994 0
M  V30 61172 C 536.637 -2.15547 4.52261 0
M  V30 61173 H 539.378 -1.93379 8.46595 0
M  V30 61174 H 539.647 -1.68132 6.70852 0
M  V30 61175 H 538.78 0.289041 8.15388 0
M  V30 61176 H 536.125 0.926847 5.72749 0
M  V30 61177 H 535.846 -1.86973 6.82036 0
M  V30 61178 H 534.854 -0.403896 7.13257 0
M  V30 61179 H 536.688 -1.20585 8.97435 0
M  V30 61180 H 536.759 -2.71231 5.45042 0
M  V30 61181 P 534.817 1.17771 8.83182 0
M  V30 61182 O 534.597 2.07206 9.98732 0
M  V30 61183 O 534.027 -0.0743816 8.81969 0
M  V30 61184 O 534.567 1.97652 7.47304 0
M  V30 61185 C 535.507 3.01133 7.08783 0
M  V30 61186 C 534.777 4.12613 6.37049 0
M  V30 61187 O 534.567 3.72827 4.97879 0
M  V30 61188 C 533.377 4.45085 6.88694 0
M  V30 61189 O 532.987 5.7877 6.5624 0
M  V30 61190 C 532.497 3.47817 6.12078 0
M  V30 61191 C 533.207 3.39414 4.77697 0
M  V30 61192 N 533.157 2.04199 4.15538 0
M  V30 61193 C 533.237 0.821545 4.76977 0
M  V30 61194 N 533.167 -0.1794 3.94592 0
M  V30 61195 C 533.017 0.419121 2.70776 0
M  V30 61196 C 532.887 -0.109072 1.40577 0
M  V30 61197 N 532.877 -1.4104 1.1344 0
M  V30 61198 N 532.767 0.764381 0.39411 0
M  V30 61199 C 532.777 2.06587 0.664135 0
M  V30 61200 N 532.897 2.67948 1.82153 0
M  V30 61201 C 533.017 1.77942 2.8147 0
M  V30 61202 H 535.996 3.41248 7.98759 0
M  V30 61203 H 536.268 2.57728 6.42 0
M  V30 61204 H 535.4 5.02657 6.42673 0
M  V30 61205 H 532.745 4.11708 4.08956 0
M  V30 61206 H 532.465 2.49626 6.61679 0
M  V30 61207 H 531.474 3.8662 6.00862 0
M  V30 61208 H 533.308 4.29991 7.97006 0
M  V30 61209 H 533.349 0.702451 5.84696 0
M  V30 61210 H 532.968 -2.09647 1.89651 0
M  V30 61211 H 532.779 -1.73358 0.160575 0
M  V30 61212 H 532.671 2.71695 -0.195838 0
M  V30 61213 P 531.437 6.144 6.45285 0
M  V30 61214 O 531.217 7.54673 6.86199 0
M  V30 61215 O 530.647 5.12391 7.179 0
M  V30 61216 O 531.187 5.99158 4.88404 0
M  V30 61217 C 532.127 6.60234 3.96415 0
M  V30 61218 C 531.397 7.08259 2.72856 0
M  V30 61219 O 531.187 5.9427 1.83651 0
M  V30 61220 C 529.997 7.64886 2.9555 0
M  V30 61221 O 529.607 8.53963 1.90717 0
M  V30 61222 C 529.117 6.4116 2.90739 0
M  V30 61223 C 529.827 5.55375 1.86963 0
M  V30 61224 N 529.777 4.09664 2.15742 0
M  V30 61225 H 532.616 7.45574 4.45629 0
M  V30 61226 H 532.888 5.86232 3.67314 0
M  V30 61227 H 532.02 7.84412 2.24479 0
M  V30 61228 P 528.057 8.7635 1.60911 0
M  V30 61229 O 527.837 10.1388 1.11561 0
M  V30 61230 O 527.267 8.36503 2.79617 0
M  V30 61231 O 527.807 7.71806 0.42951 0
M  V30 61232 C 528.747 7.66948 -0.673514 0
M  V30 61233 C 528.017 7.33374 -1.95559 0
M  V30 61234 O 527.807 5.88721 -2.00726 0
M  V30 61235 C 526.617 7.92218 -2.1125 0
M  V30 61236 O 526.227 8.02971 -3.47653 0
M  V30 61237 C 525.737 6.89504 -1.41631 0
M  V30 61238 C 526.447 5.59106 -1.75155 0
M  V30 61239 N 526.397 4.58136 -0.662409 0
M  V30 61240 C 526.247 3.26059 -1.02863 0
M  V30 61241 O 526.157 2.90743 -2.19009 0
M  V30 61242 N 526.207 2.35995 0.0155585 0
M  V30 61243 C 526.297 2.65248 1.35603 0
M  V30 61244 C 526.447 4.05747 1.64698 0
M  V30 61245 C 526.497 4.96734 0.652411 0
M  V30 61246 H 529.238 8.64917 -0.776982 0
M  V30 61247 H 529.507 6.89974 -0.474015 0
M  V30 61248 H 528.64 7.66548 -2.79458 0
M  V30 61249 H 525.985 5.16076 -2.65138 0
M  V30 61250 H 525.706 7.06433 -0.329384 0
M  V30 61251 H 524.714 6.90829 -1.81996 0
M  V30 61252 H 526.548 8.90774 -1.62639 0
M  V30 61253 H 526.619 6.02181 0.895285 0
M  V30 61254 P 524.677 8.03563 -3.84925 0
M  V30 61255 O 524.457 8.85821 -5.0569 0
M  V30 61256 O 523.887 8.41101 -2.65469 0
M  V30 61257 O 524.427 6.4965 -4.18908 0
M  V30 61258 C 525.367 5.81037 -5.05421 0
M  V30 61259 C 524.637 4.78366 -5.89277 0
M  V30 61260 O 524.427 3.58302 -5.08433 0
M  V30 61261 C 523.237 5.17448 -6.36119 0
M  V30 61262 O 522.847 4.45271 -7.53232 0
M  V30 61263 C 522.357 4.74639 -5.19936 0
M  V30 61264 C 523.067 3.49432 -4.70418 0
M  V30 61265 N 523.017 3.31776 -3.22945 0
M  V30 61266 H 525.856 6.54213 -5.71376 0
M  V30 61267 H 526.128 5.30492 -4.44033 0
M  V30 61268 H 525.26 4.55889 -6.76652 0
M  V30 61269 P 521.297 4.23843 -7.83734 0
M  V30 61270 O 521.077 4.19407 -9.29784 0
M  V30 61271 O 520.507 5.24426 -7.09156 0
M  V30 61272 O 521.047 2.7935 -7.20758 0
M  V30 61273 C 521.987 1.7299 -7.50419 0
M  V30 61274 C 521.257 0.406376 -7.57911 0
M  V30 61275 O 521.047 -0.0897726 -6.21935 0
M  V30 61276 C 519.857 0.447224 -8.1878 0
M  V30 61277 O 519.467 -0.825065 -8.71101 0
M  V30 61278 C 518.977 0.783801 -6.99623 0
M  V30 61279 C 519.687 0.0619192 -5.85967 0
M  V30 61280 N 519.637 0.790462 -4.56202 0
M  V30 61281 H 522.476 1.93423 -8.4679 0
M  V30 61282 H 522.748 1.68852 -6.70877 0
M  V30 61283 H 521.88 -0.289041 -8.15388 0
M  V30 61284 H 519.225 -0.927006 -5.72848 0
M  V30 61285 H 518.945 1.86973 -6.82036 0
M  V30 61286 H 517.954 0.403953 -7.13357 0
M  V30 61287 H 519.788 1.20599 -8.97534 0
M  V30 61288 P 517.917 -1.17771 -8.83182 0
M  V30 61289 O 517.697 -2.07206 -9.98732 0
M  V30 61290 O 517.127 0.0743816 -8.81969 0
M  V30 61291 O 517.667 -1.97652 -7.47304 0
M  V30 61292 C 518.607 -3.01133 -7.08783 0
M  V30 61293 C 517.877 -4.12613 -6.37049 0
M  V30 61294 O 517.667 -3.72827 -4.97879 0
M  V30 61295 C 516.477 -4.45085 -6.88694 0
M  V30 61296 O 516.087 -5.7877 -6.5624 0
M  V30 61297 C 515.597 -3.47817 -6.12078 0
M  V30 61298 C 516.307 -3.39414 -4.77697 0
M  V30 61299 N 516.257 -2.04615 -4.15333 0
M  V30 61300 H 519.096 -3.41248 -7.98759 0
M  V30 61301 H 519.368 -2.5837 -6.41742 0
M  V30 61302 H 518.5 -5.02657 -6.42673 0
M  V30 61303 P 514.537 -6.144 -6.45285 0
M  V30 61304 O 514.317 -7.54673 -6.86199 0
M  V30 61305 O 513.747 -5.12391 -7.179 0
M  V30 61306 O 514.287 -5.99158 -4.88404 0
M  V30 61307 C 515.227 -6.60234 -3.96415 0
M  V30 61308 C 514.497 -7.08259 -2.72856 0
M  V30 61309 O 514.287 -5.9427 -1.83651 0
M  V30 61310 C 513.097 -7.64886 -2.9555 0
M  V30 61311 O 512.707 -8.53963 -1.90717 0
M  V30 61312 C 512.217 -6.4116 -2.90739 0
M  V30 61313 C 512.927 -5.55375 -1.86963 0
M  V30 61314 N 512.877 -4.09448 -2.16152 0
M  V30 61315 H 515.716 -7.45574 -4.45629 0
M  V30 61316 H 515.988 -5.85864 -3.679 0
M  V30 61317 H 515.12 -7.84412 -2.24479 0
M  V30 61318 H 512.465 -5.73457 -0.888562 0
M  V30 61319 H 512.185 -5.90877 -3.88583 0
M  V30 61320 H 511.194 -6.6596 -2.58858 0
M  V30 61321 H 513.028 -8.16339 -3.92049 0
M  V30 61322 P 511.157 -8.7635 -1.60911 0
M  V30 61323 O 510.937 -10.1388 -1.11561 0
M  V30 61324 O 510.367 -8.36503 -2.79617 0
M  V30 61325 O 510.907 -7.71806 -0.42951 0
M  V30 61326 C 511.847 -7.67148 0.673689 0
M  V30 61327 C 511.117 -7.33374 1.95559 0
M  V30 61328 O 510.907 -5.88721 2.00726 0
M  V30 61329 C 509.717 -7.92526 2.10483 0
M  V30 61330 O 509.327 -8.02971 3.47653 0
M  V30 61331 C 508.837 -6.89602 1.41652 0
M  V30 61332 C 509.547 -5.59201 1.75185 0
M  V30 61333 N 509.497 -4.58235 0.662552 0
M  V30 61334 H 512.336 -8.65116 0.777161 0
M  V30 61335 H 512.608 -6.90173 0.474152 0
M  V30 61336 H 511.74 -7.66548 2.79458 0
M  V30 61337 P 507.777 -8.03563 3.84925 0
M  V30 61338 O 507.557 -8.85821 5.0569 0
M  V30 61339 O 506.987 -8.41101 2.65469 0
M  V30 61340 O 507.527 -6.4965 4.18908 0
M  V30 61341 C 508.467 -5.81037 5.05421 0
M  V30 61342 C 507.737 -4.78366 5.89277 0
M  V30 61343 O 507.527 -3.58302 5.08433 0
M  V30 61344 C 506.337 -5.17448 6.36119 0
M  V30 61345 O 505.947 -4.45271 7.53232 0
M  V30 61346 C 505.457 -4.74639 5.19936 0
M  V30 61347 C 506.167 -3.49432 4.70418 0
M  V30 61348 N 506.117 -3.31776 3.22945 0
M  V30 61349 H 508.956 -6.54213 5.71376 0
M  V30 61350 H 509.228 -5.30492 4.44033 0
M  V30 61351 H 508.36 -4.55889 6.76652 0
M  V30 61352 P 504.397 -4.23843 7.83734 0
M  V30 61353 O 504.177 -4.19407 9.29784 0
M  V30 61354 O 503.607 -5.24426 7.09156 0
M  V30 61355 O 504.147 -2.7935 7.20758 0
M  V30 61356 C 505.087 -1.7299 7.50419 0
M  V30 61357 C 504.357 -0.406376 7.57911 0
M  V30 61358 O 504.147 0.0897726 6.21935 0
M  V30 61359 C 502.957 -0.447224 8.1878 0
M  V30 61360 O 502.567 0.825065 8.71101 0
M  V30 61361 C 502.077 -0.783801 6.99623 0
M  V30 61362 C 502.787 -0.0619192 5.85967 0
M  V30 61363 N 502.737 -0.7859 4.56281 0
M  V30 61364 H 505.576 -1.93423 8.4679 0
M  V30 61365 H 505.848 -1.68181 6.71046 0
M  V30 61366 H 504.98 0.289041 8.15388 0
M  V30 61367 P 501.017 1.17771 8.83182 0
M  V30 61368 O 500.797 2.07206 9.98732 0
M  V30 61369 O 500.227 -0.0743816 8.81969 0
M  V30 61370 O 500.767 1.97652 7.47304 0
M  V30 61371 C 501.707 3.01133 7.08783 0
M  V30 61372 C 500.977 4.12613 6.37049 0
M  V30 61373 O 500.767 3.72827 4.97879 0
M  V30 61374 C 499.577 4.45085 6.88694 0
M  V30 61375 O 499.187 5.7877 6.5624 0
M  V30 61376 C 498.697 3.47817 6.12078 0
M  V30 61377 C 499.407 3.39414 4.77697 0
M  V30 61378 N 499.357 2.04199 4.15538 0
M  V30 61379 H 502.196 3.41248 7.98759 0
M  V30 61380 H 502.468 2.57728 6.42 0
M  V30 61381 H 501.6 5.02657 6.42673 0
M  V30 61382 H 498.945 4.11708 4.08956 0
M  V30 61383 H 498.665 2.49626 6.61679 0
M  V30 61384 H 497.674 3.8662 6.00862 0
M  V30 61385 H 499.508 4.29991 7.97006 0
M  V30 61386 P 497.637 6.144 6.45285 0
M  V30 61387 O 497.417 7.54673 6.86199 0
M  V30 61388 O 496.847 5.12391 7.179 0
M  V30 61389 O 497.387 5.99158 4.88404 0
M  V30 61390 C 498.327 6.60062 3.96313 0
M  V30 61391 C 497.597 7.08259 2.72856 0
M  V30 61392 O 497.387 5.9427 1.83651 0
M  V30 61393 C 496.197 7.65087 2.94749 0
M  V30 61394 O 495.807 8.53963 1.90717 0
M  V30 61395 C 495.317 6.41069 2.90698 0
M  V30 61396 C 496.027 5.5528 1.86931 0
M  V30 61397 N 495.977 4.09575 2.15696 0
M  V30 61398 C 495.827 3.24249 1.08435 0
M  V30 61399 O 495.737 3.63946 -0.0628747 0
M  V30 61400 N 495.787 1.90009 1.39973 0
M  V30 61401 C 495.877 1.34884 2.65614 0
M  V30 61402 O 495.827 0.123716 2.81728 0
M  V30 61403 C 496.027 2.3145 3.71736 0
M  V30 61404 C 496.137 1.75913 5.10438 0
M  V30 61405 C 496.077 3.63518 3.44754 0
M  V30 61406 H 498.818 7.45402 4.45526 0
M  V30 61407 H 499.087 5.86062 3.67208 0
M  V30 61408 H 498.22 7.84412 2.24479 0
M  V30 61409 H 495.565 5.73358 0.888409 0
M  V30 61410 H 495.286 5.90877 3.88583 0
M  V30 61411 H 494.294 6.65867 2.58821 0
M  V30 61412 H 496.128 8.16248 3.92006 0
M  V30 61413 H 496.199 4.34551 4.26383 0
M  V30 61414 H 495.169 1.85471 5.61775 0
M  V30 61415 H 496.906 2.31364 5.66257 0
M  V30 61416 H 496.418 0.695936 5.05229 0
M  V30 61417 H 495.682 1.26277 0.63625 0
M  V30 61418 P 494.257 8.7635 1.60911 0
M  V30 61419 O 494.037 10.1388 1.11561 0
M  V30 61420 O 493.467 8.36503 2.79617 0
M  V30 61421 O 494.007 7.71806 0.42951 0
M  V30 61422 C 494.947 7.67148 -0.673689 0
M  V30 61423 C 494.217 7.33374 -1.95559 0
M  V30 61424 O 494.007 5.88721 -2.00726 0
M  V30 61425 C 492.817 7.92526 -2.10483 0
M  V30 61426 O 492.427 8.02971 -3.47653 0
M  V30 61427 C 491.937 6.89602 -1.41652 0
M  V30 61428 C 492.647 5.59201 -1.75185 0
M  V30 61429 N 492.597 4.58235 -0.662552 0
M  V30 61430 H 495.436 8.65116 -0.777161 0
M  V30 61431 H 495.708 6.90173 -0.474152 0
M  V30 61432 H 494.84 7.66548 -2.79458 0
M  V30 61433 P 490.877 8.03563 -3.84925 0
M  V30 61434 O 490.657 8.85821 -5.0569 0
M  V30 61435 O 490.087 8.41101 -2.65469 0
M  V30 61436 O 490.627 6.49734 -4.18962 0
M  V30 61437 C 491.567 5.81037 -5.05421 0
M  V30 61438 C 490.837 4.79018 -5.88876 0
M  V30 61439 O 490.627 3.58359 -5.08515 0
M  V30 61440 C 489.437 5.17448 -6.36119 0
M  V30 61441 O 489.047 4.45322 -7.53318 0
M  V30 61442 C 488.557 4.74639 -5.19936 0
M  V30 61443 C 489.267 3.49432 -4.70418 0
M  V30 61444 N 489.217 3.31776 -3.22945 0
M  V30 61445 C 489.067 2.02742 -2.72939 0
M  V30 61446 O 488.977 1.08301 -3.52749 0
M  V30 61447 N 489.017 1.96117 -1.22063 0
M  V30 61448 C 489.117 2.8878 -0.551566 0
M  V30 61449 N 489.067 2.65609 0.750198 0
M  V30 61450 C 489.267 4.22457 -1.03707 0
M  V30 61451 C 489.317 4.37979 -2.39113 0
M  V30 61452 H 492.057 6.54138 -5.7131 0
M  V30 61453 H 492.327 5.30492 -4.44033 0
M  V30 61454 H 491.46 4.55945 -6.76735 0
M  V30 61455 H 488.805 2.6176 -5.18021 0
M  V30 61456 H 488.525 5.52233 -4.41941 0
M  V30 61457 H 487.534 4.52045 -5.53452 0
M  V30 61458 H 489.368 6.25124 -6.55234 0
M  V30 61459 H 489.44 5.37936 -2.80552 0
M  V30 61460 H 489.338 5.07528 -0.359553 0
M  V30 61461 H 488.95 1.69403 1.09847 0
M  V30 61462 H 489.146 3.43701 1.41792 0
M  V30 61463 P 487.497 4.23843 -7.83734 0
M  V30 61464 O 487.277 4.19407 -9.29784 0
M  V30 61465 O 486.707 5.24426 -7.09156 0
M  V30 61466 O 487.247 2.7935 -7.20758 0
M  V30 61467 C 488.187 1.7299 -7.50419 0
M  V30 61468 C 487.457 0.406376 -7.57911 0
M  V30 61469 O 487.247 -0.0897726 -6.21935 0
M  V30 61470 C 486.057 0.447224 -8.1878 0
M  V30 61471 O 485.667 -0.825065 -8.71101 0
M  V30 61472 C 485.177 0.783801 -6.99623 0
M  V30 61473 C 485.887 0.0619192 -5.85967 0
M  V30 61474 N 485.837 0.790462 -4.56202 0
M  V30 61475 H 488.676 1.93423 -8.4679 0
M  V30 61476 H 488.948 1.68852 -6.70877 0
M  V30 61477 H 488.08 -0.289041 -8.15388 0
M  V30 61478 H 485.425 -0.927006 -5.72848 0
M  V30 61479 H 485.145 1.86973 -6.82036 0
M  V30 61480 H 484.154 0.403953 -7.13357 0
M  V30 61481 H 485.988 1.20599 -8.97534 0
M  V30 61482 P 484.117 -1.17771 -8.83182 0
M  V30 61483 O 483.897 -2.07206 -9.98732 0
M  V30 61484 O 483.327 0.0743816 -8.81969 0
M  V30 61485 O 483.867 -1.97652 -7.47304 0
M  V30 61486 C 484.807 -3.01133 -7.08783 0
M  V30 61487 C 484.077 -4.12613 -6.37049 0
M  V30 61488 O 483.867 -3.72827 -4.97879 0
M  V30 61489 C 482.677 -4.45085 -6.88694 0
M  V30 61490 O 482.287 -5.7877 -6.5624 0
M  V30 61491 C 481.797 -3.47817 -6.12078 0
M  V30 61492 C 482.507 -3.39414 -4.77697 0
M  V30 61493 N 482.457 -2.04199 -4.15538 0
M  V30 61494 H 485.296 -3.41248 -7.98759 0
M  V30 61495 H 485.568 -2.57728 -6.42 0
M  V30 61496 H 484.7 -5.02657 -6.42673 0
M  V30 61497 H 482.045 -4.11708 -4.08956 0
M  V30 61498 H 481.765 -2.49626 -6.61679 0
M  V30 61499 H 480.774 -3.8662 -6.00862 0
M  V30 61500 H 482.608 -4.29991 -7.97006 0
M  V30 61501 P 480.737 -6.144 -6.45285 0
M  V30 61502 O 480.517 -7.54673 -6.86199 0
M  V30 61503 O 479.947 -5.12391 -7.179 0
M  V30 61504 O 480.487 -5.99158 -4.88404 0
M  V30 61505 C 481.427 -6.60234 -3.96415 0
M  V30 61506 C 480.697 -7.08259 -2.72856 0
M  V30 61507 O 480.487 -5.9427 -1.83651 0
M  V30 61508 C 479.297 -7.64886 -2.9555 0
M  V30 61509 O 478.907 -8.53963 -1.90717 0
M  V30 61510 C 478.417 -6.4116 -2.90739 0
M  V30 61511 C 479.127 -5.55375 -1.86963 0
M  V30 61512 N 479.077 -4.09448 -2.16152 0
M  V30 61513 H 481.916 -7.45574 -4.45629 0
M  V30 61514 H 482.188 -5.85864 -3.679 0
M  V30 61515 H 481.32 -7.84412 -2.24479 0
M  V30 61516 H 478.665 -5.73457 -0.888562 0
M  V30 61517 H 478.385 -5.90877 -3.88583 0
M  V30 61518 H 477.394 -6.6596 -2.58858 0
M  V30 61519 H 479.228 -8.16339 -3.92049 0
M  V30 61520 P 477.357 -8.7635 -1.60911 0
M  V30 61521 O 477.137 -10.1388 -1.11561 0
M  V30 61522 O 476.567 -8.36503 -2.79617 0
M  V30 61523 O 477.107 -7.71806 -0.42951 0
M  V30 61524 C 478.047 -7.67148 0.673689 0
M  V30 61525 C 477.317 -7.33374 1.95559 0
M  V30 61526 O 477.107 -5.88721 2.00726 0
M  V30 61527 C 475.917 -7.92526 2.10483 0
M  V30 61528 O 475.527 -8.02971 3.47653 0
M  V30 61529 C 475.037 -6.89602 1.41652 0
M  V30 61530 C 475.747 -5.59201 1.75185 0
M  V30 61531 N 475.697 -4.58301 0.657969 0
M  V30 61532 H 478.536 -8.65116 0.777161 0
M  V30 61533 H 478.808 -6.9022 0.46725 0
M  V30 61534 H 477.94 -7.66548 2.79458 0
M  V30 61535 H 475.285 -5.16165 2.65183 0
M  V30 61536 H 475.005 -7.06433 0.329384 0
M  V30 61537 H 474.014 -6.90926 1.82021 0
M  V30 61538 H 475.848 -8.90873 1.62657 0
M  V30 61539 P 473.977 -8.03563 3.84925 0
M  V30 61540 O 473.757 -8.85821 5.0569 0
M  V30 61541 O 473.187 -8.41101 2.65469 0
M  V30 61542 O 473.727 -6.4965 4.18908 0
M  V30 61543 C 474.667 -5.80886 5.05289 0
M  V30 61544 C 473.937 -4.78366 5.89277 0
M  V30 61545 O 473.727 -3.58302 5.08433 0
M  V30 61546 C 472.537 -5.16748 6.36559 0
M  V30 61547 O 472.147 -4.45271 7.53232 0
M  V30 61548 C 471.657 -4.74572 5.19863 0
M  V30 61549 C 472.367 -3.49373 4.70338 0
M  V30 61550 N 472.317 -3.31704 3.22876 0
M  V30 61551 C 472.167 -2.03326 2.74871 0
M  V30 61552 O 472.077 -1.06486 3.48076 0
M  V30 61553 N 472.127 -1.91838 1.37456 0
M  V30 61554 C 472.217 -2.94295 0.462035 0
M  V30 61555 C 472.367 -4.25064 1.05249 0
M  V30 61556 C 472.417 -4.40214 2.39192 0
M  V30 61557 H 475.158 -6.54063 5.71245 0
M  V30 61558 H 475.427 -5.30339 4.43905 0
M  V30 61559 H 474.56 -4.55889 6.76652 0
M  V30 61560 H 471.905 -2.6167 5.17842 0
M  V30 61561 H 471.626 -5.52155 4.41878 0
M  V30 61562 H 470.634 -4.51918 5.53297 0
M  V30 61563 H 472.468 -6.25055 6.55162 0
M  V30 61564 H 472.539 -5.39798 2.81523 0
M  V30 61565 P 470.597 -4.23843 7.83734 0
M  V30 61566 O 470.377 -4.19407 9.29784 0
M  V30 61567 O 469.807 -5.24426 7.09156 0
M  V30 61568 O 470.347 -2.7935 7.20758 0
M  V30 61569 C 471.287 -1.72945 7.50224 0
M  V30 61570 C 470.557 -0.406376 7.57911 0
M  V30 61571 O 470.347 0.0897726 6.21935 0
M  V30 61572 C 469.157 -0.438983 8.18724 0
M  V30 61573 O 468.767 0.825065 8.71101 0
M  V30 61574 C 468.277 -0.783689 6.99524 0
M  V30 61575 C 468.987 -0.0619086 5.85867 0
M  V30 61576 N 468.937 -0.78573 4.56183 0
M  V30 61577 C 468.787 -0.0292889 3.41887 0
M  V30 61578 O 468.697 1.18445 3.4419 0
M  V30 61579 N 468.747 -0.744061 2.23964 0
M  V30 61580 C 468.837 -2.10932 2.10362 0
M  V30 61581 C 468.987 -2.8202 3.34994 0
M  V30 61582 C 469.037 -2.15547 4.52261 0
M  V30 61583 H 471.778 -1.93379 8.46595 0
M  V30 61584 H 472.047 -1.68132 6.70852 0
M  V30 61585 H 471.18 0.289041 8.15388 0
M  V30 61586 H 468.525 0.926847 5.72749 0
M  V30 61587 H 468.246 -1.86973 6.82036 0
M  V30 61588 H 467.254 -0.403896 7.13257 0
M  V30 61589 H 469.088 -1.20585 8.97435 0
M  V30 61590 H 469.159 -2.71231 5.45042 0
M  V30 61591 P 467.217 1.17771 8.83182 0
M  V30 61592 O 466.997 2.07206 9.98732 0
M  V30 61593 O 466.427 -0.0743816 8.81969 0
M  V30 61594 O 466.967 1.97652 7.47304 0
M  V30 61595 C 467.907 3.01133 7.08783 0
M  V30 61596 C 467.177 4.12613 6.37049 0
M  V30 61597 O 466.967 3.72827 4.97879 0
M  V30 61598 C 465.777 4.45085 6.88694 0
M  V30 61599 O 465.387 5.7877 6.5624 0
M  V30 61600 C 464.897 3.47817 6.12078 0
M  V30 61601 C 465.607 3.39414 4.77697 0
M  V30 61602 N 465.557 2.04615 4.15333 0
M  V30 61603 H 468.396 3.41248 7.98759 0
M  V30 61604 H 468.668 2.5837 6.41742 0
M  V30 61605 H 467.8 5.02657 6.42673 0
M  V30 61606 P 463.837 6.144 6.45285 0
M  V30 61607 O 463.617 7.54673 6.86199 0
M  V30 61608 O 463.047 5.12391 7.179 0
M  V30 61609 O 463.587 5.99158 4.88404 0
M  V30 61610 C 464.527 6.60234 3.96415 0
M  V30 61611 C 463.797 7.08259 2.72856 0
M  V30 61612 O 463.587 5.9427 1.83651 0
M  V30 61613 C 462.397 7.64886 2.9555 0
M  V30 61614 O 462.007 8.53963 1.90717 0
M  V30 61615 C 461.517 6.4116 2.90739 0
M  V30 61616 C 462.227 5.55375 1.86963 0
M  V30 61617 N 462.177 4.09448 2.16152 0
M  V30 61618 C 462.257 3.46824 3.37593 0
M  V30 61619 N 462.187 2.17422 3.29777 0
M  V30 61620 C 462.037 1.93065 1.94427 0
M  V30 61621 C 461.907 0.738053 1.20141 0
M  V30 61622 N 461.897 -0.474256 1.74676 0
M  V30 61623 N 461.787 0.850049 -0.13045 0
M  V30 61624 C 461.797 2.06169 -0.676992 0
M  V30 61625 N 461.917 3.23842 -0.101312 0
M  V30 61626 C 462.037 3.09402 1.23122 0
M  V30 61627 H 465.016 7.45574 4.45629 0
M  V30 61628 H 465.288 5.85864 3.679 0
M  V30 61629 H 464.42 7.84412 2.24479 0
M  V30 61630 H 461.765 5.73457 0.888562 0
M  V30 61631 H 461.485 5.90877 3.88583 0
M  V30 61632 H 460.494 6.6596 2.58858 0
M  V30 61633 H 462.328 8.16339 3.92049 0
M  V30 61634 H 462.369 4.00505 4.3174 0
M  V30 61635 H 461.988 -0.581337 2.76658 0
M  V30 61636 H 461.799 -1.30811 1.14888 0
M  V30 61637 H 461.691 2.08295 -1.75542 0
M  V30 61638 P 460.457 8.7635 1.60911 0
M  V30 61639 O 460.237 10.1388 1.11561 0
M  V30 61640 O 459.667 8.36503 2.79617 0
M  V30 61641 O 460.207 7.71806 0.42951 0
M  V30 61642 C 461.147 7.66948 -0.673514 0
M  V30 61643 C 460.417 7.33374 -1.95559 0
M  V30 61644 O 460.207 5.88721 -2.00726 0
M  V30 61645 C 459.017 7.92218 -2.1125 0
M  V30 61646 O 458.627 8.02971 -3.47653 0
M  V30 61647 C 458.137 6.89504 -1.41631 0
M  V30 61648 C 458.847 5.59106 -1.75155 0
M  V30 61649 N 458.797 4.58136 -0.662409 0
M  V30 61650 C 458.647 3.26059 -1.02863 0
M  V30 61651 O 458.557 2.90743 -2.19009 0
M  V30 61652 N 458.607 2.35995 0.0155585 0
M  V30 61653 C 458.697 2.65248 1.35603 0
M  V30 61654 C 458.847 4.05747 1.64698 0
M  V30 61655 C 458.897 4.96734 0.652411 0
M  V30 61656 H 461.638 8.64917 -0.776982 0
M  V30 61657 H 461.907 6.89974 -0.474015 0
M  V30 61658 H 461.04 7.66548 -2.79458 0
M  V30 61659 H 458.385 5.16076 -2.65138 0
M  V30 61660 H 458.106 7.06433 -0.329384 0
M  V30 61661 H 457.114 6.90829 -1.81996 0
M  V30 61662 H 458.948 8.90774 -1.62639 0
M  V30 61663 H 459.019 6.02181 0.895285 0
M  V30 61664 P 457.077 8.03563 -3.84925 0
M  V30 61665 O 456.857 8.85821 -5.0569 0
M  V30 61666 O 456.287 8.41101 -2.65469 0
M  V30 61667 O 456.827 6.4965 -4.18908 0
M  V30 61668 C 457.767 5.81037 -5.05421 0
M  V30 61669 C 457.037 4.78366 -5.89277 0
M  V30 61670 O 456.827 3.58302 -5.08433 0
M  V30 61671 C 455.637 5.17448 -6.36119 0
M  V30 61672 O 455.247 4.45271 -7.53232 0
M  V30 61673 C 454.757 4.74639 -5.19936 0
M  V30 61674 C 455.467 3.49432 -4.70418 0
M  V30 61675 N 455.417 3.31776 -3.22945 0
M  V30 61676 H 458.256 6.54213 -5.71376 0
M  V30 61677 H 458.528 5.30492 -4.44033 0
M  V30 61678 H 457.66 4.55889 -6.76652 0
M  V30 61679 P 453.697 4.23843 -7.83734 0
M  V30 61680 O 453.477 4.19407 -9.29784 0
M  V30 61681 O 452.907 5.24426 -7.09156 0
M  V30 61682 O 453.447 2.7935 -7.20758 0
M  V30 61683 C 454.387 1.7299 -7.50419 0
M  V30 61684 C 453.657 0.406376 -7.57911 0
M  V30 61685 O 453.447 -0.0897726 -6.21935 0
M  V30 61686 C 452.257 0.447224 -8.1878 0
M  V30 61687 O 451.867 -0.825065 -8.71101 0
M  V30 61688 C 451.377 0.783801 -6.99623 0
M  V30 61689 C 452.087 0.0619192 -5.85967 0
M  V30 61690 N 452.037 0.790462 -4.56202 0
M  V30 61691 H 454.876 1.93423 -8.4679 0
M  V30 61692 H 455.148 1.68852 -6.70877 0
M  V30 61693 H 454.28 -0.289041 -8.15388 0
M  V30 61694 H 451.625 -0.927006 -5.72848 0
M  V30 61695 H 451.345 1.86973 -6.82036 0
M  V30 61696 H 450.354 0.403953 -7.13357 0
M  V30 61697 H 452.188 1.20599 -8.97534 0
M  V30 61698 P 450.317 -1.17771 -8.83182 0
M  V30 61699 O 450.097 -2.07206 -9.98732 0
M  V30 61700 O 449.527 0.0743816 -8.81969 0
M  V30 61701 O 450.067 -1.97652 -7.47304 0
M  V30 61702 C 451.007 -3.01133 -7.08783 0
M  V30 61703 C 450.277 -4.12613 -6.37049 0
M  V30 61704 O 450.067 -3.72827 -4.97879 0
M  V30 61705 C 448.877 -4.45085 -6.88694 0
M  V30 61706 O 448.487 -5.7877 -6.5624 0
M  V30 61707 C 447.997 -3.47817 -6.12078 0
M  V30 61708 C 448.707 -3.39414 -4.77697 0
M  V30 61709 N 448.657 -2.04199 -4.15538 0
M  V30 61710 H 451.496 -3.41248 -7.98759 0
M  V30 61711 H 451.768 -2.57728 -6.42 0
M  V30 61712 H 450.9 -5.02657 -6.42673 0
M  V30 61713 H 448.245 -4.11708 -4.08956 0
M  V30 61714 H 447.965 -2.49626 -6.61679 0
M  V30 61715 H 446.974 -3.8662 -6.00862 0
M  V30 61716 H 448.808 -4.29991 -7.97006 0
M  V30 61717 P 446.937 -6.144 -6.45285 0
M  V30 61718 O 446.717 -7.54673 -6.86199 0
M  V30 61719 O 446.147 -5.12391 -7.179 0
M  V30 61720 O 446.687 -5.99158 -4.88404 0
M  V30 61721 C 447.627 -6.60234 -3.96415 0
M  V30 61722 C 446.897 -7.08259 -2.72856 0
M  V30 61723 O 446.687 -5.9427 -1.83651 0
M  V30 61724 C 445.497 -7.64886 -2.9555 0
M  V30 61725 O 445.107 -8.53963 -1.90717 0
M  V30 61726 C 444.617 -6.4116 -2.90739 0
M  V30 61727 C 445.327 -5.55375 -1.86963 0
M  V30 61728 N 445.277 -4.09664 -2.15742 0
M  V30 61729 H 448.116 -7.45574 -4.45629 0
M  V30 61730 H 448.388 -5.86232 -3.67314 0
M  V30 61731 H 447.52 -7.84412 -2.24479 0
M  V30 61732 P 443.557 -8.7635 -1.60911 0
M  V30 61733 O 443.337 -10.1388 -1.11561 0
M  V30 61734 O 442.767 -8.36503 -2.79617 0
M  V30 61735 O 443.307 -7.71806 -0.42951 0
M  V30 61736 C 444.247 -7.67148 0.673689 0
M  V30 61737 C 443.517 -7.33374 1.95559 0
M  V30 61738 O 443.307 -5.88721 2.00726 0
M  V30 61739 C 442.117 -7.92526 2.10483 0
M  V30 61740 O 441.727 -8.02971 3.47653 0
M  V30 61741 C 441.237 -6.89602 1.41652 0
M  V30 61742 C 441.947 -5.59201 1.75185 0
M  V30 61743 N 441.897 -4.58235 0.662552 0
M  V30 61744 H 444.736 -8.65116 0.777161 0
M  V30 61745 H 445.008 -6.90173 0.474152 0
M  V30 61746 H 444.14 -7.66548 2.79458 0
M  V30 61747 P 440.177 -8.03563 3.84925 0
M  V30 61748 O 439.957 -8.85821 5.0569 0
M  V30 61749 O 439.387 -8.41101 2.65469 0
M  V30 61750 O 439.927 -6.4965 4.18908 0
M  V30 61751 C 440.867 -5.81037 5.05421 0
M  V30 61752 C 440.137 -4.78366 5.89277 0
M  V30 61753 O 439.927 -3.58302 5.08433 0
M  V30 61754 C 438.737 -5.17448 6.36119 0
M  V30 61755 O 438.347 -4.45271 7.53232 0
M  V30 61756 C 437.857 -4.74639 5.19936 0
M  V30 61757 C 438.567 -3.49432 4.70418 0
M  V30 61758 N 438.517 -3.32099 3.22613 0
M  V30 61759 H 441.356 -6.54213 5.71376 0
M  V30 61760 H 441.628 -5.30936 4.43503 0
M  V30 61761 H 440.76 -4.55889 6.76652 0
M  V30 61762 H 438.105 -2.61715 5.17932 0
M  V30 61763 H 437.825 -5.52155 4.41878 0
M  V30 61764 H 436.834 -4.51981 5.53374 0
M  V30 61765 H 438.668 -6.25124 6.55234 0
M  V30 61766 P 436.797 -4.23843 7.83734 0
M  V30 61767 O 436.577 -4.19407 9.29784 0
M  V30 61768 O 436.007 -5.24426 7.09156 0
M  V30 61769 O 436.547 -2.7935 7.20758 0
M  V30 61770 C 437.487 -1.7299 7.50419 0
M  V30 61771 C 436.757 -0.406376 7.57911 0
M  V30 61772 O 436.547 0.0897726 6.21935 0
M  V30 61773 C 435.357 -0.447224 8.1878 0
M  V30 61774 O 434.967 0.825065 8.71101 0
M  V30 61775 C 434.477 -0.783801 6.99623 0
M  V30 61776 C 435.187 -0.0619192 5.85967 0
M  V30 61777 N 435.137 -0.7859 4.56281 0
M  V30 61778 H 437.976 -1.93423 8.4679 0
M  V30 61779 H 438.248 -1.68181 6.71046 0
M  V30 61780 H 437.38 0.289041 8.15388 0
M  V30 61781 P 433.417 1.17771 8.83182 0
M  V30 61782 O 433.197 2.07206 9.98732 0
M  V30 61783 O 432.627 -0.0743816 8.81969 0
M  V30 61784 O 433.167 1.97652 7.47304 0
M  V30 61785 C 434.107 3.01133 7.08783 0
M  V30 61786 C 433.377 4.12613 6.37049 0
M  V30 61787 O 433.167 3.72827 4.97879 0
M  V30 61788 C 431.977 4.45085 6.88694 0
M  V30 61789 O 431.587 5.7877 6.5624 0
M  V30 61790 C 431.097 3.47817 6.12078 0
M  V30 61791 C 431.807 3.39414 4.77697 0
M  V30 61792 N 431.757 2.04615 4.15333 0
M  V30 61793 H 434.596 3.41248 7.98759 0
M  V30 61794 H 434.868 2.5837 6.41742 0
M  V30 61795 H 434 5.02657 6.42673 0
M  V30 61796 P 430.037 6.144 6.45285 0
M  V30 61797 O 429.817 7.54673 6.86199 0
M  V30 61798 O 429.247 5.12391 7.179 0
M  V30 61799 O 429.787 5.99158 4.88404 0
M  V30 61800 C 430.727 6.60234 3.96415 0
M  V30 61801 C 429.997 7.08259 2.72856 0
M  V30 61802 O 429.787 5.9427 1.83651 0
M  V30 61803 C 428.597 7.64886 2.9555 0
M  V30 61804 O 428.207 8.53963 1.90717 0
M  V30 61805 C 427.717 6.4116 2.90739 0
M  V30 61806 C 428.427 5.55375 1.86963 0
M  V30 61807 N 428.377 4.09448 2.16152 0
M  V30 61808 H 431.216 7.45574 4.45629 0
M  V30 61809 H 431.488 5.85864 3.679 0
M  V30 61810 H 430.62 7.84412 2.24479 0
M  V30 61811 H 427.965 5.73457 0.888562 0
M  V30 61812 H 427.685 5.90877 3.88583 0
M  V30 61813 H 426.694 6.6596 2.58858 0
M  V30 61814 H 428.528 8.16339 3.92049 0
M  V30 61815 P 426.657 8.7635 1.60911 0
M  V30 61816 O 426.437 10.1388 1.11561 0
M  V30 61817 O 425.867 8.36503 2.79617 0
M  V30 61818 O 426.407 7.71806 0.42951 0
M  V30 61819 C 427.347 7.67148 -0.673689 0
M  V30 61820 C 426.617 7.33374 -1.95559 0
M  V30 61821 O 426.407 5.88721 -2.00726 0
M  V30 61822 C 425.217 7.92526 -2.10483 0
M  V30 61823 O 424.827 8.02971 -3.47653 0
M  V30 61824 C 424.337 6.89602 -1.41652 0
M  V30 61825 C 425.047 5.59201 -1.75185 0
M  V30 61826 N 424.997 4.58235 -0.662552 0
M  V30 61827 H 427.836 8.65116 -0.777161 0
M  V30 61828 H 428.108 6.90173 -0.474152 0
M  V30 61829 H 427.24 7.66548 -2.79458 0
M  V30 61830 P 423.278 8.03563 -3.84925 0
M  V30 61831 O 423.058 8.85821 -5.0569 0
M  V30 61832 O 422.488 8.41101 -2.65469 0
M  V30 61833 O 423.028 6.4965 -4.18908 0
M  V30 61834 C 423.968 5.80886 -5.05289 0
M  V30 61835 C 423.238 4.78366 -5.89277 0
M  V30 61836 O 423.028 3.58302 -5.08433 0
M  V30 61837 C 421.838 5.16748 -6.36559 0
M  V30 61838 O 421.448 4.45271 -7.53232 0
M  V30 61839 C 420.958 4.74572 -5.19863 0
M  V30 61840 C 421.668 3.49373 -4.70338 0
M  V30 61841 N 421.618 3.31704 -3.22876 0
M  V30 61842 C 421.468 2.03326 -2.74871 0
M  V30 61843 O 421.378 1.06486 -3.48076 0
M  V30 61844 N 421.428 1.91838 -1.37456 0
M  V30 61845 C 421.518 2.94295 -0.462035 0
M  V30 61846 O 421.468 2.71763 0.752928 0
M  V30 61847 C 421.668 4.25064 -1.05249 0
M  V30 61848 C 421.778 5.39815 -0.095697 0
M  V30 61849 C 421.718 4.40214 -2.39192 0
M  V30 61850 H 424.459 6.54063 -5.71245 0
M  V30 61851 H 424.728 5.30339 -4.43905 0
M  V30 61852 H 423.861 4.55889 -6.76652 0
M  V30 61853 H 421.206 2.6167 -5.17842 0
M  V30 61854 H 420.927 5.52155 -4.41878 0
M  V30 61855 H 419.935 4.51918 -5.53297 0
M  V30 61856 H 421.769 6.25055 -6.55162 0
M  V30 61857 H 421.84 5.39798 -2.81523 0
M  V30 61858 H 420.81 5.91593 -0.0279582 0
M  V30 61859 H 422.547 6.10038 -0.450573 0
M  V30 61860 H 422.059 5.02007 0.89937 0
M  V30 61861 H 421.323 0.995326 -1.00435 0
M  V30 61862 P 419.898 4.23843 -7.83734 0
M  V30 61863 O 419.678 4.19407 -9.29784 0
M  V30 61864 O 419.108 5.24426 -7.09156 0
M  V30 61865 O 419.648 2.7935 -7.20758 0
M  V30 61866 C 420.588 1.7299 -7.50419 0
M  V30 61867 C 419.858 0.406376 -7.57911 0
M  V30 61868 O 419.648 -0.0897726 -6.21935 0
M  V30 61869 C 418.458 0.447224 -8.1878 0
M  V30 61870 O 418.068 -0.825065 -8.71101 0
M  V30 61871 C 417.578 0.783801 -6.99623 0
M  V30 61872 C 418.288 0.0619192 -5.85967 0
M  V30 61873 N 418.238 0.790462 -4.56202 0
M  V30 61874 H 421.077 1.93423 -8.4679 0
M  V30 61875 H 421.349 1.68852 -6.70877 0
M  V30 61876 H 420.481 -0.289041 -8.15388 0
M  V30 61877 H 417.826 -0.927006 -5.72848 0
M  V30 61878 H 417.546 1.86973 -6.82036 0
M  V30 61879 H 416.555 0.403953 -7.13357 0
M  V30 61880 H 418.389 1.20599 -8.97534 0
M  V30 61881 P 416.518 -1.17771 -8.83182 0
M  V30 61882 O 416.298 -2.07206 -9.98732 0
M  V30 61883 O 415.728 0.0743816 -8.81969 0
M  V30 61884 O 416.268 -1.97652 -7.47304 0
M  V30 61885 C 417.208 -3.01055 -7.08599 0
M  V30 61886 C 416.478 -4.12613 -6.37049 0
M  V30 61887 O 416.268 -3.72827 -4.97879 0
M  V30 61888 C 415.078 -4.45719 -6.88164 0
M  V30 61889 O 414.688 -5.7877 -6.5624 0
M  V30 61890 C 414.198 -3.47768 -6.11991 0
M  V30 61891 C 414.908 -3.39356 -4.77615 0
M  V30 61892 N 414.858 -2.04571 -4.15244 0
M  V30 61893 C 414.708 -1.98587 -2.78314 0
M  V30 61894 O 414.618 -2.98134 -2.08835 0
M  V30 61895 N 414.668 -0.714467 -2.24925 0
M  V30 61896 C 414.758 0.470001 -2.94169 0
M  V30 61897 O 414.708 1.55587 -2.35195 0
M  V30 61898 C 414.908 0.312541 -4.36783 0
M  V30 61899 C 415.018 1.57711 -5.16352 0
M  V30 61900 C 414.958 -0.914512 -4.92583 0
M  V30 61901 H 417.699 -3.41169 -7.98575 0
M  V30 61902 H 417.968 -2.58295 -6.41556 0
M  V30 61903 H 417.101 -5.02657 -6.42673 0
M  V30 61904 H 414.446 -4.11637 -4.08885 0
M  V30 61905 H 414.167 -2.49626 -6.61679 0
M  V30 61906 H 413.175 -3.86566 -6.00778 0
M  V30 61907 H 415.009 -4.29943 -7.96918 0
M  V30 61908 H 415.08 -1.00937 -6.00374 0
M  V30 61909 H 414.05 1.80153 -5.63503 0
M  V30 61910 H 415.787 1.4566 -5.94104 0
M  V30 61911 H 415.299 2.40664 -4.49645 0
M  V30 61912 H 414.563 -0.647622 -1.25697 0
M  V30 61913 P 413.138 -6.144 -6.45285 0
M  V30 61914 O 412.918 -7.54673 -6.86199 0
M  V30 61915 O 412.348 -5.12391 -7.179 0
M  V30 61916 O 412.888 -5.99158 -4.88404 0
M  V30 61917 C 413.828 -6.60234 -3.96415 0
M  V30 61918 C 413.098 -7.08259 -2.72856 0
M  V30 61919 O 412.888 -5.9427 -1.83651 0
M  V30 61920 C 411.698 -7.64886 -2.9555 0
M  V30 61921 O 411.308 -8.53963 -1.90717 0
M  V30 61922 C 410.818 -6.4116 -2.90739 0
M  V30 61923 C 411.528 -5.55375 -1.86963 0
M  V30 61924 N 411.478 -4.09664 -2.15742 0
M  V30 61925 H 414.317 -7.45574 -4.45629 0
M  V30 61926 H 414.589 -5.86232 -3.67314 0
M  V30 61927 H 413.721 -7.84412 -2.24479 0
M  V30 61928 P 409.758 -8.7635 -1.60911 0
M  V30 61929 O 409.538 -10.1388 -1.11561 0
M  V30 61930 O 408.968 -8.36503 -2.79617 0
M  V30 61931 O 409.508 -7.71906 -0.429565 0
M  V30 61932 C 410.448 -7.67148 0.673689 0
M  V30 61933 C 409.718 -7.33666 1.94851 0
M  V30 61934 O 409.508 -5.88816 2.00759 0
M  V30 61935 C 408.318 -7.92526 2.10483 0
M  V30 61936 O 407.928 -8.03063 3.47693 0
M  V30 61937 C 407.438 -6.89602 1.41652 0
M  V30 61938 C 408.148 -5.59201 1.75185 0
M  V30 61939 N 408.098 -4.58235 0.662552 0
M  V30 61940 C 407.948 -3.24451 1.01643 0
M  V30 61941 O 407.858 -2.94958 2.21722 0
M  V30 61942 N 407.898 -2.30408 -0.165238 0
M  V30 61943 C 407.998 -2.66048 -1.25118 0
M  V30 61944 N 407.948 -1.70787 -2.16813 0
M  V30 61945 C 408.148 -4.02732 -1.64413 0
M  V30 61946 C 408.198 -4.9488 -0.63991 0
M  V30 61947 H 410.938 -8.65017 0.777072 0
M  V30 61948 H 411.208 -6.90173 0.474152 0
M  V30 61949 H 410.341 -7.66642 2.79492 0
M  V30 61950 H 407.686 -5.16254 2.65229 0
M  V30 61951 H 407.406 -7.06532 0.329431 0
M  V30 61952 H 406.415 -6.91023 1.82047 0
M  V30 61953 H 408.249 -8.90873 1.62657 0
M  V30 61954 H 408.321 -6.00104 -0.892197 0
M  V30 61955 H 408.219 -4.31733 -2.69229 0
M  V30 61956 H 407.831 -0.724835 -1.8844 0
M  V30 61957 H 408.027 -1.94716 -3.16734 0
M  V30 61958 P 406.378 -8.03563 3.84925 0
M  V30 61959 O 406.158 -8.85821 5.0569 0
M  V30 61960 O 405.588 -8.41101 2.65469 0
M  V30 61961 O 406.128 -6.4965 4.18908 0
M  V30 61962 C 407.068 -5.81037 5.05421 0
M  V30 61963 C 406.338 -4.78366 5.89277 0
M  V30 61964 O 406.128 -3.58302 5.08433 0
M  V30 61965 C 404.938 -5.17448 6.36119 0
M  V30 61966 O 404.548 -4.45271 7.53232 0
M  V30 61967 C 404.058 -4.74639 5.19936 0
M  V30 61968 C 404.768 -3.49432 4.70418 0
M  V30 61969 N 404.718 -3.31776 3.22945 0
M  V30 61970 H 407.557 -6.54213 5.71376 0
M  V30 61971 H 407.829 -5.30492 4.44033 0
M  V30 61972 H 406.961 -4.55889 6.76652 0
M  V30 61973 P 402.998 -4.23843 7.83734 0
M  V30 61974 O 402.778 -4.19407 9.29784 0
M  V30 61975 O 402.208 -5.24426 7.09156 0
M  V30 61976 O 402.748 -2.7935 7.20758 0
M  V30 61977 C 403.688 -1.72945 7.50224 0
M  V30 61978 C 402.958 -0.406376 7.57911 0
M  V30 61979 O 402.748 0.0897726 6.21935 0
M  V30 61980 C 401.558 -0.438983 8.18724 0
M  V30 61981 O 401.168 0.825065 8.71101 0
M  V30 61982 C 400.678 -0.783689 6.99524 0
M  V30 61983 C 401.388 -0.0619086 5.85867 0
M  V30 61984 N 401.338 -0.78573 4.56183 0
M  V30 61985 C 401.188 -0.0292889 3.41887 0
M  V30 61986 O 401.098 1.18445 3.4419 0
M  V30 61987 N 401.148 -0.744061 2.23964 0
M  V30 61988 C 401.238 -2.10932 2.10362 0
M  V30 61989 C 401.388 -2.8202 3.34994 0
M  V30 61990 C 401.438 -2.15547 4.52261 0
M  V30 61991 H 404.179 -1.93379 8.46595 0
M  V30 61992 H 404.448 -1.68132 6.70852 0
M  V30 61993 H 403.581 0.289041 8.15388 0
M  V30 61994 H 400.926 0.926847 5.72749 0
M  V30 61995 H 400.647 -1.86973 6.82036 0
M  V30 61996 H 399.655 -0.403896 7.13257 0
M  V30 61997 H 401.489 -1.20585 8.97435 0
M  V30 61998 H 401.56 -2.71231 5.45042 0
M  V30 61999 P 399.618 1.17771 8.83182 0
M  V30 62000 O 399.398 2.07206 9.98732 0
M  V30 62001 O 398.828 -0.0743816 8.81969 0
M  V30 62002 O 399.368 1.97652 7.47304 0
M  V30 62003 C 400.308 3.01055 7.08599 0
M  V30 62004 C 399.578 4.12613 6.37049 0
M  V30 62005 O 399.368 3.72827 4.97879 0
M  V30 62006 C 398.178 4.45719 6.88164 0
M  V30 62007 O 397.788 5.7877 6.5624 0
M  V30 62008 C 397.298 3.47768 6.11991 0
M  V30 62009 C 398.008 3.39356 4.77615 0
M  V30 62010 N 397.958 2.04571 4.15244 0
M  V30 62011 C 397.808 1.98587 2.78314 0
M  V30 62012 O 397.718 2.98134 2.08835 0
M  V30 62013 N 397.768 0.714467 2.24925 0
M  V30 62014 C 397.858 -0.470001 2.94169 0
M  V30 62015 C 398.008 -0.312541 4.36783 0
M  V30 62016 C 398.058 0.914512 4.92583 0
M  V30 62017 H 400.799 3.41169 7.98575 0
M  V30 62018 H 401.068 2.58295 6.41556 0
M  V30 62019 H 400.201 5.02657 6.42673 0
M  V30 62020 H 397.546 4.11637 4.08885 0
M  V30 62021 H 397.267 2.49626 6.61679 0
M  V30 62022 H 396.275 3.86566 6.00778 0
M  V30 62023 H 398.109 4.29943 7.96918 0
M  V30 62024 H 398.18 1.00937 6.00374 0
M  V30 62025 P 396.238 6.144 6.45285 0
M  V30 62026 O 396.018 7.54673 6.86199 0
M  V30 62027 O 395.448 5.12391 7.179 0
M  V30 62028 O 395.988 5.99158 4.88404 0
M  V30 62029 C 396.928 6.60062 3.96313 0
M  V30 62030 C 396.198 7.08259 2.72856 0
M  V30 62031 O 395.988 5.9427 1.83651 0
M  V30 62032 C 394.798 7.65087 2.94749 0
M  V30 62033 O 394.408 8.53963 1.90717 0
M  V30 62034 C 393.918 6.41069 2.90698 0
M  V30 62035 C 394.628 5.5528 1.86931 0
M  V30 62036 N 394.578 4.09575 2.15696 0
M  V30 62037 C 394.428 3.24249 1.08435 0
M  V30 62038 O 394.338 3.63946 -0.0628747 0
M  V30 62039 N 394.388 1.90009 1.39973 0
M  V30 62040 C 394.478 1.34884 2.65614 0
M  V30 62041 O 394.428 0.123716 2.81728 0
M  V30 62042 C 394.628 2.3145 3.71736 0
M  V30 62043 C 394.738 1.75913 5.10438 0
M  V30 62044 C 394.678 3.63518 3.44754 0
M  V30 62045 H 397.419 7.45402 4.45526 0
M  V30 62046 H 397.688 5.86062 3.67208 0
M  V30 62047 H 396.821 7.84412 2.24479 0
M  V30 62048 H 394.166 5.73358 0.888409 0
M  V30 62049 H 393.887 5.90877 3.88583 0
M  V30 62050 H 392.895 6.65867 2.58821 0
M  V30 62051 H 394.729 8.16248 3.92006 0
M  V30 62052 H 394.8 4.34551 4.26383 0
M  V30 62053 H 393.77 1.85471 5.61775 0
M  V30 62054 H 395.507 2.31364 5.66257 0
M  V30 62055 H 395.019 0.695936 5.05229 0
M  V30 62056 H 394.283 1.26277 0.63625 0
M  V30 62057 P 392.858 8.7635 1.60911 0
M  V30 62058 O 392.638 10.1388 1.11561 0
M  V30 62059 O 392.068 8.36503 2.79617 0
M  V30 62060 O 392.608 7.71806 0.42951 0
M  V30 62061 C 393.548 7.67148 -0.673689 0
M  V30 62062 C 392.818 7.33374 -1.95559 0
M  V30 62063 O 392.608 5.88721 -2.00726 0
M  V30 62064 C 391.418 7.92526 -2.10483 0
M  V30 62065 O 391.028 8.02971 -3.47653 0
M  V30 62066 C 390.538 6.89602 -1.41652 0
M  V30 62067 C 391.248 5.59201 -1.75185 0
M  V30 62068 N 391.198 4.58235 -0.662552 0
M  V30 62069 H 394.037 8.65116 -0.777161 0
M  V30 62070 H 394.309 6.90173 -0.474152 0
M  V30 62071 H 393.441 7.66548 -2.79458 0
M  V30 62072 P 389.478 8.03563 -3.84925 0
M  V30 62073 O 389.258 8.85821 -5.0569 0
M  V30 62074 O 388.688 8.41101 -2.65469 0
M  V30 62075 O 389.228 6.4965 -4.18908 0
M  V30 62076 C 390.168 5.81037 -5.05421 0
M  V30 62077 C 389.438 4.78366 -5.89277 0
M  V30 62078 O 389.228 3.58302 -5.08433 0
M  V30 62079 C 388.038 5.17448 -6.36119 0
M  V30 62080 O 387.648 4.45271 -7.53232 0
M  V30 62081 C 387.158 4.74639 -5.19936 0
M  V30 62082 C 387.868 3.49432 -4.70418 0
M  V30 62083 N 387.818 3.32099 -3.22613 0
M  V30 62084 H 390.657 6.54213 -5.71376 0
M  V30 62085 H 390.929 5.30936 -4.43503 0
M  V30 62086 H 390.061 4.55889 -6.76652 0
M  V30 62087 H 387.406 2.61715 -5.17932 0
M  V30 62088 H 387.126 5.52155 -4.41878 0
M  V30 62089 H 386.135 4.51981 -5.53374 0
M  V30 62090 H 387.969 6.25124 -6.55234 0
M  V30 62091 P 386.098 4.23843 -7.83734 0
M  V30 62092 O 385.878 4.19407 -9.29784 0
M  V30 62093 O 385.308 5.24426 -7.09156 0
M  V30 62094 O 385.848 2.7935 -7.20758 0
M  V30 62095 C 386.788 1.72945 -7.50224 0
M  V30 62096 C 386.058 0.406376 -7.57911 0
M  V30 62097 O 385.848 -0.0897726 -6.21935 0
M  V30 62098 C 384.658 0.438983 -8.18724 0
M  V30 62099 O 384.268 -0.825065 -8.71101 0
M  V30 62100 C 383.778 0.783689 -6.99524 0
M  V30 62101 C 384.488 0.0619086 -5.85867 0
M  V30 62102 N 384.438 0.78573 -4.56183 0
M  V30 62103 C 384.288 0.0292889 -3.41887 0
M  V30 62104 O 384.198 -1.18445 -3.4419 0
M  V30 62105 N 384.248 0.744061 -2.23964 0
M  V30 62106 C 384.338 2.10932 -2.10362 0
M  V30 62107 C 384.488 2.8202 -3.34994 0
M  V30 62108 C 384.538 2.15547 -4.52261 0
M  V30 62109 H 387.279 1.93379 -8.46595 0
M  V30 62110 H 387.548 1.68132 -6.70852 0
M  V30 62111 H 386.681 -0.289041 -8.15388 0
M  V30 62112 H 384.026 -0.926847 -5.72749 0
M  V30 62113 H 383.747 1.86973 -6.82036 0
M  V30 62114 H 382.755 0.403896 -7.13257 0
M  V30 62115 H 384.589 1.20585 -8.97435 0
M  V30 62116 H 384.66 2.71231 -5.45042 0
M  V30 62117 P 382.718 -1.17771 -8.83182 0
M  V30 62118 O 382.498 -2.07206 -9.98732 0
M  V30 62119 O 381.928 0.0743816 -8.81969 0
M  V30 62120 O 382.468 -1.97652 -7.47304 0
M  V30 62121 C 383.408 -3.01055 -7.08599 0
M  V30 62122 C 382.678 -4.12613 -6.37049 0
M  V30 62123 O 382.468 -3.72827 -4.97879 0
M  V30 62124 C 381.278 -4.45719 -6.88164 0
M  V30 62125 O 380.888 -5.7877 -6.5624 0
M  V30 62126 C 380.398 -3.47768 -6.11991 0
M  V30 62127 C 381.108 -3.39356 -4.77615 0
M  V30 62128 N 381.058 -2.04571 -4.15244 0
M  V30 62129 C 380.908 -1.98587 -2.78314 0
M  V30 62130 O 380.818 -2.98134 -2.08835 0
M  V30 62131 N 380.868 -0.714467 -2.24925 0
M  V30 62132 C 380.958 0.470001 -2.94169 0
M  V30 62133 O 380.908 1.55587 -2.35195 0
M  V30 62134 C 381.108 0.312541 -4.36783 0
M  V30 62135 C 381.218 1.57711 -5.16352 0
M  V30 62136 C 381.158 -0.914512 -4.92583 0
M  V30 62137 H 383.899 -3.41169 -7.98575 0
M  V30 62138 H 384.168 -2.58295 -6.41556 0
M  V30 62139 H 383.301 -5.02657 -6.42673 0
M  V30 62140 H 380.646 -4.11637 -4.08885 0
M  V30 62141 H 380.367 -2.49626 -6.61679 0
M  V30 62142 H 379.375 -3.86566 -6.00778 0
M  V30 62143 H 381.209 -4.29943 -7.96918 0
M  V30 62144 H 381.28 -1.00937 -6.00374 0
M  V30 62145 H 380.25 1.80153 -5.63503 0
M  V30 62146 H 381.987 1.4566 -5.94104 0
M  V30 62147 H 381.499 2.40664 -4.49645 0
M  V30 62148 H 380.763 -0.647622 -1.25697 0
M  V30 62149 P 379.338 -6.144 -6.45285 0
M  V30 62150 O 379.118 -7.54673 -6.86199 0
M  V30 62151 O 378.548 -5.12391 -7.179 0
M  V30 62152 O 379.088 -5.99158 -4.88404 0
M  V30 62153 C 380.028 -6.60234 -3.96415 0
M  V30 62154 C 379.298 -7.08259 -2.72856 0
M  V30 62155 O 379.088 -5.9427 -1.83651 0
M  V30 62156 C 377.898 -7.64886 -2.9555 0
M  V30 62157 O 377.508 -8.53963 -1.90717 0
M  V30 62158 C 377.018 -6.4116 -2.90739 0
M  V30 62159 C 377.728 -5.55375 -1.86963 0
M  V30 62160 N 377.678 -4.09664 -2.15742 0
M  V30 62161 H 380.517 -7.45574 -4.45629 0
M  V30 62162 H 380.789 -5.86232 -3.67314 0
M  V30 62163 H 379.921 -7.84412 -2.24479 0
M  V30 62164 P 375.958 -8.7635 -1.60911 0
M  V30 62165 O 375.738 -10.1388 -1.11561 0
M  V30 62166 O 375.168 -8.36503 -2.79617 0
M  V30 62167 O 375.708 -7.71806 -0.42951 0
M  V30 62168 C 376.648 -7.67148 0.673689 0
M  V30 62169 C 375.918 -7.33374 1.95559 0
M  V30 62170 O 375.708 -5.88721 2.00726 0
M  V30 62171 C 374.518 -7.92526 2.10483 0
M  V30 62172 O 374.128 -8.02971 3.47653 0
M  V30 62173 C 373.638 -6.89602 1.41652 0
M  V30 62174 C 374.348 -5.59201 1.75185 0
M  V30 62175 N 374.298 -4.58235 0.662552 0
M  V30 62176 H 377.137 -8.65116 0.777161 0
M  V30 62177 H 377.409 -6.90173 0.474152 0
M  V30 62178 H 376.541 -7.66548 2.79458 0
M  V30 62179 P 372.578 -8.03563 3.84925 0
M  V30 62180 O 372.358 -8.85821 5.0569 0
M  V30 62181 O 371.788 -8.41101 2.65469 0
M  V30 62182 O 372.328 -6.49734 4.18962 0
M  V30 62183 C 373.268 -5.81037 5.05421 0
M  V30 62184 C 372.538 -4.79018 5.88876 0
M  V30 62185 O 372.328 -3.58359 5.08515 0
M  V30 62186 C 371.138 -5.17448 6.36119 0
M  V30 62187 O 370.748 -4.45322 7.53318 0
M  V30 62188 C 370.258 -4.74639 5.19936 0
M  V30 62189 C 370.968 -3.49432 4.70418 0
M  V30 62190 N 370.918 -3.31776 3.22945 0
M  V30 62191 C 370.768 -2.02742 2.72939 0
M  V30 62192 O 370.678 -1.08301 3.52749 0
M  V30 62193 N 370.718 -1.96117 1.22063 0
M  V30 62194 C 370.818 -2.8878 0.551566 0
M  V30 62195 N 370.768 -2.65609 -0.750198 0
M  V30 62196 C 370.968 -4.22457 1.03707 0
M  V30 62197 C 371.018 -4.37979 2.39113 0
M  V30 62198 H 373.758 -6.54138 5.7131 0
M  V30 62199 H 374.028 -5.30492 4.44033 0
M  V30 62200 H 373.161 -4.55945 6.76735 0
M  V30 62201 H 370.506 -2.6176 5.18021 0
M  V30 62202 H 370.226 -5.52233 4.41941 0
M  V30 62203 H 369.235 -4.52045 5.53452 0
M  V30 62204 H 371.069 -6.25124 6.55234 0
M  V30 62205 H 371.141 -5.37936 2.80552 0
M  V30 62206 H 371.039 -5.07528 0.359553 0
M  V30 62207 H 370.651 -1.69403 -1.09847 0
M  V30 62208 H 370.847 -3.43701 -1.41792 0
M  V30 62209 P 369.198 -4.23843 7.83734 0
M  V30 62210 O 368.978 -4.19407 9.29784 0
M  V30 62211 O 368.408 -5.24426 7.09156 0
M  V30 62212 O 368.948 -2.7935 7.20758 0
M  V30 62213 C 369.888 -1.7299 7.50419 0
M  V30 62214 C 369.158 -0.406376 7.57911 0
M  V30 62215 O 368.948 0.0897726 6.21935 0
M  V30 62216 C 367.758 -0.447224 8.1878 0
M  V30 62217 O 367.368 0.825065 8.71101 0
M  V30 62218 C 366.878 -0.783801 6.99623 0
M  V30 62219 C 367.588 -0.0619192 5.85967 0
M  V30 62220 N 367.538 -0.7859 4.56281 0
M  V30 62221 H 370.377 -1.93423 8.4679 0
M  V30 62222 H 370.649 -1.68181 6.71046 0
M  V30 62223 H 369.781 0.289041 8.15388 0
M  V30 62224 P 365.818 1.17771 8.83182 0
M  V30 62225 O 365.598 2.07206 9.98732 0
M  V30 62226 O 365.028 -0.0743816 8.81969 0
M  V30 62227 O 365.568 1.97652 7.47304 0
M  V30 62228 C 366.508 3.01133 7.08783 0
M  V30 62229 C 365.778 4.12613 6.37049 0
M  V30 62230 O 365.568 3.72827 4.97879 0
M  V30 62231 C 364.378 4.45085 6.88694 0
M  V30 62232 O 363.988 5.7877 6.5624 0
M  V30 62233 C 363.498 3.47817 6.12078 0
M  V30 62234 C 364.208 3.39414 4.77697 0
M  V30 62235 N 364.158 2.04615 4.15333 0
M  V30 62236 H 366.997 3.41248 7.98759 0
M  V30 62237 H 367.269 2.5837 6.41742 0
M  V30 62238 H 366.401 5.02657 6.42673 0
M  V30 62239 P 362.438 6.144 6.45285 0
M  V30 62240 O 362.218 7.54673 6.86199 0
M  V30 62241 O 361.648 5.12391 7.179 0
M  V30 62242 O 362.188 5.99158 4.88404 0
M  V30 62243 C 363.128 6.60234 3.96415 0
M  V30 62244 C 362.398 7.08259 2.72856 0
M  V30 62245 O 362.188 5.9427 1.83651 0
M  V30 62246 C 360.998 7.64886 2.9555 0
M  V30 62247 O 360.608 8.53963 1.90717 0
M  V30 62248 C 360.118 6.4116 2.90739 0
M  V30 62249 C 360.828 5.55375 1.86963 0
M  V30 62250 N 360.778 4.09664 2.15742 0
M  V30 62251 H 363.617 7.45574 4.45629 0
M  V30 62252 H 363.889 5.86232 3.67314 0
M  V30 62253 H 363.021 7.84412 2.24479 0
M  V30 62254 P 359.058 8.7635 1.60911 0
M  V30 62255 O 358.838 10.1388 1.11561 0
M  V30 62256 O 358.268 8.36503 2.79617 0
M  V30 62257 O 358.808 7.71806 0.42951 0
M  V30 62258 C 359.748 7.66948 -0.673514 0
M  V30 62259 C 359.018 7.33374 -1.95559 0
M  V30 62260 O 358.808 5.88721 -2.00726 0
M  V30 62261 C 357.618 7.92218 -2.1125 0
M  V30 62262 O 357.228 8.02971 -3.47653 0
M  V30 62263 C 356.738 6.89504 -1.41631 0
M  V30 62264 C 357.448 5.59106 -1.75155 0
M  V30 62265 N 357.398 4.58136 -0.662409 0
M  V30 62266 C 357.248 3.26059 -1.02863 0
M  V30 62267 O 357.158 2.90743 -2.19009 0
M  V30 62268 N 357.208 2.35995 0.0155585 0
M  V30 62269 C 357.298 2.65248 1.35603 0
M  V30 62270 C 357.448 4.05747 1.64698 0
M  V30 62271 C 357.498 4.96734 0.652411 0
M  V30 62272 H 360.239 8.64917 -0.776982 0
M  V30 62273 H 360.508 6.89974 -0.474015 0
M  V30 62274 H 359.641 7.66548 -2.79458 0
M  V30 62275 H 356.986 5.16076 -2.65138 0
M  V30 62276 H 356.707 7.06433 -0.329384 0
M  V30 62277 H 355.715 6.90829 -1.81996 0
M  V30 62278 H 357.549 8.90774 -1.62639 0
M  V30 62279 H 357.62 6.02181 0.895285 0
M  V30 62280 P 355.678 8.03563 -3.84925 0
M  V30 62281 O 355.458 8.85821 -5.0569 0
M  V30 62282 O 354.888 8.41101 -2.65469 0
M  V30 62283 O 355.428 6.49734 -4.18962 0
M  V30 62284 C 356.368 5.81037 -5.05421 0
M  V30 62285 C 355.638 4.79018 -5.88876 0
M  V30 62286 O 355.428 3.58359 -5.08515 0
M  V30 62287 C 354.238 5.17448 -6.36119 0
M  V30 62288 O 353.848 4.45322 -7.53318 0
M  V30 62289 C 353.358 4.74639 -5.19936 0
M  V30 62290 C 354.068 3.49432 -4.70418 0
M  V30 62291 N 354.018 3.31776 -3.22945 0
M  V30 62292 C 353.868 2.02742 -2.72939 0
M  V30 62293 O 353.778 1.08301 -3.52749 0
M  V30 62294 N 353.818 1.96117 -1.22063 0
M  V30 62295 C 353.918 2.8878 -0.551566 0
M  V30 62296 N 353.868 2.65609 0.750198 0
M  V30 62297 C 354.068 4.22457 -1.03707 0
M  V30 62298 C 354.118 4.37979 -2.39113 0
M  V30 62299 H 356.858 6.54138 -5.7131 0
M  V30 62300 H 357.128 5.30492 -4.44033 0
M  V30 62301 H 356.261 4.55945 -6.76735 0
M  V30 62302 H 353.606 2.6176 -5.18021 0
M  V30 62303 H 353.326 5.52233 -4.41941 0
M  V30 62304 H 352.335 4.52045 -5.53452 0
M  V30 62305 H 354.169 6.25124 -6.55234 0
M  V30 62306 H 354.241 5.37936 -2.80552 0
M  V30 62307 H 354.139 5.07528 -0.359553 0
M  V30 62308 H 353.751 1.69403 1.09847 0
M  V30 62309 H 353.947 3.43701 1.41792 0
M  V30 62310 P 352.298 4.23843 -7.83734 0
M  V30 62311 O 352.078 4.19407 -9.29784 0
M  V30 62312 O 351.508 5.24426 -7.09156 0
M  V30 62313 O 352.048 2.7935 -7.20758 0
M  V30 62314 C 352.988 1.7299 -7.50419 0
M  V30 62315 C 352.258 0.406376 -7.57911 0
M  V30 62316 O 352.048 -0.0897726 -6.21935 0
M  V30 62317 C 350.858 0.447224 -8.1878 0
M  V30 62318 O 350.468 -0.825065 -8.71101 0
M  V30 62319 C 349.978 0.783801 -6.99623 0
M  V30 62320 C 350.688 0.0619192 -5.85967 0
M  V30 62321 N 350.638 0.7859 -4.56281 0
M  V30 62322 H 353.477 1.93423 -8.4679 0
M  V30 62323 H 353.749 1.68181 -6.71046 0
M  V30 62324 H 352.881 -0.289041 -8.15388 0
M  V30 62325 P 348.918 -1.17771 -8.83182 0
M  V30 62326 O 348.698 -2.07206 -9.98732 0
M  V30 62327 O 348.128 0.0743816 -8.81969 0
M  V30 62328 O 348.668 -1.97652 -7.47304 0
M  V30 62329 C 349.608 -3.01133 -7.08783 0
M  V30 62330 C 348.878 -4.12613 -6.37049 0
M  V30 62331 O 348.668 -3.72827 -4.97879 0
M  V30 62332 C 347.478 -4.45085 -6.88694 0
M  V30 62333 O 347.088 -5.7877 -6.5624 0
M  V30 62334 C 346.598 -3.47817 -6.12078 0
M  V30 62335 C 347.308 -3.39414 -4.77697 0
M  V30 62336 N 347.258 -2.04615 -4.15333 0
M  V30 62337 H 350.097 -3.41248 -7.98759 0
M  V30 62338 H 350.369 -2.5837 -6.41742 0
M  V30 62339 H 349.501 -5.02657 -6.42673 0
M  V30 62340 P 345.538 -6.144 -6.45285 0
M  V30 62341 O 345.318 -7.54673 -6.86199 0
M  V30 62342 O 344.748 -5.12391 -7.179 0
M  V30 62343 O 345.288 -5.99158 -4.88404 0
M  V30 62344 C 346.228 -6.60234 -3.96415 0
M  V30 62345 C 345.498 -7.08259 -2.72856 0
M  V30 62346 O 345.288 -5.9427 -1.83651 0
M  V30 62347 C 344.098 -7.64886 -2.9555 0
M  V30 62348 O 343.708 -8.53963 -1.90717 0
M  V30 62349 C 343.218 -6.4116 -2.90739 0
M  V30 62350 C 343.928 -5.55375 -1.86963 0
M  V30 62351 N 343.878 -4.09664 -2.15742 0
M  V30 62352 H 346.717 -7.45574 -4.45629 0
M  V30 62353 H 346.989 -5.86232 -3.67314 0
M  V30 62354 H 346.121 -7.84412 -2.24479 0
M  V30 62355 P 342.158 -8.7635 -1.60911 0
M  V30 62356 O 341.938 -10.1388 -1.11561 0
M  V30 62357 O 341.368 -8.36503 -2.79617 0
M  V30 62358 O 341.908 -7.71806 -0.42951 0
M  V30 62359 C 342.848 -7.66948 0.673514 0
M  V30 62360 C 342.118 -7.33374 1.95559 0
M  V30 62361 O 341.908 -5.88721 2.00726 0
M  V30 62362 C 340.718 -7.92218 2.1125 0
M  V30 62363 O 340.328 -8.02971 3.47653 0
M  V30 62364 C 339.838 -6.89504 1.41631 0
M  V30 62365 C 340.548 -5.59106 1.75155 0
M  V30 62366 N 340.498 -4.58136 0.662409 0
M  V30 62367 C 340.348 -3.26059 1.02863 0
M  V30 62368 O 340.258 -2.90743 2.19009 0
M  V30 62369 N 340.308 -2.35995 -0.0155585 0
M  V30 62370 C 340.398 -2.65248 -1.35603 0
M  V30 62371 C 340.548 -4.05747 -1.64698 0
M  V30 62372 C 340.598 -4.96734 -0.652411 0
M  V30 62373 H 343.339 -8.64917 0.776982 0
M  V30 62374 H 343.608 -6.89974 0.474015 0
M  V30 62375 H 342.741 -7.66548 2.79458 0
M  V30 62376 H 340.086 -5.16076 2.65138 0
M  V30 62377 H 339.807 -7.06433 0.329384 0
M  V30 62378 H 338.815 -6.90829 1.81996 0
M  V30 62379 H 340.649 -8.90774 1.62639 0
M  V30 62380 H 340.72 -6.02181 -0.895285 0
M  V30 62381 P 338.778 -8.03563 3.84925 0
M  V30 62382 O 338.558 -8.85821 5.0569 0
M  V30 62383 O 337.988 -8.41101 2.65469 0
M  V30 62384 O 338.528 -6.4965 4.18908 0
M  V30 62385 C 339.468 -5.81037 5.05421 0
M  V30 62386 C 338.738 -4.78366 5.89277 0
M  V30 62387 O 338.528 -3.58302 5.08433 0
M  V30 62388 C 337.338 -5.17448 6.36119 0
M  V30 62389 O 336.948 -4.45271 7.53232 0
M  V30 62390 C 336.458 -4.74639 5.19936 0
M  V30 62391 C 337.168 -3.49432 4.70418 0
M  V30 62392 N 337.118 -3.31776 3.22945 0
M  V30 62393 H 339.957 -6.54213 5.71376 0
M  V30 62394 H 340.229 -5.30492 4.44033 0
M  V30 62395 H 339.361 -4.55889 6.76652 0
M  V30 62396 P 335.398 -4.23843 7.83734 0
M  V30 62397 O 335.178 -4.19407 9.29784 0
M  V30 62398 O 334.608 -5.24426 7.09156 0
M  V30 62399 O 335.148 -2.7935 7.20758 0
M  V30 62400 C 336.088 -1.7299 7.50419 0
M  V30 62401 C 335.358 -0.406376 7.57911 0
M  V30 62402 O 335.148 0.0897726 6.21935 0
M  V30 62403 C 333.958 -0.447224 8.1878 0
M  V30 62404 O 333.568 0.825065 8.71101 0
M  V30 62405 C 333.078 -0.783801 6.99623 0
M  V30 62406 C 333.788 -0.0619192 5.85967 0
M  V30 62407 N 333.738 -0.7859 4.56281 0
M  V30 62408 C 333.818 -2.14308 4.31736 0
M  V30 62409 N 333.738 -2.46106 3.05116 0
M  V30 62410 C 333.598 -1.23422 2.4014 0
M  V30 62411 C 333.468 -0.938381 1.02409 0
M  V30 62412 N 333.348 0.444647 0.805413 0
M  V30 62413 C 333.348 1.40829 1.79435 0
M  V30 62414 N 333.218 2.67213 1.38558 0
M  V30 62415 N 333.478 1.12947 3.09005 0
M  V30 62416 C 333.598 -0.204887 3.32369 0
M  V30 62417 H 336.577 -1.93423 8.4679 0
M  V30 62418 H 336.849 -1.68181 6.71046 0
M  V30 62419 H 335.981 0.289041 8.15388 0
M  V30 62420 P 332.018 1.17771 8.83182 0
M  V30 62421 O 331.798 2.07206 9.98732 0
M  V30 62422 O 331.228 -0.0743816 8.81969 0
M  V30 62423 O 331.768 1.97652 7.47304 0
M  V30 62424 C 332.708 3.01055 7.08599 0
M  V30 62425 C 331.978 4.12613 6.37049 0
M  V30 62426 O 331.768 3.72827 4.97879 0
M  V30 62427 C 330.578 4.45719 6.88164 0
M  V30 62428 O 330.188 5.7877 6.5624 0
M  V30 62429 C 329.698 3.47768 6.11991 0
M  V30 62430 C 330.408 3.39356 4.77615 0
M  V30 62431 N 330.358 2.04571 4.15244 0
M  V30 62432 C 330.208 1.98587 2.78314 0
M  V30 62433 O 330.118 2.98134 2.08835 0
M  V30 62434 N 330.168 0.714467 2.24925 0
M  V30 62435 C 330.258 -0.470001 2.94169 0
M  V30 62436 O 330.208 -1.55587 2.35195 0
M  V30 62437 C 330.408 -0.312541 4.36783 0
M  V30 62438 C 330.518 -1.57711 5.16352 0
M  V30 62439 C 330.458 0.914512 4.92583 0
M  V30 62440 H 333.199 3.41169 7.98575 0
M  V30 62441 H 333.468 2.58295 6.41556 0
M  V30 62442 H 332.601 5.02657 6.42673 0
M  V30 62443 H 329.946 4.11637 4.08885 0
M  V30 62444 H 329.667 2.49626 6.61679 0
M  V30 62445 H 328.675 3.86566 6.00778 0
M  V30 62446 H 330.509 4.29943 7.96918 0
M  V30 62447 H 330.58 1.00937 6.00374 0
M  V30 62448 H 329.55 -1.80153 5.63503 0
M  V30 62449 H 331.287 -1.4566 5.94104 0
M  V30 62450 H 330.799 -2.40664 4.49645 0
M  V30 62451 H 330.063 0.647622 1.25697 0
M  V30 62452 P 328.638 6.144 6.45285 0
M  V30 62453 O 328.418 7.54673 6.86199 0
M  V30 62454 O 327.848 5.12391 7.179 0
M  V30 62455 O 328.388 5.99158 4.88404 0
M  V30 62456 C 329.328 6.60234 3.96415 0
M  V30 62457 C 328.598 7.08259 2.72856 0
M  V30 62458 O 328.388 5.9427 1.83651 0
M  V30 62459 C 327.198 7.64886 2.9555 0
M  V30 62460 O 326.808 8.53963 1.90717 0
M  V30 62461 C 326.318 6.4116 2.90739 0
M  V30 62462 C 327.028 5.55375 1.86963 0
M  V30 62463 N 326.978 4.09664 2.15742 0
M  V30 62464 H 329.817 7.45574 4.45629 0
M  V30 62465 H 330.089 5.86232 3.67314 0
M  V30 62466 H 329.221 7.84412 2.24479 0
M  V30 62467 P 325.258 8.7635 1.60911 0
M  V30 62468 O 325.038 10.1388 1.11561 0
M  V30 62469 O 324.468 8.36503 2.79617 0
M  V30 62470 O 325.008 7.71806 0.42951 0
M  V30 62471 C 325.948 7.66948 -0.673514 0
M  V30 62472 C 325.218 7.33374 -1.95559 0
M  V30 62473 O 325.008 5.88721 -2.00726 0
M  V30 62474 C 323.818 7.92218 -2.1125 0
M  V30 62475 O 323.428 8.02971 -3.47653 0
M  V30 62476 C 322.938 6.89504 -1.41631 0
M  V30 62477 C 323.648 5.59106 -1.75155 0
M  V30 62478 N 323.598 4.58136 -0.662409 0
M  V30 62479 C 323.448 3.26059 -1.02863 0
M  V30 62480 O 323.358 2.90743 -2.19009 0
M  V30 62481 N 323.408 2.35995 0.0155585 0
M  V30 62482 C 323.498 2.65248 1.35603 0
M  V30 62483 O 323.448 1.75605 2.20651 0
M  V30 62484 C 323.648 4.05747 1.64698 0
M  V30 62485 C 323.758 4.42345 3.09553 0
M  V30 62486 C 323.698 4.96734 0.652411 0
M  V30 62487 H 326.439 8.64917 -0.776982 0
M  V30 62488 H 326.708 6.89974 -0.474015 0
M  V30 62489 H 325.841 7.66548 -2.79458 0
M  V30 62490 H 323.186 5.16076 -2.65138 0
M  V30 62491 H 322.907 7.06433 -0.329384 0
M  V30 62492 H 321.915 6.90829 -1.81996 0
M  V30 62493 H 323.749 8.90774 -1.62639 0
M  V30 62494 H 323.82 6.02181 0.895285 0
M  V30 62495 H 322.79 4.80252 3.45468 0
M  V30 62496 H 324.527 5.20015 3.22119 0
M  V30 62497 H 324.039 3.53269 3.67833 0
M  V30 62498 H 323.303 1.39558 -0.227499 0
M  V30 62499 P 321.878 8.03563 -3.84925 0
M  V30 62500 O 321.658 8.85821 -5.0569 0
M  V30 62501 O 321.088 8.41101 -2.65469 0
M  V30 62502 O 321.628 6.49734 -4.18962 0
M  V30 62503 C 322.568 5.81037 -5.05421 0
M  V30 62504 C 321.838 4.79018 -5.88876 0
M  V30 62505 O 321.628 3.58359 -5.08515 0
M  V30 62506 C 320.438 5.17448 -6.36119 0
M  V30 62507 O 320.048 4.45322 -7.53318 0
M  V30 62508 C 319.558 4.74639 -5.19936 0
M  V30 62509 C 320.268 3.49432 -4.70418 0
M  V30 62510 N 320.218 3.31776 -3.22945 0
M  V30 62511 C 320.068 2.02742 -2.72939 0
M  V30 62512 O 319.978 1.08301 -3.52749 0
M  V30 62513 N 320.018 1.96117 -1.22063 0
M  V30 62514 C 320.118 2.8878 -0.551566 0
M  V30 62515 N 320.068 2.65609 0.750198 0
M  V30 62516 C 320.268 4.22457 -1.03707 0
M  V30 62517 C 320.318 4.37979 -2.39113 0
M  V30 62518 H 323.058 6.54138 -5.7131 0
M  V30 62519 H 323.328 5.30492 -4.44033 0
M  V30 62520 H 322.461 4.55945 -6.76735 0
M  V30 62521 H 319.806 2.6176 -5.18021 0
M  V30 62522 H 319.526 5.52233 -4.41941 0
M  V30 62523 H 318.535 4.52045 -5.53452 0
M  V30 62524 H 320.369 6.25124 -6.55234 0
M  V30 62525 H 320.441 5.37936 -2.80552 0
M  V30 62526 H 320.339 5.07528 -0.359553 0
M  V30 62527 H 319.951 1.69403 1.09847 0
M  V30 62528 H 320.147 3.43701 1.41792 0
M  V30 62529 P 318.498 4.23843 -7.83734 0
M  V30 62530 O 318.278 4.19407 -9.29784 0
M  V30 62531 O 317.708 5.24426 -7.09156 0
M  V30 62532 O 318.248 2.7935 -7.20758 0
M  V30 62533 C 319.188 1.7299 -7.50419 0
M  V30 62534 C 318.458 0.406376 -7.57911 0
M  V30 62535 O 318.248 -0.0897726 -6.21935 0
M  V30 62536 C 317.058 0.447224 -8.1878 0
M  V30 62537 O 316.668 -0.825065 -8.71101 0
M  V30 62538 C 316.178 0.783801 -6.99623 0
M  V30 62539 C 316.888 0.0619192 -5.85967 0
M  V30 62540 N 316.838 0.7859 -4.56281 0
M  V30 62541 H 319.677 1.93423 -8.4679 0
M  V30 62542 H 319.949 1.68181 -6.71046 0
M  V30 62543 H 319.081 -0.289041 -8.15388 0
M  V30 62544 P 315.118 -1.17771 -8.83182 0
M  V30 62545 O 314.898 -2.07206 -9.98732 0
M  V30 62546 O 314.328 0.0743816 -8.81969 0
M  V30 62547 O 314.868 -1.97652 -7.47304 0
M  V30 62548 C 315.808 -3.01133 -7.08783 0
M  V30 62549 C 315.078 -4.12613 -6.37049 0
M  V30 62550 O 314.868 -3.72827 -4.97879 0
M  V30 62551 C 313.678 -4.45085 -6.88694 0
M  V30 62552 O 313.288 -5.7877 -6.5624 0
M  V30 62553 C 312.798 -3.47817 -6.12078 0
M  V30 62554 C 313.508 -3.39414 -4.77697 0
M  V30 62555 N 313.458 -2.04615 -4.15333 0
M  V30 62556 H 316.297 -3.41248 -7.98759 0
M  V30 62557 H 316.569 -2.5837 -6.41742 0
M  V30 62558 H 315.701 -5.02657 -6.42673 0
M  V30 62559 P 311.738 -6.144 -6.45285 0
M  V30 62560 O 311.518 -7.54673 -6.86199 0
M  V30 62561 O 310.948 -5.12391 -7.179 0
M  V30 62562 O 311.488 -5.99158 -4.88404 0
M  V30 62563 C 312.428 -6.60234 -3.96415 0
M  V30 62564 C 311.698 -7.08259 -2.72856 0
M  V30 62565 O 311.488 -5.9427 -1.83651 0
M  V30 62566 C 310.298 -7.64886 -2.9555 0
M  V30 62567 O 309.908 -8.53963 -1.90717 0
M  V30 62568 C 309.418 -6.4116 -2.90739 0
M  V30 62569 C 310.128 -5.55375 -1.86963 0
M  V30 62570 N 310.078 -4.09664 -2.15742 0
M  V30 62571 H 312.917 -7.45574 -4.45629 0
M  V30 62572 H 313.189 -5.86232 -3.67314 0
M  V30 62573 H 312.321 -7.84412 -2.24479 0
M  V30 62574 P 308.358 -8.7635 -1.60911 0
M  V30 62575 O 308.138 -10.1388 -1.11561 0
M  V30 62576 O 307.568 -8.36503 -2.79617 0
M  V30 62577 O 308.108 -7.71806 -0.42951 0
M  V30 62578 C 309.048 -7.67148 0.673689 0
M  V30 62579 C 308.318 -7.33374 1.95559 0
M  V30 62580 O 308.108 -5.88721 2.00726 0
M  V30 62581 C 306.918 -7.92526 2.10483 0
M  V30 62582 O 306.528 -8.02971 3.47653 0
M  V30 62583 C 306.038 -6.89602 1.41652 0
M  V30 62584 C 306.748 -5.59201 1.75185 0
M  V30 62585 N 306.698 -4.58301 0.657969 0
M  V30 62586 H 309.537 -8.65116 0.777161 0
M  V30 62587 H 309.809 -6.9022 0.46725 0
M  V30 62588 H 308.941 -7.66548 2.79458 0
M  V30 62589 H 306.286 -5.16165 2.65183 0
M  V30 62590 H 306.006 -7.06433 0.329384 0
M  V30 62591 H 305.015 -6.90926 1.82021 0
M  V30 62592 H 306.849 -8.90873 1.62657 0
M  V30 62593 P 304.978 -8.03563 3.84925 0
M  V30 62594 O 304.758 -8.85821 5.0569 0
M  V30 62595 O 304.188 -8.41101 2.65469 0
M  V30 62596 O 304.728 -6.4965 4.18908 0
M  V30 62597 C 305.668 -5.81037 5.05421 0
M  V30 62598 C 304.938 -4.78366 5.89277 0
M  V30 62599 O 304.728 -3.58302 5.08433 0
M  V30 62600 C 303.538 -5.17448 6.36119 0
M  V30 62601 O 303.148 -4.45271 7.53232 0
M  V30 62602 C 302.658 -4.74639 5.19936 0
M  V30 62603 C 303.368 -3.49432 4.70418 0
M  V30 62604 N 303.318 -3.31776 3.22945 0
M  V30 62605 H 306.157 -6.54213 5.71376 0
M  V30 62606 H 306.429 -5.30492 4.44033 0
M  V30 62607 H 305.561 -4.55889 6.76652 0
M  V30 62608 P 301.598 -4.23843 7.83734 0
M  V30 62609 O 301.378 -4.19407 9.29784 0
M  V30 62610 O 300.808 -5.24426 7.09156 0
M  V30 62611 O 301.348 -2.7935 7.20758 0
M  V30 62612 C 302.288 -1.7299 7.50419 0
M  V30 62613 C 301.558 -0.406376 7.57911 0
M  V30 62614 O 301.348 0.0897726 6.21935 0
M  V30 62615 C 300.158 -0.447224 8.1878 0
M  V30 62616 O 299.768 0.825065 8.71101 0
M  V30 62617 C 299.278 -0.783801 6.99623 0
M  V30 62618 C 299.988 -0.0619192 5.85967 0
M  V30 62619 N 299.938 -0.790462 4.56202 0
M  V30 62620 H 302.777 -1.93423 8.4679 0
M  V30 62621 H 303.049 -1.68852 6.70877 0
M  V30 62622 H 302.181 0.289041 8.15388 0
M  V30 62623 H 299.526 0.927006 5.72848 0
M  V30 62624 H 299.246 -1.86973 6.82036 0
M  V30 62625 H 298.255 -0.403953 7.13357 0
M  V30 62626 H 300.089 -1.20599 8.97534 0
M  V30 62627 P 298.218 1.17771 8.83182 0
M  V30 62628 O 297.998 2.07206 9.98732 0
M  V30 62629 O 297.428 -0.0743816 8.81969 0
M  V30 62630 O 297.968 1.97652 7.47304 0
M  V30 62631 C 298.908 3.01133 7.08783 0
M  V30 62632 C 298.178 4.12613 6.37049 0
M  V30 62633 O 297.968 3.72827 4.97879 0
M  V30 62634 C 296.778 4.45085 6.88694 0
M  V30 62635 O 296.388 5.7877 6.5624 0
M  V30 62636 C 295.898 3.47817 6.12078 0
M  V30 62637 C 296.608 3.39414 4.77697 0
M  V30 62638 N 296.558 2.04199 4.15538 0
M  V30 62639 H 299.397 3.41248 7.98759 0
M  V30 62640 H 299.669 2.57728 6.42 0
M  V30 62641 H 298.801 5.02657 6.42673 0
M  V30 62642 H 296.146 4.11708 4.08956 0
M  V30 62643 H 295.866 2.49626 6.61679 0
M  V30 62644 H 294.875 3.8662 6.00862 0
M  V30 62645 H 296.709 4.29991 7.97006 0
M  V30 62646 P 294.838 6.144 6.45285 0
M  V30 62647 O 294.618 7.54673 6.86199 0
M  V30 62648 O 294.048 5.12391 7.179 0
M  V30 62649 O 294.588 5.99158 4.88404 0
M  V30 62650 C 295.528 6.60234 3.96415 0
M  V30 62651 C 294.798 7.08259 2.72856 0
M  V30 62652 O 294.588 5.9427 1.83651 0
M  V30 62653 C 293.398 7.64886 2.9555 0
M  V30 62654 O 293.008 8.53963 1.90717 0
M  V30 62655 C 292.518 6.4116 2.90739 0
M  V30 62656 C 293.228 5.55375 1.86963 0
M  V30 62657 N 293.178 4.09664 2.15742 0
M  V30 62658 H 296.017 7.45574 4.45629 0
M  V30 62659 H 296.289 5.86232 3.67314 0
M  V30 62660 H 295.421 7.84412 2.24479 0
M  V30 62661 P 291.458 8.7635 1.60911 0
M  V30 62662 O 291.238 10.1388 1.11561 0
M  V30 62663 O 290.668 8.36503 2.79617 0
M  V30 62664 O 291.208 7.71806 0.42951 0
M  V30 62665 C 292.148 7.67148 -0.673689 0
M  V30 62666 C 291.418 7.33374 -1.95559 0
M  V30 62667 O 291.208 5.88721 -2.00726 0
M  V30 62668 C 290.018 7.92526 -2.10483 0
M  V30 62669 O 289.628 8.02971 -3.47653 0
M  V30 62670 C 289.138 6.89602 -1.41652 0
M  V30 62671 C 289.848 5.59201 -1.75185 0
M  V30 62672 N 289.798 4.58235 -0.662552 0
M  V30 62673 H 292.637 8.65116 -0.777161 0
M  V30 62674 H 292.909 6.90173 -0.474152 0
M  V30 62675 H 292.041 7.66548 -2.79458 0
M  V30 62676 P 288.078 8.03563 -3.84925 0
M  V30 62677 O 287.858 8.85821 -5.0569 0
M  V30 62678 O 287.288 8.41101 -2.65469 0
M  V30 62679 O 287.828 6.4965 -4.18908 0
M  V30 62680 C 288.768 5.81037 -5.05421 0
M  V30 62681 C 288.038 4.78366 -5.89277 0
M  V30 62682 O 287.828 3.58302 -5.08433 0
M  V30 62683 C 286.638 5.17448 -6.36119 0
M  V30 62684 O 286.248 4.45271 -7.53232 0
M  V30 62685 C 285.758 4.74639 -5.19936 0
M  V30 62686 C 286.468 3.49432 -4.70418 0
M  V30 62687 N 286.418 3.31776 -3.22945 0
M  V30 62688 H 289.257 6.54213 -5.71376 0
M  V30 62689 H 289.529 5.30492 -4.44033 0
M  V30 62690 H 288.661 4.55889 -6.76652 0
M  V30 62691 P 284.698 4.23843 -7.83734 0
M  V30 62692 O 284.478 4.19407 -9.29784 0
M  V30 62693 O 283.908 5.24426 -7.09156 0
M  V30 62694 O 284.448 2.7935 -7.20758 0
M  V30 62695 C 285.388 1.7299 -7.50419 0
M  V30 62696 C 284.658 0.406376 -7.57911 0
M  V30 62697 O 284.448 -0.0897726 -6.21935 0
M  V30 62698 C 283.258 0.447224 -8.1878 0
M  V30 62699 O 282.868 -0.825065 -8.71101 0
M  V30 62700 C 282.378 0.783801 -6.99623 0
M  V30 62701 C 283.088 0.0619192 -5.85967 0
M  V30 62702 N 283.038 0.790462 -4.56202 0
M  V30 62703 H 285.877 1.93423 -8.4679 0
M  V30 62704 H 286.149 1.68852 -6.70877 0
M  V30 62705 H 285.281 -0.289041 -8.15388 0
M  V30 62706 H 282.626 -0.927006 -5.72848 0
M  V30 62707 H 282.346 1.86973 -6.82036 0
M  V30 62708 H 281.355 0.403953 -7.13357 0
M  V30 62709 H 283.189 1.20599 -8.97534 0
M  V30 62710 P 281.318 -1.17771 -8.83182 0
M  V30 62711 O 281.098 -2.07206 -9.98732 0
M  V30 62712 O 280.528 0.0743816 -8.81969 0
M  V30 62713 O 281.068 -1.97652 -7.47304 0
M  V30 62714 C 282.008 -3.01133 -7.08783 0
M  V30 62715 C 281.278 -4.12613 -6.37049 0
M  V30 62716 O 281.068 -3.72827 -4.97879 0
M  V30 62717 C 279.878 -4.45085 -6.88694 0
M  V30 62718 O 279.488 -5.7877 -6.5624 0
M  V30 62719 C 278.998 -3.47817 -6.12078 0
M  V30 62720 C 279.708 -3.39414 -4.77697 0
M  V30 62721 N 279.658 -2.04199 -4.15538 0
M  V30 62722 H 282.497 -3.41248 -7.98759 0
M  V30 62723 H 282.769 -2.57728 -6.42 0
M  V30 62724 H 281.901 -5.02657 -6.42673 0
M  V30 62725 H 279.246 -4.11708 -4.08956 0
M  V30 62726 H 278.966 -2.49626 -6.61679 0
M  V30 62727 H 277.975 -3.8662 -6.00862 0
M  V30 62728 H 279.809 -4.29991 -7.97006 0
M  V30 62729 P 277.938 -6.144 -6.45285 0
M  V30 62730 O 277.718 -7.54673 -6.86199 0
M  V30 62731 O 277.148 -5.12391 -7.179 0
M  V30 62732 O 277.688 -5.99158 -4.88404 0
M  V30 62733 C 278.628 -6.60234 -3.96415 0
M  V30 62734 C 277.898 -7.08259 -2.72856 0
M  V30 62735 O 277.688 -5.9427 -1.83651 0
M  V30 62736 C 276.498 -7.64886 -2.9555 0
M  V30 62737 O 276.108 -8.53963 -1.90717 0
M  V30 62738 C 275.618 -6.4116 -2.90739 0
M  V30 62739 C 276.328 -5.55375 -1.86963 0
M  V30 62740 N 276.278 -4.09664 -2.15742 0
M  V30 62741 H 279.117 -7.45574 -4.45629 0
M  V30 62742 H 279.389 -5.86232 -3.67314 0
M  V30 62743 H 278.521 -7.84412 -2.24479 0
M  V30 62744 P 274.558 -8.7635 -1.60911 0
M  V30 62745 O 274.338 -10.1388 -1.11561 0
M  V30 62746 O 273.768 -8.36503 -2.79617 0
M  V30 62747 O 274.308 -7.71806 -0.42951 0
M  V30 62748 C 275.248 -7.67148 0.673689 0
M  V30 62749 C 274.518 -7.33374 1.95559 0
M  V30 62750 O 274.308 -5.88721 2.00726 0
M  V30 62751 C 273.118 -7.92526 2.10483 0
M  V30 62752 O 272.728 -8.02971 3.47653 0
M  V30 62753 C 272.238 -6.89602 1.41652 0
M  V30 62754 C 272.948 -5.59201 1.75185 0
M  V30 62755 N 272.898 -4.58301 0.657969 0
M  V30 62756 H 275.737 -8.65116 0.777161 0
M  V30 62757 H 276.009 -6.9022 0.46725 0
M  V30 62758 H 275.141 -7.66548 2.79458 0
M  V30 62759 H 272.486 -5.16165 2.65183 0
M  V30 62760 H 272.206 -7.06433 0.329384 0
M  V30 62761 H 271.215 -6.90926 1.82021 0
M  V30 62762 H 273.049 -8.90873 1.62657 0
M  V30 62763 P 271.178 -8.03563 3.84925 0
M  V30 62764 O 270.958 -8.85821 5.0569 0
M  V30 62765 O 270.388 -8.41101 2.65469 0
M  V30 62766 O 270.928 -6.4965 4.18908 0
M  V30 62767 C 271.868 -5.80886 5.05289 0
M  V30 62768 C 271.138 -4.78366 5.89277 0
M  V30 62769 O 270.928 -3.58302 5.08433 0
M  V30 62770 C 269.738 -5.16748 6.36559 0
M  V30 62771 O 269.348 -4.45271 7.53232 0
M  V30 62772 C 268.858 -4.74572 5.19863 0
M  V30 62773 C 269.568 -3.49373 4.70338 0
M  V30 62774 N 269.518 -3.31704 3.22876 0
M  V30 62775 C 269.368 -2.03326 2.74871 0
M  V30 62776 O 269.278 -1.06486 3.48076 0
M  V30 62777 N 269.328 -1.91838 1.37456 0
M  V30 62778 C 269.418 -2.94295 0.462035 0
M  V30 62779 O 269.368 -2.71763 -0.752928 0
M  V30 62780 C 269.568 -4.25064 1.05249 0
M  V30 62781 C 269.678 -5.39815 0.095697 0
M  V30 62782 C 269.618 -4.40214 2.39192 0
M  V30 62783 H 272.359 -6.54063 5.71245 0
M  V30 62784 H 272.628 -5.30339 4.43905 0
M  V30 62785 H 271.761 -4.55889 6.76652 0
M  V30 62786 H 269.106 -2.6167 5.17842 0
M  V30 62787 H 268.827 -5.52155 4.41878 0
M  V30 62788 H 267.835 -4.51918 5.53297 0
M  V30 62789 H 269.669 -6.25055 6.55162 0
M  V30 62790 H 269.74 -5.39798 2.81523 0
M  V30 62791 H 268.71 -5.91593 0.0279582 0
M  V30 62792 H 270.447 -6.10038 0.450573 0
M  V30 62793 H 269.959 -5.02007 -0.89937 0
M  V30 62794 H 269.223 -0.995326 1.00435 0
M  V30 62795 P 267.798 -4.23843 7.83734 0
M  V30 62796 O 267.578 -4.19407 9.29784 0
M  V30 62797 O 267.008 -5.24426 7.09156 0
M  V30 62798 O 267.548 -2.7935 7.20758 0
M  V30 62799 C 268.488 -1.7299 7.50419 0
M  V30 62800 C 267.758 -0.406376 7.57911 0
M  V30 62801 O 267.548 0.0897726 6.21935 0
M  V30 62802 C 266.358 -0.447224 8.1878 0
M  V30 62803 O 265.968 0.825065 8.71101 0
M  V30 62804 C 265.478 -0.783801 6.99623 0
M  V30 62805 C 266.188 -0.0619192 5.85967 0
M  V30 62806 N 266.138 -0.7859 4.56281 0
M  V30 62807 H 268.977 -1.93423 8.4679 0
M  V30 62808 H 269.249 -1.68181 6.71046 0
M  V30 62809 H 268.381 0.289041 8.15388 0
M  V30 62810 P 264.418 1.17771 8.83182 0
M  V30 62811 O 264.198 2.07206 9.98732 0
M  V30 62812 O 263.628 -0.0743816 8.81969 0
M  V30 62813 O 264.168 1.97652 7.47304 0
M  V30 62814 C 265.108 3.01133 7.08783 0
M  V30 62815 C 264.378 4.12613 6.37049 0
M  V30 62816 O 264.168 3.72827 4.97879 0
M  V30 62817 C 262.978 4.45085 6.88694 0
M  V30 62818 O 262.588 5.7877 6.5624 0
M  V30 62819 C 262.098 3.47817 6.12078 0
M  V30 62820 C 262.808 3.39414 4.77697 0
M  V30 62821 N 262.758 2.04615 4.15333 0
M  V30 62822 C 262.838 0.803897 4.75249 0
M  V30 62823 N 262.758 -0.197615 3.91502 0
M  V30 62824 C 262.618 0.413002 2.66823 0
M  V30 62825 C 262.488 -0.157221 1.38007 0
M  V30 62826 N 262.368 0.833136 0.390236 0
M  V30 62827 C 262.368 2.19402 0.623885 0
M  V30 62828 N 262.238 2.97622 -0.449677 0
M  V30 62829 N 262.498 2.73005 1.83601 0
M  V30 62830 C 262.618 1.78786 2.80935 0
M  V30 62831 H 265.597 3.41248 7.98759 0
M  V30 62832 H 265.869 2.5837 6.41742 0
M  V30 62833 H 265.001 5.02657 6.42673 0
M  V30 62834 P 261.038 6.144 6.45285 0
M  V30 62835 O 260.818 7.54673 6.86199 0
M  V30 62836 O 260.248 5.12391 7.179 0
M  V30 62837 O 260.788 5.99236 4.88467 0
M  V30 62838 C 261.728 6.60234 3.96415 0
M  V30 62839 C 260.998 7.08079 2.736 0
M  V30 62840 O 260.788 5.94365 1.8368 0
M  V30 62841 C 259.598 7.64886 2.9555 0
M  V30 62842 O 259.208 8.5406 1.90739 0
M  V30 62843 C 258.718 6.4116 2.90739 0
M  V30 62844 C 259.428 5.55375 1.86963 0
M  V30 62845 N 259.378 4.09664 2.15742 0
M  V30 62846 C 259.228 3.22231 1.08477 0
M  V30 62847 O 259.138 3.68951 -0.0600489 0
M  V30 62848 N 259.178 1.76692 1.48799 0
M  V30 62849 C 259.278 1.41695 2.57602 0
M  V30 62850 N 259.228 0.107296 2.75791 0
M  V30 62851 C 259.428 2.29178 3.69733 0
M  V30 62852 C 259.478 3.62753 3.42653 0
M  V30 62853 H 262.218 7.45488 4.45578 0
M  V30 62854 H 262.488 5.86232 3.67314 0
M  V30 62855 H 261.621 7.84508 2.24507 0
M  V30 62856 H 258.966 5.73556 0.888715 0
M  V30 62857 H 258.686 5.9096 3.88638 0
M  V30 62858 H 257.695 6.66053 2.58894 0
M  V30 62859 H 259.529 8.16339 3.92049 0
M  V30 62860 H 259.601 4.33052 4.24913 0
M  V30 62861 H 259.499 1.9103 4.71577 0
M  V30 62862 H 259.111 -0.521221 1.95056 0
M  V30 62863 H 259.307 -0.286429 3.70695 0
M  V30 62864 P 257.658 8.7635 1.60911 0
M  V30 62865 O 257.438 10.1388 1.11561 0
M  V30 62866 O 256.868 8.36503 2.79617 0
M  V30 62867 O 257.408 7.71806 0.42951 0
M  V30 62868 C 258.348 7.67148 -0.673689 0
M  V30 62869 C 257.618 7.33374 -1.95559 0
M  V30 62870 O 257.408 5.88721 -2.00726 0
M  V30 62871 C 256.218 7.92526 -2.10483 0
M  V30 62872 O 255.828 8.02971 -3.47653 0
M  V30 62873 C 255.338 6.89602 -1.41652 0
M  V30 62874 C 256.048 5.59201 -1.75185 0
M  V30 62875 N 255.998 4.58235 -0.662552 0
M  V30 62876 H 258.837 8.65116 -0.777161 0
M  V30 62877 H 259.109 6.90173 -0.474152 0
M  V30 62878 H 258.241 7.66548 -2.79458 0
M  V30 62879 P 254.279 8.03563 -3.84925 0
M  V30 62880 O 254.059 8.85821 -5.0569 0
M  V30 62881 O 253.489 8.41101 -2.65469 0
M  V30 62882 O 254.029 6.4965 -4.18908 0
M  V30 62883 C 254.969 5.81037 -5.05421 0
M  V30 62884 C 254.239 4.78366 -5.89277 0
M  V30 62885 O 254.029 3.58302 -5.08433 0
M  V30 62886 C 252.839 5.17448 -6.36119 0
M  V30 62887 O 252.449 4.45271 -7.53232 0
M  V30 62888 C 251.959 4.74639 -5.19936 0
M  V30 62889 C 252.669 3.49432 -4.70418 0
M  V30 62890 N 252.619 3.31776 -3.22945 0
M  V30 62891 H 255.458 6.54213 -5.71376 0
M  V30 62892 H 255.73 5.30492 -4.44033 0
M  V30 62893 H 254.862 4.55889 -6.76652 0
M  V30 62894 P 250.899 4.23843 -7.83734 0
M  V30 62895 O 250.679 4.19407 -9.29784 0
M  V30 62896 O 250.109 5.24426 -7.09156 0
M  V30 62897 O 250.649 2.7935 -7.20758 0
M  V30 62898 C 251.589 1.7299 -7.50419 0
M  V30 62899 C 250.859 0.406376 -7.57911 0
M  V30 62900 O 250.649 -0.0897726 -6.21935 0
M  V30 62901 C 249.459 0.447224 -8.1878 0
M  V30 62902 O 249.069 -0.825065 -8.71101 0
M  V30 62903 C 248.579 0.783801 -6.99623 0
M  V30 62904 C 249.289 0.0619192 -5.85967 0
M  V30 62905 N 249.239 0.790462 -4.56202 0
M  V30 62906 H 252.078 1.93423 -8.4679 0
M  V30 62907 H 252.35 1.68852 -6.70877 0
M  V30 62908 H 251.482 -0.289041 -8.15388 0
M  V30 62909 H 248.827 -0.927006 -5.72848 0
M  V30 62910 H 248.547 1.86973 -6.82036 0
M  V30 62911 H 247.556 0.403953 -7.13357 0
M  V30 62912 H 249.39 1.20599 -8.97534 0
M  V30 62913 P 247.519 -1.17771 -8.83182 0
M  V30 62914 O 247.299 -2.07206 -9.98732 0
M  V30 62915 O 246.729 0.0743816 -8.81969 0
M  V30 62916 O 247.269 -1.97652 -7.47304 0
M  V30 62917 C 248.209 -3.01133 -7.08783 0
M  V30 62918 C 247.479 -4.12613 -6.37049 0
M  V30 62919 O 247.269 -3.72827 -4.97879 0
M  V30 62920 C 246.079 -4.45085 -6.88694 0
M  V30 62921 O 245.689 -5.7877 -6.5624 0
M  V30 62922 C 245.199 -3.47817 -6.12078 0
M  V30 62923 C 245.909 -3.39414 -4.77697 0
M  V30 62924 N 245.859 -2.04615 -4.15333 0
M  V30 62925 H 248.698 -3.41248 -7.98759 0
M  V30 62926 H 248.97 -2.5837 -6.41742 0
M  V30 62927 H 248.102 -5.02657 -6.42673 0
M  V30 62928 P 244.139 -6.144 -6.45285 0
M  V30 62929 O 243.919 -7.54673 -6.86199 0
M  V30 62930 O 243.349 -5.12391 -7.179 0
M  V30 62931 O 243.889 -5.99158 -4.88404 0
M  V30 62932 C 244.829 -6.60234 -3.96415 0
M  V30 62933 C 244.099 -7.08259 -2.72856 0
M  V30 62934 O 243.889 -5.9427 -1.83651 0
M  V30 62935 C 242.699 -7.64886 -2.9555 0
M  V30 62936 O 242.309 -8.53963 -1.90717 0
M  V30 62937 C 241.819 -6.4116 -2.90739 0
M  V30 62938 C 242.529 -5.55375 -1.86963 0
M  V30 62939 N 242.479 -4.09664 -2.15742 0
M  V30 62940 H 245.318 -7.45574 -4.45629 0
M  V30 62941 H 245.59 -5.86232 -3.67314 0
M  V30 62942 H 244.722 -7.84412 -2.24479 0
M  V30 62943 P 240.759 -8.7635 -1.60911 0
M  V30 62944 O 240.539 -10.1388 -1.11561 0
M  V30 62945 O 239.969 -8.36503 -2.79617 0
M  V30 62946 O 240.509 -7.71806 -0.42951 0
M  V30 62947 C 241.449 -7.67148 0.673689 0
M  V30 62948 C 240.719 -7.33374 1.95559 0
M  V30 62949 O 240.509 -5.88721 2.00726 0
M  V30 62950 C 239.319 -7.92526 2.10483 0
M  V30 62951 O 238.929 -8.02971 3.47653 0
M  V30 62952 C 238.439 -6.89602 1.41652 0
M  V30 62953 C 239.149 -5.59201 1.75185 0
M  V30 62954 N 239.099 -4.58235 0.662552 0
M  V30 62955 H 241.938 -8.65116 0.777161 0
M  V30 62956 H 242.21 -6.90173 0.474152 0
M  V30 62957 H 241.342 -7.66548 2.79458 0
M  V30 62958 P 237.379 -8.03563 3.84925 0
M  V30 62959 O 237.159 -8.85821 5.0569 0
M  V30 62960 O 236.589 -8.41101 2.65469 0
M  V30 62961 O 237.129 -6.4965 4.18908 0
M  V30 62962 C 238.069 -5.81037 5.05421 0
M  V30 62963 C 237.339 -4.78366 5.89277 0
M  V30 62964 O 237.129 -3.58302 5.08433 0
M  V30 62965 C 235.939 -5.17448 6.36119 0
M  V30 62966 O 235.549 -4.45271 7.53232 0
M  V30 62967 C 235.059 -4.74639 5.19936 0
M  V30 62968 C 235.769 -3.49432 4.70418 0
M  V30 62969 N 235.719 -3.32099 3.22613 0
M  V30 62970 H 238.558 -6.54213 5.71376 0
M  V30 62971 H 238.83 -5.30936 4.43503 0
M  V30 62972 H 237.962 -4.55889 6.76652 0
M  V30 62973 H 235.307 -2.61715 5.17932 0
M  V30 62974 H 235.027 -5.52155 4.41878 0
M  V30 62975 H 234.036 -4.51981 5.53374 0
M  V30 62976 H 235.87 -6.25124 6.55234 0
M  V30 62977 P 233.999 -4.23843 7.83734 0
M  V30 62978 O 233.779 -4.19407 9.29784 0
M  V30 62979 O 233.209 -5.24426 7.09156 0
M  V30 62980 O 233.749 -2.7935 7.20758 0
M  V30 62981 C 234.689 -1.72945 7.50224 0
M  V30 62982 C 233.959 -0.406376 7.57911 0
M  V30 62983 O 233.749 0.0897726 6.21935 0
M  V30 62984 C 232.559 -0.438983 8.18724 0
M  V30 62985 O 232.169 0.825065 8.71101 0
M  V30 62986 C 231.679 -0.783689 6.99524 0
M  V30 62987 C 232.389 -0.0619086 5.85867 0
M  V30 62988 N 232.339 -0.78573 4.56183 0
M  V30 62989 C 232.189 -0.0292889 3.41887 0
M  V30 62990 O 232.099 1.18445 3.4419 0
M  V30 62991 N 232.149 -0.744061 2.23964 0
M  V30 62992 C 232.239 -2.10932 2.10362 0
M  V30 62993 C 232.389 -2.8202 3.34994 0
M  V30 62994 C 232.439 -2.15547 4.52261 0
M  V30 62995 H 235.18 -1.93379 8.46595 0
M  V30 62996 H 235.449 -1.68132 6.70852 0
M  V30 62997 H 234.582 0.289041 8.15388 0
M  V30 62998 H 231.927 0.926847 5.72749 0
M  V30 62999 H 231.648 -1.86973 6.82036 0
M  V30 63000 H 230.656 -0.403896 7.13257 0
M  V30 63001 H 232.49 -1.20585 8.97435 0
M  V30 63002 H 232.561 -2.71231 5.45042 0
M  V30 63003 P 230.619 1.17771 8.83182 0
M  V30 63004 O 230.399 2.07206 9.98732 0
M  V30 63005 O 229.829 -0.0743816 8.81969 0
M  V30 63006 O 230.369 1.97652 7.47304 0
M  V30 63007 C 231.309 3.01133 7.08783 0
M  V30 63008 C 230.579 4.12613 6.37049 0
M  V30 63009 O 230.369 3.72827 4.97879 0
M  V30 63010 C 229.179 4.45085 6.88694 0
M  V30 63011 O 228.789 5.7877 6.5624 0
M  V30 63012 C 228.299 3.47817 6.12078 0
M  V30 63013 C 229.009 3.39414 4.77697 0
M  V30 63014 N 228.959 2.04615 4.15333 0
M  V30 63015 H 231.798 3.41248 7.98759 0
M  V30 63016 H 232.07 2.5837 6.41742 0
M  V30 63017 H 231.202 5.02657 6.42673 0
M  V30 63018 P 227.239 6.144 6.45285 0
M  V30 63019 O 227.019 7.54673 6.86199 0
M  V30 63020 O 226.449 5.12391 7.179 0
M  V30 63021 O 226.989 5.99158 4.88404 0
M  V30 63022 C 227.929 6.60234 3.96415 0
M  V30 63023 C 227.199 7.08259 2.72856 0
M  V30 63024 O 226.989 5.9427 1.83651 0
M  V30 63025 C 225.799 7.64886 2.9555 0
M  V30 63026 O 225.409 8.53963 1.90717 0
M  V30 63027 C 224.919 6.4116 2.90739 0
M  V30 63028 C 225.629 5.55375 1.86963 0
M  V30 63029 N 225.579 4.09448 2.16152 0
M  V30 63030 H 228.418 7.45574 4.45629 0
M  V30 63031 H 228.69 5.85864 3.679 0
M  V30 63032 H 227.822 7.84412 2.24479 0
M  V30 63033 H 225.167 5.73457 0.888562 0
M  V30 63034 H 224.887 5.90877 3.88583 0
M  V30 63035 H 223.896 6.6596 2.58858 0
M  V30 63036 H 225.73 8.16339 3.92049 0
M  V30 63037 P 223.859 8.7635 1.60911 0
M  V30 63038 O 223.639 10.1388 1.11561 0
M  V30 63039 O 223.069 8.36503 2.79617 0
M  V30 63040 O 223.609 7.71806 0.42951 0
M  V30 63041 C 224.549 7.67148 -0.673689 0
M  V30 63042 C 223.819 7.33374 -1.95559 0
M  V30 63043 O 223.609 5.88721 -2.00726 0
M  V30 63044 C 222.419 7.92526 -2.10483 0
M  V30 63045 O 222.029 8.02971 -3.47653 0
M  V30 63046 C 221.539 6.89602 -1.41652 0
M  V30 63047 C 222.249 5.59201 -1.75185 0
M  V30 63048 N 222.199 4.58301 -0.657969 0
M  V30 63049 C 222.279 4.79019 0.692603 0
M  V30 63050 N 222.209 3.69736 1.38998 0
M  V30 63051 C 222.059 2.70474 0.438135 0
M  V30 63052 C 221.929 1.30327 0.538142 0
M  V30 63053 N 221.919 0.64304 1.69192 0
M  V30 63054 N 221.809 0.611027 -0.605183 0
M  V30 63055 C 221.819 1.27002 -1.75953 0
M  V30 63056 N 221.939 2.56038 -1.98546 0
M  V30 63057 C 222.059 3.22681 -0.822541 0
M  V30 63058 H 225.038 8.65116 -0.777161 0
M  V30 63059 H 225.31 6.9022 -0.46725 0
M  V30 63060 H 224.442 7.66548 -2.79458 0
M  V30 63061 H 221.787 5.16165 -2.65183 0
M  V30 63062 H 221.507 7.06433 -0.329384 0
M  V30 63063 H 220.516 6.90926 -1.82021 0
M  V30 63064 H 222.35 8.90873 -1.62657 0
M  V30 63065 H 222.391 5.77785 1.13874 0
M  V30 63066 H 222.01 1.15585 2.57991 0
M  V30 63067 H 221.821 -0.382989 1.69835 0
M  V30 63068 H 221.713 0.653331 -2.64449 0
M  V30 63069 P 220.479 8.03563 -3.84925 0
M  V30 63070 O 220.259 8.85821 -5.0569 0
M  V30 63071 O 219.689 8.41101 -2.65469 0
M  V30 63072 O 220.229 6.4965 -4.18908 0
M  V30 63073 C 221.169 5.81037 -5.05421 0
M  V30 63074 C 220.439 4.78366 -5.89277 0
M  V30 63075 O 220.229 3.58302 -5.08433 0
M  V30 63076 C 219.039 5.17448 -6.36119 0
M  V30 63077 O 218.649 4.45271 -7.53232 0
M  V30 63078 C 218.159 4.74639 -5.19936 0
M  V30 63079 C 218.869 3.49432 -4.70418 0
M  V30 63080 N 218.819 3.31776 -3.22945 0
M  V30 63081 H 221.658 6.54213 -5.71376 0
M  V30 63082 H 221.93 5.30492 -4.44033 0
M  V30 63083 H 221.062 4.55889 -6.76652 0
M  V30 63084 P 217.099 4.23843 -7.83734 0
M  V30 63085 O 216.879 4.19407 -9.29784 0
M  V30 63086 O 216.309 5.24426 -7.09156 0
M  V30 63087 O 216.849 2.7935 -7.20758 0
M  V30 63088 C 217.789 1.7299 -7.50419 0
M  V30 63089 C 217.059 0.406376 -7.57911 0
M  V30 63090 O 216.849 -0.0897726 -6.21935 0
M  V30 63091 C 215.659 0.447224 -8.1878 0
M  V30 63092 O 215.269 -0.825065 -8.71101 0
M  V30 63093 C 214.779 0.783801 -6.99623 0
M  V30 63094 C 215.489 0.0619192 -5.85967 0
M  V30 63095 N 215.439 0.7859 -4.56281 0
M  V30 63096 H 218.278 1.93423 -8.4679 0
M  V30 63097 H 218.55 1.68181 -6.71046 0
M  V30 63098 H 217.682 -0.289041 -8.15388 0
M  V30 63099 P 213.719 -1.17771 -8.83182 0
M  V30 63100 O 213.499 -2.07206 -9.98732 0
M  V30 63101 O 212.929 0.0743816 -8.81969 0
M  V30 63102 O 213.469 -1.97652 -7.47304 0
M  V30 63103 C 214.409 -3.01133 -7.08783 0
M  V30 63104 C 213.679 -4.12613 -6.37049 0
M  V30 63105 O 213.469 -3.72827 -4.97879 0
M  V30 63106 C 212.279 -4.45085 -6.88694 0
M  V30 63107 O 211.889 -5.7877 -6.5624 0
M  V30 63108 C 211.399 -3.47817 -6.12078 0
M  V30 63109 C 212.109 -3.39414 -4.77697 0
M  V30 63110 N 212.059 -2.04199 -4.15538 0
M  V30 63111 H 214.898 -3.41248 -7.98759 0
M  V30 63112 H 215.17 -2.57728 -6.42 0
M  V30 63113 H 214.302 -5.02657 -6.42673 0
M  V30 63114 H 211.647 -4.11708 -4.08956 0
M  V30 63115 H 211.367 -2.49626 -6.61679 0
M  V30 63116 H 210.376 -3.8662 -6.00862 0
M  V30 63117 H 212.21 -4.29991 -7.97006 0
M  V30 63118 P 210.339 -6.144 -6.45285 0
M  V30 63119 O 210.119 -7.54673 -6.86199 0
M  V30 63120 O 209.549 -5.12391 -7.179 0
M  V30 63121 O 210.089 -5.99158 -4.88404 0
M  V30 63122 C 211.029 -6.60234 -3.96415 0
M  V30 63123 C 210.299 -7.08259 -2.72856 0
M  V30 63124 O 210.089 -5.9427 -1.83651 0
M  V30 63125 C 208.899 -7.64886 -2.9555 0
M  V30 63126 O 208.509 -8.53963 -1.90717 0
M  V30 63127 C 208.019 -6.4116 -2.90739 0
M  V30 63128 C 208.729 -5.55375 -1.86963 0
M  V30 63129 N 208.679 -4.09664 -2.15742 0
M  V30 63130 C 208.759 -3.44381 -3.37233 0
M  V30 63131 N 208.679 -2.14131 -3.28347 0
M  V30 63132 C 208.539 -1.90247 -1.91588 0
M  V30 63133 C 208.409 -0.683992 -1.20892 0
M  V30 63134 O 208.389 0.46618 -1.64523 0
M  V30 63135 N 208.289 -0.903396 0.173998 0
M  V30 63136 C 208.289 -2.14171 0.784879 0
M  V30 63137 N 208.159 -2.1435 2.11317 0
M  V30 63138 N 208.419 -3.28784 0.119316 0
M  V30 63139 C 208.539 -3.0977 -1.22194 0
M  V30 63140 H 211.518 -7.45574 -4.45629 0
M  V30 63141 H 211.79 -5.86232 -3.67314 0
M  V30 63142 H 210.922 -7.84412 -2.24479 0
M  V30 63143 H 208.267 -5.73556 -0.888715 0
M  V30 63144 H 207.987 -5.9096 -3.88638 0
M  V30 63145 H 206.996 -6.66053 -2.58894 0
M  V30 63146 H 208.83 -8.16429 -3.92093 0
M  V30 63147 H 208.879 -3.96785 -4.32043 0
M  V30 63148 H 208.197 -0.0999567 0.761467 0
M  V30 63149 H 208.16 -3.03436 2.63076 0
M  V30 63150 H 208.059 -1.25228 2.62233 0
M  V30 63151 P 206.959 -8.7635 -1.60911 0
M  V30 63152 O 206.739 -10.1388 -1.11561 0
M  V30 63153 O 206.169 -8.36503 -2.79617 0
M  V30 63154 O 206.709 -7.71806 -0.42951 0
M  V30 63155 C 207.649 -7.67148 0.673689 0
M  V30 63156 C 206.919 -7.33374 1.95559 0
M  V30 63157 O 206.709 -5.88721 2.00726 0
M  V30 63158 C 205.519 -7.92526 2.10483 0
M  V30 63159 O 205.129 -8.02971 3.47653 0
M  V30 63160 C 204.639 -6.89602 1.41652 0
M  V30 63161 C 205.349 -5.59201 1.75185 0
M  V30 63162 N 205.299 -4.58235 0.662552 0
M  V30 63163 H 208.138 -8.65116 0.777161 0
M  V30 63164 H 208.41 -6.90173 0.474152 0
M  V30 63165 H 207.542 -7.66548 2.79458 0
M  V30 63166 P 203.579 -8.03563 3.84925 0
M  V30 63167 O 203.359 -8.85821 5.0569 0
M  V30 63168 O 202.789 -8.41101 2.65469 0
M  V30 63169 O 203.329 -6.4965 4.18908 0
M  V30 63170 C 204.269 -5.81037 5.05421 0
M  V30 63171 C 203.539 -4.78366 5.89277 0
M  V30 63172 O 203.329 -3.58302 5.08433 0
M  V30 63173 C 202.139 -5.17448 6.36119 0
M  V30 63174 O 201.749 -4.45271 7.53232 0
M  V30 63175 C 201.259 -4.74639 5.19936 0
M  V30 63176 C 201.969 -3.49432 4.70418 0
M  V30 63177 N 201.919 -3.31776 3.22945 0
M  V30 63178 H 204.758 -6.54213 5.71376 0
M  V30 63179 H 205.03 -5.30492 4.44033 0
M  V30 63180 H 204.162 -4.55889 6.76652 0
M  V30 63181 P 200.199 -4.23843 7.83734 0
M  V30 63182 O 199.979 -4.19407 9.29784 0
M  V30 63183 O 199.409 -5.24426 7.09156 0
M  V30 63184 O 199.949 -2.7935 7.20758 0
M  V30 63185 C 200.889 -1.7299 7.50419 0
M  V30 63186 C 200.159 -0.406376 7.57911 0
M  V30 63187 O 199.949 0.0897726 6.21935 0
M  V30 63188 C 198.759 -0.447224 8.1878 0
M  V30 63189 O 198.369 0.825065 8.71101 0
M  V30 63190 C 197.879 -0.783801 6.99623 0
M  V30 63191 C 198.589 -0.0619192 5.85967 0
M  V30 63192 N 198.539 -0.7859 4.56281 0
M  V30 63193 H 201.378 -1.93423 8.4679 0
M  V30 63194 H 201.65 -1.68181 6.71046 0
M  V30 63195 H 200.782 0.289041 8.15388 0
M  V30 63196 P 196.819 1.17771 8.83182 0
M  V30 63197 O 196.599 2.07206 9.98732 0
M  V30 63198 O 196.029 -0.0743816 8.81969 0
M  V30 63199 O 196.569 1.97652 7.47304 0
M  V30 63200 C 197.509 3.01133 7.08783 0
M  V30 63201 C 196.779 4.12613 6.37049 0
M  V30 63202 O 196.569 3.72827 4.97879 0
M  V30 63203 C 195.379 4.45085 6.88694 0
M  V30 63204 O 194.989 5.7877 6.5624 0
M  V30 63205 C 194.499 3.47817 6.12078 0
M  V30 63206 C 195.209 3.39414 4.77697 0
M  V30 63207 N 195.159 2.04199 4.15538 0
M  V30 63208 H 197.998 3.41248 7.98759 0
M  V30 63209 H 198.27 2.57728 6.42 0
M  V30 63210 H 197.402 5.02657 6.42673 0
M  V30 63211 H 194.747 4.11708 4.08956 0
M  V30 63212 H 194.467 2.49626 6.61679 0
M  V30 63213 H 193.476 3.8662 6.00862 0
M  V30 63214 H 195.31 4.29991 7.97006 0
M  V30 63215 P 193.439 6.144 6.45285 0
M  V30 63216 O 193.219 7.54673 6.86199 0
M  V30 63217 O 192.649 5.12391 7.179 0
M  V30 63218 O 193.189 5.99158 4.88404 0
M  V30 63219 C 194.129 6.60234 3.96415 0
M  V30 63220 C 193.399 7.08259 2.72856 0
M  V30 63221 O 193.189 5.9427 1.83651 0
M  V30 63222 C 191.999 7.64886 2.9555 0
M  V30 63223 O 191.609 8.53963 1.90717 0
M  V30 63224 C 191.119 6.4116 2.90739 0
M  V30 63225 C 191.829 5.55375 1.86963 0
M  V30 63226 N 191.779 4.09664 2.15742 0
M  V30 63227 H 194.618 7.45574 4.45629 0
M  V30 63228 H 194.89 5.86232 3.67314 0
M  V30 63229 H 194.022 7.84412 2.24479 0
M  V30 63230 P 190.059 8.7635 1.60911 0
M  V30 63231 O 189.839 10.1388 1.11561 0
M  V30 63232 O 189.269 8.36503 2.79617 0
M  V30 63233 O 189.809 7.71806 0.42951 0
M  V30 63234 C 190.749 7.67148 -0.673689 0
M  V30 63235 C 190.019 7.33374 -1.95559 0
M  V30 63236 O 189.809 5.88721 -2.00726 0
M  V30 63237 C 188.619 7.92526 -2.10483 0
M  V30 63238 O 188.229 8.02971 -3.47653 0
M  V30 63239 C 187.739 6.89602 -1.41652 0
M  V30 63240 C 188.449 5.59201 -1.75185 0
M  V30 63241 N 188.399 4.58235 -0.662552 0
M  V30 63242 H 191.238 8.65116 -0.777161 0
M  V30 63243 H 191.51 6.90173 -0.474152 0
M  V30 63244 H 190.642 7.66548 -2.79458 0
M  V30 63245 P 186.679 8.03563 -3.84925 0
M  V30 63246 O 186.459 8.85821 -5.0569 0
M  V30 63247 O 185.889 8.41101 -2.65469 0
M  V30 63248 O 186.429 6.4965 -4.18908 0
M  V30 63249 C 187.369 5.81037 -5.05421 0
M  V30 63250 C 186.639 4.78366 -5.89277 0
M  V30 63251 O 186.429 3.58302 -5.08433 0
M  V30 63252 C 185.239 5.17448 -6.36119 0
M  V30 63253 O 184.849 4.45271 -7.53232 0
M  V30 63254 C 184.359 4.74639 -5.19936 0
M  V30 63255 C 185.069 3.49432 -4.70418 0
M  V30 63256 N 185.019 3.32099 -3.22613 0
M  V30 63257 C 185.099 4.28245 -2.25527 0
M  V30 63258 N 185.029 3.80823 -1.04874 0
M  V30 63259 C 184.879 2.44571 -1.23535 0
M  V30 63260 C 184.749 1.37068 -0.330675 0
M  V30 63261 N 184.739 1.51472 0.990824 0
M  V30 63262 N 184.629 0.138614 -0.848756 0
M  V30 63263 C 184.639 -0.00675923 -2.16999 0
M  V30 63264 N 184.759 0.904372 -3.11122 0
M  V30 63265 C 184.879 2.12707 -2.56212 0
M  V30 63266 H 187.858 6.54213 -5.71376 0
M  V30 63267 H 188.13 5.30936 -4.43503 0
M  V30 63268 H 187.262 4.55889 -6.76652 0
M  V30 63269 H 184.607 2.61715 -5.17932 0
M  V30 63270 H 184.327 5.52155 -4.41878 0
M  V30 63271 H 183.336 4.51981 -5.53374 0
M  V30 63272 H 185.17 6.25124 -6.55234 0
M  V30 63273 H 185.211 5.34372 -2.47488 0
M  V30 63274 H 184.83 2.45153 1.4078 0
M  V30 63275 H 184.641 0.688422 1.59911 0
M  V30 63276 H 184.533 -1.02584 -2.52346 0
M  V30 63277 P 183.299 4.23843 -7.83734 0
M  V30 63278 O 183.079 4.19407 -9.29784 0
M  V30 63279 O 182.509 5.24426 -7.09156 0
M  V30 63280 O 183.049 2.7935 -7.20758 0
M  V30 63281 C 183.989 1.7299 -7.50419 0
M  V30 63282 C 183.259 0.406376 -7.57911 0
M  V30 63283 O 183.049 -0.0897726 -6.21935 0
M  V30 63284 C 181.859 0.447224 -8.1878 0
M  V30 63285 O 181.469 -0.825065 -8.71101 0
M  V30 63286 C 180.979 0.783801 -6.99623 0
M  V30 63287 C 181.689 0.0619192 -5.85967 0
M  V30 63288 N 181.639 0.7859 -4.56281 0
M  V30 63289 H 184.478 1.93423 -8.4679 0
M  V30 63290 H 184.75 1.68181 -6.71046 0
M  V30 63291 H 183.882 -0.289041 -8.15388 0
M  V30 63292 P 179.919 -1.17771 -8.83182 0
M  V30 63293 O 179.699 -2.07206 -9.98732 0
M  V30 63294 O 179.129 0.0743816 -8.81969 0
M  V30 63295 O 179.669 -1.97652 -7.47304 0
M  V30 63296 C 180.609 -3.01133 -7.08783 0
M  V30 63297 C 179.879 -4.12613 -6.37049 0
M  V30 63298 O 179.669 -3.72827 -4.97879 0
M  V30 63299 C 178.479 -4.45085 -6.88694 0
M  V30 63300 O 178.089 -5.7877 -6.5624 0
M  V30 63301 C 177.599 -3.47817 -6.12078 0
M  V30 63302 C 178.309 -3.39414 -4.77697 0
M  V30 63303 N 178.259 -2.04615 -4.15333 0
M  V30 63304 H 181.098 -3.41248 -7.98759 0
M  V30 63305 H 181.37 -2.5837 -6.41742 0
M  V30 63306 H 180.502 -5.02657 -6.42673 0
M  V30 63307 P 176.539 -6.144 -6.45285 0
M  V30 63308 O 176.319 -7.54673 -6.86199 0
M  V30 63309 O 175.749 -5.12391 -7.179 0
M  V30 63310 O 176.289 -5.99158 -4.88404 0
M  V30 63311 C 177.229 -6.60234 -3.96415 0
M  V30 63312 C 176.499 -7.08259 -2.72856 0
M  V30 63313 O 176.289 -5.9427 -1.83651 0
M  V30 63314 C 175.099 -7.64886 -2.9555 0
M  V30 63315 O 174.709 -8.53963 -1.90717 0
M  V30 63316 C 174.219 -6.4116 -2.90739 0
M  V30 63317 C 174.929 -5.55375 -1.86963 0
M  V30 63318 N 174.879 -4.09664 -2.15742 0
M  V30 63319 H 177.718 -7.45574 -4.45629 0
M  V30 63320 H 177.99 -5.86232 -3.67314 0
M  V30 63321 H 177.122 -7.84412 -2.24479 0
M  V30 63322 P 173.159 -8.7635 -1.60911 0
M  V30 63323 O 172.939 -10.1388 -1.11561 0
M  V30 63324 O 172.369 -8.36503 -2.79617 0
M  V30 63325 O 172.909 -7.71806 -0.42951 0
M  V30 63326 C 173.849 -7.67148 0.673689 0
M  V30 63327 C 173.119 -7.33374 1.95559 0
M  V30 63328 O 172.909 -5.88721 2.00726 0
M  V30 63329 C 171.719 -7.92526 2.10483 0
M  V30 63330 O 171.329 -8.02971 3.47653 0
M  V30 63331 C 170.839 -6.89602 1.41652 0
M  V30 63332 C 171.549 -5.59201 1.75185 0
M  V30 63333 N 171.499 -4.58235 0.662552 0
M  V30 63334 H 174.338 -8.65116 0.777161 0
M  V30 63335 H 174.61 -6.90173 0.474152 0
M  V30 63336 H 173.742 -7.66548 2.79458 0
M  V30 63337 P 169.779 -8.03563 3.84925 0
M  V30 63338 O 169.559 -8.85821 5.0569 0
M  V30 63339 O 168.989 -8.41101 2.65469 0
M  V30 63340 O 169.529 -6.4965 4.18908 0
M  V30 63341 C 170.469 -5.81037 5.05421 0
M  V30 63342 C 169.739 -4.78366 5.89277 0
M  V30 63343 O 169.529 -3.58302 5.08433 0
M  V30 63344 C 168.339 -5.17448 6.36119 0
M  V30 63345 O 167.949 -4.45271 7.53232 0
M  V30 63346 C 167.459 -4.74639 5.19936 0
M  V30 63347 C 168.169 -3.49432 4.70418 0
M  V30 63348 N 168.119 -3.31776 3.22945 0
M  V30 63349 H 170.958 -6.54213 5.71376 0
M  V30 63350 H 171.23 -5.30492 4.44033 0
M  V30 63351 H 170.362 -4.55889 6.76652 0
M  V30 63352 P 166.399 -4.23843 7.83734 0
M  V30 63353 O 166.179 -4.19407 9.29784 0
M  V30 63354 O 165.609 -5.24426 7.09156 0
M  V30 63355 O 166.149 -2.7935 7.20758 0
M  V30 63356 C 167.089 -1.7299 7.50419 0
M  V30 63357 C 166.359 -0.406376 7.57911 0
M  V30 63358 O 166.149 0.0897726 6.21935 0
M  V30 63359 C 164.959 -0.447224 8.1878 0
M  V30 63360 O 164.569 0.825065 8.71101 0
M  V30 63361 C 164.079 -0.783801 6.99623 0
M  V30 63362 C 164.789 -0.0619192 5.85967 0
M  V30 63363 N 164.739 -0.7859 4.56281 0
M  V30 63364 H 167.578 -1.93423 8.4679 0
M  V30 63365 H 167.85 -1.68181 6.71046 0
M  V30 63366 H 166.982 0.289041 8.15388 0
M  V30 63367 P 163.019 1.17771 8.83182 0
M  V30 63368 O 162.799 2.07206 9.98732 0
M  V30 63369 O 162.229 -0.0743816 8.81969 0
M  V30 63370 O 162.769 1.97652 7.47304 0
M  V30 63371 C 163.709 3.01133 7.08783 0
M  V30 63372 C 162.979 4.12613 6.37049 0
M  V30 63373 O 162.769 3.72827 4.97879 0
M  V30 63374 C 161.579 4.45085 6.88694 0
M  V30 63375 O 161.189 5.7877 6.5624 0
M  V30 63376 C 160.699 3.47817 6.12078 0
M  V30 63377 C 161.409 3.39414 4.77697 0
M  V30 63378 N 161.359 2.04615 4.15333 0
M  V30 63379 H 164.198 3.41248 7.98759 0
M  V30 63380 H 164.47 2.5837 6.41742 0
M  V30 63381 H 163.602 5.02657 6.42673 0
M  V30 63382 P 159.639 6.144 6.45285 0
M  V30 63383 O 159.419 7.54673 6.86199 0
M  V30 63384 O 158.849 5.12391 7.179 0
M  V30 63385 O 159.389 5.99158 4.88404 0
M  V30 63386 C 160.329 6.60234 3.96415 0
M  V30 63387 C 159.599 7.08259 2.72856 0
M  V30 63388 O 159.389 5.9427 1.83651 0
M  V30 63389 C 158.199 7.64886 2.9555 0
M  V30 63390 O 157.809 8.53963 1.90717 0
M  V30 63391 C 157.319 6.4116 2.90739 0
M  V30 63392 C 158.029 5.55375 1.86963 0
M  V30 63393 N 157.979 4.09664 2.15742 0
M  V30 63394 H 160.818 7.45574 4.45629 0
M  V30 63395 H 161.09 5.86232 3.67314 0
M  V30 63396 H 160.222 7.84412 2.24479 0
M  V30 63397 P 156.259 8.7635 1.60911 0
M  V30 63398 O 156.039 10.1388 1.11561 0
M  V30 63399 O 155.469 8.36503 2.79617 0
M  V30 63400 O 156.009 7.71806 0.42951 0
M  V30 63401 C 156.949 7.67148 -0.673689 0
M  V30 63402 C 156.219 7.33374 -1.95559 0
M  V30 63403 O 156.009 5.88721 -2.00726 0
M  V30 63404 C 154.819 7.92526 -2.10483 0
M  V30 63405 O 154.429 8.02971 -3.47653 0
M  V30 63406 C 153.939 6.89602 -1.41652 0
M  V30 63407 C 154.649 5.59201 -1.75185 0
M  V30 63408 N 154.599 4.58235 -0.662552 0
M  V30 63409 H 157.438 8.65116 -0.777161 0
M  V30 63410 H 157.71 6.90173 -0.474152 0
M  V30 63411 H 156.842 7.66548 -2.79458 0
M  V30 63412 P 152.879 8.03563 -3.84925 0
M  V30 63413 O 152.659 8.85821 -5.0569 0
M  V30 63414 O 152.089 8.41101 -2.65469 0
M  V30 63415 O 152.629 6.4965 -4.18908 0
M  V30 63416 C 153.569 5.81037 -5.05421 0
M  V30 63417 C 152.839 4.78366 -5.89277 0
M  V30 63418 O 152.629 3.58302 -5.08433 0
M  V30 63419 C 151.439 5.17448 -6.36119 0
M  V30 63420 O 151.049 4.45271 -7.53232 0
M  V30 63421 C 150.559 4.74639 -5.19936 0
M  V30 63422 C 151.269 3.49432 -4.70418 0
M  V30 63423 N 151.219 3.32099 -3.22613 0
M  V30 63424 H 154.058 6.54213 -5.71376 0
M  V30 63425 H 154.33 5.30936 -4.43503 0
M  V30 63426 H 153.462 4.55889 -6.76652 0
M  V30 63427 H 150.807 2.61715 -5.17932 0
M  V30 63428 H 150.527 5.52155 -4.41878 0
M  V30 63429 H 149.536 4.51981 -5.53374 0
M  V30 63430 H 151.37 6.25124 -6.55234 0
M  V30 63431 P 149.499 4.23843 -7.83734 0
M  V30 63432 O 149.279 4.19407 -9.29784 0
M  V30 63433 O 148.709 5.24426 -7.09156 0
M  V30 63434 O 149.249 2.7935 -7.20758 0
M  V30 63435 C 150.189 1.7299 -7.50419 0
M  V30 63436 C 149.459 0.406376 -7.57911 0
M  V30 63437 O 149.249 -0.0897726 -6.21935 0
M  V30 63438 C 148.059 0.447224 -8.1878 0
M  V30 63439 O 147.669 -0.825065 -8.71101 0
M  V30 63440 C 147.179 0.783801 -6.99623 0
M  V30 63441 C 147.889 0.0619192 -5.85967 0
M  V30 63442 N 147.839 0.7859 -4.56281 0
M  V30 63443 H 150.678 1.93423 -8.4679 0
M  V30 63444 H 150.95 1.68181 -6.71046 0
M  V30 63445 H 150.082 -0.289041 -8.15388 0
M  V30 63446 P 146.119 -1.17771 -8.83182 0
M  V30 63447 O 145.899 -2.07206 -9.98732 0
M  V30 63448 O 145.329 0.0743816 -8.81969 0
M  V30 63449 O 145.869 -1.97652 -7.47304 0
M  V30 63450 C 146.809 -3.01133 -7.08783 0
M  V30 63451 C 146.079 -4.12613 -6.37049 0
M  V30 63452 O 145.869 -3.72827 -4.97879 0
M  V30 63453 C 144.679 -4.45085 -6.88694 0
M  V30 63454 O 144.289 -5.7877 -6.5624 0
M  V30 63455 C 143.799 -3.47817 -6.12078 0
M  V30 63456 C 144.509 -3.39414 -4.77697 0
M  V30 63457 N 144.459 -2.04199 -4.15538 0
M  V30 63458 H 147.298 -3.41248 -7.98759 0
M  V30 63459 H 147.57 -2.57728 -6.42 0
M  V30 63460 H 146.702 -5.02657 -6.42673 0
M  V30 63461 H 144.047 -4.11708 -4.08956 0
M  V30 63462 H 143.767 -2.49626 -6.61679 0
M  V30 63463 H 142.776 -3.8662 -6.00862 0
M  V30 63464 H 144.61 -4.29991 -7.97006 0
M  V30 63465 P 142.739 -6.144 -6.45285 0
M  V30 63466 O 142.519 -7.54673 -6.86199 0
M  V30 63467 O 141.949 -5.12391 -7.179 0
M  V30 63468 O 142.489 -5.99158 -4.88404 0
M  V30 63469 C 143.429 -6.60234 -3.96415 0
M  V30 63470 C 142.699 -7.08259 -2.72856 0
M  V30 63471 O 142.489 -5.9427 -1.83651 0
M  V30 63472 C 141.299 -7.64886 -2.9555 0
M  V30 63473 O 140.909 -8.53963 -1.90717 0
M  V30 63474 C 140.419 -6.4116 -2.90739 0
M  V30 63475 C 141.129 -5.55375 -1.86963 0
M  V30 63476 N 141.079 -4.09664 -2.15742 0
M  V30 63477 H 143.918 -7.45574 -4.45629 0
M  V30 63478 H 144.19 -5.86232 -3.67314 0
M  V30 63479 H 143.322 -7.84412 -2.24479 0
M  V30 63480 P 139.359 -8.7635 -1.60911 0
M  V30 63481 O 139.139 -10.1388 -1.11561 0
M  V30 63482 O 138.569 -8.36503 -2.79617 0
M  V30 63483 O 139.109 -7.71806 -0.42951 0
M  V30 63484 C 140.049 -7.67148 0.673689 0
M  V30 63485 C 139.319 -7.33374 1.95559 0
M  V30 63486 O 139.109 -5.88721 2.00726 0
M  V30 63487 C 137.919 -7.92526 2.10483 0
M  V30 63488 O 137.529 -8.02971 3.47653 0
M  V30 63489 C 137.039 -6.89602 1.41652 0
M  V30 63490 C 137.749 -5.59201 1.75185 0
M  V30 63491 N 137.699 -4.58235 0.662552 0
M  V30 63492 C 137.779 -4.7683 -0.704049 0
M  V30 63493 N 137.699 -3.66233 -1.39775 0
M  V30 63494 C 137.559 -2.66526 -0.431739 0
M  V30 63495 C 137.429 -1.26394 -0.575992 0
M  V30 63496 O 137.409 -0.589894 -1.60503 0
M  V30 63497 N 137.309 -0.62859 0.67177 0
M  V30 63498 C 137.309 -1.27134 1.89385 0
M  V30 63499 N 137.179 -0.492035 2.96951 0
M  V30 63500 N 137.439 -2.58978 2.02907 0
M  V30 63501 C 137.559 -3.22433 0.832218 0
M  V30 63502 H 140.538 -8.65116 0.777161 0
M  V30 63503 H 140.81 -6.90173 0.474152 0
M  V30 63504 H 139.942 -7.66548 2.79458 0
M  V30 63505 H 137.287 -5.16254 2.65229 0
M  V30 63506 H 137.007 -7.06532 0.329431 0
M  V30 63507 H 136.016 -6.91023 1.82047 0
M  V30 63508 H 137.85 -8.90971 1.62675 0
M  V30 63509 H 137.899 -5.74954 -1.16305 0
M  V30 63510 H 137.217 0.366713 0.674793 0
M  V30 63511 H 137.18 -0.908532 3.91188 0
M  V30 63512 H 137.079 0.528253 2.85758 0
M  V30 63513 P 135.979 -8.03563 3.84925 0
M  V30 63514 O 135.759 -8.85821 5.0569 0
M  V30 63515 O 135.189 -8.41101 2.65469 0
M  V30 63516 O 135.729 -6.4965 4.18908 0
M  V30 63517 C 136.669 -5.81037 5.05421 0
M  V30 63518 C 135.939 -4.78366 5.89277 0
M  V30 63519 O 135.729 -3.58302 5.08433 0
M  V30 63520 C 134.539 -5.17448 6.36119 0
M  V30 63521 O 134.149 -4.45271 7.53232 0
M  V30 63522 C 133.659 -4.74639 5.19936 0
M  V30 63523 C 134.369 -3.49432 4.70418 0
M  V30 63524 N 134.319 -3.31776 3.22945 0
M  V30 63525 H 137.158 -6.54213 5.71376 0
M  V30 63526 H 137.43 -5.30492 4.44033 0
M  V30 63527 H 136.562 -4.55889 6.76652 0
M  V30 63528 P 132.599 -4.23843 7.83734 0
M  V30 63529 O 132.379 -4.19407 9.29784 0
M  V30 63530 O 131.809 -5.24426 7.09156 0
M  V30 63531 O 132.349 -2.7935 7.20758 0
M  V30 63532 C 133.289 -1.7299 7.50419 0
M  V30 63533 C 132.559 -0.406376 7.57911 0
M  V30 63534 O 132.349 0.0897726 6.21935 0
M  V30 63535 C 131.159 -0.447224 8.1878 0
M  V30 63536 O 130.769 0.825065 8.71101 0
M  V30 63537 C 130.279 -0.783801 6.99623 0
M  V30 63538 C 130.989 -0.0619192 5.85967 0
M  V30 63539 N 130.939 -0.790462 4.56202 0
M  V30 63540 H 133.778 -1.93423 8.4679 0
M  V30 63541 H 134.05 -1.68852 6.70877 0
M  V30 63542 H 133.182 0.289041 8.15388 0
M  V30 63543 H 130.527 0.927006 5.72848 0
M  V30 63544 H 130.247 -1.86973 6.82036 0
M  V30 63545 H 129.256 -0.403953 7.13357 0
M  V30 63546 H 131.09 -1.20599 8.97534 0
M  V30 63547 P 129.219 1.17771 8.83182 0
M  V30 63548 O 128.999 2.07206 9.98732 0
M  V30 63549 O 128.429 -0.0743816 8.81969 0
M  V30 63550 O 128.969 1.97652 7.47304 0
M  V30 63551 C 129.909 3.01133 7.08783 0
M  V30 63552 C 129.179 4.12613 6.37049 0
M  V30 63553 O 128.969 3.72827 4.97879 0
M  V30 63554 C 127.779 4.45085 6.88694 0
M  V30 63555 O 127.389 5.7877 6.5624 0
M  V30 63556 C 126.899 3.47817 6.12078 0
M  V30 63557 C 127.609 3.39414 4.77697 0
M  V30 63558 N 127.559 2.04615 4.15333 0
M  V30 63559 H 130.398 3.41248 7.98759 0
M  V30 63560 H 130.67 2.5837 6.41742 0
M  V30 63561 H 129.802 5.02657 6.42673 0
M  V30 63562 P 125.839 6.144 6.45285 0
M  V30 63563 O 125.619 7.54673 6.86199 0
M  V30 63564 O 125.049 5.12391 7.179 0
M  V30 63565 O 125.589 5.99158 4.88404 0
M  V30 63566 C 126.529 6.60234 3.96415 0
M  V30 63567 C 125.799 7.08259 2.72856 0
M  V30 63568 O 125.589 5.9427 1.83651 0
M  V30 63569 C 124.399 7.64886 2.9555 0
M  V30 63570 O 124.009 8.53963 1.90717 0
M  V30 63571 C 123.519 6.4116 2.90739 0
M  V30 63572 C 124.229 5.55375 1.86963 0
M  V30 63573 N 124.179 4.09448 2.16152 0
M  V30 63574 C 124.259 3.46824 3.37593 0
M  V30 63575 N 124.189 2.17422 3.29777 0
M  V30 63576 C 124.039 1.93065 1.94427 0
M  V30 63577 C 123.909 0.738053 1.20141 0
M  V30 63578 N 123.899 -0.474256 1.74676 0
M  V30 63579 N 123.789 0.850049 -0.13045 0
M  V30 63580 C 123.799 2.06169 -0.676992 0
M  V30 63581 N 123.919 3.23842 -0.101312 0
M  V30 63582 C 124.039 3.09402 1.23122 0
M  V30 63583 H 127.018 7.45574 4.45629 0
M  V30 63584 H 127.29 5.85864 3.679 0
M  V30 63585 H 126.422 7.84412 2.24479 0
M  V30 63586 H 123.767 5.73457 0.888562 0
M  V30 63587 H 123.487 5.90877 3.88583 0
M  V30 63588 H 122.496 6.6596 2.58858 0
M  V30 63589 H 124.33 8.16339 3.92049 0
M  V30 63590 H 124.371 4.00505 4.3174 0
M  V30 63591 H 123.99 -0.581337 2.76658 0
M  V30 63592 H 123.801 -1.30811 1.14888 0
M  V30 63593 H 123.693 2.08295 -1.75542 0
M  V30 63594 P 122.459 8.7635 1.60911 0
M  V30 63595 O 122.239 10.1388 1.11561 0
M  V30 63596 O 121.669 8.36503 2.79617 0
M  V30 63597 O 122.209 7.71806 0.42951 0
M  V30 63598 C 123.149 7.67148 -0.673689 0
M  V30 63599 C 122.419 7.33374 -1.95559 0
M  V30 63600 O 122.209 5.88721 -2.00726 0
M  V30 63601 C 121.019 7.92526 -2.10483 0
M  V30 63602 O 120.629 8.02971 -3.47653 0
M  V30 63603 C 120.139 6.89602 -1.41652 0
M  V30 63604 C 120.849 5.59201 -1.75185 0
M  V30 63605 N 120.799 4.58235 -0.662552 0
M  V30 63606 H 123.638 8.65116 -0.777161 0
M  V30 63607 H 123.91 6.90173 -0.474152 0
M  V30 63608 H 123.042 7.66548 -2.79458 0
M  V30 63609 P 119.079 8.03563 -3.84925 0
M  V30 63610 O 118.859 8.85821 -5.0569 0
M  V30 63611 O 118.289 8.41101 -2.65469 0
M  V30 63612 O 118.829 6.4965 -4.18908 0
M  V30 63613 C 119.769 5.81037 -5.05421 0
M  V30 63614 C 119.039 4.78366 -5.89277 0
M  V30 63615 O 118.829 3.58302 -5.08433 0
M  V30 63616 C 117.639 5.17448 -6.36119 0
M  V30 63617 O 117.249 4.45271 -7.53232 0
M  V30 63618 C 116.759 4.74639 -5.19936 0
M  V30 63619 C 117.469 3.49432 -4.70418 0
M  V30 63620 N 117.419 3.32099 -3.22613 0
M  V30 63621 H 120.258 6.54213 -5.71376 0
M  V30 63622 H 120.53 5.30936 -4.43503 0
M  V30 63623 H 119.662 4.55889 -6.76652 0
M  V30 63624 H 117.007 2.61715 -5.17932 0
M  V30 63625 H 116.727 5.52155 -4.41878 0
M  V30 63626 H 115.736 4.51981 -5.53374 0
M  V30 63627 H 117.57 6.25124 -6.55234 0
M  V30 63628 P 115.699 4.23843 -7.83734 0
M  V30 63629 O 115.479 4.19407 -9.29784 0
M  V30 63630 O 114.909 5.24426 -7.09156 0
M  V30 63631 O 115.449 2.7935 -7.20758 0
M  V30 63632 C 116.389 1.7299 -7.50419 0
M  V30 63633 C 115.659 0.406376 -7.57911 0
M  V30 63634 O 115.449 -0.0897726 -6.21935 0
M  V30 63635 C 114.259 0.447224 -8.1878 0
M  V30 63636 O 113.869 -0.825065 -8.71101 0
M  V30 63637 C 113.379 0.783801 -6.99623 0
M  V30 63638 C 114.089 0.0619192 -5.85967 0
M  V30 63639 N 114.039 0.790462 -4.56202 0
M  V30 63640 H 116.878 1.93423 -8.4679 0
M  V30 63641 H 117.15 1.68852 -6.70877 0
M  V30 63642 H 116.282 -0.289041 -8.15388 0
M  V30 63643 H 113.627 -0.927006 -5.72848 0
M  V30 63644 H 113.347 1.86973 -6.82036 0
M  V30 63645 H 112.356 0.403953 -7.13357 0
M  V30 63646 H 114.19 1.20599 -8.97534 0
M  V30 63647 P 112.319 -1.17771 -8.83182 0
M  V30 63648 O 112.099 -2.07206 -9.98732 0
M  V30 63649 O 111.529 0.0743816 -8.81969 0
M  V30 63650 O 112.069 -1.97652 -7.47304 0
M  V30 63651 C 113.009 -3.01055 -7.08599 0
M  V30 63652 C 112.279 -4.12613 -6.37049 0
M  V30 63653 O 112.069 -3.72827 -4.97879 0
M  V30 63654 C 110.879 -4.45719 -6.88164 0
M  V30 63655 O 110.489 -5.7877 -6.5624 0
M  V30 63656 C 109.999 -3.47768 -6.11991 0
M  V30 63657 C 110.709 -3.39356 -4.77615 0
M  V30 63658 N 110.659 -2.04571 -4.15244 0
M  V30 63659 C 110.509 -1.98587 -2.78314 0
M  V30 63660 O 110.419 -2.98134 -2.08835 0
M  V30 63661 N 110.469 -0.714467 -2.24925 0
M  V30 63662 C 110.559 0.470001 -2.94169 0
M  V30 63663 C 110.709 0.312541 -4.36783 0
M  V30 63664 C 110.759 -0.914512 -4.92583 0
M  V30 63665 H 113.5 -3.41169 -7.98575 0
M  V30 63666 H 113.769 -2.58295 -6.41556 0
M  V30 63667 H 112.902 -5.02657 -6.42673 0
M  V30 63668 H 110.247 -4.11637 -4.08885 0
M  V30 63669 H 109.968 -2.49626 -6.61679 0
M  V30 63670 H 108.976 -3.86566 -6.00778 0
M  V30 63671 H 110.81 -4.29943 -7.96918 0
M  V30 63672 H 110.881 -1.00937 -6.00374 0
M  V30 63673 P 108.939 -6.144 -6.45285 0
M  V30 63674 O 108.719 -7.54673 -6.86199 0
M  V30 63675 O 108.149 -5.12391 -7.179 0
M  V30 63676 O 108.689 -5.99158 -4.88404 0
M  V30 63677 C 109.629 -6.60234 -3.96415 0
M  V30 63678 C 108.899 -7.08259 -2.72856 0
M  V30 63679 O 108.689 -5.9427 -1.83651 0
M  V30 63680 C 107.499 -7.64886 -2.9555 0
M  V30 63681 O 107.109 -8.53963 -1.90717 0
M  V30 63682 C 106.619 -6.4116 -2.90739 0
M  V30 63683 C 107.329 -5.55375 -1.86963 0
M  V30 63684 N 107.279 -4.09664 -2.15742 0
M  V30 63685 H 110.118 -7.45574 -4.45629 0
M  V30 63686 H 110.39 -5.86232 -3.67314 0
M  V30 63687 H 109.522 -7.84412 -2.24479 0
M  V30 63688 P 105.559 -8.7635 -1.60911 0
M  V30 63689 O 105.339 -10.1388 -1.11561 0
M  V30 63690 O 104.769 -8.36503 -2.79617 0
M  V30 63691 O 105.309 -7.71806 -0.42951 0
M  V30 63692 C 106.249 -7.67148 0.673689 0
M  V30 63693 C 105.519 -7.33374 1.95559 0
M  V30 63694 O 105.309 -5.88721 2.00726 0
M  V30 63695 C 104.119 -7.92526 2.10483 0
M  V30 63696 O 103.729 -8.02971 3.47653 0
M  V30 63697 C 103.239 -6.89602 1.41652 0
M  V30 63698 C 103.949 -5.59201 1.75185 0
M  V30 63699 N 103.899 -4.58235 0.662552 0
M  V30 63700 H 106.738 -8.65116 0.777161 0
M  V30 63701 H 107.01 -6.90173 0.474152 0
M  V30 63702 H 106.142 -7.66548 2.79458 0
M  V30 63703 P 102.179 -8.03563 3.84925 0
M  V30 63704 O 101.959 -8.85821 5.0569 0
M  V30 63705 O 101.389 -8.41101 2.65469 0
M  V30 63706 O 101.929 -6.4965 4.18908 0
M  V30 63707 C 102.869 -5.81037 5.05421 0
M  V30 63708 C 102.139 -4.78366 5.89277 0
M  V30 63709 O 101.929 -3.58302 5.08433 0
M  V30 63710 C 100.739 -5.17448 6.36119 0
M  V30 63711 O 100.349 -4.45271 7.53232 0
M  V30 63712 C 99.8594 -4.74639 5.19936 0
M  V30 63713 C 100.569 -3.49432 4.70418 0
M  V30 63714 N 100.519 -3.32099 3.22613 0
M  V30 63715 H 103.358 -6.54213 5.71376 0
M  V30 63716 H 103.63 -5.30936 4.43503 0
M  V30 63717 H 102.762 -4.55889 6.76652 0
M  V30 63718 H 100.107 -2.61715 5.17932 0
M  V30 63719 H 99.8274 -5.52155 4.41878 0
M  V30 63720 H 98.8364 -4.51981 5.53374 0
M  V30 63721 H 100.67 -6.25124 6.55234 0
M  V30 63722 P 98.7994 -4.23843 7.83734 0
M  V30 63723 O 98.5794 -4.19407 9.29784 0
M  V30 63724 O 98.0094 -5.24426 7.09156 0
M  V30 63725 O 98.5494 -2.7935 7.20758 0
M  V30 63726 C 99.4894 -1.7299 7.50419 0
M  V30 63727 C 98.7594 -0.406376 7.57911 0
M  V30 63728 O 98.5494 0.0897726 6.21935 0
M  V30 63729 C 97.3594 -0.447224 8.1878 0
M  V30 63730 O 96.9694 0.825065 8.71101 0
M  V30 63731 C 96.4794 -0.783801 6.99623 0
M  V30 63732 C 97.1894 -0.0619192 5.85967 0
M  V30 63733 N 97.1394 -0.790462 4.56202 0
M  V30 63734 H 99.9784 -1.93423 8.4679 0
M  V30 63735 H 100.25 -1.68852 6.70877 0
M  V30 63736 H 99.3824 0.289041 8.15388 0
M  V30 63737 H 96.7274 0.927006 5.72848 0
M  V30 63738 H 96.4474 -1.86973 6.82036 0
M  V30 63739 H 95.4564 -0.403953 7.13357 0
M  V30 63740 H 97.2904 -1.20599 8.97534 0
M  V30 63741 P 95.4195 1.17771 8.83182 0
M  V30 63742 O 95.1995 2.07206 9.98732 0
M  V30 63743 O 94.6295 -0.0743816 8.81969 0
M  V30 63744 O 95.1695 1.97652 7.47304 0
M  V30 63745 C 96.1095 3.01133 7.08783 0
M  V30 63746 C 95.3795 4.12613 6.37049 0
M  V30 63747 O 95.1695 3.72827 4.97879 0
M  V30 63748 C 93.9795 4.45085 6.88694 0
M  V30 63749 O 93.5895 5.7877 6.5624 0
M  V30 63750 C 93.0995 3.47817 6.12078 0
M  V30 63751 C 93.8095 3.39414 4.77697 0
M  V30 63752 N 93.7595 2.04615 4.15333 0
M  V30 63753 H 96.5985 3.41248 7.98759 0
M  V30 63754 H 96.8705 2.5837 6.41742 0
M  V30 63755 H 96.0025 5.02657 6.42673 0
M  V30 63756 P 92.0395 6.144 6.45285 0
M  V30 63757 O 91.8195 7.54673 6.86199 0
M  V30 63758 O 91.2495 5.12391 7.179 0
M  V30 63759 O 91.7895 5.99158 4.88404 0
M  V30 63760 C 92.7295 6.60062 3.96313 0
M  V30 63761 C 91.9995 7.08259 2.72856 0
M  V30 63762 O 91.7895 5.9427 1.83651 0
M  V30 63763 C 90.5995 7.65087 2.94749 0
M  V30 63764 O 90.2095 8.53963 1.90717 0
M  V30 63765 C 89.7195 6.41069 2.90698 0
M  V30 63766 C 90.4295 5.5528 1.86931 0
M  V30 63767 N 90.3795 4.09575 2.15696 0
M  V30 63768 C 90.2295 3.24249 1.08435 0
M  V30 63769 O 90.1395 3.63946 -0.0628747 0
M  V30 63770 N 90.1895 1.90009 1.39973 0
M  V30 63771 C 90.2795 1.34884 2.65614 0
M  V30 63772 C 90.4295 2.3145 3.71736 0
M  V30 63773 C 90.4795 3.63518 3.44754 0
M  V30 63774 H 93.2205 7.45402 4.45526 0
M  V30 63775 H 93.4895 5.86062 3.67208 0
M  V30 63776 H 92.6225 7.84412 2.24479 0
M  V30 63777 H 89.9675 5.73358 0.888409 0
M  V30 63778 H 89.6885 5.90877 3.88583 0
M  V30 63779 H 88.6965 6.65867 2.58821 0
M  V30 63780 H 90.5305 8.16248 3.92006 0
M  V30 63781 H 90.6015 4.34551 4.26383 0
M  V30 63782 P 88.6595 8.7635 1.60911 0
M  V30 63783 O 88.4395 10.1388 1.11561 0
M  V30 63784 O 87.8695 8.36503 2.79617 0
M  V30 63785 O 88.4095 7.71806 0.42951 0
M  V30 63786 C 89.3495 7.66948 -0.673514 0
M  V30 63787 C 88.6195 7.33374 -1.95559 0
M  V30 63788 O 88.4095 5.88721 -2.00726 0
M  V30 63789 C 87.2195 7.92218 -2.1125 0
M  V30 63790 O 86.8295 8.02971 -3.47653 0
M  V30 63791 C 86.3395 6.89504 -1.41631 0
M  V30 63792 C 87.0495 5.59106 -1.75155 0
M  V30 63793 N 86.9995 4.58136 -0.662409 0
M  V30 63794 C 86.8495 3.26059 -1.02863 0
M  V30 63795 O 86.7595 2.90743 -2.19009 0
M  V30 63796 N 86.8095 2.35995 0.0155585 0
M  V30 63797 C 86.8995 2.65248 1.35603 0
M  V30 63798 C 87.0495 4.05747 1.64698 0
M  V30 63799 C 87.0995 4.96734 0.652411 0
M  V30 63800 H 89.8405 8.64917 -0.776982 0
M  V30 63801 H 90.1095 6.89974 -0.474015 0
M  V30 63802 H 89.2425 7.66548 -2.79458 0
M  V30 63803 H 86.5875 5.16076 -2.65138 0
M  V30 63804 H 86.3085 7.06433 -0.329384 0
M  V30 63805 H 85.3165 6.90829 -1.81996 0
M  V30 63806 H 87.1505 8.90774 -1.62639 0
M  V30 63807 H 87.2215 6.02181 0.895285 0
M  V30 63808 P 85.2795 8.03563 -3.84925 0
M  V30 63809 O 85.0595 8.85821 -5.0569 0
M  V30 63810 O 84.4895 8.41101 -2.65469 0
M  V30 63811 O 85.0295 6.4965 -4.18908 0
M  V30 63812 C 85.9695 5.80886 -5.05289 0
M  V30 63813 C 85.2395 4.78366 -5.89277 0
M  V30 63814 O 85.0295 3.58302 -5.08433 0
M  V30 63815 C 83.8395 5.16748 -6.36559 0
M  V30 63816 O 83.4495 4.45271 -7.53232 0
M  V30 63817 C 82.9595 4.74572 -5.19863 0
M  V30 63818 C 83.6695 3.49373 -4.70338 0
M  V30 63819 N 83.6195 3.31704 -3.22876 0
M  V30 63820 C 83.4695 2.03326 -2.74871 0
M  V30 63821 O 83.3795 1.06486 -3.48076 0
M  V30 63822 N 83.4295 1.91838 -1.37456 0
M  V30 63823 C 83.5195 2.94295 -0.462035 0
M  V30 63824 C 83.6695 4.25064 -1.05249 0
M  V30 63825 C 83.7195 4.40214 -2.39192 0
M  V30 63826 H 86.4605 6.54063 -5.71245 0
M  V30 63827 H 86.7295 5.30339 -4.43905 0
M  V30 63828 H 85.8625 4.55889 -6.76652 0
M  V30 63829 H 83.2075 2.6167 -5.17842 0
M  V30 63830 H 82.9285 5.52155 -4.41878 0
M  V30 63831 H 81.9365 4.51918 -5.53297 0
M  V30 63832 H 83.7705 6.25055 -6.55162 0
M  V30 63833 H 83.8415 5.39798 -2.81523 0
M  V30 63834 P 81.8995 4.23843 -7.83734 0
M  V30 63835 O 81.6795 4.19407 -9.29784 0
M  V30 63836 O 81.1095 5.24426 -7.09156 0
M  V30 63837 O 81.6495 2.7935 -7.20758 0
M  V30 63838 C 82.5895 1.7299 -7.50419 0
M  V30 63839 C 81.8595 0.406376 -7.57911 0
M  V30 63840 O 81.6495 -0.0897726 -6.21935 0
M  V30 63841 C 80.4595 0.447224 -8.1878 0
M  V30 63842 O 80.0695 -0.825065 -8.71101 0
M  V30 63843 C 79.5795 0.783801 -6.99623 0
M  V30 63844 C 80.2895 0.0619192 -5.85967 0
M  V30 63845 N 80.2395 0.7859 -4.56281 0
M  V30 63846 H 83.0785 1.93423 -8.4679 0
M  V30 63847 H 83.3505 1.68181 -6.71046 0
M  V30 63848 H 82.4825 -0.289041 -8.15388 0
M  V30 63849 P 78.5196 -1.17771 -8.83182 0
M  V30 63850 O 78.2996 -2.07206 -9.98732 0
M  V30 63851 O 77.7296 0.0743816 -8.81969 0
M  V30 63852 O 78.2696 -1.97652 -7.47304 0
M  V30 63853 C 79.2096 -3.01133 -7.08783 0
M  V30 63854 C 78.4796 -4.12613 -6.37049 0
M  V30 63855 O 78.2696 -3.72827 -4.97879 0
M  V30 63856 C 77.0796 -4.45085 -6.88694 0
M  V30 63857 O 76.6896 -5.7877 -6.5624 0
M  V30 63858 C 76.1996 -3.47817 -6.12078 0
M  V30 63859 C 76.9096 -3.39414 -4.77697 0
M  V30 63860 N 76.8596 -2.04199 -4.15538 0
M  V30 63861 H 79.6986 -3.41248 -7.98759 0
M  V30 63862 H 79.9706 -2.57728 -6.42 0
M  V30 63863 H 79.1026 -5.02657 -6.42673 0
M  V30 63864 H 76.4476 -4.11708 -4.08956 0
M  V30 63865 H 76.1676 -2.49626 -6.61679 0
M  V30 63866 H 75.1766 -3.8662 -6.00862 0
M  V30 63867 H 77.0106 -4.29991 -7.97006 0
M  V30 63868 P 75.1396 -6.144 -6.45285 0
M  V30 63869 O 74.9196 -7.54673 -6.86199 0
M  V30 63870 O 74.3496 -5.12391 -7.179 0
M  V30 63871 O 74.8896 -5.99158 -4.88404 0
M  V30 63872 C 75.8296 -6.60234 -3.96415 0
M  V30 63873 C 75.0996 -7.08259 -2.72856 0
M  V30 63874 O 74.8896 -5.9427 -1.83651 0
M  V30 63875 C 73.6996 -7.64886 -2.9555 0
M  V30 63876 O 73.3096 -8.53963 -1.90717 0
M  V30 63877 C 72.8196 -6.4116 -2.90739 0
M  V30 63878 C 73.5296 -5.55375 -1.86963 0
M  V30 63879 N 73.4796 -4.09448 -2.16152 0
M  V30 63880 H 76.3186 -7.45574 -4.45629 0
M  V30 63881 H 76.5906 -5.85864 -3.679 0
M  V30 63882 H 75.7226 -7.84412 -2.24479 0
M  V30 63883 H 73.0676 -5.73457 -0.888562 0
M  V30 63884 H 72.7876 -5.90877 -3.88583 0
M  V30 63885 H 71.7966 -6.6596 -2.58858 0
M  V30 63886 H 73.6306 -8.16339 -3.92049 0
M  V30 63887 P 71.7596 -8.7635 -1.60911 0
M  V30 63888 O 71.5396 -10.1388 -1.11561 0
M  V30 63889 O 70.9696 -8.36503 -2.79617 0
M  V30 63890 O 71.5096 -7.71806 -0.42951 0
M  V30 63891 C 72.4496 -7.67148 0.673689 0
M  V30 63892 C 71.7196 -7.33374 1.95559 0
M  V30 63893 O 71.5096 -5.88721 2.00726 0
M  V30 63894 C 70.3196 -7.92526 2.10483 0
M  V30 63895 O 69.9296 -8.02971 3.47653 0
M  V30 63896 C 69.4396 -6.89602 1.41652 0
M  V30 63897 C 70.1496 -5.59201 1.75185 0
M  V30 63898 N 70.0996 -4.58235 0.662552 0
M  V30 63899 H 72.9386 -8.65116 0.777161 0
M  V30 63900 H 73.2106 -6.90173 0.474152 0
M  V30 63901 H 72.3426 -7.66548 2.79458 0
M  V30 63902 P 68.3796 -8.03563 3.84925 0
M  V30 63903 O 68.1596 -8.85821 5.0569 0
M  V30 63904 O 67.5896 -8.41101 2.65469 0
M  V30 63905 O 68.1296 -6.4965 4.18908 0
M  V30 63906 C 69.0696 -5.81037 5.05421 0
M  V30 63907 C 68.3396 -4.78366 5.89277 0
M  V30 63908 O 68.1296 -3.58302 5.08433 0
M  V30 63909 C 66.9396 -5.17448 6.36119 0
M  V30 63910 O 66.5496 -4.45271 7.53232 0
M  V30 63911 C 66.0596 -4.74639 5.19936 0
M  V30 63912 C 66.7696 -3.49432 4.70418 0
M  V30 63913 N 66.7196 -3.31776 3.22945 0
M  V30 63914 H 69.5586 -6.54213 5.71376 0
M  V30 63915 H 69.8306 -5.30492 4.44033 0
M  V30 63916 H 68.9626 -4.55889 6.76652 0
M  V30 63917 P 64.9996 -4.23843 7.83734 0
M  V30 63918 O 64.7796 -4.19407 9.29784 0
M  V30 63919 O 64.2096 -5.24426 7.09156 0
M  V30 63920 O 64.7496 -2.7935 7.20758 0
M  V30 63921 C 65.6896 -1.7299 7.50419 0
M  V30 63922 C 64.9596 -0.406376 7.57911 0
M  V30 63923 O 64.7496 0.0897726 6.21935 0
M  V30 63924 C 63.5596 -0.447224 8.1878 0
M  V30 63925 O 63.1696 0.825065 8.71101 0
M  V30 63926 C 62.6796 -0.783801 6.99623 0
M  V30 63927 C 63.3896 -0.0619192 5.85967 0
M  V30 63928 N 63.3396 -0.790462 4.56202 0
M  V30 63929 H 66.1786 -1.93423 8.4679 0
M  V30 63930 H 66.4506 -1.68852 6.70877 0
M  V30 63931 H 65.5826 0.289041 8.15388 0
M  V30 63932 H 62.9276 0.927006 5.72848 0
M  V30 63933 H 62.6476 -1.86973 6.82036 0
M  V30 63934 H 61.6566 -0.403953 7.13357 0
M  V30 63935 H 63.4906 -1.20599 8.97534 0
M  V30 63936 P 61.6197 1.17771 8.83182 0
M  V30 63937 O 61.3997 2.07206 9.98732 0
M  V30 63938 O 60.8297 -0.0743816 8.81969 0
M  V30 63939 O 61.3697 1.97652 7.47304 0
M  V30 63940 C 62.3097 3.01133 7.08783 0
M  V30 63941 C 61.5797 4.12613 6.37049 0
M  V30 63942 O 61.3697 3.72827 4.97879 0
M  V30 63943 C 60.1797 4.45085 6.88694 0
M  V30 63944 O 59.7897 5.7877 6.5624 0
M  V30 63945 C 59.2997 3.47817 6.12078 0
M  V30 63946 C 60.0097 3.39414 4.77697 0
M  V30 63947 N 59.9597 2.04615 4.15333 0
M  V30 63948 H 62.7987 3.41248 7.98759 0
M  V30 63949 H 63.0707 2.5837 6.41742 0
M  V30 63950 H 62.2027 5.02657 6.42673 0
M  V30 63951 P 58.2397 6.144 6.45285 0
M  V30 63952 O 58.0197 7.54673 6.86199 0
M  V30 63953 O 57.4497 5.12391 7.179 0
M  V30 63954 O 57.9897 5.99158 4.88404 0
M  V30 63955 C 58.9297 6.60062 3.96313 0
M  V30 63956 C 58.1997 7.08259 2.72856 0
M  V30 63957 O 57.9897 5.9427 1.83651 0
M  V30 63958 C 56.7997 7.65087 2.94749 0
M  V30 63959 O 56.4097 8.53963 1.90717 0
M  V30 63960 C 55.9197 6.41069 2.90698 0
M  V30 63961 C 56.6297 5.5528 1.86931 0
M  V30 63962 N 56.5797 4.09575 2.15696 0
M  V30 63963 C 56.4297 3.24249 1.08435 0
M  V30 63964 O 56.3397 3.63946 -0.0628747 0
M  V30 63965 N 56.3897 1.90009 1.39973 0
M  V30 63966 C 56.4797 1.34884 2.65614 0
M  V30 63967 O 56.4297 0.123716 2.81728 0
M  V30 63968 C 56.6297 2.3145 3.71736 0
M  V30 63969 C 56.7397 1.75913 5.10438 0
M  V30 63970 C 56.6797 3.63518 3.44754 0
M  V30 63971 H 59.4207 7.45402 4.45526 0
M  V30 63972 H 59.6897 5.86062 3.67208 0
M  V30 63973 H 58.8227 7.84412 2.24479 0
M  V30 63974 H 56.1677 5.73358 0.888409 0
M  V30 63975 H 55.8887 5.90877 3.88583 0
M  V30 63976 H 54.8967 6.65867 2.58821 0
M  V30 63977 H 56.7307 8.16248 3.92006 0
M  V30 63978 H 56.8017 4.34551 4.26383 0
M  V30 63979 H 55.7717 1.85471 5.61775 0
M  V30 63980 H 57.5087 2.31364 5.66257 0
M  V30 63981 H 57.0207 0.695936 5.05229 0
M  V30 63982 H 56.2847 1.26277 0.63625 0
M  V30 63983 P 54.8597 8.7635 1.60911 0
M  V30 63984 O 54.6397 10.1388 1.11561 0
M  V30 63985 O 54.0697 8.36503 2.79617 0
M  V30 63986 O 54.6097 7.71806 0.42951 0
M  V30 63987 C 55.5497 7.67148 -0.673689 0
M  V30 63988 C 54.8197 7.33374 -1.95559 0
M  V30 63989 O 54.6097 5.88721 -2.00726 0
M  V30 63990 C 53.4197 7.92526 -2.10483 0
M  V30 63991 O 53.0297 8.02971 -3.47653 0
M  V30 63992 C 52.5397 6.89602 -1.41652 0
M  V30 63993 C 53.2497 5.59201 -1.75185 0
M  V30 63994 N 53.1997 4.58235 -0.662552 0
M  V30 63995 H 56.0387 8.65116 -0.777161 0
M  V30 63996 H 56.3107 6.90173 -0.474152 0
M  V30 63997 H 55.4427 7.66548 -2.79458 0
M  V30 63998 P 51.4797 8.03563 -3.84925 0
M  V30 63999 O 51.2597 8.85821 -5.0569 0
M  V30 64000 O 50.6897 8.41101 -2.65469 0
M  V30 64001 O 51.2297 6.4965 -4.18908 0
M  V30 64002 C 52.1697 5.81037 -5.05421 0
M  V30 64003 C 51.4397 4.78366 -5.89277 0
M  V30 64004 O 51.2297 3.58302 -5.08433 0
M  V30 64005 C 50.0397 5.17448 -6.36119 0
M  V30 64006 O 49.6497 4.45271 -7.53232 0
M  V30 64007 C 49.1597 4.74639 -5.19936 0
M  V30 64008 C 49.8697 3.49432 -4.70418 0
M  V30 64009 N 49.8197 3.31776 -3.22945 0
M  V30 64010 H 52.6587 6.54213 -5.71376 0
M  V30 64011 H 52.9307 5.30492 -4.44033 0
M  V30 64012 H 52.0627 4.55889 -6.76652 0
M  V30 64013 P 48.0997 4.23843 -7.83734 0
M  V30 64014 O 47.8797 4.19407 -9.29784 0
M  V30 64015 O 47.3097 5.24426 -7.09156 0
M  V30 64016 O 47.8497 2.7935 -7.20758 0
M  V30 64017 C 48.7897 1.72945 -7.50224 0
M  V30 64018 C 48.0597 0.406376 -7.57911 0
M  V30 64019 O 47.8497 -0.0897726 -6.21935 0
M  V30 64020 C 46.6597 0.438983 -8.18724 0
M  V30 64021 O 46.2697 -0.825065 -8.71101 0
M  V30 64022 C 45.7797 0.783689 -6.99524 0
M  V30 64023 C 46.4897 0.0619086 -5.85867 0
M  V30 64024 N 46.4397 0.78573 -4.56183 0
M  V30 64025 C 46.2897 0.0292889 -3.41887 0
M  V30 64026 O 46.1997 -1.18445 -3.4419 0
M  V30 64027 N 46.2497 0.744061 -2.23964 0
M  V30 64028 C 46.3397 2.10932 -2.10362 0
M  V30 64029 O 46.2897 2.64117 -0.98825 0
M  V30 64030 C 46.4897 2.8202 -3.34994 0
M  V30 64031 C 46.5997 4.31095 -3.25037 0
M  V30 64032 C 46.5397 2.15547 -4.52261 0
M  V30 64033 H 49.2807 1.93379 -8.46595 0
M  V30 64034 H 49.5497 1.68132 -6.70852 0
M  V30 64035 H 48.6827 -0.289041 -8.15388 0
M  V30 64036 H 46.0277 -0.926847 -5.72749 0
M  V30 64037 H 45.7487 1.86973 -6.82036 0
M  V30 64038 H 44.7567 0.403896 -7.13257 0
M  V30 64039 H 46.5907 1.20585 -8.97435 0
M  V30 64040 H 46.6617 2.71231 -5.45042 0
M  V30 64041 H 45.6317 4.76966 -3.49992 0
M  V30 64042 H 47.3687 4.67047 -3.95024 0
M  V30 64043 H 46.8807 4.58996 -2.22312 0
M  V30 64044 H 46.1447 0.214893 -1.39758 0
M  V30 64045 P 44.7198 -1.17771 -8.83182 0
M  V30 64046 O 44.4998 -2.07206 -9.98732 0
M  V30 64047 O 43.9298 0.0743816 -8.81969 0
M  V30 64048 O 44.4698 -1.97652 -7.47304 0
M  V30 64049 C 45.4098 -3.01133 -7.08783 0
M  V30 64050 C 44.6798 -4.12613 -6.37049 0
M  V30 64051 O 44.4698 -3.72827 -4.97879 0
M  V30 64052 C 43.2798 -4.45085 -6.88694 0
M  V30 64053 O 42.8898 -5.7877 -6.5624 0
M  V30 64054 C 42.3998 -3.47817 -6.12078 0
M  V30 64055 C 43.1098 -3.39414 -4.77697 0
M  V30 64056 N 43.0598 -2.04615 -4.15333 0
M  V30 64057 H 45.8988 -3.41248 -7.98759 0
M  V30 64058 H 46.1708 -2.5837 -6.41742 0
M  V30 64059 H 45.3028 -5.02657 -6.42673 0
M  V30 64060 P 41.3398 -6.144 -6.45285 0
M  V30 64061 O 41.1198 -7.54673 -6.86199 0
M  V30 64062 O 40.5498 -5.12391 -7.179 0
M  V30 64063 O 41.0898 -5.99158 -4.88404 0
M  V30 64064 C 42.0298 -6.60234 -3.96415 0
M  V30 64065 C 41.2998 -7.08259 -2.72856 0
M  V30 64066 O 41.0898 -5.9427 -1.83651 0
M  V30 64067 C 39.8998 -7.64886 -2.9555 0
M  V30 64068 O 39.5098 -8.53963 -1.90717 0
M  V30 64069 C 39.0198 -6.4116 -2.90739 0
M  V30 64070 C 39.7298 -5.55375 -1.86963 0
M  V30 64071 N 39.6798 -4.09448 -2.16152 0
M  V30 64072 C 39.7598 -3.46824 -3.37593 0
M  V30 64073 N 39.6898 -2.17422 -3.29777 0
M  V30 64074 C 39.5398 -1.93065 -1.94427 0
M  V30 64075 C 39.4098 -0.738053 -1.20141 0
M  V30 64076 N 39.3998 0.474256 -1.74676 0
M  V30 64077 N 39.2898 -0.850049 0.13045 0
M  V30 64078 C 39.2998 -2.06169 0.676992 0
M  V30 64079 N 39.4198 -3.23842 0.101312 0
M  V30 64080 C 39.5398 -3.09402 -1.23122 0
M  V30 64081 H 42.5188 -7.45574 -4.45629 0
M  V30 64082 H 42.7908 -5.85864 -3.679 0
M  V30 64083 H 41.9228 -7.84412 -2.24479 0
M  V30 64084 H 39.2678 -5.73457 -0.888562 0
M  V30 64085 H 38.9878 -5.90877 -3.88583 0
M  V30 64086 H 37.9968 -6.6596 -2.58858 0
M  V30 64087 H 39.8308 -8.16339 -3.92049 0
M  V30 64088 H 39.8718 -4.00505 -4.3174 0
M  V30 64089 H 39.4908 0.581337 -2.76658 0
M  V30 64090 H 39.3018 1.30811 -1.14888 0
M  V30 64091 H 39.1938 -2.08295 1.75542 0
M  V30 64092 P 37.9598 -8.7635 -1.60911 0
M  V30 64093 O 37.7398 -10.1388 -1.11561 0
M  V30 64094 O 37.1698 -8.36503 -2.79617 0
M  V30 64095 O 37.7098 -7.71806 -0.42951 0
M  V30 64096 C 38.6498 -7.67148 0.673689 0
M  V30 64097 C 37.9198 -7.33374 1.95559 0
M  V30 64098 O 37.7098 -5.88721 2.00726 0
M  V30 64099 C 36.5198 -7.92526 2.10483 0
M  V30 64100 O 36.1298 -8.02971 3.47653 0
M  V30 64101 C 35.6398 -6.89602 1.41652 0
M  V30 64102 C 36.3498 -5.59201 1.75185 0
M  V30 64103 N 36.2998 -4.58235 0.662552 0
M  V30 64104 H 39.1388 -8.65116 0.777161 0
M  V30 64105 H 39.4108 -6.90173 0.474152 0
M  V30 64106 H 38.5428 -7.66548 2.79458 0
M  V30 64107 P 34.5798 -8.03563 3.84925 0
M  V30 64108 O 34.3598 -8.85821 5.0569 0
M  V30 64109 O 33.7898 -8.41101 2.65469 0
M  V30 64110 O 34.3298 -6.4965 4.18908 0
M  V30 64111 C 35.2698 -5.81037 5.05421 0
M  V30 64112 C 34.5398 -4.78366 5.89277 0
M  V30 64113 O 34.3298 -3.58302 5.08433 0
M  V30 64114 C 33.1398 -5.17448 6.36119 0
M  V30 64115 O 32.7498 -4.45271 7.53232 0
M  V30 64116 C 32.2598 -4.74639 5.19936 0
M  V30 64117 C 32.9698 -3.49432 4.70418 0
M  V30 64118 N 32.9198 -3.31776 3.22945 0
M  V30 64119 H 35.7588 -6.54213 5.71376 0
M  V30 64120 H 36.0308 -5.30492 4.44033 0
M  V30 64121 H 35.1628 -4.55889 6.76652 0
M  V30 64122 P 31.1998 -4.23843 7.83734 0
M  V30 64123 O 30.9798 -4.19407 9.29784 0
M  V30 64124 O 30.4098 -5.24426 7.09156 0
M  V30 64125 O 30.9498 -2.7935 7.20758 0
M  V30 64126 C 31.8898 -1.72945 7.50224 0
M  V30 64127 C 31.1598 -0.406376 7.57911 0
M  V30 64128 O 30.9498 0.0897726 6.21935 0
M  V30 64129 C 29.7598 -0.438983 8.18724 0
M  V30 64130 O 29.3698 0.825065 8.71101 0
M  V30 64131 C 28.8798 -0.783689 6.99524 0
M  V30 64132 C 29.5898 -0.0619086 5.85867 0
M  V30 64133 N 29.5398 -0.78573 4.56183 0
M  V30 64134 C 29.3898 -0.0292889 3.41887 0
M  V30 64135 O 29.2998 1.18445 3.4419 0
M  V30 64136 N 29.3498 -0.744061 2.23964 0
M  V30 64137 C 29.4398 -2.10932 2.10362 0
M  V30 64138 C 29.5898 -2.8202 3.34994 0
M  V30 64139 C 29.6398 -2.15547 4.52261 0
M  V30 64140 H 32.3808 -1.93379 8.46595 0
M  V30 64141 H 32.6498 -1.68132 6.70852 0
M  V30 64142 H 31.7828 0.289041 8.15388 0
M  V30 64143 H 29.1278 0.926847 5.72749 0
M  V30 64144 H 28.8488 -1.86973 6.82036 0
M  V30 64145 H 27.8568 -0.403896 7.13257 0
M  V30 64146 H 29.6908 -1.20585 8.97435 0
M  V30 64147 H 29.7618 -2.71231 5.45042 0
M  V30 64148 P 27.8199 1.17771 8.83182 0
M  V30 64149 O 27.5999 2.07206 9.98732 0
M  V30 64150 O 27.0299 -0.0743816 8.81969 0
M  V30 64151 O 27.5699 1.97652 7.47304 0
M  V30 64152 C 28.5099 3.01055 7.08599 0
M  V30 64153 C 27.7799 4.12613 6.37049 0
M  V30 64154 O 27.5699 3.72827 4.97879 0
M  V30 64155 C 26.3799 4.45719 6.88164 0
M  V30 64156 O 25.9899 5.7877 6.5624 0
M  V30 64157 C 25.4999 3.47768 6.11991 0
M  V30 64158 C 26.2099 3.39356 4.77615 0
M  V30 64159 N 26.1599 2.04571 4.15244 0
M  V30 64160 C 26.0099 1.98587 2.78314 0
M  V30 64161 O 25.9199 2.98134 2.08835 0
M  V30 64162 N 25.9699 0.714467 2.24925 0
M  V30 64163 C 26.0599 -0.470001 2.94169 0
M  V30 64164 O 26.0099 -1.55587 2.35195 0
M  V30 64165 C 26.2099 -0.312541 4.36783 0
M  V30 64166 C 26.3199 -1.57711 5.16352 0
M  V30 64167 C 26.2599 0.914512 4.92583 0
M  V30 64168 H 29.0009 3.41169 7.98575 0
M  V30 64169 H 29.2699 2.58295 6.41556 0
M  V30 64170 H 28.4029 5.02657 6.42673 0
M  V30 64171 H 25.7479 4.11637 4.08885 0
M  V30 64172 H 25.4689 2.49626 6.61679 0
M  V30 64173 H 24.4769 3.86566 6.00778 0
M  V30 64174 H 26.3109 4.29943 7.96918 0
M  V30 64175 H 26.3819 1.00937 6.00374 0
M  V30 64176 H 25.3519 -1.80153 5.63503 0
M  V30 64177 H 27.0889 -1.4566 5.94104 0
M  V30 64178 H 26.6009 -2.40664 4.49645 0
M  V30 64179 H 25.8649 0.647622 1.25697 0
M  V30 64180 P 24.4399 6.144 6.45285 0
M  V30 64181 O 24.2199 7.54673 6.86199 0
M  V30 64182 O 23.6499 5.12391 7.179 0
M  V30 64183 O 24.1899 5.99158 4.88404 0
M  V30 64184 C 25.1299 6.60234 3.96415 0
M  V30 64185 C 24.3999 7.08259 2.72856 0
M  V30 64186 O 24.1899 5.9427 1.83651 0
M  V30 64187 C 22.9999 7.64886 2.9555 0
M  V30 64188 O 22.6099 8.53963 1.90717 0
M  V30 64189 C 22.1199 6.4116 2.90739 0
M  V30 64190 C 22.8299 5.55375 1.86963 0
M  V30 64191 N 22.7799 4.09664 2.15742 0
M  V30 64192 H 25.6189 7.45574 4.45629 0
M  V30 64193 H 25.8909 5.86232 3.67314 0
M  V30 64194 H 25.0229 7.84412 2.24479 0
M  V30 64195 P 21.0599 8.7635 1.60911 0
M  V30 64196 O 20.8399 10.1388 1.11561 0
M  V30 64197 O 20.2699 8.36503 2.79617 0
M  V30 64198 O 20.8099 7.71806 0.42951 0
M  V30 64199 C 21.7499 7.66948 -0.673514 0
M  V30 64200 C 21.0199 7.33374 -1.95559 0
M  V30 64201 O 20.8099 5.88721 -2.00726 0
M  V30 64202 C 19.6199 7.92218 -2.1125 0
M  V30 64203 O 19.2299 8.02971 -3.47653 0
M  V30 64204 C 18.7399 6.89504 -1.41631 0
M  V30 64205 C 19.4499 5.59106 -1.75155 0
M  V30 64206 N 19.3999 4.58136 -0.662409 0
M  V30 64207 C 19.2499 3.26059 -1.02863 0
M  V30 64208 O 19.1599 2.90743 -2.19009 0
M  V30 64209 N 19.2099 2.35995 0.0155585 0
M  V30 64210 C 19.2999 2.65248 1.35603 0
M  V30 64211 O 19.2499 1.75605 2.20651 0
M  V30 64212 C 19.4499 4.05747 1.64698 0
M  V30 64213 C 19.5599 4.42345 3.09553 0
M  V30 64214 C 19.4999 4.96734 0.652411 0
M  V30 64215 H 22.2409 8.64917 -0.776982 0
M  V30 64216 H 22.5099 6.89974 -0.474015 0
M  V30 64217 H 21.6429 7.66548 -2.79458 0
M  V30 64218 H 18.9879 5.16076 -2.65138 0
M  V30 64219 H 18.7089 7.06433 -0.329384 0
M  V30 64220 H 17.7169 6.90829 -1.81996 0
M  V30 64221 H 19.5509 8.90774 -1.62639 0
M  V30 64222 H 19.6219 6.02181 0.895285 0
M  V30 64223 H 18.5919 4.80252 3.45468 0
M  V30 64224 H 20.3289 5.20015 3.22119 0
M  V30 64225 H 19.8409 3.53269 3.67833 0
M  V30 64226 H 19.1049 1.39558 -0.227499 0
M  V30 64227 P 17.6799 8.03563 -3.84925 0
M  V30 64228 O 17.4599 8.85821 -5.0569 0
M  V30 64229 O 16.8899 8.41101 -2.65469 0
M  V30 64230 O 17.4299 6.4965 -4.18908 0
M  V30 64231 C 18.3699 5.81037 -5.05421 0
M  V30 64232 C 17.6399 4.78366 -5.89277 0
M  V30 64233 O 17.4299 3.58302 -5.08433 0
M  V30 64234 C 16.2399 5.17448 -6.36119 0
M  V30 64235 O 15.8499 4.45271 -7.53232 0
M  V30 64236 C 15.3599 4.74639 -5.19936 0
M  V30 64237 C 16.0699 3.49432 -4.70418 0
M  V30 64238 N 16.0199 3.32099 -3.22613 0
M  V30 64239 C 16.0999 4.28245 -2.25527 0
M  V30 64240 N 16.0299 3.80823 -1.04874 0
M  V30 64241 C 15.8799 2.44571 -1.23535 0
M  V30 64242 C 15.7499 1.37068 -0.330675 0
M  V30 64243 N 15.7399 1.51472 0.990824 0
M  V30 64244 N 15.6299 0.138614 -0.848756 0
M  V30 64245 C 15.6399 -0.00675923 -2.16999 0
M  V30 64246 N 15.7599 0.904372 -3.11122 0
M  V30 64247 C 15.8799 2.12707 -2.56212 0
M  V30 64248 H 18.8589 6.54213 -5.71376 0
M  V30 64249 H 19.1309 5.30936 -4.43503 0
M  V30 64250 H 18.2629 4.55889 -6.76652 0
M  V30 64251 H 15.6079 2.61715 -5.17932 0
M  V30 64252 H 15.3279 5.52155 -4.41878 0
M  V30 64253 H 14.3369 4.51981 -5.53374 0
M  V30 64254 H 16.1709 6.25124 -6.55234 0
M  V30 64255 H 16.2119 5.34372 -2.47488 0
M  V30 64256 H 15.8309 2.45153 1.4078 0
M  V30 64257 H 15.6419 0.688422 1.59911 0
M  V30 64258 H 15.5339 -1.02584 -2.52346 0
M  V30 64259 P 14.2999 4.23843 -7.83734 0
M  V30 64260 O 14.0799 4.19407 -9.29784 0
M  V30 64261 O 13.5099 5.24426 -7.09156 0
M  V30 64262 O 14.0499 2.7935 -7.20758 0
M  V30 64263 C 14.9899 1.72945 -7.50224 0
M  V30 64264 C 14.2599 0.406376 -7.57911 0
M  V30 64265 O 14.0499 -0.0897726 -6.21935 0
M  V30 64266 C 12.8599 0.438983 -8.18724 0
M  V30 64267 O 12.4699 -0.825065 -8.71101 0
M  V30 64268 C 11.9799 0.783689 -6.99524 0
M  V30 64269 C 12.6899 0.0619086 -5.85867 0
M  V30 64270 N 12.6399 0.78573 -4.56183 0
M  V30 64271 C 12.4899 0.0292889 -3.41887 0
M  V30 64272 O 12.3999 -1.18445 -3.4419 0
M  V30 64273 N 12.4499 0.744061 -2.23964 0
M  V30 64274 C 12.5399 2.10932 -2.10362 0
M  V30 64275 C 12.6899 2.8202 -3.34994 0
M  V30 64276 C 12.7399 2.15547 -4.52261 0
M  V30 64277 H 15.4809 1.93379 -8.46595 0
M  V30 64278 H 15.7499 1.68132 -6.70852 0
M  V30 64279 H 14.8829 -0.289041 -8.15388 0
M  V30 64280 H 12.2279 -0.926847 -5.72749 0
M  V30 64281 H 11.9489 1.86973 -6.82036 0
M  V30 64282 H 10.9569 0.403896 -7.13257 0
M  V30 64283 H 12.7909 1.20585 -8.97435 0
M  V30 64284 H 12.8619 2.71231 -5.45042 0
M  V30 64285 P 10.92 -1.17771 -8.83182 0
M  V30 64286 O 10.7 -2.07206 -9.98732 0
M  V30 64287 O 10.13 0.0743816 -8.81969 0
M  V30 64288 O 10.67 -1.97652 -7.47304 0
M  V30 64289 C 11.61 -3.01055 -7.08599 0
M  V30 64290 C 10.88 -4.12613 -6.37049 0
M  V30 64291 O 10.67 -3.72827 -4.97879 0
M  V30 64292 C 9.47996 -4.45719 -6.88164 0
M  V30 64293 O 9.08996 -5.7877 -6.5624 0
M  V30 64294 C 8.59996 -3.47768 -6.11991 0
M  V30 64295 C 9.30996 -3.39356 -4.77615 0
M  V30 64296 N 9.25996 -2.04571 -4.15244 0
M  V30 64297 C 9.10996 -1.98587 -2.78314 0
M  V30 64298 O 9.01996 -2.98134 -2.08835 0
M  V30 64299 N 9.06996 -0.714467 -2.24925 0
M  V30 64300 C 9.15996 0.470001 -2.94169 0
M  V30 64301 O 9.10996 1.55587 -2.35195 0
M  V30 64302 C 9.30996 0.312541 -4.36783 0
M  V30 64303 C 9.41996 1.57711 -5.16352 0
M  V30 64304 C 9.35996 -0.914512 -4.92583 0
M  V30 64305 H 12.101 -3.41169 -7.98575 0
M  V30 64306 H 12.37 -2.58295 -6.41556 0
M  V30 64307 H 11.503 -5.02657 -6.42673 0
M  V30 64308 H 8.84796 -4.11637 -4.08885 0
M  V30 64309 H 8.56896 -2.49626 -6.61679 0
M  V30 64310 H 7.57696 -3.86566 -6.00778 0
M  V30 64311 H 9.41096 -4.29943 -7.96918 0
M  V30 64312 H 9.48196 -1.00937 -6.00374 0
M  V30 64313 H 8.45196 1.80153 -5.63503 0
M  V30 64314 H 10.189 1.4566 -5.94104 0
M  V30 64315 H 9.70096 2.40664 -4.49645 0
M  V30 64316 H 8.96496 -0.647622 -1.25697 0
M  V30 64317 P 7.53998 -6.144 -6.45285 0
M  V30 64318 O 7.31998 -7.54673 -6.86199 0
M  V30 64319 O 6.74998 -5.12391 -7.179 0
M  V30 64320 O 7.28998 -5.99158 -4.88404 0
M  V30 64321 C 8.22998 -6.60234 -3.96415 0
M  V30 64322 C 7.49998 -7.08259 -2.72856 0
M  V30 64323 O 7.28998 -5.9427 -1.83651 0
M  V30 64324 C 6.09998 -7.64886 -2.9555 0
M  V30 64325 O 5.70998 -8.53963 -1.90717 0
M  V30 64326 C 5.21998 -6.4116 -2.90739 0
M  V30 64327 C 5.92998 -5.55375 -1.86963 0
M  V30 64328 N 5.87998 -4.09664 -2.15742 0
M  V30 64329 H 8.71898 -7.45574 -4.45629 0
M  V30 64330 H 8.99098 -5.86232 -3.67314 0
M  V30 64331 H 8.12298 -7.84412 -2.24479 0
M  V30 64332 P 4.16 -8.7635 -1.60911 0
M  V30 64333 O 3.94 -10.1388 -1.11561 0
M  V30 64334 O 3.37 -8.36503 -2.79617 0
M  V30 64335 O 3.91 -7.71806 -0.42951 0
M  V30 64336 C 4.85 -7.67148 0.673689 0
M  V30 64337 C 4.12 -7.33374 1.95559 0
M  V30 64338 O 3.91 -5.88721 2.00726 0
M  V30 64339 C 2.72 -7.92526 2.10483 0
M  V30 64340 O 2.33 -8.02971 3.47653 0
M  V30 64341 C 1.84 -6.89602 1.41652 0
M  V30 64342 C 2.55 -5.59201 1.75185 0
M  V30 64343 N 2.5 -4.58235 0.662552 0
M  V30 64344 H 5.339 -8.65116 0.777161 0
M  V30 64345 H 5.611 -6.90173 0.474152 0
M  V30 64346 H 4.743 -7.66548 2.79458 0
M  V30 64347 H 1.613 -8.66322 3.55694 0
M  V30 END ATOM
M  V30 BEGIN BOND
M  V30 END BOND
M  V30 END CTAB
M  END
$$$$
