drugbank_target|P26396 Glucose-1-phosphate cytidylyltransferase (DB02431)
 OpenBabel12092120243D

  0  0  0     0  0            999 V3000
M  V30 BEGIN CTAB
M  V30 COUNTS 4063 4119 0 0 0
M  V30 BEGIN ATOM
M  V30 1 H -0.908 1.98254 -0.117106 0
M  V30 2 N 0 1.576 0 0
M  V30 3 C 0.933 2.03868 1.02534 0
M  V30 4 C 1.911 0.928543 1.3348 0
M  V30 5 O 3.095 1.19667 1.45644 0
M  V30 6 C 0.222 2.43627 2.35294 0
M  V30 7 C -0.732 3.65373 2.2001 0
M  V30 8 S 0.101 5.13292 1.52614 0
M  V30 9 C 1.257 5.56322 2.86805 0
M  V30 10 H 1.49 2.90518 0.631377 0
M  V30 11 H -0.977 1.52953 0.210867 0
M  V30 12 H 0.981 2.67203 3.11629 0
M  V30 13 H -0.358 1.57376 2.7183 0
M  V30 14 H -1.165 3.90944 3.18086 0
M  V30 15 H -1.563 3.418 1.51819 0
M  V30 16 H 0.729 5.58782 3.83104 0
M  V30 17 H 1.672 6.56266 2.65933 0
M  V30 18 H 2.08 4.83886 2.90714 0
M  V30 19 N 1.4781 -0.272755 1.55222 0
M  V30 20 C 2.4251 -1.33716 1.88119 0
M  V30 21 C 3.3951 -1.49066 0.73271 0
M  V30 22 O 4.5801 -1.63469 0.984002 0
M  V30 23 C 1.7201 -2.69238 2.15882 0
M  V30 24 C 0.8331 -2.62108 3.43399 0
M  V30 25 C -0.0319 -3.89811 3.60861 0
M  V30 26 C -0.9929 -3.77193 4.8207 0
M  V30 27 N -1.8559 -4.9673 4.96189 0
M  V30 28 H 2.9841 -1.04962 2.78903 0
M  V30 29 H 0.5211 -0.507088 1.38083 0
M  V30 30 H 2.4791 -3.48089 2.29978 0
M  V30 31 H 1.1091 -2.96194 1.28331 0
M  V30 32 H 0.1611 -1.74967 3.37773 0
M  V30 33 H 1.4731 -2.48685 4.32386 0
M  V30 34 H 0.6271 -4.77103 3.74777 0
M  V30 35 H -0.6339 -4.06102 2.7006 0
M  V30 36 H -1.6289 -2.88284 4.68159 0
M  V30 37 H -0.4039 -3.62421 5.74307 0
M  V30 38 H -2.4579 -5.13431 4.08319 0
M  V30 39 H -2.5409 -4.85839 5.79221 0
M  V30 40 H -1.2729 -5.85594 5.1449 0
M  V30 41 N 2.9562 -1.48159 -0.537278 0
M  V30 42 C 3.9192 -1.61665 -1.62472 0
M  V30 43 C 4.9192 -0.490395 -1.5314 0
M  V30 44 O 6.1092 -0.755998 -1.5694 0
M  V30 45 C 3.2412 -1.57997 -3.02076 0
M  V30 46 H 4.4342 -2.58621 -1.51839 0
M  V30 47 H 1.9872 -1.36647 -0.758771 0
M  V30 48 H 2.7222 -0.624913 -3.18222 0
M  V30 49 H 2.5072 -2.39755 -3.10258 0
M  V30 50 H 3.9972 -1.70627 -3.81151 0
M  V30 51 N 4.4343 0.785586 -1.36625 0
M  V30 52 C 5.6803 1.54591 -1.31261 0
M  V30 53 C 6.0133 1.93906 0.106823 0
M  V30 54 O 5.2883 1.63007 1.06108 0
M  V30 55 C 5.5713 2.82038 -2.23889 0
M  V30 56 C 5.4243 2.49066 -3.74548 0
M  V30 57 C 6.7433 3.83887 -2.15217 0
M  V30 58 H 3.8623 0.560846 -0.478143 0
M  V30 59 H 6.5043 0.902278 -1.67209 0
M  V30 60 H 4.6543 3.36961 -1.93363 0
M  V30 61 H 6.3263 2.00164 -4.15611 0
M  V30 62 H 4.5693 1.81954 -3.93796 0
M  V30 63 H 5.2403 3.40109 -4.34776 0
M  V30 64 H 7.7163 3.38421 -2.42096 0
M  V30 65 H 6.5923 4.70806 -2.82193 0
M  V30 66 H 6.8533 4.27131 -1.14068 0
M  V30 67 N 5.9124 1.20967 1.01018 0
M  V30 68 C 7.1614 1.01796 1.74128 0
M  V30 69 C 7.4744 -0.449691 1.90361 0
M  V30 70 O 8.6804 -0.76068 2.60626 0
M  V30 71 C 7.1364 1.7727 3.13215 0
M  V30 72 C 6.7444 3.28171 3.04972 0
M  V30 73 C 8.4884 1.66489 3.90489 0
M  V30 74 C 6.3954 3.96156 4.39107 0
M  V30 75 H 5.3254 0.377276 0.652824 0
M  V30 76 H 7.9764 1.44651 1.12909 0
M  V30 77 H 6.3584 1.27205 3.75013 0
M  V30 78 H 7.5324 3.85499 2.52443 0
M  V30 79 H 5.8474 3.39437 2.41188 0
M  V30 80 H 8.4444 2.14617 4.89738 0
M  V30 81 H 8.7874 0.6222 4.11624 0
M  V30 82 H 9.3204 2.14003 3.35332 0
M  V30 83 H 6.0594 5.00604 4.23174 0
M  V30 84 H 5.5794 3.43617 4.91617 0
M  V30 85 H 7.2584 4.00774 5.07926 0
M  V30 86 N 7.3905 -1.2043 1.01659 0
M  V30 87 C 8.3205 -2.25466 0.607226 0
M  V30 88 C 9.3015 -1.65853 -0.377716 0
M  V30 89 O 10.4865 -1.92409 -0.263149 0
M  V30 90 C 7.6165 -3.47256 -0.0552949 0
M  V30 91 C 6.5705 -4.19462 0.850632 0
M  V30 92 C 5.8965 -5.34673 0.0538859 0
M  V30 93 C 7.1965 -4.75603 2.15868 0
M  V30 94 H 8.8905 -2.59962 1.48526 0
M  V30 95 H 6.4365 -1.2496 0.715605 0
M  V30 96 H 8.3895 -4.19917 -0.353233 0
M  V30 97 H 7.1135 -3.11924 -0.968045 0
M  V30 98 H 5.7725 -3.48667 1.13257 0
M  V30 99 H 5.4205 -4.95585 -0.860514 0
M  V30 100 H 5.1205 -5.83913 0.657192 0
M  V30 101 H 6.6445 -6.10138 -0.237598 0
M  V30 102 H 8.0585 -5.40083 1.92311 0
M  V30 103 H 6.4555 -5.3528 2.71284 0
M  V30 104 H 7.5255 -3.94346 2.82169 0
M  V30 105 N 8.8686 -0.792821 -1.36206 0
M  V30 106 C 9.8316 -0.199459 -2.2833 0
M  V30 107 C 10.8316 0.605189 -1.48977 0
M  V30 108 O 12.0216 0.425685 -1.68919 0
M  V30 109 C 9.1536 0.723523 -3.33134 0
M  V30 110 H 10.3466 -1.01181 -2.82316 0
M  V30 111 H 7.8996 -0.562485 -1.45828 0
M  V30 112 H 8.6346 1.56008 -2.84309 0
M  V30 113 H 8.4196 0.148436 -3.91819 0
M  V30 114 H 9.9096 1.13344 -4.01924 0
M  V30 115 N 10.3467 1.47872 -0.545128 0
M  V30 116 C 11.5947 2.02093 -0.016553 0
M  V30 117 C 11.9157 1.42305 1.3332 0
M  V30 118 O 11.1857 0.593853 1.86682 0
M  V30 119 H 9.7657 0.746993 -0.00313038 0
M  V30 120 H 12.4277 1.81414 -0.712397 0
M  V30 121 H 11.5237 3.11996 0.0805422 0
M  V30 122 N 11.8248 0.280983 1.55075 0
M  V30 123 C 13.0728 -0.333455 1.9933 0
M  V30 124 C 13.3938 -1.55937 1.17085 0
M  V30 125 O 12.6638 -1.94143 0.261805 0
M  V30 126 H 11.2438 -0.126197 0.736263 0
M  V30 127 H 13.9058 0.387678 1.91005 0
M  V30 128 H 13.0018 -0.619292 3.05894 0
M  V30 129 N 13.3029 -1.57598 0.00835791 0
M  V30 130 C 14.2329 -2.1198 -0.979113 0
M  V30 131 C 15.2139 -1.03091 -1.35301 0
M  V30 132 O 16.3989 -1.30818 -1.43528 0
M  V30 133 C 13.5289 -2.62995 -2.26828 0
M  V30 134 C 12.4829 -3.76485 -2.03576 0
M  V30 135 C 11.8089 -4.13846 -3.38579 0
M  V30 136 C 13.1089 -5.0342 -1.39161 0
M  V30 137 H 14.8029 -2.94738 -0.526281 0
M  V30 138 H 12.3489 -1.41783 -0.251704 0
M  V30 139 H 14.3019 -2.99669 -2.96271 0
M  V30 140 H 13.0259 -1.7737 -2.7424 0
M  V30 141 H 11.6849 -3.40217 -1.36557 0
M  V30 142 H 11.3329 -3.25232 -3.83709 0
M  V30 143 H 11.0329 -4.90312 -3.23834 0
M  V30 144 H 12.5569 -4.53086 -4.09323 0
M  V30 145 H 13.9709 -5.37812 -1.98573 0
M  V30 146 H 12.3679 -5.84746 -1.34878 0
M  V30 147 H 13.4379 -4.83548 -0.361868 0
M  V30 148 N 14.781 0.264519 -1.55364 0
M  V30 149 C 16.029 0.993021 -1.76021 0
M  V30 150 C 16.35 1.86511 -0.569099 0
M  V30 151 O 15.62 1.91438 0.415735 0
M  V30 152 H 14.2 0.369639 -0.649135 0
M  V30 153 H 16.862 0.286707 -1.9278 0
M  V30 154 H 15.958 1.62502 -2.66457 0
M  V30 155 N 16.2591 1.48442 0.529413 0
M  V30 156 C 17.4871 1.60151 1.30994 0
M  V30 157 C 17.9021 0.261985 1.86973 0
M  V30 158 O 17.2591 -0.748805 1.66431 0
M  V30 159 C 17.3101 2.64854 2.46038 0
M  V30 160 O 17.0311 3.93608 1.92365 0
M  V30 161 C 18.5321 2.87007 3.37849 0
M  V30 162 H 15.7521 0.539971 0.398338 0
M  V30 163 H 18.2961 1.94273 0.638597 0
M  V30 164 H 16.4511 2.33589 3.09055 0
M  V30 165 H 16.8651 4.51055 2.67675 0
M  V30 166 H 18.3391 3.64068 4.14919 0
M  V30 167 H 18.8161 1.95852 3.93114 0
M  V30 168 H 19.4221 3.19579 2.80623 0
M  V30 169 N 17.7372 -0.778329 1.37039 0
M  V30 170 C 19.1532 -1.07796 1.17695 0
M  V30 171 C 19.3532 -2.01498 0.00860115 0
M  V30 172 O 18.4092 -2.43901 -0.653352 0
M  V30 173 C 19.7222 -1.68178 2.49272 0
M  V30 174 C 21.2702 -1.80467 2.55735 0
M  V30 175 C 21.7452 -2.44263 3.87427 0
M  V30 176 N 23.2362 -2.51721 3.88833 0
M  V30 177 C 23.9712 -3.01919 4.87476 0
M  V30 178 N 23.4672 -3.5234 5.96513 0
M  V30 179 N 25.2602 -3.00733 4.74885 0
M  V30 180 H 17.4112 -0.156032 2.11826 0
M  V30 181 H 19.6742 -0.131844 0.938787 0
M  V30 182 H 19.3802 -1.06796 3.35093 0
M  V30 183 H 19.2542 -2.67554 2.65885 0
M  V30 184 H 21.6412 -2.40984 1.70325 0
M  V30 185 H 21.7222 -0.798656 2.43013 0
M  V30 186 H 21.3662 -1.84388 4.73248 0
M  V30 187 H 21.2962 -3.45458 3.9745 0
M  V30 188 H 23.7872 -2.1603 3.10063 0
M  V30 189 H 24.1002 -3.89027 6.67741 0
M  V30 190 H 22.4452 -3.50462 6.00168 0
M  V30 191 H 25.6362 -2.60638 3.88826 0
M  V30 192 H 25.8092 -3.39545 5.51918 0
M  V30 193 N 19.2153 -1.21501 -1.00376 0
M  V30 194 C 20.1453 -0.999478 -2.11028 0
M  V30 195 C 21.1263 0.0759671 -1.6993 0
M  V30 196 O 22.3113 -0.0841106 -1.94018 0
M  V30 197 C 19.4413 -0.564709 -3.42678 0
M  V30 198 C 18.3953 -1.58486 -3.97576 0
M  V30 199 C 17.7213 -1.00628 -5.25146 0
M  V30 200 C 19.0213 -2.97204 -4.29496 0
M  V30 201 H 20.7153 -1.92495 -2.29317 0
M  V30 202 H 18.2613 -0.92693 -1.102 0
M  V30 203 H 20.2143 -0.401091 -4.19487 0
M  V30 204 H 18.9383 0.396411 -3.24185 0
M  V30 205 H 17.5973 -1.73606 -3.22888 0
M  V30 206 H 17.2453 -0.0368439 -5.02987 0
M  V30 207 H 16.9453 -1.68771 -5.62841 0
M  V30 208 H 18.4693 -0.854015 -6.04598 0
M  V30 209 H 19.8833 -2.8552 -4.97143 0
M  V30 210 H 18.2803 -3.62372 -4.78338 0
M  V30 211 H 19.3503 -3.47956 -3.3772 0
M  V30 212 N 20.6934 1.19889 -1.02296 0
M  V30 213 C 21.9184 1.9393 -0.735237 0
M  V30 214 C 22.3434 1.74639 0.698782 0
M  V30 215 O 21.7014 1.04481 1.48167 0
M  V30 216 C 21.7494 3.43916 -1.08417 0
M  V30 217 O 20.8534 4.11917 -0.199446 0
M  V30 218 H 20.1944 0.605645 -0.272196 0
M  V30 219 H 22.7244 1.52137 -1.36804 0
M  V30 220 H 22.7344 3.9456 -1.03856 0
M  V30 221 H 21.4094 3.5728 -2.12894 0
M  V30 222 H 19.9864 3.71666 -0.303136 0
M  V30 223 N 22.1715 0.800033 1.35784 0
M  V30 224 C 23.0815 0.207204 2.33683 0
M  V30 225 C 24.0975 -0.64631 1.61551 0
M  V30 226 O 25.2735 -0.559604 1.93469 0
M  V30 227 C 22.3385 -0.639659 3.40748 0
M  V30 228 C 21.3995 0.233585 4.28664 0
M  V30 229 C 20.6325 -0.572954 5.30616 0
M  V30 230 O 20.8555 -1.80816 5.40982 0
M  V30 231 O 19.7895 0.0327285 6.01891 0
M  V30 232 H 23.6155 1.01692 2.86169 0
M  V30 233 H 21.2005 0.561691 1.38439 0
M  V30 234 H 23.0825 -1.12223 4.06182 0
M  V30 235 H 21.7575 -1.42708 2.90544 0
M  V30 236 H 20.6645 0.763147 3.66233 0
M  V30 237 H 21.9975 0.984784 4.82248 0
M  V30 238 N 23.6496 -1.47581 0.552962 0
M  V30 239 C 24.5596 -2.33743 -0.200353 0
M  V30 240 C 25.5756 -1.47928 -0.916151 0
M  V30 241 O 26.7516 -1.80865 -0.885993 0
M  V30 242 C 23.8166 -3.24536 -1.21973 0
M  V30 243 C 22.8776 -4.26238 -0.511819 0
M  V30 244 C 22.1106 -5.12693 -1.48263 0
M  V30 245 O 22.3336 -5.01525 -2.71714 0
M  V30 246 O 21.2676 -5.93375 -1.00945 0
M  V30 247 H 25.0936 -2.9945 0.506304 0
M  V30 248 H 22.6786 -1.46071 0.313622 0
M  V30 249 H 24.5606 -3.80631 -1.80827 0
M  V30 250 H 23.2356 -2.61462 -1.90839 0
M  V30 251 H 22.1426 -3.73914 0.117799 0
M  V30 252 H 23.4756 -4.92014 0.135308 0
M  V30 253 N 25.1277 -0.289203 -1.54924 0
M  V30 254 C 26.3557 0.326463 -2.04308 0
M  V30 255 C 26.7707 1.48413 -1.16701 0
M  V30 256 O 26.1277 1.81507 -0.190087 0
M  V30 257 C 26.1787 0.794014 -3.52672 0
M  V30 258 O 25.8997 -0.317564 -4.36948 0
M  V30 259 C 27.4007 1.47605 -4.18004 0
M  V30 260 H 24.6207 0.0726272 -0.667058 0
M  V30 261 H 27.1647 -0.425401 -2.00026 0
M  V30 262 H 25.3197 1.49593 -3.57352 0
M  V30 263 H 25.7337 0.0443186 -5.24481 0
M  V30 264 H 27.2077 1.75447 -5.23376 0
M  V30 265 H 27.6847 2.41224 -3.67025 0
M  V30 266 H 28.2907 0.81762 -4.17367 0
M  V30 267 N 26.6058 1.57591 -0.0167156 0
M  V30 268 C 27.8548 1.90461 0.663877 0
M  V30 269 C 28.1678 0.893515 1.73999 0
M  V30 270 O 29.3738 1.11302 2.47637 0
M  V30 271 C 27.8298 3.38155 1.23204 0
M  V30 272 C 27.4378 4.47597 0.189866 0
M  V30 273 C 29.1818 3.80111 1.88986 0
M  V30 274 C 27.0888 5.86379 0.768964 0
M  V30 275 H 26.0188 0.710738 0.251729 0
M  V30 276 H 28.6698 1.83326 -0.0799926 0
M  V30 277 H 27.0518 3.40182 2.02712 0
M  V30 278 H 28.2258 4.57112 -0.581846 0
M  V30 279 H 26.5408 4.14766 -0.368475 0
M  V30 280 H 29.1378 4.81145 2.33247 0
M  V30 281 H 29.4808 3.14511 2.72743 0
M  V30 282 H 30.0138 3.80454 1.16187 0
M  V30 283 H 26.7528 6.55493 -0.0301957 0
M  V30 284 H 26.2728 5.80496 1.50945 0
M  V30 285 H 27.9518 6.34563 1.26251 0
M  V30 286 N 28.0839 -0.256276 1.55502 0
M  V30 287 C 29.3299 -0.987079 1.77157 0
M  V30 288 C 29.6629 -1.85327 0.580315 0
M  V30 289 O 28.9379 -1.89874 -0.421686 0
M  V30 290 C 29.2209 -1.85553 3.08613 0
M  V30 291 C 29.0739 -1.01816 4.38125 0
M  V30 292 C 30.3929 -2.8397 3.36228 0
M  V30 293 H 27.5119 -0.357428 0.644526 0
M  V30 294 H 30.1539 -0.258239 1.88237 0
M  V30 295 H 28.3039 -2.47695 2.99298 0
M  V30 296 H 29.9759 -0.416159 4.59419 0
M  V30 297 H 28.2189 -0.322178 4.32602 0
M  V30 298 H 28.8899 -1.65939 5.26468 0
M  V30 299 H 31.3659 -2.31964 3.45445 0
M  V30 300 H 30.2419 -3.41864 4.29442 0
M  V30 301 H 30.5029 -3.59955 2.56681 0
M  V30 302 N 29.562 -1.4872 -0.521534 0
M  V30 303 C 30.509 -1.63871 -1.62527 0
M  V30 304 C 31.479 -0.480559 -1.58996 0
M  V30 305 O 32.664 -0.705085 -1.77294 0
M  V30 306 C 29.804 -1.69227 -3.00759 0
M  V30 307 C 28.917 -2.96207 -3.14461 0
M  V30 308 C 28.052 -2.92671 -4.43303 0
M  V30 309 C 27.091 -4.14318 -4.50563 0
M  V30 310 N 26.228 -4.0881 -5.70805 0
M  V30 311 H 31.068 -2.58123 -1.48918 0
M  V30 312 H 28.605 -1.28 -0.724878 0
M  V30 313 H 30.563 -1.70314 -3.80853 0
M  V30 314 H 29.193 -0.784586 -3.1312 0
M  V30 315 H 28.245 -3.04826 -2.27564 0
M  V30 316 H 29.557 -3.86192 -3.15686 0
M  V30 317 H 28.711 -2.92206 -5.31696 0
M  V30 318 H 27.45 -2.00429 -4.44612 0
M  V30 319 H 26.455 -4.15049 -3.60575 0
M  V30 320 H 27.68 -5.07729 -4.50986 0
M  V30 321 H 25.626 -3.19394 -5.72995 0
M  V30 322 H 25.543 -4.92509 -5.7356 0
M  V30 323 H 26.811 -4.12418 -6.61462 0
M  V30 324 N 31.0401 0.771051 -1.3745 0
M  V30 325 C 32.4511 1.34737 -1.29239 0
M  V30 326 C 32.8021 1.96109 0.0596908 0
M  V30 327 O 31.9271 1.93865 0.961534 0
M  V30 328 C 32.5221 2.44973 -2.34037 0
M  V30 329 C 31.0811 2.98372 -2.29458 0
M  V30 330 C 30.2281 1.71595 -2.17831 0
M  V30 331 H 33.1791 0.571256 -1.48062 0
M  V30 332 H 33.2001 3.24471 -1.98744 0
M  V30 333 H 32.7121 2.00276 -3.32432 0
M  V30 334 H 30.8131 3.47443 -1.34589 0
M  V30 335 H 30.9261 3.53939 -3.229 0
M  V30 336 H 29.2901 1.94547 -1.64388 0
M  V30 337 H 30.0731 1.29001 -3.18141 0
M  V30 338 N 32.5182 1.22032 0.997298 0
M  V30 339 C 33.4652 0.986467 2.08656 0
M  V30 340 C 34.4352 -0.0902671 1.65855 0
M  V30 341 O 35.6202 0.0584294 1.90711 0
M  V30 342 C 32.7602 0.565569 3.40434 0
M  V30 343 C 31.8732 1.71259 3.96604 0
M  V30 344 C 31.0082 1.24011 5.16522 0
M  V30 345 C 30.0472 2.35896 5.64818 0
M  V30 346 N 29.1842 1.89726 6.7598 0
M  V30 347 H 34.0242 1.91892 2.27994 0
M  V30 348 H 31.5612 0.956199 1.11782 0
M  V30 349 H 33.5192 0.302738 4.161 0
M  V30 350 H 32.1492 -0.329879 3.2111 0
M  V30 351 H 31.2012 2.08986 3.17851 0
M  V30 352 H 32.5132 2.55436 4.28432 0
M  V30 353 H 31.6672 0.934395 5.99461 0
M  V30 354 H 30.4062 0.368487 4.86306 0
M  V30 355 H 29.4112 2.67261 4.8047 0
M  V30 356 H 30.6362 3.23567 5.97061 0
M  V30 357 H 28.5822 1.0492 6.47555 0
M  V30 358 H 28.4992 2.67471 7.07103 0
M  V30 359 H 29.7672 1.62211 7.62435 0
M  V30 360 N 33.9963 -1.19345 1.0293 0
M  V30 361 C 35.4073 -1.70725 0.755633 0
M  V30 362 C 35.7583 -1.82326 -0.724676 0
M  V30 363 O 34.8833 -1.49471 -1.56484 0
M  V30 364 C 35.4783 -3.10084 1.36503 0
M  V30 365 C 34.0373 -3.58723 1.13994 0
M  V30 366 C 33.1843 -2.35577 1.46283 0
M  V30 367 H 36.1353 -1.0418 1.19718 0
M  V30 368 H 36.1563 -3.72787 0.762217 0
M  V30 369 H 35.6683 -3.01609 2.44241 0
M  V30 370 H 33.7693 -3.72512 0.0807901 0
M  V30 371 H 33.8823 -4.42816 1.82894 0
M  V30 372 H 32.2463 -2.38935 0.88217 0
M  V30 373 H 33.0293 -2.29731 2.55105 0
M  V30 374 N 35.4744 -0.807222 -1.35358 0
M  V30 375 C 36.4074 -0.163572 -2.27613 0
M  V30 376 C 37.3854 0.670817 -1.48118 0
M  V30 377 O 38.5694 0.63796 -1.77376 0
M  V30 378 C 35.6964 0.773015 -3.29761 0
M  V30 379 C 34.7424 0.0181653 -4.26496 0
M  V30 380 S 35.5754 -1.31831 -5.19019 0
M  V30 381 C 36.7314 -0.38619 -6.24707 0
M  V30 382 H 36.9644 -0.945757 -2.81856 0
M  V30 383 H 34.4974 -0.602315 -1.42167 0
M  V30 384 H 36.4554 1.30788 -3.89108 0
M  V30 385 H 35.1164 1.52859 -2.74396 0
M  V30 386 H 34.3094 0.729534 -4.98692 0
M  V30 387 H 33.9114 -0.446761 -3.71322 0
M  V30 388 H 36.2034 0.428295 -6.76145 0
M  V30 389 H 37.1464 -1.07736 -6.99856 0
M  V30 390 H 37.5544 0.018398 -5.64497 0
M  V30 391 N 36.9525 1.47285 -0.560781 0
M  V30 392 C 38.1985 2.02764 -0.0381184 0
M  V30 393 C 38.5315 1.43384 1.30976 0
M  V30 394 O 37.8065 0.590733 1.85312 0
M  V30 395 C 38.0895 3.60064 0.0511427 0
M  V30 396 C 37.9425 4.2987 -1.32408 0
M  V30 397 C 39.2615 4.33439 0.762795 0
M  V30 398 H 36.3805 0.736841 -0.0153264 0
M  V30 399 H 39.0225 1.75675 -0.723759 0
M  V30 400 H 37.1725 3.83274 0.635065 0
M  V30 401 H 38.8445 4.17989 -1.95148 0
M  V30 402 H 37.0875 3.90085 -1.8978 0
M  V30 403 H 37.7585 5.38478 -1.21431 0
M  V30 404 H 40.2345 4.15243 0.266965 0
M  V30 405 H 39.1105 5.43124 0.794221 0
M  V30 406 H 39.3715 4.02915 1.81966 0
M  V30 407 N 38.4306 0.297415 1.54768 0
M  V30 408 C 39.3406 -0.58983 2.27064 0
M  V30 409 C 40.3566 -1.15144 1.30453 0
M  V30 410 O 41.5326 -1.17699 1.63428 0
M  V30 411 C 38.5976 -1.74714 2.9946 0
M  V30 412 C 37.6586 -1.21997 4.11601 0
M  V30 413 C 36.8916 -2.32212 4.80535 0
M  V30 414 O 37.1146 -3.52036 4.48806 0
M  V30 415 O 36.0486 -1.99106 5.68014 0
M  V30 416 H 39.8746 -0.00348199 3.037 0
M  V30 417 H 37.4596 0.0640035 1.49263 0
M  V30 418 H 39.3416 -2.42147 3.44881 0
M  V30 419 H 38.0166 -2.32016 2.25722 0
M  V30 420 H 36.9236 -0.511458 3.70587 0
M  V30 421 H 38.2566 -0.692419 4.87305 0
M  V30 422 N 39.9087 -1.5758 0.0250728 0
M  V30 423 C 41.1577 -1.90811 -0.653767 0
M  V30 424 C 41.4707 -0.90273 -1.73523 0
M  V30 425 O 42.6767 -1.12614 -2.47043 0
M  V30 426 C 41.1327 -3.38804 -1.21409 0
M  V30 427 C 40.7407 -4.47692 -0.166126 0
M  V30 428 C 42.4847 -3.81108 -1.86967 0
M  V30 429 C 40.3917 -5.86779 -0.737856 0
M  V30 430 H 39.3217 -0.712063 -0.247956 0
M  V30 431 H 41.9727 -1.83281 0.0897137 0
M  V30 432 H 40.3547 -3.41252 -2.00905 0
M  V30 433 H 41.5287 -4.56797 0.606079 0
M  V30 434 H 39.8437 -4.14565 0.390466 0
M  V30 435 H 42.4407 -4.82375 -2.30692 0
M  V30 436 H 42.7837 -3.15953 -2.71071 0
M  V30 437 H 43.3167 -3.81065 -1.14167 0
M  V30 438 H 40.0557 -6.55468 0.0649577 0
M  V30 439 H 39.5757 -5.81288 -1.47864 0
M  V30 440 H 41.2547 -6.35223 -1.22884 0
M  V30 441 N 41.3868 0.248026 -1.55636 0
M  V30 442 C 42.6348 0.974295 -1.77065 0
M  V30 443 C 42.9558 1.85897 -0.588849 0
M  V30 444 O 42.2258 1.91868 0.395407 0
M  V30 445 H 40.8058 0.362733 -0.653019 0
M  V30 446 H 43.4678 0.266244 -1.93073 0
M  V30 447 H 42.5638 1.59667 -2.68166 0
M  V30 448 N 42.8649 1.48995 0.513639 0
M  V30 449 C 44.1129 1.57531 1.26604 0
M  V30 450 C 44.4339 0.258236 1.93283 0
M  V30 451 O 43.7039 -0.721502 1.8213 0
M  V30 452 H 42.2839 0.580387 0.470276 0
M  V30 453 H 44.9459 1.85552 0.596373 0
M  V30 454 H 44.0419 2.36486 2.03669 0
M  V30 455 N 44.343 -0.763751 1.37857 0
M  V30 456 C 45.29 -1.87726 1.34267 0
M  V30 457 C 46.26 -1.64807 0.206879 0
M  V30 458 O 47.445 -1.86613 0.397508 0
M  V30 459 C 44.585 -3.24896 1.16346 0
M  V30 460 C 43.698 -3.59716 2.39225 0
M  V30 461 C 42.833 -4.86137 2.14114 0
M  V30 462 C 41.872 -5.13711 3.32817 0
M  V30 463 N 41.009 -6.31323 3.07206 0
M  V30 464 H 45.849 -1.90129 2.29466 0
M  V30 465 H 43.386 -0.929433 1.14017 0
M  V30 466 H 45.344 -4.04036 1.03975 0
M  V30 467 H 43.974 -3.21847 0.247909 0
M  V30 468 H 43.026 -2.75498 2.62307 0
M  V30 469 H 44.338 -3.76027 3.27728 0
M  V30 470 H 43.492 -5.73198 1.9882 0
M  V30 471 H 42.231 -4.71945 1.22961 0
M  V30 472 H 41.236 -4.25123 3.48641 0
M  V30 473 H 42.461 -5.29807 4.24832 0
M  V30 474 H 40.407 -6.18474 2.1869 0
M  V30 475 H 40.324 -6.48087 3.89254 0
M  V30 476 H 41.592 -7.213 2.95546 0
M  V30 477 N 45.8211 -1.22559 -0.990812 0
M  V30 478 C 47.2321 -1.04791 -1.54518 0
M  V30 479 C 47.5831 0.387998 -1.92325 0
M  V30 480 O 46.7081 1.27328 -1.74976 0
M  V30 481 C 47.3031 -1.896 -2.80779 0
M  V30 482 C 45.8621 -1.76124 -3.32652 0
M  V30 483 C 45.0091 -1.8594 -2.05722 0
M  V30 484 H 47.9601 -1.36374 -0.811662 0
M  V30 485 H 47.9811 -1.41464 -3.53225 0
M  V30 486 H 47.4931 -2.94101 -2.53231 0
M  V30 487 H 45.5941 -0.743643 -3.65104 0
M  V30 488 H 45.7071 -2.58913 -4.03114 0
M  V30 489 H 44.0711 -1.29403 -2.19379 0
M  V30 490 H 44.8541 -2.91976 -1.80568 0
M  V30 491 N 47.2992 1.18797 -1.03562 0
M  V30 492 C 48.5482 1.87978 -0.731235 0
M  V30 493 C 48.8612 1.80911 0.743671 0
M  V30 494 O 50.0672 2.45407 1.16137 0
M  V30 495 C 48.5232 3.3721 -1.25768 0
M  V30 496 C 48.1312 3.52818 -2.76085 0
M  V30 497 C 49.8752 4.11825 -1.0296 0
M  V30 498 C 47.7822 4.9598 -3.22114 0
M  V30 499 H 46.7122 0.704063 -0.269835 0
M  V30 500 H 49.3632 1.34266 -1.25079 0
M  V30 501 H 47.7452 3.90359 -0.666011 0
M  V30 502 H 48.9192 3.09965 -3.40966 0
M  V30 503 H 47.2342 2.91602 -2.97249 0
M  V30 504 H 49.8312 5.17411 -1.34869 0
M  V30 505 H 50.1742 4.16287 0.0333546 0
M  V30 506 H 50.7072 3.64833 -1.58562 0
M  V30 507 H 47.4462 4.96684 -4.27768 0
M  V30 508 H 46.9662 5.39569 -2.61965 0
M  V30 509 H 48.6452 5.6467 -3.15844 0
M  V30 510 N 48.7773 0.814389 1.34928 0
M  V30 511 C 49.7073 0.244827 2.32213 0
M  V30 512 C 50.6883 -0.634024 1.57842 0
M  V30 513 O 51.8733 -0.562676 1.8587 0
M  V30 514 C 49.0033 -0.601106 3.42058 0
M  V30 515 C 47.9573 0.179896 4.27622 0
M  V30 516 C 47.2833 -0.788237 5.28858 0
M  V30 517 C 48.5833 1.38329 5.03649 0
M  V30 518 H 50.2773 1.05763 2.80097 0
M  V30 519 H 47.8233 0.510029 1.34665 0
M  V30 520 H 49.7763 -1.00968 4.09125 0
M  V30 521 H 48.5003 -1.44688 2.92802 0
M  V30 522 H 47.1593 0.569739 3.62146 0
M  V30 523 H 46.8073 -1.62973 4.75866 0
M  V30 524 H 46.5073 -0.269942 5.8698 0
M  V30 525 H 48.0313 -1.19485 5.98795 0
M  V30 526 H 49.4453 1.04918 5.63618 0
M  V30 527 H 47.8423 1.83662 5.71304 0
M  V30 528 H 48.9123 2.16592 4.33839 0
M  V30 529 N 50.2554 -1.46986 0.568584 0
M  V30 530 C 51.5014 -2.0332 0.0571487 0
M  V30 531 C 51.8564 -1.43384 -1.28291 0
M  V30 532 O 51.1494 -0.584304 -1.82473 0
M  V30 533 C 51.3434 -3.57306 -0.081836 0
M  V30 534 C 51.1724 -4.32174 1.24321 0
M  V30 535 C 49.9424 -4.71633 1.81358 0
M  V30 536 C 52.1404 -4.66598 2.16312 0
M  V30 537 N 50.1224 -5.31191 3.07748 0
M  V30 538 C 51.4934 -5.26578 3.27285 0
M  V30 539 C 53.5484 -4.48527 2.16166 0
M  V30 540 C 52.2514 -5.70395 4.38226 0
M  V30 541 C 54.2774 -4.93351 3.26127 0
M  V30 542 C 53.6394 -5.5339 4.3582 0
M  V30 543 H 49.7384 -0.77943 0.063351 0
M  V30 544 H 52.3224 -1.79323 0.758378 0
M  V30 545 H 50.4934 -3.81046 -0.752207 0
M  V30 546 H 52.2254 -4.00282 -0.59637 0
M  V30 547 H 48.9804 -4.53946 1.35019 0
M  V30 548 H 49.4044 -5.65505 3.72201 0
M  V30 549 H 54.0464 -4.01456 1.32638 0
M  V30 550 H 51.7644 -6.16452 5.22506 0
M  V30 551 H 55.3504 -4.81131 3.27115 0
M  V30 552 H 54.2304 -5.87441 5.19503 0
M  V30 553 N 51.7335 -0.305618 -1.54608 0
M  V30 554 C 52.6835 0.583595 -2.20405 0
M  V30 555 C 53.6675 1.09539 -1.17856 0
M  V30 556 O 54.8595 1.0354 -1.43557 0
M  V30 557 C 51.9885 1.75277 -2.95183 0
M  V30 558 C 51.0745 1.25672 -4.05052 0
M  V30 559 N 51.4655 0.478998 -5.03527 0
M  V30 560 C 49.7635 1.53704 -4.18678 0
M  V30 561 C 50.4645 0.214269 -5.81305 0
M  V30 562 N 49.4405 0.795374 -5.3775 0
M  V30 563 H 53.2425 -0.0180946 -2.93894 0
M  V30 564 H 50.7565 -0.110601 -1.62023 0
M  V30 565 H 52.7535 2.4014 -3.40791 0
M  V30 566 H 51.4135 2.35812 -2.23211 0
M  V30 567 H 52.4245 0.123473 -5.17753 0
M  V30 568 H 49.1015 2.14954 -3.57912 0
M  V30 569 H 50.4915 -0.410656 -6.70644 0
M  V30 570 N 53.2116 1.57565 -0.0334293 0
M  V30 571 C 54.4606 1.91155 0.643639 0
M  V30 572 C 54.7736 0.91192 1.73042 0
M  V30 573 O 55.9796 1.13923 2.46442 0
M  V30 574 C 54.4356 3.39443 1.1961 0
M  V30 575 C 54.0436 4.47774 0.142381 0
M  V30 576 C 55.7876 3.82094 1.84944 0
M  V30 577 C 53.6946 5.87162 0.706727 0
M  V30 578 H 52.6246 0.713368 0.244176 0
M  V30 579 H 55.2756 1.8323 -0.0994323 0
M  V30 580 H 53.6576 3.42313 1.99092 0
M  V30 581 H 54.8316 4.56469 -0.630296 0
M  V30 582 H 53.1466 4.14352 -0.412446 0
M  V30 583 H 55.7436 4.83591 2.2813 0
M  V30 584 H 56.0866 3.17386 2.69392 0
M  V30 585 H 56.6196 3.81665 1.12145 0
M  V30 586 H 53.3586 6.55424 -0.0997178 0
M  V30 587 H 52.8786 5.82064 1.44779 0
M  V30 588 H 54.5576 6.35866 1.19514 0
M  V30 589 N 54.6897 -0.239769 1.55765 0
M  V30 590 C 55.6227 -1.32356 1.85895 0
M  V30 591 C 56.6007 -1.46053 0.714662 0
M  V30 592 O 57.7847 -1.62154 0.961157 0
M  V30 593 C 54.9117 -2.6962 2.04994 0
M  V30 594 C 53.9577 -2.73036 3.27648 0
M  V30 595 S 54.7907 -2.28929 4.84099 0
M  V30 596 C 55.9467 -3.68103 5.06212 0
M  V30 597 H 56.1797 -1.06601 2.77531 0
M  V30 598 H 53.7127 -0.441112 1.47965 0
M  V30 599 H 55.6707 -3.48653 2.16682 0
M  V30 600 H 54.3317 -2.92609 1.14188 0
M  V30 601 H 53.5247 -3.7386 3.38 0
M  V30 602 H 53.1267 -2.02052 3.14723 0
M  V30 603 H 55.4187 -4.63656 4.93993 0
M  V30 604 H 56.3617 -3.6268 6.08168 0
M  V30 605 H 56.7697 -3.60947 4.34025 0
M  V30 606 N 56.1678 -1.49265 -0.50573 0
M  V30 607 C 57.1148 -1.65585 -1.6078 0
M  V30 608 C 58.0848 -0.497396 -1.58478 0
M  V30 609 O 59.2698 -0.72385 -1.76536 0
M  V30 610 C 56.4098 -1.72408 -2.98948 0
M  V30 611 C 55.5228 -2.99525 -3.11301 0
M  V30 612 C 54.6578 -2.97356 -4.40174 0
M  V30 613 C 53.6968 -4.19074 -4.46143 0
M  V30 614 N 52.8338 -4.14841 -5.66437 0
M  V30 615 H 57.6738 -2.59688 -1.46172 0
M  V30 616 H 55.2108 -1.28761 -0.711261 0
M  V30 617 H 57.1688 -1.74344 -3.79025 0
M  V30 618 H 55.7988 -0.817753 -3.1227 0
M  V30 619 H 54.8508 -3.07222 -2.24318 0
M  V30 620 H 56.1628 -3.89518 -3.11572 0
M  V30 621 H 55.3168 -2.97829 -5.28567 0
M  V30 622 H 54.0558 -2.05133 -4.42461 0
M  V30 623 H 53.0608 -4.1885 -3.56153 0
M  V30 624 H 54.2858 -5.12483 -4.45575 0
M  V30 625 H 52.2318 -3.25453 -5.69575 0
M  V30 626 H 52.1488 -4.98564 -5.68304 0
M  V30 627 H 53.4168 -4.1941 -6.57051 0
M  V30 628 N 57.6459 0.756429 -1.3826 0
M  V30 629 C 58.5789 1.87802 -1.29637 0
M  V30 630 C 59.5569 1.61667 -0.173939 0
M  V30 631 O 60.7409 1.85208 -0.350775 0
M  V30 632 C 57.8679 3.23354 -1.00797 0
M  V30 633 C 56.9139 3.68379 -2.14939 0
M  V30 634 S 57.7469 3.8025 -3.77054 0
M  V30 635 C 58.9029 5.18626 -3.50396 0
M  V30 636 H 59.1359 1.94829 -2.24564 0
M  V30 637 H 56.6689 0.919117 -1.24063 0
M  V30 638 H 58.6269 4.01637 -0.848413 0
M  V30 639 H 57.2879 3.14008 -0.0759369 0
M  V30 640 H 56.4809 4.66693 -1.90299 0
M  V30 641 H 56.0829 2.97242 -2.26988 0
M  V30 642 H 58.3749 6.04289 -3.06334 0
M  V30 643 H 59.3179 5.48286 -4.48094 0
M  V30 644 H 59.7259 4.87289 -2.84973 0
M  V30 645 N 59.124 1.23083 0.984299 0
M  V30 646 C 60.354 1.08556 1.75781 0
M  V30 647 C 60.762 -0.366171 1.85623 0
M  V30 648 O 60.105 -1.26524 1.33182 0
M  V30 649 C 60.167 1.63208 3.20318 0
M  V30 650 C 59.831 3.11922 3.33997 0
M  V30 651 C 60.828 4.09259 3.2063 0
M  V30 652 C 58.513 3.51552 3.58771 0
M  V30 653 C 60.507 5.4421 3.31835 0
M  V30 654 C 58.194 4.86649 3.69616 0
M  V30 655 C 59.192 5.82787 3.56157 0
M  V30 656 O 58.88 7.15431 3.66626 0
M  V30 657 H 58.612 0.380713 0.5586 0
M  V30 658 H 61.166 1.63321 1.2456 0
M  V30 659 H 59.396 1.0286 3.72769 0
M  V30 660 H 61.085 1.44216 3.79416 0
M  V30 661 H 61.851 3.79984 3.01392 0
M  V30 662 H 57.73 2.77239 3.6832 0
M  V30 663 H 61.274 6.1923 3.21247 0
M  V30 664 H 57.171 5.15601 3.88363 0
M  V30 665 H 57.939 7.23127 3.83445 0
M  V30 666 N 60.6021 -1.18246 1.0419 0
M  V30 667 C 61.8271 -1.92736 0.765996 0
M  V30 668 C 62.2521 -1.75728 -0.67091 0
M  V30 669 O 61.6101 -1.06825 -1.46486 0
M  V30 670 C 61.6581 -3.42148 1.13875 0
M  V30 671 O 60.7621 -4.11548 0.264954 0
M  V30 672 H 60.1031 -0.601238 0.281797 0
M  V30 673 H 62.6331 -1.49942 1.39207 0
M  V30 674 H 62.6431 -3.92858 1.1012 0
M  V30 675 H 61.3181 -3.53848 2.18551 0
M  V30 676 H 59.8951 -3.71137 0.362226 0
M  V30 677 N 62.0802 -0.821533 -1.34494 0
M  V30 678 C 63.3262 -0.409552 -1.98622 0
M  V30 679 C 63.6592 1.0244 -1.64984 0
M  V30 680 O 62.9342 1.71325 -0.920758 0
M  V30 681 C 63.2172 -0.610458 -3.54888 0
M  V30 682 C 63.0702 -2.09043 -3.98273 0
M  V30 683 C 64.3892 -0.0455379 -4.40076 0
M  V30 684 H 61.5082 -0.15028 -0.721516 0
M  V30 685 H 64.1502 -1.03384 -1.59411 0
M  V30 686 H 62.3002 -0.079044 -3.8842 0
M  V30 687 H 63.9722 -2.68537 -3.75081 0
M  V30 688 H 62.2152 -2.58139 -3.48635 0
M  V30 689 H 62.8862 -2.18182 -5.07051 0
M  V30 690 H 65.3622 -0.499557 -4.1309 0
M  V30 691 H 64.2382 -0.215922 -5.48475 0
M  V30 692 H 64.4992 1.04939 -4.29465 0
M  V30 693 N 63.5583 1.46682 -0.576371 0
M  V30 694 C 64.5083 2.27278 0.181288 0
M  V30 695 C 65.4923 1.35497 0.867721 0
M  V30 696 O 66.6843 1.59717 0.762863 0
M  V30 697 C 63.8133 3.21703 1.19841 0
M  V30 698 C 62.8993 4.20969 0.51442 0
M  V30 699 N 63.2903 5.03999 -0.426407 0
M  V30 700 C 61.5883 4.39373 0.765963 0
M  V30 701 C 62.2893 5.75812 -0.825565 0
M  V30 702 N 61.2653 5.43315 -0.176116 0
M  V30 703 H 65.0673 2.88863 -0.541785 0
M  V30 704 H 62.5813 1.57455 -0.397697 0
M  V30 705 H 64.5783 3.78145 1.75533 0
M  V30 706 H 63.2383 2.61677 1.92238 0
M  V30 707 H 64.2493 5.11659 -0.8016 0
M  V30 708 H 60.9263 3.90502 1.47698 0
M  V30 709 H 62.3163 6.52577 -1.59976 0
M  V30 710 N 65.0364 0.313813 1.54444 0
M  V30 711 C 66.2844 -0.291099 1.99993 0
M  V30 712 C 66.6054 -1.53418 1.20366 0
M  V30 713 O 65.8754 -1.93544 0.302927 0
M  V30 714 H 64.4554 -0.110552 0.738774 0
M  V30 715 H 67.1174 0.428106 1.9014 0
M  V30 716 H 66.2134 -0.554268 3.07139 0
M  V30 717 N 66.5145 -1.57545 0.0417849 0
M  V30 718 C 67.7635 -1.91494 -0.633492 0
M  V30 719 C 68.0765 -0.921084 -1.72556 0
M  V30 720 O 69.2825 -1.15228 -2.45835 0
M  V30 721 C 67.7385 -3.40072 -1.17808 0
M  V30 722 C 67.3465 -4.47843 -0.118633 0
M  V30 723 C 69.0905 -3.8307 -1.82915 0
M  V30 724 C 66.9975 -5.87529 -0.675578 0
M  V30 725 H 65.9275 -0.714653 -0.24039 0
M  V30 726 H 68.5785 -1.83175 0.109148 0
M  V30 727 H 66.9605 -3.43364 -1.97274 0
M  V30 728 H 68.1345 -4.56128 0.654494 0
M  V30 729 H 66.4495 -4.14128 0.434414 0
M  V30 730 H 69.0465 -4.84794 -2.25563 0
M  V30 731 H 69.3895 -3.1881 -2.67705 0
M  V30 732 H 69.9225 -3.82255 -1.10119 0
M  V30 733 H 66.6615 -6.55362 0.134475 0
M  V30 734 H 66.1815 -5.82824 -1.4169 0
M  V30 735 H 67.8605 -6.36491 -1.1614 0
M  V30 736 N 67.9926 0.231505 -1.5589 0
M  V30 737 C 68.9396 1.28682 -1.91598 0
M  V30 738 C 69.9096 1.47071 -0.771974 0
M  V30 739 O 71.0946 1.60802 -1.027 0
M  V30 740 C 68.2346 2.6342 -2.22944 0
M  V30 741 C 67.3476 2.52912 -3.50228 0
M  V30 742 C 66.4826 3.80106 -3.7107 0
M  V30 743 C 65.5216 3.64279 -4.91902 0
M  V30 744 N 64.6586 4.834 -5.09184 0
M  V30 745 H 69.4986 0.975305 -2.81588 0
M  V30 746 H 67.0356 0.470299 -1.39379 0
M  V30 747 H 68.9936 3.41869 -2.39126 0
M  V30 748 H 67.6236 2.92687 -1.36139 0
M  V30 749 H 66.6756 1.6595 -3.42294 0
M  V30 750 H 67.9876 2.37133 -4.38827 0
M  V30 751 H 67.1416 4.66999 -3.87295 0
M  V30 752 H 65.8806 3.98799 -2.80733 0
M  V30 753 H 64.8856 2.7577 -4.75637 0
M  V30 754 H 66.1106 3.47067 -5.83714 0
M  V30 755 H 64.0566 5.02425 -4.21788 0
M  V30 756 H 63.9736 4.70311 -5.91898 0
M  V30 757 H 65.2416 5.71747 -5.29835 0
M  V30 758 N 69.4707 1.49531 0.497807 0
M  V30 759 C 70.7477 1.49682 1.25915 0
M  V30 760 C 71.1277 0.226339 2.09883 0
M  V30 761 O 70.4757 -0.791189 2.14365 0
M  V30 762 C 70.6857 2.77755 2.11313 0
M  V30 763 C 72.0337 3.27371 2.70395 0
M  V30 764 O 73.0577 2.78894 2.21578 0
M  V30 765 O 71.9167 4.11808 3.59272 0
M  V30 766 H 69.0107 0.599228 0.56996 0
M  V30 767 H 71.5567 1.61798 0.511816 0
M  V30 768 H 70.3287 3.61713 1.49264 0
M  V30 769 H 69.9517 2.68515 2.93233 0
M  V30 770 N 70.9488 -0.749086 1.3866 0
M  V30 771 C 72.1958 -1.50833 1.35114 0
M  V30 772 C 72.5238 -1.94415 -0.0574049 0
M  V30 773 O 71.7788 -1.66065 -1.03541 0
M  V30 774 C 72.0778 -2.7712 2.25697 0
M  V30 775 C 71.7438 -2.52477 3.73585 0
M  V30 776 C 70.4058 -2.45466 4.13884 0
M  V30 777 C 72.7578 -2.31066 4.67181 0
M  V30 778 C 70.0858 -2.15064 5.45861 0
M  V30 779 C 72.4378 -2.02183 5.9942 0
M  V30 780 C 71.1018 -1.93631 6.38798 0
M  V30 781 H 70.3718 -0.551936 0.494416 0
M  V30 782 H 73.0188 -0.860979 1.71054 0
M  V30 783 H 71.3238 -3.46528 1.82827 0
M  V30 784 H 73.0208 -3.35096 2.20254 0
M  V30 785 H 69.6108 -2.58807 3.41638 0
M  V30 786 H 73.7948 -2.35459 4.3689 0
M  V30 787 H 69.0508 -2.06954 5.75308 0
M  V30 788 H 73.2248 -1.8462 6.71482 0
M  V30 789 H 70.8518 -1.69839 7.40985 0
M  V30 790 N 72.4269 -1.23603 -0.977757 0
M  V30 791 C 73.6759 -1.06377 -1.71368 0
M  V30 792 C 73.9889 0.399062 -1.91486 0
M  V30 793 O 75.1949 0.691312 -2.62551 0
M  V30 794 C 73.6509 -1.85512 -3.08404 0
M  V30 795 C 73.2589 -3.36141 -2.96164 0
M  V30 796 C 75.0029 -1.76783 -3.85938 0
M  V30 797 C 72.9099 -4.07659 -4.28449 0
M  V30 798 H 71.8399 -0.394452 -0.642591 0
M  V30 799 H 74.4909 -1.47594 -1.09034 0
M  V30 800 H 72.8729 -1.37103 -3.71509 0
M  V30 801 H 74.0469 -3.92056 -2.42133 0
M  V30 802 H 72.3619 -3.45712 -2.32104 0
M  V30 803 H 74.9589 -2.27526 -4.83876 0
M  V30 804 H 75.3019 -0.731116 -4.0983 0
M  V30 805 H 75.8349 -2.22818 -3.2954 0
M  V30 806 H 72.5739 -5.11648 -4.09752 0
M  V30 807 H 72.0939 -3.5653 -4.82334 0
M  V30 808 H 73.7729 -4.141 -4.97122 0
M  V30 809 N 73.905 1.17692 -1.04816 0
M  V30 810 C 75.154 1.87192 -0.751132 0
M  V30 811 C 75.467 1.8169 0.724441 0
M  V30 812 O 76.673 2.46625 1.13527 0
M  V30 813 C 75.129 3.35857 -1.29338 0
M  V30 814 C 74.737 3.4987 -2.79812 0
M  V30 815 C 76.481 4.10709 -1.07322 0
M  V30 816 C 74.388 4.92536 -3.27356 0
M  V30 817 H 73.318 0.701162 -0.277288 0
M  V30 818 H 75.969 1.32932 -1.26496 0
M  V30 819 H 74.351 3.89631 -0.707376 0
M  V30 820 H 75.525 3.06332 -3.44235 0
M  V30 821 H 73.84 2.88433 -3.00325 0
M  V30 822 H 76.437 5.15952 -1.4035 0
M  V30 823 H 76.78 4.16299 -0.0108001 0
M  V30 824 H 77.313 3.6313 -1.62423 0
M  V30 825 H 74.052 4.92119 -4.33012 0
M  V30 826 H 73.572 5.3676 -2.67673 0
M  V30 827 H 75.251 5.61288 -3.21815 0
M  V30 828 N 75.3831 0.828654 1.34056 0
M  V30 829 C 76.6231 0.425394 1.99924 0
M  V30 830 C 76.9871 -0.994294 1.64249 0
M  V30 831 O 78.1881 -1.50074 2.23005 0
M  V30 832 C 76.4591 0.628071 3.51838 0
M  V30 833 S 78.0181 0.318511 4.37642 0
M  V30 834 H 74.8361 0.160465 0.692656 0
M  V30 835 H 77.4381 1.07572 1.63244 0
M  V30 836 H 76.1421 1.66089 3.7529 0
M  V30 837 H 75.6731 -0.0367799 3.93383 0
M  V30 838 H 77.6881 -0.865632 4.88591 0
M  V30 839 N 76.8612 -1.46375 0.584142 0
M  V30 840 C 78.1012 -2.0427 0.0729695 0
M  V30 841 C 78.4652 -1.44563 -1.26355 0
M  V30 842 O 79.6662 -1.93667 -1.86405 0
M  V30 843 C 77.9372 -3.57399 0.00967464 0
M  V30 844 S 79.4962 -4.36551 -0.443714 0
M  V30 845 H 76.3142 -0.709975 0.0381673 0
M  V30 846 H 78.9162 -1.79398 0.776962 0
M  V30 847 H 77.6202 -3.98372 0.986319 0
M  V30 848 H 77.1512 -3.8681 -0.717044 0
M  V30 849 H 79.1662 -4.66237 -1.69816 0
M  V30 850 N 78.3393 -0.321999 -1.54275 0
M  V30 851 C 79.5873 0.280489 -2.00144 0
M  V30 852 C 79.9083 1.52777 -1.21178 0
M  V30 853 O 79.1783 1.9338 -0.313187 0
M  V30 854 H 77.7583 0.106632 -0.73935 0
M  V30 855 H 80.4203 -0.438184 -1.8991 0
M  V30 856 H 79.5163 0.537972 -3.07428 0
M  V30 857 N 79.8174 1.5752 -0.0501392 0
M  V30 858 C 81.0474 1.96678 0.632573 0
M  V30 859 C 81.4554 0.926298 1.64974 0
M  V30 860 O 80.7984 -0.09802 1.83438 0
M  V30 861 C 80.8604 3.32068 1.37735 0
M  V30 862 C 80.5244 4.54076 0.516131 0
M  V30 863 C 81.5214 5.19445 -0.217357 0
M  V30 864 C 79.2064 5.00304 0.44736 0
M  V30 865 C 81.2004 6.29378 -1.00807 0
M  V30 866 C 78.8874 6.10114 -0.347038 0
M  V30 867 C 79.8854 6.74512 -1.07344 0
M  V30 868 O 79.5734 7.82211 -1.85477 0
M  V30 869 H 79.3054 0.652193 0.177821 0
M  V30 870 H 81.8594 2.05091 -0.112543 0
M  V30 871 H 80.0894 3.20206 2.16807 0
M  V30 872 H 81.7784 3.55981 1.95019 0
M  V30 873 H 82.5444 4.84689 -0.173688 0
M  V30 874 H 78.4234 4.49971 1.00235 0
M  V30 875 H 81.9674 6.79575 -1.57556 0
M  V30 876 H 77.8644 6.44307 -0.392349 0
M  V30 877 H 78.6324 7.98982 -1.77678 0
M  V30 878 N 81.2955 -0.223234 1.56011 0
M  V30 879 C 82.2425 -1.27664 1.92277 0
M  V30 880 C 83.2125 -1.46659 0.779763 0
M  V30 881 O 84.3975 -1.60256 1.03551 0
M  V30 882 C 81.5375 -2.62234 2.24338 0
M  V30 883 C 80.6505 -2.51051 3.51564 0
M  V30 884 C 79.7855 -3.78133 3.7308 0
M  V30 885 C 78.8245 -3.61665 4.93827 0
M  V30 886 N 77.9615 -4.80693 5.11741 0
M  V30 887 H 82.8015 -0.960358 2.82101 0
M  V30 888 H 80.3385 -0.462901 1.39627 0
M  V30 889 H 82.2965 -3.40596 2.40936 0
M  V30 890 H 80.9265 -2.91961 1.3769 0
M  V30 891 H 79.9785 -1.64132 3.43169 0
M  V30 892 H 81.2905 -2.34803 4.40079 0
M  V30 893 H 80.4445 -4.64938 3.89766 0
M  V30 894 H 79.1835 -3.97304 2.82844 0
M  V30 895 H 78.1885 -2.73244 4.77093 0
M  V30 896 H 79.4135 -3.43966 5.85546 0
M  V30 897 H 77.3595 -5.00181 4.24446 0
M  V30 898 H 77.2765 -4.67165 5.94384 0
M  V30 899 H 78.5445 -5.6893 5.3286 0
M  V30 900 N 82.7736 -1.49793 -0.48987 0
M  V30 901 C 84.0216 -1.59525 -1.24081 0
M  V30 902 C 84.3426 -0.288953 -1.92847 0
M  V30 903 O 83.6126 0.692436 -1.83254 0
M  V30 904 H 82.1926 -0.587796 -0.460983 0
M  V30 905 H 84.8546 -1.86477 -0.566778 0
M  V30 906 H 83.9506 -2.39696 -1.99881 0
M  V30 907 N 84.2517 0.741722 -1.39055 0
M  V30 908 C 85.4817 1.52876 -1.3897 0
M  V30 909 C 85.8897 1.8919 0.0193266 0
M  V30 910 O 85.2327 1.54138 0.999356 0
M  V30 911 C 85.2947 2.84929 -2.19216 0
M  V30 912 C 84.9587 2.71086 -3.67915 0
M  V30 913 C 85.9557 2.40084 -4.61146 0
M  V30 914 C 83.6407 2.88168 -4.11418 0
M  V30 915 C 85.6347 2.26335 -5.95862 0
M  V30 916 C 83.3217 2.74037 -5.46211 0
M  V30 917 C 84.3197 2.43166 -6.38247 0
M  V30 918 O 84.0077 2.29115 -7.70559 0
M  V30 919 H 83.7397 0.479252 -0.476753 0
M  V30 920 H 86.2937 0.924751 -1.83405 0
M  V30 921 H 84.5237 3.47564 -1.69518 0
M  V30 922 H 86.2127 3.46509 -2.11392 0
M  V30 923 H 86.9787 2.26545 -4.28838 0
M  V30 924 H 82.8577 3.11191 -3.40119 0
M  V30 925 H 86.4017 2.0216 -6.67665 0
M  V30 926 H 82.2987 2.87153 -5.78112 0
M  V30 927 H 83.0667 2.44237 -7.81211 0
M  V30 928 N 85.7298 1.2412 0.971189 0
M  V30 929 C 86.9758 1.08041 1.71625 0
M  V30 930 C 87.3088 -0.380407 1.90438 0
M  V30 931 O 86.5838 -1.28127 1.46334 0
M  V30 932 C 86.8668 1.81682 3.10908 0
M  V30 933 C 86.7198 3.35493 2.99608 0
M  V30 934 C 88.0388 1.58671 4.10501 0
M  V30 935 H 85.1578 0.39388 0.622919 0
M  V30 936 H 87.7998 1.52743 1.13003 0
M  V30 937 H 85.9498 1.43684 3.60953 0
M  V30 938 H 87.6218 3.83068 2.57015 0
M  V30 939 H 85.8648 3.64052 2.35899 0
M  V30 940 H 86.5358 3.82217 3.98264 0
M  V30 941 H 89.0118 1.91719 3.69301 0
M  V30 942 H 87.8878 2.1266 5.06031 0
M  V30 943 H 88.1488 0.524161 4.38982 0
M  V30 944 N 87.2079 -1.17134 1.05439 0
M  V30 945 C 88.4569 -1.86791 0.761049 0
M  V30 946 C 88.7699 -1.82072 -0.714795 0
M  V30 947 O 89.9759 -2.47223 -1.12218 0
M  V30 948 C 88.4319 -3.35166 1.31117 0
M  V30 949 C 88.0399 -3.48381 2.81664 0
M  V30 950 C 89.7839 -4.10134 1.09499 0
M  V30 951 C 87.6909 -4.90793 3.29964 0
M  V30 952 H 86.6209 -0.699681 0.281002 0
M  V30 953 H 89.2719 -1.3226 1.27199 0
M  V30 954 H 87.6539 -3.8925 0.72803 0
M  V30 955 H 88.8279 -3.04502 3.45855 0
M  V30 956 H 87.1429 -2.86836 3.01851 0
M  V30 957 H 89.7399 -5.152 1.43084 0
M  V30 958 H 90.0829 -4.16287 0.0328772 0
M  V30 959 H 90.6159 -3.62264 1.64346 0
M  V30 960 H 87.3549 -4.89816 4.35616 0
M  V30 961 H 86.8749 -5.35333 2.70516 0
M  V30 962 H 88.5539 -5.59573 3.24787 0
M  V30 963 N 88.686 -0.835752 -1.33615 0
M  V30 964 C 89.633 -0.26473 -2.29277 0
M  V30 965 C 90.603 0.617712 -1.54187 0
M  V30 966 O 91.788 0.556641 -1.825 0
M  V30 967 C 88.928 0.556777 -3.40579 0
M  V30 968 C 88.041 -0.349339 -4.30585 0
M  V30 969 C 87.176 0.482969 -5.29 0
M  V30 970 C 86.215 -0.421732 -6.10645 0
M  V30 971 N 85.352 0.372262 -7.01112 0
M  V30 972 H 90.192 -1.08582 -2.77514 0
M  V30 973 H 87.729 -0.546927 -1.36554 0
M  V30 974 H 89.687 1.04852 -4.03809 0
M  V30 975 H 88.317 1.34286 -2.93542 0
M  V30 976 H 87.369 -0.959372 -3.68104 0
M  V30 977 H 88.681 -1.04445 -4.87742 0
M  V30 978 H 87.835 1.03866 -5.97743 0
M  V30 979 H 86.574 1.21153 -4.72412 0
M  V30 980 H 85.579 -0.989464 -5.40823 0
M  V30 981 H 86.804 -1.14861 -6.69316 0
M  V30 982 H 84.75 1.08426 -6.46977 0
M  V30 983 H 84.667 -0.264198 -7.55538 0
M  V30 984 H 85.935 0.910293 -7.74167 0
M  V30 985 N 90.1641 1.46063 -0.591896 0
M  V30 986 C 91.0741 2.34192 0.13831 0
M  V30 987 C 92.0901 1.50305 0.876608 0
M  V30 988 O 93.2661 1.8315 0.837728 0
M  V30 989 C 90.3311 3.27656 1.13326 0
M  V30 990 C 89.3921 4.27445 0.39863 0
M  V30 991 C 88.6251 5.16443 1.34618 0
M  V30 992 O 88.8481 5.08553 2.58321 0
M  V30 993 O 87.7821 5.95843 0.851768 0
M  V30 994 H 91.6081 2.98002 -0.58552 0
M  V30 995 H 89.1931 1.45188 -0.352239 0
M  V30 996 H 91.0751 3.85291 1.70671 0
M  V30 997 H 89.7501 2.6643 1.83839 0
M  V30 998 H 88.6571 3.73471 -0.216895 0
M  V30 999 H 89.9901 4.91482 -0.265709 0
M  V30 1000 N 91.6422 0.330177 1.54103 0
M  V30 1001 C 92.8722 -0.271784 2.04805 0
M  V30 1002 C 93.2802 -1.45816 1.20559 0
M  V30 1003 O 92.6232 -1.82247 0.2306 0
M  V30 1004 C 92.6852 -0.763238 3.51305 0
M  V30 1005 C 92.3492 0.301705 4.56003 0
M  V30 1006 C 93.3462 1.13999 5.07248 0
M  V30 1007 C 91.0312 0.451793 5.00264 0
M  V30 1008 C 93.0252 2.11402 6.01322 0
M  V30 1009 C 90.7122 1.42924 5.94151 0
M  V30 1010 C 91.7102 2.25882 6.44567 0
M  V30 1011 O 91.3982 3.21965 7.3661 0
M  V30 1012 H 91.1302 -0.058693 0.673447 0
M  V30 1013 H 93.6842 0.476395 1.99799 0
M  V30 1014 H 91.9142 -1.56244 3.5373 0
M  V30 1015 H 93.6032 -1.28427 3.85047 0
M  V30 1016 H 94.3692 1.03505 4.73827 0
M  V30 1017 H 90.2482 -0.184044 4.60632 0
M  V30 1018 H 93.7922 2.76192 6.40596 0
M  V30 1019 H 89.6892 1.53479 6.26988 0
M  V30 1020 H 90.4572 3.17281 7.54503 0
M  V30 1021 N 93.1203 -1.57491 0.0584922 0
M  V30 1022 C 94.3673 -1.92978 -0.613648 0
M  V30 1023 C 94.6953 -0.937461 -1.70417 0
M  V30 1024 O 93.9503 0.049078 -1.95638 0
M  V30 1025 C 94.2493 -3.3513 -1.24188 0
M  V30 1026 C 93.9153 -4.50037 -0.278826 0
M  V30 1027 C 92.5773 -4.81198 -0.0138447 0
M  V30 1028 C 94.9293 -5.19807 0.380777 0
M  V30 1029 C 92.2573 -5.79473 0.918052 0
M  V30 1030 C 94.6093 -6.19079 1.30091 0
M  V30 1031 C 93.2733 -6.48665 1.57449 0
M  V30 1032 H 92.5433 -0.706157 -0.22455 0
M  V30 1033 H 95.1903 -1.91082 0.126533 0
M  V30 1034 H 93.4953 -3.33429 -2.05749 0
M  V30 1035 H 95.1923 -3.59871 -1.769 0
M  V30 1036 H 91.7823 -4.25726 -0.495539 0
M  V30 1037 H 95.9663 -4.95939 0.189158 0
M  V30 1038 H 91.2223 -6.00727 1.1374 0
M  V30 1039 H 95.3963 -6.7225 1.81804 0
M  V30 1040 H 93.0233 -7.24628 2.29822 0
M  V30 1041 N 94.5984 0.214957 -1.56127 0
M  V30 1042 C 95.5614 1.24997 -1.92116 0
M  V30 1043 C 96.5614 1.39467 -0.800344 0
M  V30 1044 O 97.7514 1.37619 -1.06802 0
M  V30 1045 C 94.8834 2.62271 -2.17777 0
M  V30 1046 H 96.0764 0.942875 -2.84693 0
M  V30 1047 H 93.6294 0.455654 -1.49511 0
M  V30 1048 H 94.3644 2.98068 -1.27773 0
M  V30 1049 H 94.1494 2.53143 -2.99434 0
M  V30 1050 H 95.6394 3.36946 -2.46693 0
M  V30 1051 N 96.0765 1.50051 0.48192 0
M  V30 1052 C 97.0245 1.68635 1.60203 0
M  V30 1053 C 98.0185 0.552184 1.60148 0
M  V30 1054 O 99.2245 0.732377 1.64427 0
M  V30 1055 H 95.5995 0.532081 0.531407 0
M  V30 1056 H 97.5705 2.62616 1.41688 0
M  V30 1057 C 96.3195 1.78775 2.9822 0
M  V30 1058 H 95.6425 2.6543 2.98976 0
M  V30 1059 H 97.0825 1.95806 3.7608 0
M  V30 1060 C 95.5415 0.536849 3.32595 0
M  V30 1061 O 96.0715 -0.328897 4.00351 0
M  V30 1062 N 94.2775 0.394091 2.87915 0
M  V30 1063 H 93.8245 1.09962 2.32951 0
M  V30 1064 H 93.7825 -0.441737 3.11281 0
M  V30 1065 N 97.5546 -0.734337 1.39446 0
M  V30 1066 C 98.7846 -1.52137 1.39778 0
M  V30 1067 C 99.1926 -1.89198 -0.00929312 0
M  V30 1068 O 98.5356 -1.54666 -0.991168 0
M  V30 1069 C 98.5976 -2.83762 2.20724 0
M  V30 1070 C 98.2616 -2.69131 3.69347 0
M  V30 1071 C 99.2586 -2.37635 4.62413 0
M  V30 1072 C 96.9436 -2.85982 4.1294 0
M  V30 1073 C 98.9376 -2.23172 5.97054 0
M  V30 1074 C 96.6246 -2.71137 5.47657 0
M  V30 1075 C 97.6226 -2.39777 6.39528 0
M  V30 1076 O 97.3106 -2.25026 7.71763 0
M  V30 1077 H 97.0426 -0.476717 0.479288 0
M  V30 1078 H 99.5966 -0.915012 1.83893 0
M  V30 1079 H 97.8266 -3.4666 1.71359 0
M  V30 1080 H 99.5156 -3.45383 2.13226 0
M  V30 1081 H 100.282 -2.24267 4.30034 0
M  V30 1082 H 96.1606 -3.09383 3.41765 0
M  V30 1083 H 99.7046 -1.98617 6.68728 0
M  V30 1084 H 95.6016 -2.84083 5.79626 0
M  V30 1085 H 96.3696 -2.40091 7.82495 0
M  V30 1086 N 99.0327 -1.24633 -0.964593 0
M  V30 1087 C 100.28 -1.08788 -1.70796 0
M  V30 1088 C 100.608 0.372783 -1.90894 0
M  V30 1089 O 99.8627 1.29167 -1.47018 0
M  V30 1090 C 100.162 -1.7763 -3.10133 0
M  V30 1091 C 99.8277 -3.27557 -3.09866 0
M  V30 1092 C 98.4897 -3.6846 -3.09501 0
M  V30 1093 C 100.842 -4.23389 -3.03959 0
M  V30 1094 C 98.1697 -5.03624 -3.00965 0
M  V30 1095 C 100.522 -5.58565 -2.96965 0
M  V30 1096 C 99.1857 -5.98809 -2.9493 0
M  V30 1097 H 98.4557 -0.398084 -0.624988 0
M  V30 1098 H 101.103 -1.54777 -1.12767 0
M  V30 1099 H 99.4077 -1.24044 -3.71645 0
M  V30 1100 H 101.105 -1.62832 -3.66451 0
M  V30 1101 H 97.6947 -2.95006 -3.10917 0
M  V30 1102 H 101.879 -3.92787 -3.03368 0
M  V30 1103 H 97.1347 -5.33998 -2.97752 0
M  V30 1104 H 101.309 -6.32523 -2.91354 0
M  V30 1105 H 98.9357 -7.03505 -2.88071 0
M  V30 1106 N 100.511 1.16574 -1.06058 0
M  V30 1107 C 101.441 2.23057 -0.690488 0
M  V30 1108 C 102.422 1.67141 0.315901 0
M  V30 1109 O 103.607 1.93253 0.191556 0
M  V30 1110 C 100.737 3.47222 -0.073625 0
M  V30 1111 C 99.6908 4.16016 -1.00573 0
M  V30 1112 C 99.0168 5.34104 -0.252289 0
M  V30 1113 C 100.317 4.67264 -2.33371 0
M  V30 1114 H 102.011 2.54271 -1.58072 0
M  V30 1115 H 99.5568 1.22218 -0.76149 0
M  V30 1116 H 101.51 4.20939 0.19714 0
M  V30 1117 H 100.234 3.15302 0.85161 0
M  V30 1118 H 98.8928 3.44223 -1.2612 0
M  V30 1119 H 98.5408 4.98437 0.675988 0
M  V30 1120 H 98.2408 5.81072 -0.873455 0
M  V30 1121 H 99.7648 6.10599 0.0109857 0
M  V30 1122 H 101.179 5.32573 -2.12223 0
M  V30 1123 H 99.5758 5.24843 -2.90963 0
M  V30 1124 H 100.646 3.83602 -2.96611 0
M  V30 1125 N 101.989 0.842826 1.3317 0
M  V30 1126 C 102.939 0.250877 2.26616 0
M  V30 1127 C 103.923 -0.596427 1.49437 0
M  V30 1128 O 105.115 -0.447747 1.71243 0
M  V30 1129 C 102.244 -0.569779 3.38539 0
M  V30 1130 C 101.33 0.289254 4.23112 0
M  V30 1131 N 101.721 1.36987 4.86897 0
M  V30 1132 C 100.019 0.0769631 4.45934 0
M  V30 1133 C 100.72 1.89737 5.49886 0
M  V30 1134 N 99.6959 1.19827 5.30229 0
M  V30 1135 H 103.498 1.07718 2.73448 0
M  V30 1136 H 101.012 0.687693 1.47121 0
M  V30 1137 H 103.009 -1.01018 4.04476 0
M  V30 1138 H 101.669 -1.39401 2.93253 0
M  V30 1139 H 102.68 1.75277 4.87338 0
M  V30 1140 H 99.3569 -0.713507 4.11358 0
M  V30 1141 H 100.747 2.80253 6.10662 0
M  V30 1142 N 103.467 -1.45747 0.599634 0
M  V30 1143 C 104.4 -2.27547 -0.172552 0
M  V30 1144 C 105.378 -1.36657 -0.881116 0
M  V30 1145 O 106.562 -1.66081 -0.891595 0
M  V30 1146 C 103.689 -3.14829 -1.24903 0
M  V30 1147 C 102.735 -4.21603 -0.644465 0
M  V30 1148 S 103.568 -5.32754 0.541606 0
M  V30 1149 C 104.724 -6.23604 -0.535656 0
M  V30 1150 H 104.957 -2.92691 0.521468 0
M  V30 1151 H 102.49 -1.49473 0.386947 0
M  V30 1152 H 104.448 -3.65675 -1.86527 0
M  V30 1153 H 103.109 -2.48965 -1.91508 0
M  V30 1154 H 102.302 -4.82566 -1.45417 0
M  V30 1155 H 101.904 -3.73857 -0.103534 0
M  V30 1156 H 104.196 -6.62519 -1.41686 0
M  V30 1157 H 105.139 -7.0809 0.0376246 0
M  V30 1158 H 105.547 -5.58103 -0.84741 0
M  V30 1159 N 104.945 -0.338344 -1.53925 0
M  V30 1160 C 106.17 0.263987 -2.05713 0
M  V30 1161 C 106.595 1.43847 -1.21201 0
M  V30 1162 O 105.953 1.79904 -0.224535 0
M  V30 1163 C 106.001 0.662 -3.54471 0
M  V30 1164 O 105.105 1.76265 -3.72833 0
M  V30 1165 H 104.446 0.0448722 -0.662482 0
M  V30 1166 H 106.976 -0.491048 -1.9862 0
M  V30 1167 H 106.986 0.940594 -3.9701 0
M  V30 1168 H 105.661 -0.196937 -4.15433 0
M  V30 1169 H 104.238 1.48173 -3.42198 0
M  V30 1170 N 106.423 1.57458 -0.0668435 0
M  V30 1171 C 107.7 1.8469 0.644132 0
M  V30 1172 C 108.08 0.958343 1.88093 0
M  V30 1173 O 107.428 0.0233579 2.28488 0
M  V30 1174 C 107.638 3.34767 0.986509 0
M  V30 1175 C 108.986 4.02159 1.36212 0
M  V30 1176 O 110.01 3.39484 1.07839 0
M  V30 1177 O 108.869 5.12694 1.89227 0
M  V30 1178 H 105.963 0.762816 0.319437 0
M  V30 1179 H 108.509 1.6942 -0.0973986 0
M  V30 1180 H 107.281 3.91151 0.107883 0
M  V30 1181 H 106.904 3.55281 1.78497 0
M  V30 1182 N 107.901 -0.206675 1.56239 0
M  V30 1183 C 109.147 -0.930218 1.80208 0
M  V30 1184 C 109.48 -1.83387 0.638981 0
M  V30 1185 O 108.755 -1.91119 -0.361066 0
M  V30 1186 C 109.038 -1.75641 3.1436 0
M  V30 1187 C 108.891 -0.878257 4.41142 0
M  V30 1188 C 110.21 -2.73129 3.45092 0
M  V30 1189 H 107.329 -0.336742 0.655571 0
M  V30 1190 H 109.971 -0.198222 1.88963 0
M  V30 1191 H 108.121 -2.38048 3.07027 0
M  V30 1192 H 109.793 -0.269787 4.6051 0
M  V30 1193 H 108.036 -0.184385 4.33408 0
M  V30 1194 H 108.707 -1.49106 5.3148 0
M  V30 1195 H 111.183 -2.20856 3.52649 0
M  V30 1196 H 110.059 -3.28028 4.40101 0
M  V30 1197 H 110.32 -3.51606 2.68003 0
M  V30 1198 N 109.379 -1.50304 -0.473955 0
M  V30 1199 C 110.607 -1.64902 -1.24959 0
M  V30 1200 C 111.022 -0.331198 -1.85872 0
M  V30 1201 O 110.379 0.68652 -1.69095 0
M  V30 1202 C 110.43 -2.73803 -2.36038 0
M  V30 1203 O 110.151 -4.00477 -1.77624 0
M  V30 1204 C 111.652 -2.99349 -3.26964 0
M  V30 1205 H 108.872 -0.554383 -0.378022 0
M  V30 1206 H 111.416 -1.9651 -0.566054 0
M  V30 1207 H 109.571 -2.44898 -3.00173 0
M  V30 1208 H 109.985 -4.60678 -2.5075 0
M  V30 1209 H 111.459 -3.79217 -4.01121 0
M  V30 1210 H 111.936 -2.10307 -3.85574 0
M  V30 1211 H 112.542 -3.29774 -2.68569 0
M  V30 1212 N 110.857 0.726932 -1.39834 0
M  V30 1213 C 112.104 1.48664 -1.37496 0
M  V30 1214 C 112.432 1.94482 0.0264678 0
M  V30 1215 O 111.687 1.67692 1.00886 0
M  V30 1216 C 111.986 2.73495 -2.30077 0
M  V30 1217 C 111.652 2.46502 -3.77555 0
M  V30 1218 C 110.314 2.3885 -4.17737 0
M  V30 1219 C 112.666 2.23604 -4.70798 0
M  V30 1220 C 109.994 2.06352 -5.49214 0
M  V30 1221 C 112.346 1.92622 -6.02561 0
M  V30 1222 C 111.01 1.83444 -6.41798 0
M  V30 1223 H 110.28 0.544001 -0.503135 0
M  V30 1224 H 112.927 0.833657 -1.72402 0
M  V30 1225 H 111.232 3.43575 -1.88317 0
M  V30 1226 H 112.929 3.31549 -2.25558 0
M  V30 1227 H 109.519 2.5334 -3.45712 0
M  V30 1228 H 113.703 2.28479 -4.40581 0
M  V30 1229 H 108.959 1.97776 -5.78528 0
M  V30 1230 H 113.133 1.73914 -6.74334 0
M  V30 1231 H 110.76 1.58029 -7.43593 0
M  V30 1232 N 112.336 1.25143 0.95797 0
M  V30 1233 C 113.286 1.01924 2.0395 0
M  V30 1234 C 114.27 -0.0427175 1.60843 0
M  V30 1235 O 115.462 0.17221 1.7616 0
M  V30 1236 C 112.591 0.636373 3.3735 0
M  V30 1237 C 111.677 1.73492 3.8699 0
M  V30 1238 N 112.068 2.96945 4.0946 0
M  V30 1239 C 110.366 1.61467 4.15746 0
M  V30 1240 C 111.067 3.68228 4.50315 0
M  V30 1241 N 110.043 2.95833 4.56053 0
M  V30 1242 H 113.845 1.95653 2.19311 0
M  V30 1243 H 111.359 1.15413 1.14253 0
M  V30 1244 H 113.356 0.451233 4.14451 0
M  V30 1245 H 112.016 -0.293621 3.2337 0
M  V30 1246 H 113.027 3.33025 3.96629 0
M  V30 1247 H 109.704 0.753394 4.10646 0
M  V30 1248 H 111.094 4.74178 4.76031 0
M  V30 1249 N 113.814 -1.1601 1.06675 0
M  V30 1250 C 114.747 -2.1947 0.625168 0
M  V30 1251 C 115.725 -1.58699 -0.354041 0
M  V30 1252 O 116.909 -1.86669 -0.262098 0
M  V30 1253 C 114.036 -3.38598 -0.0829593 0
M  V30 1254 C 113.082 -4.1787 0.853611 0
M  V30 1255 S 113.915 -4.81135 2.35094 0
M  V30 1256 C 115.071 -6.03639 1.65441 0
M  V30 1257 H 115.304 -2.56587 1.50168 0
M  V30 1258 H 112.837 -1.26862 0.880078 0
M  V30 1259 H 114.795 -4.07621 -0.485288 0
M  V30 1260 H 113.456 -2.99839 -0.935716 0
M  V30 1261 H 112.649 -5.03078 0.304755 0
M  V30 1262 H 112.251 -3.54361 1.196 0
M  V30 1263 H 114.543 -6.70632 0.962201 0
M  V30 1264 H 115.486 -6.63081 2.48454 0
M  V30 1265 H 115.894 -5.52965 1.13534 0
M  V30 1266 N 115.292 -0.849877 -1.32721 0
M  V30 1267 C 116.255 -0.296122 -2.27279 0
M  V30 1268 C 117.255 0.541458 -1.5141 0
M  V30 1269 O 118.445 0.353658 -1.70572 0
M  V30 1270 C 115.577 0.581579 -3.35902 0
M  V30 1271 H 116.77 -1.13064 -2.77771 0
M  V30 1272 H 114.323 -0.62383 -1.43311 0
M  V30 1273 H 115.058 1.43809 -2.9067 0
M  V30 1274 H 114.843 -0.0178814 -3.92096 0
M  V30 1275 H 116.333 0.961951 -4.0637 0
M  V30 1276 N 116.77 1.45427 -0.607355 0
M  V30 1277 C 117.68 2.34325 0.113463 0
M  V30 1278 C 118.696 1.51226 0.860617 0
M  V30 1279 O 119.872 1.84029 0.818255 0
M  V30 1280 C 116.937 3.28839 1.09844 0
M  V30 1281 C 115.998 4.27844 0.353271 0
M  V30 1282 C 115.231 5.17842 1.29133 0
M  V30 1283 O 115.454 5.11264 2.52913 0
M  V30 1284 O 114.388 5.96713 0.788523 0
M  V30 1285 H 118.214 2.97364 -0.617094 0
M  V30 1286 H 115.799 1.44807 -0.367619 0
M  V30 1287 H 117.681 3.8708 1.66575 0
M  V30 1288 H 116.356 2.68365 1.81003 0
M  V30 1289 H 115.263 3.7322 -0.256494 0
M  V30 1290 H 116.596 4.91173 -0.317822 0
M  V30 1291 N 118.248 0.346503 1.53744 0
M  V30 1292 C 119.196 -0.52422 2.26616 0
M  V30 1293 C 120.19 -1.09948 1.28871 0
M  V30 1294 O 121.396 -1.04488 1.46568 0
M  V30 1295 H 117.771 -0.187743 0.728187 0
M  V30 1296 H 119.742 0.11239 2.98188 0
M  V30 1297 C 118.491 -1.66186 3.05414 0
M  V30 1298 H 117.814 -1.22848 3.80458 0
M  V30 1299 H 119.254 -2.24622 3.59612 0
M  V30 1300 C 117.713 -2.59302 2.1509 0
M  V30 1301 O 118.243 -3.61628 1.74895 0
M  V30 1302 N 116.449 -2.28055 1.8011 0
M  V30 1303 H 115.996 -1.44883 2.12994 0
M  V30 1304 H 115.954 -2.90615 1.19958 0
M  V30 1305 N 119.726 -1.57421 0.075193 0
M  V30 1306 C 121.142 -1.57099 -0.281444 0
M  V30 1307 C 121.342 -1.08486 -1.69803 0
M  V30 1308 O 120.398 -0.752279 -2.41033 0
M  V30 1309 C 121.711 -3.00571 -0.0880041 0
M  V30 1310 C 123.259 -3.12605 -0.157281 0
M  V30 1311 C 123.734 -4.57999 0.0079207 0
M  V30 1312 N 125.225 -4.63176 -0.0475725 0
M  V30 1313 C 125.96 -5.73373 0.0557876 0
M  V30 1314 N 125.456 -6.92473 0.21286 0
M  V30 1315 N 127.249 -5.621 -0.00152098 0
M  V30 1316 H 119.4 -1.87335 1.00098 0
M  V30 1317 H 121.663 -0.86377 0.390646 0
M  V30 1318 H 121.369 -3.40262 0.889629 0
M  V30 1319 H 121.243 -3.67754 -0.838875 0
M  V30 1320 H 123.63 -2.72798 -1.1254 0
M  V30 1321 H 123.711 -2.48053 0.62475 0
M  V30 1322 H 123.355 -4.98496 0.972824 0
M  V30 1323 H 123.285 -5.20586 -0.793556 0
M  V30 1324 H 125.776 -3.7753 -0.167244 0
M  V30 1325 H 126.089 -7.72279 0.283781 0
M  V30 1326 H 124.434 -6.94556 0.248267 0
M  V30 1327 H 127.625 -4.67938 -0.122958 0
M  V30 1328 H 127.798 -6.47948 0.0824844 0
M  V30 1329 N 121.204 0.198386 -1.56346 0
M  V30 1330 C 122.137 1.27381 -1.89339 0
M  V30 1331 C 123.115 1.44106 -0.753134 0
M  V30 1332 O 124.299 1.59549 -1.00381 0
M  V30 1333 C 121.426 2.6409 -2.12071 0
M  V30 1334 C 120.472 2.64253 -3.34772 0
M  V30 1335 S 121.305 2.16013 -4.89999 0
M  V30 1336 C 122.461 3.54553 -5.15794 0
M  V30 1337 H 122.694 0.992058 -2.8026 0
M  V30 1338 H 120.227 0.401726 -1.49082 0
M  V30 1339 H 122.185 3.42786 -2.2585 0
M  V30 1340 H 120.846 2.89478 -1.21906 0
M  V30 1341 H 120.039 3.64768 -3.47794 0
M  V30 1342 H 119.641 1.93637 -3.1997 0
M  V30 1343 H 121.933 4.50396 -5.06112 0
M  V30 1344 H 122.876 3.46428 -6.1757 0
M  V30 1345 H 123.284 3.49313 -4.43442 0
M  V30 1346 N 122.682 1.50554 0.465978 0
M  V30 1347 C 123.592 1.72585 1.58907 0
M  V30 1348 C 124.608 0.60911 1.6299 0
M  V30 1349 O 125.784 0.88804 1.80765 0
M  V30 1350 C 122.849 1.81995 2.95091 0
M  V30 1351 C 121.91 3.05751 3.01355 0
M  V30 1352 C 121.143 3.14702 4.31043 0
M  V30 1353 O 121.366 2.30313 5.21835 0
M  V30 1354 O 120.3 4.07468 4.43005 0
M  V30 1355 H 124.126 2.67799 1.43239 0
M  V30 1356 H 121.711 1.34711 0.646013 0
M  V30 1357 H 123.593 1.90335 3.75966 0
M  V30 1358 H 122.268 0.899659 3.10947 0
M  V30 1359 H 121.175 3.02908 2.19539 0
M  V30 1360 H 122.508 3.97375 2.90437 0
M  V30 1361 N 124.16 -0.719506 1.40217 0
M  V30 1362 C 125.406 -1.48152 1.38488 0
M  V30 1363 C 125.739 -1.94195 -0.0141867 0
M  V30 1364 O 125.014 -1.67884 -0.982096 0
M  V30 1365 C 125.297 -2.71035 2.37091 0
M  V30 1366 C 125.15 -2.30912 3.86005 0
M  V30 1367 C 126.469 -3.73182 2.33288 0
M  V30 1368 H 123.588 -0.537395 0.504357 0
M  V30 1369 H 126.23 -0.821472 1.71324 0
M  V30 1370 H 124.38 -3.27352 2.0922 0
M  V30 1371 H 126.052 -1.80107 4.24687 0
M  V30 1372 H 124.295 -1.62958 4.02029 0
M  V30 1373 H 124.966 -3.18978 4.50508 0
M  V30 1374 H 127.442 -3.26485 2.57966 0
M  V30 1375 H 126.318 -4.56806 3.04334 0
M  V30 1376 H 126.579 -4.21202 1.34317 0
M  V30 1377 N 125.638 -1.25649 -0.95132 0
M  V30 1378 C 126.588 -1.03004 -2.03406 0
M  V30 1379 C 127.572 0.034187 -1.60864 0
M  V30 1380 O 128.764 -0.181549 -1.76066 0
M  V30 1381 C 125.893 -0.654255 -3.37008 0
M  V30 1382 C 124.979 -1.75542 -3.86065 0
M  V30 1383 N 125.37 -2.99113 -4.07879 0
M  V30 1384 C 123.668 -1.63669 -4.14884 0
M  V30 1385 C 124.369 -3.70611 -4.48356 0
M  V30 1386 N 123.345 -2.98247 -4.54477 0
M  V30 1387 H 127.147 -1.96813 -2.1827 0
M  V30 1388 H 124.661 -1.16017 -1.13639 0
M  V30 1389 H 126.658 -0.473206 -4.14206 0
M  V30 1390 H 125.318 0.276468 -3.23521 0
M  V30 1391 H 126.329 -3.35124 -3.94857 0
M  V30 1392 H 123.006 -0.775161 -4.10241 0
M  V30 1393 H 124.396 -4.76695 -4.73509 0
M  V30 1394 N 127.117 1.15442 -1.07289 0
M  V30 1395 C 128.067 2.18164 -0.662467 0
M  V30 1396 C 129.051 1.57845 0.312074 0
M  V30 1397 O 130.243 1.76552 0.125905 0
M  V30 1398 C 127.372 3.43246 -0.0611295 0
M  V30 1399 C 126.458 4.1062 -1.06077 0
M  V30 1400 N 126.849 4.53491 -2.24008 0
M  V30 1401 C 125.147 4.36949 -0.893964 0
M  V30 1402 C 125.848 5.05731 -2.87422 0
M  V30 1403 N 124.824 4.99236 -2.15091 0
M  V30 1404 H 128.626 2.49038 -1.56068 0
M  V30 1405 H 126.14 1.32003 -0.945988 0
M  V30 1406 H 128.137 4.16145 0.250792 0
M  V30 1407 H 126.797 3.13854 0.832207 0
M  V30 1408 H 127.808 4.46898 -2.6173 0
M  V30 1409 H 124.485 4.17466 -0.0534693 0
M  V30 1410 H 125.875 5.48865 -3.87553 0
M  V30 1411 N 128.595 0.856903 1.32268 0
M  V30 1412 C 129.542 0.301172 2.28827 0
M  V30 1413 C 130.512 -0.593104 1.5515 0
M  V30 1414 O 131.697 -0.527537 1.83362 0
M  V30 1415 C 128.837 -0.502523 3.41422 0
M  V30 1416 C 127.95 0.417797 4.29975 0
M  V30 1417 C 127.085 -0.398749 5.29701 0
M  V30 1418 C 126.124 0.518827 6.09897 0
M  V30 1419 N 125.261 -0.260674 7.01616 0
M  V30 1420 H 130.101 1.12983 2.75751 0
M  V30 1421 H 127.638 0.568582 1.35667 0
M  V30 1422 H 129.596 -0.984141 4.05426 0
M  V30 1423 H 128.226 -1.29599 2.95642 0
M  V30 1424 H 127.278 1.01781 3.66531 0
M  V30 1425 H 128.59 1.12191 4.86019 0
M  V30 1426 H 127.744 -0.943435 5.9932 0
M  V30 1427 H 126.483 -1.13622 4.7428 0
M  V30 1428 H 125.488 1.07538 5.39181 0
M  V30 1429 H 126.713 1.25495 6.67404 0
M  V30 1430 H 124.659 -0.981198 6.4862 0
M  V30 1431 H 124.576 0.384364 7.55022 0
M  V30 1432 H 125.844 -0.787014 7.75517 0
M  V30 1433 N 130.073 -1.45103 0.615059 0
M  V30 1434 C 131.489 -1.57137 0.279322 0
M  V30 1435 C 131.689 -1.60523 -1.21797 0
M  V30 1436 O 130.745 -1.53956 -2.00134 0
M  V30 1437 C 132.058 -2.85062 0.957083 0
M  V30 1438 C 133.606 -2.98749 0.933706 0
M  V30 1439 C 134.081 -4.29455 1.59162 0
M  V30 1440 N 135.572 -4.36231 1.55746 0
M  V30 1441 C 136.307 -5.36051 2.0356 0
M  V30 1442 N 135.803 -6.42367 2.59494 0
M  V30 1443 N 137.596 -5.27456 1.94284 0
M  V30 1444 H 129.747 -1.41148 1.58717 0
M  V30 1445 H 132.01 -0.675331 0.665306 0
M  V30 1446 H 131.716 -2.88488 2.01166 0
M  V30 1447 H 131.59 -3.7407 0.48494 0
M  V30 1448 H 133.977 -2.94886 -0.112347 0
M  V30 1449 H 134.058 -2.11132 1.44419 0
M  V30 1450 H 133.702 -4.34077 2.63704 0
M  V30 1451 H 133.632 -5.15901 1.0561 0
M  V30 1452 H 136.123 -3.60011 1.14893 0
M  V30 1453 H 136.436 -7.14793 2.93752 0
M  V30 1454 H 134.781 -6.43097 2.63537 0
M  V30 1455 H 137.972 -4.43308 1.5032 0
M  V30 1456 H 138.145 -6.05099 2.3186 0
M  V30 1457 N 131.551 -0.354651 -1.53558 0
M  V30 1458 C 132.797 0.238797 -2.01389 0
M  V30 1459 C 133.13 1.49309 -1.2418 0
M  V30 1460 O 132.405 1.91638 -0.332457 0
M  V30 1461 C 132.688 0.541771 -3.56001 0
M  V30 1462 C 132.541 -0.725388 -4.43912 0
M  V30 1463 C 133.86 1.34685 -4.18984 0
M  V30 1464 H 130.979 0.0853177 -0.732045 0
M  V30 1465 H 133.621 -0.477384 -1.83905 0
M  V30 1466 H 131.771 1.15189 -3.71031 0
M  V30 1467 H 133.443 -1.36313 -4.407 0
M  V30 1468 H 131.686 -1.34801 -4.12324 0
M  V30 1469 H 132.357 -0.468505 -5.50008 0
M  V30 1470 H 134.833 0.830837 -4.07721 0
M  V30 1471 H 133.709 1.52759 -5.27215 0
M  V30 1472 H 133.97 2.35221 -3.74331 0
M  V30 1473 N 133.029 1.57378 -0.0835403 0
M  V30 1474 C 133.939 2.16897 0.894021 0
M  V30 1475 C 134.955 1.13528 1.31861 0
M  V30 1476 O 136.131 1.45848 1.3889 0
M  V30 1477 C 133.196 2.72831 2.13925 0
M  V30 1478 C 132.257 3.91115 1.76997 0
M  V30 1479 C 131.49 4.44371 2.95584 0
M  V30 1480 O 131.713 3.96596 4.09961 0
M  V30 1481 O 130.647 5.35549 2.74719 0
M  V30 1482 H 134.473 3.00814 0.417679 0
M  V30 1483 H 132.058 1.48741 0.140181 0
M  V30 1484 H 133.94 3.0863 2.86924 0
M  V30 1485 H 132.615 1.91967 2.60635 0
M  V30 1486 H 131.522 3.60148 1.01214 0
M  V30 1487 H 132.855 4.73307 1.3506 0
M  V30 1488 N 134.507 -0.190092 1.56449 0
M  V30 1489 C 135.918 -0.754312 1.70784 0
M  V30 1490 C 136.269 -1.83631 0.690951 0
M  V30 1491 O 135.394 -2.15868 -0.151604 0
M  V30 1492 C 135.989 -1.37503 3.09642 0
M  V30 1493 C 134.548 -1.88628 3.25725 0
M  V30 1494 C 133.695 -0.758098 2.66736 0
M  V30 1495 H 136.646 0.0350524 1.58661 0
M  V30 1496 H 136.667 -2.2445 3.0725 0
M  V30 1497 H 136.179 -0.587302 3.83631 0
M  V30 1498 H 134.28 -2.70103 2.56661 0
M  V30 1499 H 134.393 -2.04462 4.3328 0
M  V30 1500 H 132.757 -1.17369 2.26046 0
M  V30 1501 H 133.54 0.0174705 3.43296 0
M  V30 1502 N 135.985 -1.50799 -0.457987 0
M  V30 1503 C 137.231 -1.63648 -1.20792 0
M  V30 1504 C 137.586 -0.338662 -1.89396 0
M  V30 1505 O 136.879 0.664291 -1.79716 0
M  V30 1506 C 137.073 -2.76358 -2.2663 0
M  V30 1507 C 136.902 -4.16974 -1.68411 0
M  V30 1508 C 135.672 -4.83199 -1.47807 0
M  V30 1509 C 137.87 -5.00774 -1.17176 0
M  V30 1510 N 135.852 -6.07991 -0.849692 0
M  V30 1511 C 137.223 -6.16397 -0.667403 0
M  V30 1512 C 139.278 -4.86452 -1.06155 0
M  V30 1513 C 137.981 -7.19272 -0.0636908 0
M  V30 1514 C 140.007 -5.89515 -0.471759 0
M  V30 1515 C 139.369 -7.04397 0.0221557 0
M  V30 1516 H 135.468 -0.652888 -0.43042 0
M  V30 1517 H 138.052 -1.87962 -0.507785 0
M  V30 1518 H 136.223 -2.53744 -2.94056 0
M  V30 1519 H 137.955 -2.78496 -2.93636 0
M  V30 1520 H 134.71 -4.40714 -1.73403 0
M  V30 1521 H 135.134 -6.74733 -0.553537 0
M  V30 1522 H 139.776 -3.97907 -1.42932 0
M  V30 1523 H 137.494 -8.07481 0.316253 0
M  V30 1524 H 141.08 -5.805 -0.388671 0
M  V30 1525 H 139.96 -7.82782 0.471375 0
M  V30 1526 N 137.463 0.71206 -1.40597 0
M  V30 1527 C 138.411 1.84746 -1.41321 0
M  V30 1528 C 139.405 1.66842 -0.293268 0
M  V30 1529 O 140.611 1.73904 -0.464481 0
M  V30 1530 H 136.986 0.608522 -0.441819 0
M  V30 1531 H 138.957 1.81252 -2.37045 0
M  V30 1532 C 137.706 3.22638 -1.29614 0
M  V30 1533 H 137.029 3.37023 -2.15071 0
M  V30 1534 H 138.469 4.02209 -1.3418 0
M  V30 1535 C 136.928 3.36899 -0.00673121 0
M  V30 1536 O 137.458 3.90186 0.954859 0
M  V30 1537 N 135.664 2.9053 0.0639327 0
M  V30 1538 H 135.211 2.47353 -0.719311 0
M  V30 1539 H 135.169 3.0045 0.926118 0
M  V30 1540 N 138.941 1.26152 0.944643 0
M  V30 1541 C 140.187 1.11657 1.69294 0
M  V30 1542 C 140.52 -0.339926 1.91202 0
M  V30 1543 O 139.795 -1.24994 1.49019 0
M  V30 1544 C 140.078 1.88236 3.06984 0
M  V30 1545 C 139.931 3.41772 2.92424 0
M  V30 1546 C 141.25 1.67343 4.07043 0
M  V30 1547 H 138.369 0.407004 0.614424 0
M  V30 1548 H 141.011 1.55106 1.09737 0
M  V30 1549 H 139.161 1.51308 3.57824 0
M  V30 1550 H 140.833 3.88433 2.48832 0
M  V30 1551 H 139.076 3.68974 2.28124 0
M  V30 1552 H 139.747 3.90579 3.90067 0
M  V30 1553 H 142.223 1.99509 3.65151 0
M  V30 1554 H 141.099 2.23346 5.01406 0
M  V30 1555 H 141.36 0.617158 4.37771 0
M  V30 1556 N 140.419 -1.14872 1.07899 0
M  V30 1557 C 141.647 -1.89661 0.82683 0
M  V30 1558 C 142.062 -1.78312 -0.620519 0
M  V30 1559 O 141.419 -1.13888 -1.42604 0
M  V30 1560 C 141.47 -3.39817 1.23316 0
M  V30 1561 O 141.191 -3.50845 2.62372 0
M  V30 1562 C 142.692 -4.31615 1.0111 0
M  V30 1563 H 139.912 -0.60092 0.298557 0
M  V30 1564 H 142.456 -1.4551 1.43691 0
M  V30 1565 H 140.611 -3.8161 0.667286 0
M  V30 1566 H 141.025 -4.44076 2.79101 0
M  V30 1567 H 142.499 -5.35367 1.34486 0
M  V30 1568 H 142.976 -4.39169 -0.0522168 0
M  V30 1569 H 143.582 -3.95572 1.56215 0
M  V30 1570 N 141.898 -0.863906 -1.31812 0
M  V30 1571 C 142.828 -0.330843 -2.31144 0
M  V30 1572 C 143.809 0.575005 -1.60087 0
M  V30 1573 O 144.994 0.493304 -1.8783 0
M  V30 1574 C 142.124 0.47374 -3.44054 0
M  V30 1575 C 141.078 -0.338481 -4.26659 0
M  V30 1576 C 140.404 0.591412 -5.31419 0
M  V30 1577 C 141.704 -1.56926 -4.98168 0
M  V30 1578 H 143.398 -1.16086 -2.75979 0
M  V30 1579 H 140.944 -0.559657 -1.32679 0
M  V30 1580 H 142.897 0.857143 -4.12591 0
M  V30 1581 H 141.621 1.33721 -2.9797 0
M  V30 1582 H 140.28 -0.703754 -3.59782 0
M  V30 1583 H 139.928 1.45199 -4.81587 0
M  V30 1584 H 139.628 0.0519022 -5.87577 0
M  V30 1585 H 141.152 0.97179 -6.02817 0
M  V30 1586 H 142.566 -1.25764 -5.59336 0
M  V30 1587 H 140.963 -2.04739 -5.64094 0
M  V30 1588 H 142.033 -2.32544 -4.25501 0
M  V30 1589 N 143.376 1.44774 -0.622745 0
M  V30 1590 C 144.622 2.0242 -0.124083 0
M  V30 1591 C 144.955 1.4881 1.24777 0
M  V30 1592 O 144.23 0.668799 1.8264 0
M  V30 1593 C 144.513 3.59957 -0.101619 0
M  V30 1594 C 144.366 4.23867 -1.50521 0
M  V30 1595 C 145.685 4.36284 0.578272 0
M  V30 1596 H 142.804 0.735528 -0.0465645 0
M  V30 1597 H 145.446 1.72447 -0.797617 0
M  V30 1598 H 143.596 3.85623 0.471934 0
M  V30 1599 H 145.268 4.09336 -2.12701 0
M  V30 1600 H 143.511 3.81684 -2.06154 0
M  V30 1601 H 144.182 5.32843 -1.4416 0
M  V30 1602 H 146.658 4.16001 0.0906057 0
M  V30 1603 H 145.534 5.46004 0.563149 0
M  V30 1604 H 145.795 4.10271 1.64713 0
M  V30 1605 N 144.854 0.36279 1.53368 0
M  V30 1606 C 146.131 -0.284021 1.93527 0
M  V30 1607 C 146.511 -1.66628 1.29608 0
M  V30 1608 O 145.859 -2.23942 0.45413 0
M  V30 1609 C 146.069 -0.337028 3.47369 0
M  V30 1610 C 147.417 -0.578708 4.20638 0
M  V30 1611 O 148.441 -0.418352 3.53735 0
M  V30 1612 O 147.3 -0.89074 5.39192 0
M  V30 1613 H 144.394 -0.169743 0.809393 0
M  V30 1614 H 146.94 0.41537 1.64538 0
M  V30 1615 H 145.712 0.632217 3.86159 0
M  V30 1616 H 145.335 -1.08243 3.82582 0
M  V30 1617 N 146.332 -1.57332 0.0918853 0
M  V30 1618 C 147.56 -1.98574 -0.581048 0
M  V30 1619 C 147.975 -0.970903 -1.61923 0
M  V30 1620 O 147.332 0.0399054 -1.82456 0
M  V30 1621 C 147.383 -3.39872 -1.23164 0
M  V30 1622 O 147.104 -4.37469 -0.234989 0
M  V30 1623 C 148.605 -3.96099 -1.99049 0
M  V30 1624 H 145.825 -0.65261 -0.156018 0
M  V30 1625 H 148.369 -2.0379 0.170225 0
M  V30 1626 H 146.524 -3.35679 -1.93386 0
M  V30 1627 H 146.938 -5.19751 -0.70418 0
M  V30 1628 H 148.412 -4.97127 -2.39934 0
M  V30 1629 H 148.889 -3.3374 -2.85507 0
M  V30 1630 H 149.495 -4.03755 -1.3365 0
M  V30 1631 N 147.81 0.181792 -1.56548 0
M  V30 1632 C 149.058 0.89832 -1.81038 0
M  V30 1633 C 149.379 1.83232 -0.667164 0
M  V30 1634 O 148.649 1.93372 0.313673 0
M  V30 1635 H 147.229 0.33471 -0.667816 0
M  V30 1636 H 149.891 0.184116 -1.94028 0
M  V30 1637 H 148.987 1.4815 -2.74696 0
M  V30 1638 N 149.288 1.51039 0.449983 0
M  V30 1639 C 150.565 1.53612 1.21089 0
M  V30 1640 C 150.945 0.292997 2.09057 0
M  V30 1641 O 150.293 -0.72259 2.16774 0
M  V30 1642 C 150.503 2.84337 2.0237 0
M  V30 1643 C 151.851 3.35807 2.59843 0
M  V30 1644 O 152.875 2.85802 2.12593 0
M  V30 1645 O 151.734 4.23029 3.45989 0
M  V30 1646 H 148.828 0.617057 0.550608 0
M  V30 1647 H 151.374 1.63344 0.460082 0
M  V30 1648 H 150.146 3.66278 1.37681 0
M  V30 1649 H 149.769 2.77708 2.84542 0
M  V30 1650 N 150.766 -0.704594 1.40972 0
M  V30 1651 C 151.991 -1.49858 1.43378 0
M  V30 1652 C 152.416 -1.88061 0.038184 0
M  V30 1653 O 151.774 -1.5402 -0.956425 0
M  V30 1654 C 151.822 -2.74333 2.34038 0
M  V30 1655 O 150.926 -3.7147 1.7912 0
M  V30 1656 H 150.267 -0.45139 0.486974 0
M  V30 1657 H 152.797 -0.866832 1.8533 0
M  V30 1658 H 152.807 -3.22741 2.49604 0
M  V30 1659 H 151.482 -2.45863 3.35446 0
M  V30 1660 H 150.059 -3.30363 1.72958 0
M  V30 1661 N 152.244 -1.26651 -0.937939 0
M  V30 1662 C 153.469 -1.15279 -1.72411 0
M  V30 1663 C 153.894 0.287866 -1.85884 0
M  V30 1664 O 153.252 1.20855 -1.35143 0
M  V30 1665 C 153.3 -1.83028 -3.10698 0
M  V30 1666 O 152.404 -1.12128 -3.96864 0
M  V30 1667 H 151.745 -0.401504 -0.528858 0
M  V30 1668 H 154.275 -1.67531 -1.1745 0
M  V30 1669 H 154.285 -1.89981 -3.6107 0
M  V30 1670 H 152.96 -2.87833 -3.00208 0
M  V30 1671 H 151.537 -1.13173 -3.55312 0
M  V30 1672 N 153.722 1.14298 -1.08507 0
M  V30 1673 C 154.655 2.18447 -0.660004 0
M  V30 1674 C 155.633 1.59242 0.328749 0
M  V30 1675 O 156.817 1.87062 0.232367 0
M  V30 1676 C 153.944 3.38688 0.0290807 0
M  V30 1677 C 152.99 4.1646 -0.919982 0
M  V30 1678 S 153.823 4.77334 -2.42718 0
M  V30 1679 C 154.979 6.00931 -1.75024 0
M  V30 1680 H 155.212 2.54166 -1.54231 0
M  V30 1681 H 152.745 1.25446 -0.900149 0
M  V30 1682 H 154.703 4.08342 0.420378 0
M  V30 1683 H 153.364 3.01289 0.887895 0
M  V30 1684 H 152.557 5.02529 -0.384751 0
M  V30 1685 H 152.159 3.52414 -1.25223 0
M  V30 1686 H 154.451 6.69017 -1.06877 0
M  V30 1687 H 155.394 6.59044 -2.58971 0
M  V30 1688 H 155.802 5.51089 -1.22317 0
M  V30 1689 N 155.201 0.870884 1.31352 0
M  V30 1690 C 156.429 0.49677 2.00848 0
M  V30 1691 C 156.844 -0.910998 1.65367 0
M  V30 1692 O 156.201 -1.59696 0.883374 0
M  V30 1693 C 156.252 0.645308 3.55694 0
M  V30 1694 O 155.973 1.99764 3.89905 0
M  V30 1695 C 157.474 0.272326 4.42463 0
M  V30 1696 H 154.694 0.193462 0.642506 0
M  V30 1697 H 157.238 1.1723 1.67563 0
M  V30 1698 H 155.393 0.0173176 3.87396 0
M  V30 1699 H 155.807 2.00607 4.84621 0
M  V30 1700 H 157.281 0.427208 5.50344 0
M  V30 1701 H 157.758 -0.788587 4.32062 0
M  V30 1702 H 158.364 0.876054 4.1618 0
M  V30 1703 N 156.679 -1.44442 0.630414 0
M  V30 1704 C 157.927 -2.01653 0.134351 0
M  V30 1705 C 158.248 -1.49836 -1.24796 0
M  V30 1706 O 157.518 -0.701684 -1.82902 0
M  V30 1707 H 156.098 -0.74554 0.0466769 0
M  V30 1708 H 158.76 -1.76952 0.816955 0
M  V30 1709 H 157.856 -3.11935 0.101498 0
M  V30 1710 N 158.157 -0.370918 -1.53173 0
M  V30 1711 C 159.405 0.216673 -2.00935 0
M  V30 1712 C 159.726 1.48845 -1.25977 0
M  V30 1713 O 158.996 1.92286 -0.374551 0
M  V30 1714 H 157.576 0.0830565 -0.742368 0
M  V30 1715 H 160.238 -0.49838 -1.8842 0
M  V30 1716 H 159.334 0.439893 -3.08984 0
M  V30 1717 N 159.635 1.57281 -0.100228 0
M  V30 1718 C 161.051 1.57527 0.256416 0
M  V30 1719 C 161.251 1.11173 1.68056 0
M  V30 1720 O 160.307 0.79053 2.39806 0
M  V30 1721 C 161.62 3.00673 0.0401747 0
M  V30 1722 C 163.168 3.12815 0.107528 0
M  V30 1723 C 163.643 4.57929 -0.0807834 0
M  V30 1724 N 165.134 4.63193 -0.0261207 0
M  V30 1725 C 165.869 5.73212 -0.146999 0
M  V30 1726 N 165.365 6.92047 -0.322999 0
M  V30 1727 N 167.158 5.62031 -0.0879044 0
M  V30 1728 H 159.309 1.85718 -1.03065 0
M  V30 1729 H 161.572 0.857446 -0.404339 0
M  V30 1730 H 161.278 3.38804 -0.943649 0
M  V30 1731 H 161.152 3.69042 0.780262 0
M  V30 1732 H 163.539 2.74554 1.08186 0
M  V30 1733 H 163.62 2.47028 -0.664134 0
M  V30 1734 H 163.264 4.96886 -1.05201 0
M  V30 1735 H 163.194 5.21783 0.710635 0
M  V30 1736 H 165.685 3.77748 0.107161 0
M  V30 1737 H 165.998 7.7173 -0.406608 0
M  V30 1738 H 164.343 6.94074 -0.358733 0
M  V30 1739 H 167.534 4.68075 0.048498 0
M  V30 1740 H 167.707 6.47734 -0.185557 0
M  V30 1741 N 161.113 -0.173488 1.56642 0
M  V30 1742 C 162.043 -1.2171 1.99271 0
M  V30 1743 C 163.024 -1.46289 0.867959 0
M  V30 1744 O 164.209 -1.5766 1.13388 0
M  V30 1745 C 161.339 -2.55651 2.35074 0
M  V30 1746 C 160.293 -2.45645 3.50489 0
M  V30 1747 C 159.619 -3.84056 3.72028 0
M  V30 1748 C 160.919 -1.96302 4.84007 0
M  V30 1749 H 162.613 -0.86275 2.867 0
M  V30 1750 H 160.159 -0.413571 1.37933 0
M  V30 1751 H 162.112 -3.2886 2.63494 0
M  V30 1752 H 160.836 -2.92869 1.44552 0
M  V30 1753 H 159.495 -1.7489 3.22194 0
M  V30 1754 H 159.143 -4.18664 2.788 0
M  V30 1755 H 158.843 -3.7823 4.49684 0
M  V30 1756 H 160.367 -4.58854 4.02846 0
M  V30 1757 H 161.781 -2.59284 5.11317 0
M  V30 1758 H 160.178 -2.01429 5.65284 0
M  V30 1759 H 161.248 -0.917226 4.76146 0
M  V30 1760 N 162.591 -1.51276 -0.441967 0
M  V30 1761 C 163.538 -1.72256 -1.53612 0
M  V30 1762 C 164.508 -0.564164 -1.56225 0
M  V30 1763 O 165.693 -0.798074 -1.73307 0
M  V30 1764 C 162.833 -1.84932 -2.91366 0
M  V30 1765 C 161.946 -3.12459 -2.98317 0
M  V30 1766 C 161.081 -3.15758 -4.27166 0
M  V30 1767 C 160.12 -4.37619 -4.27967 0
M  V30 1768 N 159.257 -4.38493 -5.48333 0
M  V30 1769 H 164.097 -2.65654 -1.35026 0
M  V30 1770 H 161.634 -1.31662 -0.656009 0
M  V30 1771 H 163.592 -1.90263 -3.7129 0
M  V30 1772 H 162.222 -0.949461 -3.08521 0
M  V30 1773 H 161.274 -3.1646 -2.11086 0
M  V30 1774 H 162.586 -4.02382 -2.94771 0
M  V30 1775 H 161.74 -3.19979 -5.15459 0
M  V30 1776 H 160.479 -2.23715 -4.33362 0
M  V30 1777 H 159.484 -4.33579 -3.38067 0
M  V30 1778 H 160.709 -5.30921 -4.23438 0
M  V30 1779 H 158.655 -3.49318 -5.55259 0
M  V30 1780 H 158.572 -5.22219 -5.46647 0
M  V30 1781 H 159.84 -4.469 -6.38671 0
M  V30 1782 N 164.069 0.697108 -1.41344 0
M  V30 1783 C 165.485 1.00751 -1.2378 0
M  V30 1784 C 165.685 2.01105 -0.126066 0
M  V30 1785 O 164.741 2.47295 0.51004 0
M  V30 1786 C 166.054 1.53359 -2.58653 0
M  V30 1787 C 167.602 1.6525 -2.65822 0
M  V30 1788 C 168.077 2.2126 -4.01009 0
M  V30 1789 N 169.568 2.28622 -4.02847 0
M  V30 1790 C 170.303 2.72984 -5.04249 0
M  V30 1791 N 169.799 3.16962 -6.16041 0
M  V30 1792 N 171.592 2.72534 -4.91611 0
M  V30 1793 H 163.743 0.0322662 -2.12375 0
M  V30 1794 H 166.006 0.0768853 -0.944877 0
M  V30 1795 H 165.712 0.870773 -3.4075 0
M  V30 1796 H 165.586 2.51597 -2.81032 0
M  V30 1797 H 167.973 2.30644 -1.84086 0
M  V30 1798 H 168.054 0.655614 -2.47256 0
M  V30 1799 H 167.698 1.56482 -4.83193 0
M  V30 1800 H 167.628 3.21698 -4.16915 0
M  V30 1801 H 170.119 1.97585 -3.22131 0
M  V30 1802 H 170.432 3.49434 -6.89287 0
M  V30 1803 H 168.777 3.14875 -6.1958 0
M  V30 1804 H 171.968 2.37525 -4.0336 0
M  V30 1805 H 172.141 3.06789 -5.70775 0
M  V30 1806 N 165.547 1.27147 0.931209 0
M  V30 1807 C 166.793 1.13446 1.68101 0
M  V30 1808 C 167.126 -0.319628 1.91552 0
M  V30 1809 O 166.401 -1.23407 1.50336 0
M  V30 1810 C 166.684 1.91482 3.0497 0
M  V30 1811 C 166.537 3.44855 2.88782 0
M  V30 1812 C 167.856 1.71651 4.05246 0
M  V30 1813 H 164.975 0.413498 0.610072 0
M  V30 1814 H 167.617 1.56261 1.08086 0
M  V30 1815 H 165.767 1.55095 3.56199 0
M  V30 1816 H 167.439 3.9105 2.44698 0
M  V30 1817 H 165.682 3.71373 2.24198 0
M  V30 1818 H 166.353 3.94694 3.85902 0
M  V30 1819 H 168.829 2.0337 3.63015 0
M  V30 1820 H 167.705 2.28651 4.99009 0
M  V30 1821 H 167.966 0.663555 4.37092 0
M  V30 1822 N 167.025 -1.13721 1.09112 0
M  V30 1823 C 167.988 -2.17222 0.731241 0
M  V30 1824 C 168.988 -1.59035 -0.237566 0
M  V30 1825 O 170.178 -1.74192 -0.0161704 0
M  V30 1826 C 167.31 -3.40804 0.0808443 0
M  V30 1827 H 168.503 -2.50573 1.64783 0
M  V30 1828 H 166.056 -1.28493 0.889897 0
M  V30 1829 H 166.791 -3.1304 -0.847127 0
M  V30 1830 H 166.576 -3.84306 0.777896 0
M  V30 1831 H 168.066 -4.1731 -0.155657 0
M  V30 1832 N 168.503 -0.877838 -1.30888 0
M  V30 1833 C 169.413 -0.343096 -2.32078 0
M  V30 1834 C 170.429 0.551022 -1.65045 0
M  V30 1835 O 171.605 0.445854 -1.96403 0
M  V30 1836 C 168.67 0.439905 -3.43898 0
M  V30 1837 C 167.731 -0.483111 -4.26573 0
M  V30 1838 C 166.964 0.262616 -5.33053 0
M  V30 1839 O 167.187 1.48967 -5.50604 0
M  V30 1840 O 166.121 -0.383593 -6.00676 0
M  V30 1841 H 169.947 -1.18203 -2.79753 0
M  V30 1842 H 167.532 -0.64145 -1.34929 0
M  V30 1843 H 169.414 0.883504 -4.12034 0
M  V30 1844 H 168.089 1.25526 -2.98371 0
M  V30 1845 H 166.996 -0.975374 -3.61161 0
M  V30 1846 H 168.329 -1.26427 -4.75686 0
M  V30 1847 N 169.982 1.44106 -0.638065 0
M  V30 1848 C 171.212 2.06037 -0.152394 0
M  V30 1849 C 171.62 1.47808 1.18108 0
M  V30 1850 O 170.963 0.598092 1.73691 0
M  V30 1851 C 171.025 3.59488 0.0293714 0
M  V30 1852 C 170.689 4.4022 -1.22702 0
M  V30 1853 C 171.686 4.73256 -2.15232 0
M  V30 1854 C 169.371 4.8048 -1.46437 0
M  V30 1855 C 171.365 5.45444 -3.29802 0
M  V30 1856 C 169.052 5.52417 -2.61303 0
M  V30 1857 C 170.05 5.84819 -3.52811 0
M  V30 1858 O 169.738 6.55289 -4.65673 0
M  V30 1859 H 169.47 0.671233 -0.0801401 0
M  V30 1860 H 172.024 1.85851 -0.874563 0
M  V30 1861 H 170.254 3.78191 0.806758 0
M  V30 1862 H 171.943 4.03164 0.470475 0
M  V30 1863 H 172.709 4.42684 -1.98131 0
M  V30 1864 H 168.588 4.54676 -0.760977 0
M  V30 1865 H 172.132 5.70653 -4.01249 0
M  V30 1866 H 168.029 5.82404 -2.78344 0
M  V30 1867 H 168.797 6.73762 -4.64744 0
M  V30 1868 N 171.46 0.379036 1.52974 0
M  V30 1869 C 172.706 -0.206727 2.01744 0
M  V30 1870 C 173.039 -1.47314 1.26539 0
M  V30 1871 O 172.314 -1.91084 0.362903 0
M  V30 1872 C 172.597 -0.485066 3.56818 0
M  V30 1873 C 172.45 0.795919 4.42702 0
M  V30 1874 C 173.769 -1.28003 4.21074 0
M  V30 1875 H 170.888 -0.0736607 0.73331 0
M  V30 1876 H 173.53 0.506581 1.83122 0
M  V30 1877 H 171.68 -1.09272 3.72816 0
M  V30 1878 H 173.352 1.43307 4.38476 0
M  V30 1879 H 171.595 1.41344 4.10127 0
M  V30 1880 H 172.266 0.555947 5.49193 0
M  V30 1881 H 174.742 -0.765867 4.08991 0
M  V30 1882 H 173.618 -1.44352 5.29579 0
M  V30 1883 H 173.879 -2.29236 3.78026 0
M  V30 1884 N 172.938 -1.57226 0.108567 0
M  V30 1885 C 173.885 -2.14756 -0.845481 0
M  V30 1886 C 174.855 -1.06971 -1.27068 0
M  V30 1887 O 176.04 -1.34827 -1.35005 0
M  V30 1888 C 173.18 -2.74298 -2.09415 0
M  V30 1889 C 172.293 -3.96358 -1.71826 0
M  V30 1890 C 171.428 -4.44021 -2.9158 0
M  V30 1891 C 170.467 -5.58637 -2.50181 0
M  V30 1892 N 169.604 -6.01091 -3.62814 0
M  V30 1893 H 174.444 -2.95961 -0.348035 0
M  V30 1894 H 171.981 -1.46226 -0.160106 0
M  V30 1895 H 173.939 -3.06945 -2.82561 0
M  V30 1896 H 172.569 -1.95801 -2.56636 0
M  V30 1897 H 171.621 -3.69939 -0.885947 0
M  V30 1898 H 172.933 -4.79504 -1.37394 0
M  V30 1899 H 172.087 -4.78522 -3.72963 0
M  V30 1900 H 170.826 -3.59803 -3.29231 0
M  V30 1901 H 169.831 -5.23751 -1.67228 0
M  V30 1902 H 171.056 -6.44613 -2.13659 0
M  V30 1903 H 169.002 -5.19817 -4.00158 0
M  V30 1904 H 168.919 -6.79066 -3.32273 0
M  V30 1905 H 170.187 -6.40227 -4.44668 0
M  V30 1906 N 174.416 0.165178 -1.56732 0
M  V30 1907 C 175.693 0.908443 -1.73224 0
M  V30 1908 C 176.073 2.0013 -0.67165 0
M  V30 1909 O 175.421 2.26353 0.31253 0
M  V30 1910 C 175.631 1.46756 -3.16644 0
M  V30 1911 C 176.979 1.93809 -3.77787 0
M  V30 1912 O 178.003 1.56537 -3.1996 0
M  V30 1913 O 176.862 2.62486 -4.79336 0
M  V30 1914 H 173.956 0.428025 -0.707618 0
M  V30 1915 H 176.502 0.152526 -1.69013 0
M  V30 1916 H 175.274 0.68129 -3.85323 0
M  V30 1917 H 174.897 2.28749 -3.25207 0
M  V30 1918 N 175.894 1.51508 0.433938 0
M  V30 1919 C 177.171 1.54888 1.19453 0
M  V30 1920 C 177.551 0.315154 2.08734 0
M  V30 1921 O 176.899 -0.699558 2.17528 0
M  V30 1922 C 177.109 2.86467 1.99342 0
M  V30 1923 C 178.457 3.38545 2.56267 0
M  V30 1924 O 179.481 2.88041 2.0955 0
M  V30 1925 O 178.34 4.26675 3.41483 0
M  V30 1926 H 175.434 0.622863 0.544032 0
M  V30 1927 H 177.98 1.63823 0.442732 0
M  V30 1928 H 176.752 3.67718 1.33788 0
M  V30 1929 H 176.375 2.8071 2.8158 0
M  V30 1930 N 177.372 -0.689602 1.41712 0
M  V30 1931 C 178.282 -1.83314 1.46401 0
M  V30 1932 C 179.298 -1.7036 0.35405 0
M  V30 1933 O 180.474 -1.92171 0.602692 0
M  V30 1934 C 177.539 -3.19344 1.34982 0
M  V30 1935 C 176.6 -3.44363 2.56344 0
M  V30 1936 C 175.833 -4.73904 2.45461 0
M  V30 1937 O 176.056 -5.508 1.48241 0
M  V30 1938 O 174.99 -4.99839 3.35328 0
M  V30 1939 H 178.816 -1.82314 2.42889 0
M  V30 1940 H 176.401 -0.843438 1.23315 0
M  V30 1941 H 178.283 -4.00547 1.3092 0
M  V30 1942 H 176.958 -3.21014 0.41612 0
M  V30 1943 H 175.865 -2.63067 2.65982 0
M  V30 1944 H 177.198 -3.47512 3.48563 0
M  V30 1945 N 178.85 -1.27639 -0.924453 0
M  V30 1946 C 179.813 -1.10681 -2.00705 0
M  V30 1947 C 180.813 -0.0497823 -1.60723 0
M  V30 1948 O 182.003 -0.294654 -1.7169 0
M  V30 1949 C 179.135 -0.687164 -3.33902 0
M  V30 1950 H 180.328 -2.06817 -2.17179 0
M  V30 1951 H 177.881 -1.10473 -1.10569 0
M  V30 1952 H 178.616 0.275439 -3.23128 0
M  V30 1953 H 178.401 -1.45061 -3.6428 0
M  V30 1954 H 179.891 -0.590853 -4.13399 0
M  V30 1955 N 180.328 1.1314 -1.09713 0
M  V30 1956 C 181.575 1.84484 -0.834987 0
M  V30 1957 C 181.903 1.83689 0.639418 0
M  V30 1958 O 181.158 1.2724 1.4869 0
M  V30 1959 C 181.457 3.32167 -1.3191 0
M  V30 1960 C 181.123 3.53139 -2.80363 0
M  V30 1961 C 179.785 3.58571 -3.20905 0
M  V30 1962 C 182.137 3.60866 -3.76065 0
M  V30 1963 C 179.465 3.69267 -4.55916 0
M  V30 1964 C 181.817 3.73089 -5.10869 0
M  V30 1965 C 180.481 3.76775 -5.50996 0
M  V30 1966 H 179.751 0.675073 -0.305544 0
M  V30 1967 H 182.398 1.33554 -1.37243 0
M  V30 1968 H 180.703 3.85469 -0.701517 0
M  V30 1969 H 182.4 3.85821 -1.09284 0
M  V30 1970 H 178.99 3.49569 -2.47991 0
M  V30 1971 H 183.174 3.55946 -3.45855 0
M  V30 1972 H 178.43 3.70388 -4.86438 0
M  V30 1973 H 182.604 3.78011 -5.84877 0
M  V30 1974 H 180.231 3.84815 -6.55608 0
M  V30 1975 N 181.806 0.884767 1.30421 0
M  V30 1976 C 182.736 0.367574 2.30589 0
M  V30 1977 C 183.717 -0.549464 1.60981 0
M  V30 1978 O 184.902 -0.46336 1.88591 0
M  V30 1979 C 182.032 -0.418944 3.44764 0
M  V30 1980 C 180.986 0.406316 4.26067 0
M  V30 1981 C 180.312 -0.506793 5.32293 0
M  V30 1982 C 181.612 1.64832 4.95608 0
M  V30 1983 H 183.306 1.20462 2.74097 0
M  V30 1984 H 180.852 0.580695 1.31772 0
M  V30 1985 H 182.805 -0.791395 4.13902 0
M  V30 1986 H 181.529 -1.28964 3.0006 0
M  V30 1987 H 180.188 0.760903 3.58617 0
M  V30 1988 H 179.836 -1.37519 4.83836 0
M  V30 1989 H 179.536 0.0415828 5.87585 0
M  V30 1990 H 181.06 -0.875764 6.04287 0
M  V30 1991 H 182.474 1.34646 5.57264 0
M  V30 1992 H 180.871 2.13688 5.60765 0
M  V30 1993 H 181.941 2.39284 4.21748 0
M  V30 1994 N 183.284 -1.43765 0.645699 0
M  V30 1995 C 184.531 -2.01898 0.15604 0
M  V30 1996 C 184.859 -1.50887 -1.22733 0
M  V30 1997 O 184.114 -0.689271 -1.8316 0
M  V30 1998 C 184.413 -3.57238 0.107679 0
M  V30 1999 C 184.079 -4.27564 1.43178 0
M  V30 2000 C 182.741 -4.46492 1.7944 0
M  V30 2001 C 185.093 -4.67454 2.30513 0
M  V30 2002 C 182.421 -5.02573 3.02716 0
M  V30 2003 C 184.773 -5.24901 3.53074 0
M  V30 2004 C 183.437 -5.42046 3.89541 0
M  V30 2005 H 182.707 -0.738797 0.057099 0
M  V30 2006 H 185.354 -1.72341 0.834912 0
M  V30 2007 H 183.659 -3.86293 -0.654618 0
M  V30 2008 H 185.356 -3.99965 -0.287938 0
M  V30 2009 H 181.946 -4.13171 1.13963 0
M  V30 2010 H 186.13 -4.5253 2.0379 0
M  V30 2011 H 181.386 -5.14033 3.31028 0
M  V30 2012 H 185.56 -5.54758 4.20971 0
M  V30 2013 H 183.187 -5.85268 4.85145 0
M  V30 2014 N 184.763 -0.387143 -1.52771 0
M  V30 2015 C 185.991 0.195869 -2.05971 0
M  V30 2016 C 186.406 1.40691 -1.25903 0
M  V30 2017 O 185.763 1.79931 -0.305134 0
M  V30 2018 C 185.814 0.56812 -3.57008 0
M  V30 2019 O 185.535 -0.594803 -4.34043 0
M  V30 2020 C 187.036 1.20723 -4.26545 0
M  V30 2021 H 184.256 0.0300578 -0.670326 0
M  V30 2022 H 186.8 -0.551749 -1.96916 0
M  V30 2023 H 184.955 1.26564 -3.66143 0
M  V30 2024 H 185.369 -0.289322 -5.23701 0
M  V30 2025 H 186.843 1.41807 -5.33474 0
M  V30 2026 H 187.32 2.17395 -3.81623 0
M  V30 2027 H 187.926 0.550535 -4.21722 0
M  V30 2028 N 186.241 1.57166 -0.116904 0
M  V30 2029 C 187.471 1.99184 0.548586 0
M  V30 2030 C 187.879 0.995436 1.60897 0
M  V30 2031 O 187.222 -0.0201293 1.83689 0
M  V30 2032 C 187.284 3.37611 1.23526 0
M  V30 2033 C 186.948 4.55857 0.323077 0
M  V30 2034 C 187.945 5.18056 -0.437476 0
M  V30 2035 C 185.63 5.01751 0.234761 0
M  V30 2036 C 187.624 6.24536 -1.2741 0
M  V30 2037 C 185.311 6.08093 -0.605496 0
M  V30 2038 C 186.309 6.69352 -1.35856 0
M  V30 2039 O 185.997 7.7364 -2.18487 0
M  V30 2040 H 185.729 0.659148 0.149999 0
M  V30 2041 H 188.283 2.0443 -0.199428 0
M  V30 2042 H 186.513 3.29113 2.0303 0
M  V30 2043 H 188.202 3.63932 1.79745 0
M  V30 2044 H 188.968 4.83516 -0.379105 0
M  V30 2045 H 184.847 4.53817 0.810601 0
M  V30 2046 H 188.391 6.72281 -1.86237 0
M  V30 2047 H 184.288 6.42063 -0.665268 0
M  V30 2048 H 185.056 7.90727 -2.11406 0
M  V30 2049 N 187.719 -0.156864 1.56817 0
M  V30 2050 C 188.967 -0.869404 1.82444 0
M  V30 2051 C 189.288 -1.82147 0.69623 0
M  V30 2052 O 188.558 -1.93847 -0.28287 0
M  V30 2053 H 187.138 -0.324043 0.673056 0
M  V30 2054 H 189.8 -0.153224 1.94297 0
M  V30 2055 H 188.896 -1.43761 2.77019 0
M  V30 2056 N 189.197 -1.51736 -0.425897 0
M  V30 2057 C 190.474 -1.55519 -1.1863 0
M  V30 2058 C 190.854 -0.326219 -2.08564 0
M  V30 2059 O 190.202 0.688012 -2.17896 0
M  V30 2060 C 190.412 -2.87521 -1.9782 0
M  V30 2061 C 191.76 -3.39899 -2.54468 0
M  V30 2062 O 192.784 -2.89148 -2.08019 0
M  V30 2063 O 191.643 -4.2848 -3.39215 0
M  V30 2064 H 188.737 -0.625739 -0.540721 0
M  V30 2065 H 191.283 -1.64055 -0.434038 0
M  V30 2066 H 190.055 -3.68422 -1.31836 0
M  V30 2067 H 189.678 -2.822 -2.80088 0
M  V30 2068 N 190.675 0.682077 -1.42076 0
M  V30 2069 C 191.923 1.4393 -1.41876 0
M  V30 2070 C 192.244 1.94971 -0.0335599 0
M  V30 2071 O 191.514 1.72591 0.926773 0
M  V30 2072 H 190.094 0.534085 -0.522267 0
M  V30 2073 H 192.756 0.806427 -1.77434 0
M  V30 2074 H 191.852 2.29588 -2.11414 0
M  V30 2075 N 192.153 1.28127 0.917671 0
M  V30 2076 C 193.399 1.15223 1.66888 0
M  V30 2077 C 193.732 -0.299293 1.9188 0
M  V30 2078 O 193.007 -1.21805 1.51637 0
M  V30 2079 C 193.29 1.94706 3.02922 0
M  V30 2080 C 193.143 3.47898 2.85109 0
M  V30 2081 C 194.462 1.75939 4.03402 0
M  V30 2082 H 191.581 0.419946 0.605652 0
M  V30 2083 H 194.223 1.57398 1.06423 0
M  V30 2084 H 192.373 1.58864 3.54534 0
M  V30 2085 H 194.045 3.93624 2.40537 0
M  V30 2086 H 192.288 3.7373 2.20246 0
M  V30 2087 H 192.959 3.98765 3.81694 0
M  V30 2088 H 195.435 2.07209 3.60837 0
M  V30 2089 H 194.311 2.33931 4.96556 0
M  V30 2090 H 194.572 0.709877 4.36364 0
M  V30 2091 N 193.631 -1.12557 1.10312 0
M  V30 2092 C 194.594 -2.16434 0.75424 0
M  V30 2093 C 195.594 -1.59278 -0.220685 0
M  V30 2094 O 196.784 -1.742 0.00230591 0
M  V30 2095 C 193.916 -3.40699 0.116987 0
M  V30 2096 H 195.109 -2.48811 1.67431 0
M  V30 2097 H 192.662 -1.27542 0.903475 0
M  V30 2098 H 193.397 -3.13921 -0.813877 0
M  V30 2099 H 193.182 -3.83459 0.818613 0
M  V30 2100 H 194.672 -4.17451 -0.111387 0
M  V30 2101 N 195.109 -0.891671 -1.2995 0
M  V30 2102 C 196.386 -0.433307 -1.9074 0
M  V30 2103 C 196.766 1.08646 -1.80995 0
M  V30 2104 O 196.114 1.92476 -1.23147 0
M  V30 2105 C 196.324 -0.938895 -3.36134 0
M  V30 2106 C 197.672 -0.977829 -4.13187 0
M  V30 2107 O 198.696 -0.886015 -3.45005 0
M  V30 2108 O 197.555 -1.11453 -5.35015 0
M  V30 2109 H 194.649 -0.133699 -0.816121 0
M  V30 2110 H 197.195 -0.981011 -1.38471 0
M  V30 2111 H 195.967 -1.98281 -3.37343 0
M  V30 2112 H 195.59 -0.37074 -3.95868 0
M  V30 2113 N 196.587 1.43421 -0.653314 0
M  V30 2114 C 197.517 2.33487 0.0246656 0
M  V30 2115 C 198.498 1.49475 0.811863 0
M  V30 2116 O 199.683 1.78139 0.773322 0
M  V30 2117 C 196.813 3.32841 0.99166 0
M  V30 2118 C 195.767 4.26842 0.314568 0
M  V30 2119 C 195.093 5.16236 1.39302 0
M  V30 2120 C 196.393 5.16243 -0.793095 0
M  V30 2121 H 198.087 2.90427 -0.727481 0
M  V30 2122 H 195.633 1.39649 -0.351287 0
M  V30 2123 H 197.586 3.94747 1.47487 0
M  V30 2124 H 196.31 2.74158 1.77497 0
M  V30 2125 H 194.969 3.663 -0.148199 0
M  V30 2126 H 194.617 4.53891 2.16776 0
M  V30 2127 H 194.317 5.79948 0.945223 0
M  V30 2128 H 195.841 5.81015 1.87759 0
M  V30 2129 H 197.255 5.71958 -0.392039 0
M  V30 2130 H 195.652 5.88676 -1.16536 0
M  V30 2131 H 196.722 4.55927 -1.65103 0
M  V30 2132 N 198.065 0.39524 1.52563 0
M  V30 2133 C 199.342 -0.242908 1.94086 0
M  V30 2134 C 199.722 -1.63841 1.33114 0
M  V30 2135 O 199.07 -2.22928 0.501529 0
M  V30 2136 C 199.28 -0.26327 3.48006 0
M  V30 2137 C 200.628 -0.489354 4.21771 0
M  V30 2138 O 201.652 -0.343226 3.54543 0
M  V30 2139 O 200.511 -0.776169 5.4096 0
M  V30 2140 H 197.605 -0.152536 0.812811 0
M  V30 2141 H 200.151 0.450178 1.6362 0
M  V30 2142 H 198.923 0.713985 3.84731 0
M  V30 2143 H 198.546 -1.00103 3.84792 0
M  V30 2144 N 199.544 -1.57102 0.125237 0
M  V30 2145 C 200.793 -1.94582 -0.531095 0
M  V30 2146 C 201.106 -1.01126 -1.6743 0
M  V30 2147 O 202.312 -1.28097 -2.39381 0
M  V30 2148 C 200.768 -3.45839 -0.996164 0
M  V30 2149 C 200.376 -4.47842 0.118926 0
M  V30 2150 C 202.12 -3.92227 -1.62352 0
M  V30 2151 C 200.027 -5.90284 -0.363192 0
M  V30 2152 H 198.957 -0.726391 -0.20217 0
M  V30 2153 H 201.608 -1.82339 0.206092 0
M  V30 2154 H 199.99 -3.53338 -1.78796 0
M  V30 2155 H 201.164 -4.52018 0.895358 0
M  V30 2156 H 199.479 -4.11243 0.653324 0
M  V30 2157 H 202.076 -4.96069 -1.99548 0
M  V30 2158 H 202.419 -3.32552 -2.50429 0
M  V30 2159 H 202.952 -3.87554 -0.897019 0
M  V30 2160 H 199.691 -6.53728 0.481679 0
M  V30 2161 H 199.211 -5.89515 -1.10597 0
M  V30 2162 H 200.89 -6.41752 -0.822377 0
M  V30 2163 N 201.022 0.148545 -1.56898 0
M  V30 2164 C 201.969 1.18345 -1.98149 0
M  V30 2165 C 202.939 1.42772 -0.848848 0
M  V30 2166 O 204.124 1.55132 -1.11079 0
M  V30 2167 C 201.264 2.51231 -2.36594 0
M  V30 2168 C 200.377 2.33991 -3.63142 0
M  V30 2169 C 199.512 3.59902 -3.90697 0
M  V30 2170 C 198.551 3.37692 -5.1052 0
M  V30 2171 N 197.688 4.5573 -5.34092 0
M  V30 2172 H 202.528 0.82467 -2.86362 0
M  V30 2173 H 200.065 0.395756 -1.41676 0
M  V30 2174 H 202.023 3.28713 -2.56912 0
M  V30 2175 H 200.653 2.85059 -1.51463 0
M  V30 2176 H 199.705 1.47572 -3.50609 0
M  V30 2177 H 201.017 2.13539 -4.5078 0
M  V30 2178 H 200.171 4.45813 -4.11505 0
M  V30 2179 H 198.91 3.83357 -3.01477 0
M  V30 2180 H 197.915 2.5017 -4.89587 0
M  V30 2181 H 199.14 3.15637 -6.0129 0
M  V30 2182 H 197.086 4.79361 -4.47827 0
M  V30 2183 H 197.003 4.38274 -6.15996 0
M  V30 2184 H 198.271 5.42858 -5.59397 0
M  V30 2185 N 202.5 1.5196 0.417844 0
M  V30 2186 C 203.463 1.74065 1.49111 0
M  V30 2187 C 204.463 0.610537 1.48758 0
M  V30 2188 O 205.653 0.87832 1.50437 0
M  V30 2189 C 202.785 1.81502 2.88565 0
M  V30 2190 H 203.978 2.69869 1.30807 0
M  V30 2191 H 201.531 1.42244 0.647785 0
M  V30 2192 H 202.266 0.875813 3.1225 0
M  V30 2193 H 202.051 2.63651 2.90225 0
M  V30 2194 H 203.541 2.00376 3.66387 0
M  V30 2195 N 203.978 -0.674533 1.42435 0
M  V30 2196 C 205.206 -1.46283 1.46317 0
M  V30 2197 C 205.621 -1.88653 0.0745836 0
M  V30 2198 O 204.978 -1.58151 -0.91074 0
M  V30 2199 C 205.029 -2.71178 2.3905 0
M  V30 2200 O 204.75 -2.30586 3.72507 0
M  V30 2201 C 206.251 -3.64738 2.51955 0
M  V30 2202 H 203.471 -0.450104 0.497642 0
M  V30 2203 H 206.015 -0.828792 1.86953 0
M  V30 2204 H 204.17 -3.3077 2.01667 0
M  V30 2205 H 204.584 -3.11241 4.22172 0
M  V30 2206 H 206.058 -4.49096 3.20962 0
M  V30 2207 H 206.535 -4.10656 1.55752 0
M  V30 2208 H 207.141 -3.11038 2.90061 0
M  V30 2209 N 205.456 -1.28612 -0.910864 0
M  V30 2210 C 206.705 -1.15311 -1.65488 0
M  V30 2211 C 207.018 0.296999 -1.93332 0
M  V30 2212 O 208.224 0.551168 -2.65847 0
M  V30 2213 C 206.68 -2.01599 -2.98137 0
M  V30 2214 C 206.288 -3.51367 -2.7793 0
M  V30 2215 C 208.032 -1.96993 -3.76024 0
M  V30 2216 C 205.939 -4.29797 -4.06237 0
M  V30 2217 H 204.869 -0.42796 -0.620779 0
M  V30 2218 H 207.52 -1.53166 -1.01057 0
M  V30 2219 H 205.902 -1.56603 -3.63719 0
M  V30 2220 H 207.076 -4.0434 -2.21011 0
M  V30 2221 H 205.391 -3.57529 -2.13452 0
M  V30 2222 H 207.988 -2.52856 -4.71135 0
M  V30 2223 H 208.331 -0.94733 -4.05378 0
M  V30 2224 H 208.864 -2.39973 -3.17266 0
M  V30 2225 H 205.603 -5.32648 -3.82055 0
M  V30 2226 H 205.123 -3.81596 -4.62757 0
M  V30 2227 H 206.802 -4.39869 -4.74473 0
M  V30 2228 N 206.934 1.1197 -1.10907 0
M  V30 2229 C 208.211 1.79959 -0.766432 0
M  V30 2230 C 208.591 1.97466 0.746363 0
M  V30 2231 O 207.939 1.55491 1.67436 0
M  V30 2232 C 208.149 3.14009 -1.52314 0
M  V30 2233 C 209.497 3.89134 -1.69883 0
M  V30 2234 O 210.521 3.2368 -1.48692 0
M  V30 2235 O 209.38 5.06572 -2.05054 0
M  V30 2236 H 206.474 0.779208 -0.277062 0
M  V30 2237 H 209.02 1.18762 -1.21217 0
M  V30 2238 H 207.792 2.96587 -2.55249 0
M  V30 2239 H 207.415 3.82915 -1.07059 0
M  V30 2240 N 208.412 0.89855 1.29475 0
M  V30 2241 C 209.659 0.523882 1.95606 0
M  V30 2242 C 209.987 -0.929608 1.70847 0
M  V30 2243 O 209.242 -1.67401 1.01367 0
M  V30 2244 C 209.541 0.761398 3.49195 0
M  V30 2245 C 209.207 2.19207 3.94029 0
M  V30 2246 C 207.869 2.58326 4.05982 0
M  V30 2247 C 210.221 3.12379 4.17216 0
M  V30 2248 C 207.549 3.898 4.38489 0
M  V30 2249 C 209.901 4.43401 4.51197 0
M  V30 2250 C 208.565 4.82394 4.61359 0
M  V30 2251 H 207.835 0.191702 0.715773 0
M  V30 2252 H 210.482 1.13699 1.54094 0
M  V30 2253 H 208.787 0.0653622 3.91745 0
M  V30 2254 H 210.484 0.450904 3.98457 0
M  V30 2255 H 207.074 1.87846 3.85242 0
M  V30 2256 H 211.258 2.83371 4.07449 0
M  V30 2257 H 206.514 4.19734 4.44559 0
M  V30 2258 H 210.688 5.15623 4.68087 0
M  V30 2259 H 208.315 5.84306 4.86303 0
M  V30 2260 N 209.89 -1.43072 0.660911 0
M  V30 2261 C 210.84 -2.27948 -0.04847 0
M  V30 2262 C 211.824 -1.40325 -0.787246 0
M  V30 2263 O 213.016 -1.63893 -0.668446 0
M  V30 2264 C 210.145 -3.28143 -1.00881 0
M  V30 2265 C 209.231 -4.23252 -0.268108 0
M  V30 2266 N 209.622 -5.00656 0.719528 0
M  V30 2267 C 207.92 -4.43092 -0.508493 0
M  V30 2268 C 208.621 -5.70019 1.15988 0
M  V30 2269 N 207.597 -5.41364 0.492584 0
M  V30 2270 H 211.399 -2.85213 0.709279 0
M  V30 2271 H 208.913 -1.54869 0.488822 0
M  V30 2272 H 210.91 -3.87736 -1.53188 0
M  V30 2273 H 209.57 -2.7244 -1.76654 0
M  V30 2274 H 210.581 -5.06115 1.09855 0
M  V30 2275 H 207.258 -3.98449 -1.24679 0
M  V30 2276 H 208.648 -6.4214 1.97751 0
M  V30 2277 N 211.368 -0.403325 -1.52352 0
M  V30 2278 C 212.315 0.425011 -2.26853 0
M  V30 2279 C 213.285 1.04598 -1.29029 0
M  V30 2280 O 214.47 1.07135 -1.57882 0
M  V30 2281 C 211.61 1.53888 -3.08889 0
M  V30 2282 C 210.723 0.939396 -4.21663 0
M  V30 2283 C 209.858 2.02547 -4.91068 0
M  V30 2284 C 208.897 1.40263 -5.95813 0
M  V30 2285 N 208.034 2.4286 -6.58759 0
M  V30 2286 H 212.874 -0.21674 -2.97211 0
M  V30 2287 H 210.411 -0.118722 -1.4662 0
M  V30 2288 H 212.369 2.19558 -3.54753 0
M  V30 2289 H 210.999 2.15074 -2.40714 0
M  V30 2290 H 210.051 0.171898 -3.80011 0
M  V30 2291 H 211.363 0.44436 -4.96817 0
M  V30 2292 H 210.517 2.75958 -5.40308 0
M  V30 2293 H 209.256 2.55415 -4.15469 0
M  V30 2294 H 208.261 0.653833 -5.45898 0
M  V30 2295 H 209.486 0.881719 -6.73352 0
M  V30 2296 H 207.432 2.94871 -5.85992 0
M  V30 2297 H 207.349 1.98152 -7.2957 0
M  V30 2298 H 208.617 3.15858 -7.12639 0
M  V30 2299 N 212.846 1.57033 -0.133567 0
M  V30 2300 C 213.809 2.14897 0.796995 0
M  V30 2301 C 214.809 1.0874 1.18458 0
M  V30 2302 O 215.999 1.34446 1.1077 0
M  V30 2303 C 213.131 2.70112 2.07973 0
M  V30 2304 H 214.324 2.98457 0.293873 0
M  V30 2305 H 211.877 1.55871 0.115787 0
M  V30 2306 H 212.612 1.9018 2.62682 0
M  V30 2307 H 212.397 3.47764 1.81115 0
M  V30 2308 H 213.887 3.14738 2.74462 0
M  V30 2309 N 214.325 -0.140222 1.56975 0
M  V30 2310 C 215.275 -1.17827 1.95194 0
M  V30 2311 C 216.259 -1.38195 0.824075 0
M  V30 2312 O 217.451 -1.39643 1.0876 0
M  V30 2313 C 214.58 -2.51024 2.34184 0
M  V30 2314 C 213.666 -2.3422 3.53556 0
M  V30 2315 N 214.057 -1.87185 4.69889 0
M  V30 2316 C 212.355 -2.64949 3.58773 0
M  V30 2317 C 213.056 -1.83586 5.5197 0
M  V30 2318 N 212.032 -2.2715 4.93866 0
M  V30 2319 H 215.834 -0.806817 2.82609 0
M  V30 2320 H 213.348 -0.348208 1.58623 0
M  V30 2321 H 215.345 -3.26074 2.59772 0
M  V30 2322 H 214.005 -2.88945 1.48124 0
M  V30 2323 H 215.016 -1.57048 4.93514 0
M  V30 2324 H 211.693 -3.067 2.8327 0
M  V30 2325 H 213.083 -1.48655 6.55249 0
M  V30 2326 N 215.803 -1.52179 -0.40978 0
M  V30 2327 C 217.051 -1.65878 -1.15451 0
M  V30 2328 C 217.372 -0.390771 -1.91044 0
M  V30 2329 O 216.642 0.594323 -1.86667 0
M  V30 2330 H 215.222 -0.611405 -0.429177 0
M  V30 2331 H 217.884 -1.89219 -0.467134 0
M  V30 2332 H 216.98 -2.49954 -1.86894 0
M  V30 2333 N 217.281 0.66697 -1.42791 0
M  V30 2334 C 218.228 1.7803 -1.4688 0
M  V30 2335 C 219.198 1.6299 -0.319919 0
M  V30 2336 O 220.383 1.83432 -0.525118 0
M  V30 2337 C 217.523 3.1611 -1.38451 0
M  V30 2338 C 216.636 3.42381 -2.63437 0
M  V30 2339 C 215.771 4.70232 -2.47094 0
M  V30 2340 C 214.81 4.89564 -3.67415 0
M  V30 2341 N 213.947 6.08661 -3.49966 0
M  V30 2342 H 218.787 1.7387 -2.42019 0
M  V30 2343 H 216.324 0.84868 -1.20149 0
M  V30 2344 H 218.282 3.95914 -1.31561 0
M  V30 2345 H 216.912 3.19374 -0.469033 0
M  V30 2346 H 215.964 2.56774 -2.80662 0
M  V30 2347 H 217.276 3.52557 -3.52853 0
M  V30 2348 H 216.43 5.5814 -2.37834 0
M  V30 2349 H 215.169 4.62353 -1.5518 0
M  V30 2350 H 214.174 4.00096 -3.77099 0
M  V30 2351 H 215.399 4.99282 -4.6032 0
M  V30 2352 H 213.345 6.0194 -2.60776 0
M  V30 2353 H 213.262 6.19733 -4.32975 0
M  V30 2354 H 214.53 6.99226 -3.44532 0
M  V30 2355 N 218.759 1.29093 0.90403 0
M  V30 2356 C 219.706 1.13853 2.00764 0
M  V30 2357 C 220.676 0.0330084 1.66067 0
M  V30 2358 O 221.861 0.199733 1.89752 0
M  V30 2359 C 219.001 0.816537 3.35301 0
M  V30 2360 C 218.114 2.00206 3.82807 0
M  V30 2361 C 217.249 1.61983 5.059 0
M  V30 2362 C 216.288 2.77143 5.45764 0
M  V30 2363 N 215.425 2.39346 6.60044 0
M  V30 2364 H 220.265 2.08276 2.13132 0
M  V30 2365 H 217.802 1.03648 1.04381 0
M  V30 2366 H 219.76 0.610557 4.12708 0
M  V30 2367 H 218.39 -0.090779 3.22672 0
M  V30 2368 H 217.442 2.31988 3.01473 0
M  V30 2369 H 218.754 2.86512 4.08304 0
M  V30 2370 H 217.908 1.37649 5.90879 0
M  V30 2371 H 216.647 0.728202 4.82233 0
M  V30 2372 H 215.652 3.02165 4.59322 0
M  V30 2373 H 216.877 3.66964 5.71414 0
M  V30 2374 H 214.823 1.52665 6.37989 0
M  V30 2375 H 214.74 3.19185 6.85315 0
M  V30 2376 H 216.008 2.1832 7.48303 0
M  V30 2377 N 220.237 -1.11381 1.11499 0
M  V30 2378 C 221.2 -2.15622 0.777153 0
M  V30 2379 C 222.2 -1.59504 -0.203779 0
M  V30 2380 O 223.39 -1.74188 0.020782 0
M  V30 2381 C 220.522 -3.40556 0.153116 0
M  V30 2382 H 221.715 -2.47021 1.70061 0
M  V30 2383 H 219.268 -1.26577 0.916952 0
M  V30 2384 H 220.003 -3.14767 -0.780536 0
M  V30 2385 H 219.788 -3.8257 0.859238 0
M  V30 2386 H 221.278 -4.17546 -0.0671044 0
M  V30 2387 N 221.715 -0.905404 -1.28997 0
M  V30 2388 C 222.943 -0.549846 -1.9946 0
M  V30 2389 C 223.358 0.866834 -1.67724 0
M  V30 2390 O 222.715 1.57298 -0.925404 0
M  V30 2391 C 222.766 -0.739387 -3.53858 0
M  V30 2392 O 222.487 -2.10031 -3.84472 0
M  V30 2393 C 223.988 -0.389541 -4.41585 0
M  V30 2394 H 221.208 -0.210429 -0.637151 0
M  V30 2395 H 223.752 -1.21632 -1.64396 0
M  V30 2396 H 221.907 -0.120023 -3.87214 0
M  V30 2397 H 222.321 -2.13385 -4.79132 0
M  V30 2398 H 223.795 -0.572972 -5.49018 0
M  V30 2399 H 224.272 0.673756 -4.34001 0
M  V30 2400 H 224.878 -0.986089 -4.1371 0
M  V30 2401 N 223.193 1.4272 -0.668489 0
M  V30 2402 C 224.123 2.335 -0.000100175 0
M  V30 2403 C 225.104 1.50328 0.795964 0
M  V30 2404 O 226.289 1.78949 0.754385 0
M  V30 2405 C 223.419 3.33874 0.956302 0
M  V30 2406 C 222.373 4.27152 0.269278 0
M  V30 2407 C 221.699 5.17684 1.33818 0
M  V30 2408 C 222.999 5.15373 -0.847805 0
M  V30 2409 H 224.693 2.89639 -0.758244 0
M  V30 2410 H 222.239 1.39269 -0.366079 0
M  V30 2411 H 224.192 3.9629 1.43292 0
M  V30 2412 H 222.916 2.76025 1.74579 0
M  V30 2413 H 221.575 3.66123 -0.187042 0
M  V30 2414 H 221.223 4.56165 2.1195 0
M  V30 2415 H 220.923 5.80918 0.883659 0
M  V30 2416 H 222.447 5.82974 1.81586 0
M  V30 2417 H 223.861 5.7151 -0.452681 0
M  V30 2418 H 222.258 5.87407 -1.22773 0
M  V30 2419 H 223.328 4.5415 -1.69929 0
M  V30 2420 N 224.671 0.411399 1.52136 0
M  V30 2421 C 225.899 -0.163076 2.06256 0
M  V30 2422 C 226.314 -1.3867 1.28125 0
M  V30 2423 O 225.671 -1.79423 0.333721 0
M  V30 2424 C 225.722 -0.511252 3.57867 0
M  V30 2425 O 225.443 0.66378 4.33042 0
M  V30 2426 C 226.944 -1.13921 4.28412 0
M  V30 2427 H 224.164 -0.0193897 0.67072 0
M  V30 2428 H 226.708 0.583007 1.96013 0
M  V30 2429 H 224.863 -1.20723 3.6811 0
M  V30 2430 H 225.277 0.372601 5.23175 0
M  V30 2431 H 226.751 -1.33302 5.35663 0
M  V30 2432 H 227.228 -2.11296 3.85033 0
M  V30 2433 H 227.834 -0.483373 4.22544 0
M  V30 2434 N 226.149 -1.5696 0.141893 0
M  V30 2435 C 227.112 -2.15316 -0.785587 0
M  V30 2436 C 228.112 -1.09366 -1.1788 0
M  V30 2437 O 229.302 -1.35031 -1.10056 0
M  V30 2438 C 226.434 -2.71211 -2.06537 0
M  V30 2439 H 227.627 -2.98608 -0.278041 0
M  V30 2440 H 225.18 -1.5593 -0.107519 0
M  V30 2441 H 225.915 -1.91571 -2.6167 0
M  V30 2442 H 225.7 -3.4872 -1.79268 0
M  V30 2443 H 227.19 -3.16189 -2.72789 0
M  V30 2444 N 227.627 0.131896 -1.57047 0
M  V30 2445 C 228.855 0.856461 -1.88341 0
M  V30 2446 C 229.27 1.74042 -0.731757 0
M  V30 2447 O 228.627 1.80051 0.297945 0
M  V30 2448 C 228.678 1.70064 -3.18999 0
M  V30 2449 O 228.399 0.852278 -4.2973 0
M  V30 2450 C 229.9 2.53148 -3.63911 0
M  V30 2451 H 227.12 0.246885 -0.62393 0
M  V30 2452 H 229.664 0.120152 -2.04147 0
M  V30 2453 H 227.819 2.38984 -3.04902 0
M  V30 2454 H 228.233 1.43329 -5.04537 0
M  V30 2455 H 229.707 3.07931 -4.58129 0
M  V30 2456 H 230.184 3.29901 -2.89935 0
M  V30 2457 H 230.79 1.89492 -3.80753 0
M  V30 2458 N 229.106 1.52395 0.401703 0
M  V30 2459 C 230.353 1.66817 1.14796 0
M  V30 2460 C 230.681 0.401772 1.90305 0
M  V30 2461 O 229.936 -0.615487 1.85769 0
M  V30 2462 C 230.235 2.84578 2.16217 0
M  V30 2463 C 229.901 4.22513 1.5746 0
M  V30 2464 C 228.563 4.60029 1.41161 0
M  V30 2465 C 230.915 5.0844 1.14622 0
M  V30 2466 C 228.243 5.81144 0.80552 0
M  V30 2467 C 230.595 6.30167 0.55428 0
M  V30 2468 C 229.259 6.66426 0.378482 0
M  V30 2469 H 228.529 0.610428 0.420069 0
M  V30 2470 H 231.176 1.86512 0.434212 0
M  V30 2471 H 229.481 2.59248 2.93764 0
M  V30 2472 H 231.178 2.92933 2.73845 0
M  V30 2473 H 227.768 3.92953 1.71132 0
M  V30 2474 H 231.952 4.80034 1.26021 0
M  V30 2475 H 227.208 6.07855 0.657399 0
M  V30 2476 H 231.382 6.96071 0.213983 0
M  V30 2477 H 229.009 7.60143 -0.0932606 0
M  V30 2478 N 230.584 -0.659388 1.43143 0
M  V30 2479 C 231.995 -1.24041 1.39537 0
M  V30 2480 C 232.346 -1.95963 0.0963364 0
M  V30 2481 O 231.471 -2.00892 -0.804438 0
M  V30 2482 C 232.066 -2.25601 2.52764 0
M  V30 2483 C 230.625 -2.79195 2.52443 0
M  V30 2484 C 229.772 -1.53743 2.30778 0
M  V30 2485 H 232.723 -0.451792 1.52133 0
M  V30 2486 H 232.744 -3.07651 2.23899 0
M  V30 2487 H 232.256 -1.73226 3.47296 0
M  V30 2488 H 230.357 -3.35649 1.61773 0
M  V30 2489 H 230.47 -3.2716 3.50004 0
M  V30 2490 H 228.834 -1.80869 1.79328 0
M  V30 2491 H 229.617 -1.03312 3.27386 0
M  V30 2492 N 232.062 -1.29571 -0.897171 0
M  V30 2493 C 233.473 -1.15964 -1.46319 0
M  V30 2494 C 233.824 0.244267 -1.94674 0
M  V30 2495 O 232.949 1.13998 -1.83939 0
M  V30 2496 C 233.544 -2.09906 -2.65942 0
M  V30 2497 C 232.103 -2.00314 -3.18671 0
M  V30 2498 C 231.25 -2.00687 -1.91363 0
M  V30 2499 H 234.201 -1.42019 -0.708268 0
M  V30 2500 H 234.222 -1.67276 -3.41759 0
M  V30 2501 H 233.734 -3.12075 -2.30718 0
M  V30 2502 H 231.835 -1.01242 -3.58582 0
M  V30 2503 H 231.948 -2.88102 -3.82798 0
M  V30 2504 H 230.312 -1.45319 -2.09175 0
M  V30 2505 H 231.095 -3.04566 -1.58413 0
M  V30 2506 N 233.54 1.10788 -1.12088 0
M  V30 2507 C 234.788 1.8231 -0.872205 0
M  V30 2508 C 235.109 1.85419 0.603709 0
M  V30 2509 O 234.379 1.32963 1.43867 0
M  V30 2510 H 232.959 0.675137 -0.319686 0
M  V30 2511 H 235.621 1.34068 -1.41463 0
M  V30 2512 H 234.717 2.85955 -1.25045 0
M  V30 2513 N 235.018 0.912232 1.28515 0
M  V30 2514 C 236.434 0.610159 1.47476 0
M  V30 2515 C 236.634 -0.844955 1.82928 0
M  V30 2516 O 235.69 -1.62416 1.93332 0
M  V30 2517 C 237.003 1.54675 2.57868 0
M  V30 2518 C 238.551 1.55331 2.71738 0
M  V30 2519 C 239.026 2.47649 3.85272 0
M  V30 2520 N 240.517 2.45767 3.92623 0
M  V30 2521 C 241.252 3.13896 4.79851 0
M  V30 2522 N 240.748 3.9135 5.71679 0
M  V30 2523 N 242.541 3.02991 4.73448 0
M  V30 2524 H 234.692 1.85318 1.03783 0
M  V30 2525 H 236.955 0.794777 0.516753 0
M  V30 2526 H 236.661 2.5841 2.38574 0
M  V30 2527 H 236.535 1.27671 3.54937 0
M  V30 2528 H 238.922 0.52335 2.90422 0
M  V30 2529 H 239.003 1.86378 1.75205 0
M  V30 2530 H 238.647 3.50745 3.67342 0
M  V30 2531 H 238.577 2.13904 4.81199 0
M  V30 2532 H 241.068 1.89503 3.26951 0
M  V30 2533 H 241.381 4.40359 6.35062 0
M  V30 2534 H 239.726 3.95455 5.71524 0
M  V30 2535 H 242.917 2.41987 4.007 0
M  V30 2536 H 243.09 3.5636 5.41213 0
M  V30 2537 N 236.496 -1.42363 0.676048 0
M  V30 2538 C 237.743 -2.01522 0.19883 0
M  V30 2539 C 238.071 -1.53456 -1.19505 0
M  V30 2540 O 237.326 -0.727967 -1.81657 0
M  V30 2541 C 237.625 -3.56929 0.183431 0
M  V30 2542 C 237.291 -4.24431 1.52215 0
M  V30 2543 C 235.953 -4.42585 1.8887 0
M  V30 2544 C 238.305 -4.62459 2.40377 0
M  V30 2545 C 235.633 -4.96039 3.13309 0
M  V30 2546 C 237.985 -5.17294 3.64129 0
M  V30 2547 C 236.649 -5.33661 4.00951 0
M  V30 2548 H 235.919 -0.737419 0.0727571 0
M  V30 2549 H 238.566 -1.70531 0.871281 0
M  V30 2550 H 236.871 -3.87594 -0.572532 0
M  V30 2551 H 238.568 -4.00486 -0.203035 0
M  V30 2552 H 235.158 -4.10661 1.22701 0
M  V30 2553 H 239.342 -4.48105 2.13343 0
M  V30 2554 H 234.598 -5.06896 3.41857 0
M  V30 2555 H 238.772 -5.45704 4.32644 0
M  V30 2556 H 236.399 -5.74845 4.9745 0
M  V30 2557 N 237.974 -0.419461 -1.51915 0
M  V30 2558 C 239.222 0.152637 -2.01523 0
M  V30 2559 C 239.543 1.44762 -1.30649 0
M  V30 2560 O 238.813 1.90997 -0.435535 0
M  V30 2561 H 237.393 0.0593966 -0.744635 0
M  V30 2562 H 240.055 -0.558073 -1.86739 0
M  V30 2563 H 239.151 0.341369 -3.10227 0
M  V30 2564 N 239.452 1.56882 -0.150215 0
M  V30 2565 C 240.415 2.1573 0.774157 0
M  V30 2566 C 241.415 1.0999 1.17298 0
M  V30 2567 O 242.605 1.35613 1.09338 0
M  V30 2568 C 239.737 2.72302 2.05096 0
M  V30 2569 H 240.93 2.98752 0.262201 0
M  V30 2570 H 238.483 1.55985 0.099248 0
M  V30 2571 H 239.218 1.92956 2.6065 0
M  V30 2572 H 239.003 3.49665 1.77416 0
M  V30 2573 H 240.493 3.17632 2.71109 0
M  V30 2574 N 240.93 -0.123565 1.57115 0
M  V30 2575 C 241.86 -1.15309 2.03042 0
M  V30 2576 C 242.841 -1.43454 0.914061 0
M  V30 2577 O 244.026 -1.53973 1.18347 0
M  V30 2578 C 241.156 -2.48043 2.43089 0
M  V30 2579 C 240.11 -2.3437 3.58127 0
M  V30 2580 C 239.436 -3.72026 3.84059 0
M  V30 2581 C 240.736 -1.80804 4.90007 0
M  V30 2582 H 242.43 -0.771102 2.893 0
M  V30 2583 H 239.976 -0.369479 1.39179 0
M  V30 2584 H 241.929 -3.20311 2.73823 0
M  V30 2585 H 240.653 -2.88122 1.53796 0
M  V30 2586 H 239.312 -1.64551 3.27595 0
M  V30 2587 H 238.96 -4.09582 2.91979 0
M  V30 2588 H 238.66 -3.63732 4.6149 0
M  V30 2589 H 240.184 -4.45806 4.1724 0
M  V30 2590 H 241.598 -2.42886 5.19307 0
M  V30 2591 H 239.995 -1.83343 5.71407 0
M  V30 2592 H 241.065 -0.76528 4.78823 0
M  V30 2593 N 242.408 -1.52605 -0.393616 0
M  V30 2594 C 243.685 -1.58001 -1.15304 0
M  V30 2595 C 244.065 -0.370385 -2.07825 0
M  V30 2596 O 243.413 0.641638 -2.19306 0
M  V30 2597 C 243.623 -2.91652 -1.91677 0
M  V30 2598 C 244.971 -3.4522 -2.47201 0
M  V30 2599 O 245.995 -2.93495 -2.01839 0
M  V30 2600 O 244.854 -4.35579 -3.3005 0
M  V30 2601 H 241.948 -0.637068 -0.527327 0
M  V30 2602 H 244.494 -1.64939 -0.399141 0
M  V30 2603 H 243.266 -3.71136 -1.23992 0
M  V30 2604 H 242.889 -2.88077 -2.74039 0
M  V30 2605 N 243.887 0.651787 -1.4349 0
M  V30 2606 C 245.136 1.40754 -1.44469 0
M  V30 2607 C 245.449 1.95463 -0.0731845 0
M  V30 2608 O 246.655 2.71471 0.0395721 0
M  V30 2609 C 245.111 2.54735 -2.5424 0
M  V30 2610 C 244.719 2.06628 -3.97504 0
M  V30 2611 C 246.463 3.32092 -2.64414 0
M  V30 2612 C 244.37 3.17829 -4.98737 0
M  V30 2613 H 243.3 0.528862 -0.53742 0
M  V30 2614 H 245.951 0.703365 -1.69485 0
M  V30 2615 H 244.333 3.2763 -2.22428 0
M  V30 2616 H 245.507 1.40734 -4.38783 0
M  V30 2617 H 243.822 1.42146 -3.91387 0
M  V30 2618 H 246.419 4.14952 -3.37223 0
M  V30 2619 H 246.762 3.80217 -1.69532 0
M  V30 2620 H 247.295 2.66279 -2.95534 0
M  V30 2621 H 244.034 2.74671 -5.95177 0
M  V30 2622 H 243.554 3.82429 -4.62069 0
M  V30 2623 H 245.233 3.82937 -5.21505 0
M  V30 2624 N 245.365 1.30045 0.890287 0
M  V30 2625 C 246.781 1.08261 1.17268 0
M  V30 2626 C 246.981 -0.160063 2.00863 0
M  V30 2627 O 246.037 -0.855181 2.37577 0
M  V30 2628 C 247.35 2.34323 1.8845 0
M  V30 2629 C 248.898 2.39735 2.01237 0
M  V30 2630 C 249.373 3.65625 2.7583 0
M  V30 2631 N 250.864 3.66402 2.83379 0
M  V30 2632 C 251.599 4.60498 3.41657 0
M  V30 2633 N 251.095 5.64933 4.01026 0
M  V30 2634 N 252.888 4.48051 3.39421 0
M  V30 2635 H 245.039 2.09777 0.332762 0
M  V30 2636 H 247.302 0.92446 0.209948 0
M  V30 2637 H 247.008 3.2498 1.34465 0
M  V30 2638 H 246.882 2.4256 2.88867 0
M  V30 2639 H 249.269 1.4956 2.54393 0
M  V30 2640 H 249.35 2.35476 0.999232 0
M  V30 2641 H 248.994 4.56156 2.23347 0
M  V30 2642 H 248.924 3.67144 3.77509 0
M  V30 2643 H 251.415 2.90896 2.41222 0
M  V30 2644 H 251.728 6.32841 4.43545 0
M  V30 2645 H 250.073 5.68732 3.99461 0
M  V30 2646 H 253.264 3.65649 2.92264 0
M  V30 2647 H 253.437 5.21565 3.84544 0
M  V30 2648 N 246.843 -1.10192 1.12674 0
M  V30 2649 C 247.806 -2.14786 0.799979 0
M  V30 2650 C 248.806 -1.59711 -0.18685 0
M  V30 2651 O 249.996 -1.74156 0.0392558 0
M  V30 2652 C 247.128 -3.40374 0.189228 0
M  V30 2653 H 248.321 -2.45203 1.72671 0
M  V30 2654 H 245.874 -1.25597 0.930326 0
M  V30 2655 H 246.609 -3.15577 -0.747107 0
M  V30 2656 H 246.394 -3.81637 0.899766 0
M  V30 2657 H 247.884 -4.17594 -0.0228143 0
M  V30 2658 N 248.321 -0.919034 -1.28029 0
M  V30 2659 C 249.569 -0.553838 -1.94363 0
M  V30 2660 C 249.89 0.906357 -1.72656 0
M  V30 2661 O 249.16 1.64143 -1.0693 0
M  V30 2662 H 247.74 -0.201834 -0.719216 0
M  V30 2663 H 250.402 -1.16954 -1.55909 0
M  V30 2664 H 249.498 -0.752758 -3.02886 0
M  V30 2665 N 249.799 1.42003 -0.683588 0
M  V30 2666 C 250.731 2.29183 0.0283068 0
M  V30 2667 C 251.744 1.4415 0.756611 0
M  V30 2668 O 252.933 1.67779 0.609306 0
M  V30 2669 C 250.033 3.21765 1.06398 0
M  V30 2670 C 249.206 4.35496 0.407723 0
M  V30 2671 C 248.265 5.08737 1.34437 0
M  V30 2672 O 247.291 5.62948 0.841318 0
M  V30 2673 N 248.493 5.15075 2.67728 0
M  V30 2674 H 251.258 2.9092 -0.720105 0
M  V30 2675 H 248.819 1.53025 -0.528682 0
M  V30 2676 H 250.811 3.6763 1.69204 0
M  V30 2677 H 249.381 2.61418 1.71404 0
M  V30 2678 H 248.601 3.92165 -0.400012 0
M  V30 2679 H 249.889 5.08776 -0.0490956 0
M  V30 2680 H 249.287 4.72457 3.11129 0
M  V30 2681 H 247.844 5.64556 3.2576 0
M  V30 2682 N 251.277 0.427512 1.51691 0
M  V30 2683 C 252.523 -0.142439 2.02299 0
M  V30 2684 C 252.856 -1.43214 1.31162 0
M  V30 2685 O 252.131 -1.89833 0.423511 0
M  V30 2686 C 252.414 -0.371301 3.58181 0
M  V30 2687 C 252.267 0.936358 4.39946 0
M  V30 2688 C 253.586 -1.14542 4.24933 0
M  V30 2689 H 250.705 -0.0502937 0.735282 0
M  V30 2690 H 253.347 0.564584 1.81418 0
M  V30 2691 H 251.497 -0.973559 3.76104 0
M  V30 2692 H 253.169 1.57184 4.33694 0
M  V30 2693 H 251.412 1.5432 4.05423 0
M  V30 2694 H 252.083 0.730388 5.47147 0
M  V30 2695 H 254.559 -0.635362 4.11221 0
M  V30 2696 H 253.435 -1.27431 5.33903 0
M  V30 2697 H 253.696 -2.17093 3.85127 0
M  V30 2698 N 252.755 -1.56801 0.158532 0
M  V30 2699 C 254.171 -1.5837 -0.197774 0
M  V30 2700 C 254.371 -1.17334 -1.63814 0
M  V30 2701 O 253.427 -0.878988 -2.36707 0
M  V30 2702 C 254.74 -3.00615 0.0714459 0
M  V30 2703 C 256.288 -3.12999 0.00864533 0
M  V30 2704 C 256.763 -4.57313 0.250685 0
M  V30 2705 N 258.254 -4.62777 0.198014 0
M  V30 2706 C 258.989 -5.72271 0.359642 0
M  V30 2707 N 258.485 -6.90371 0.579625 0
M  V30 2708 N 260.278 -5.61318 0.296438 0
M  V30 2709 H 252.429 -1.81765 1.09887 0
M  V30 2710 H 254.692 -0.841849 0.435884 0
M  V30 2711 H 254.398 -3.35068 1.06874 0
M  V30 2712 H 254.272 -3.71683 -0.642757 0
M  V30 2713 H 256.659 -2.7838 -0.979217 0
M  V30 2714 H 256.74 -2.44393 0.755359 0
M  V30 2715 H 256.384 -4.92639 1.2357 0
M  V30 2716 H 256.314 -5.24061 -0.516489 0
M  V30 2717 H 258.805 -3.77885 0.0331115 0
M  V30 2718 H 259.118 -7.69689 0.69275 0
M  V30 2719 H 257.463 -6.92264 0.616087 0
M  V30 2720 H 260.654 -4.67932 0.125258 0
M  V30 2721 H 260.827 -6.46599 0.425831 0
M  V30 2722 N 254.233 0.115231 -1.57178 0
M  V30 2723 C 255.458 0.840354 -1.89612 0
M  V30 2724 C 255.883 1.72464 -0.750845 0
M  V30 2725 O 255.241 1.78826 0.298478 0
M  V30 2726 C 255.289 1.64654 -3.20814 0
M  V30 2727 O 254.393 2.7538 -3.06985 0
M  V30 2728 H 253.734 0.232158 -0.622092 0
M  V30 2729 H 256.264 0.0964977 -2.04372 0
M  V30 2730 H 256.274 2.03499 -3.53627 0
M  V30 2731 H 254.949 0.997416 -4.03763 0
M  V30 2732 H 253.526 2.3971 -2.85646 0
M  V30 2733 N 255.711 1.52812 0.385517 0
M  V30 2734 C 256.958 1.68026 1.1302 0
M  V30 2735 C 257.286 0.421934 1.89868 0
M  V30 2736 O 256.541 -0.595749 1.86412 0
M  V30 2737 C 256.84 2.86856 2.13187 0
M  V30 2738 C 256.506 4.24159 1.5297 0
M  V30 2739 C 255.168 4.61501 1.36274 0
M  V30 2740 C 257.52 5.09627 1.09223 0
M  V30 2741 C 254.848 5.81966 0.743837 0
M  V30 2742 C 257.2 6.30719 0.487411 0
M  V30 2743 C 255.864 6.6679 0.307777 0
M  V30 2744 H 255.134 0.614849 0.413571 0
M  V30 2745 H 257.781 1.86962 0.414405 0
M  V30 2746 H 256.086 2.6235 2.90998 0
M  V30 2747 H 257.783 2.95821 2.70722 0
M  V30 2748 H 254.373 3.94746 1.66954 0
M  V30 2749 H 258.557 4.81343 1.20922 0
M  V30 2750 H 253.813 6.08519 0.592891 0
M  V30 2751 H 257.987 6.96259 0.140143 0
M  V30 2752 H 255.614 7.60001 -0.173879 0
M  V30 2753 N 257.189 -0.644168 1.43834 0
M  V30 2754 C 258.121 -1.76955 1.45669 0
M  V30 2755 C 259.134 -1.58956 0.351666 0
M  V30 2756 O 260.323 -1.6751 0.616644 0
M  V30 2757 C 257.423 -3.14507 1.26248 0
M  V30 2758 C 256.596 -3.59083 2.49757 0
M  V30 2759 C 255.655 -4.75467 2.25427 0
M  V30 2760 O 254.681 -4.84444 2.98836 0
M  V30 2761 N 255.883 -5.66289 1.27661 0
M  V30 2762 H 258.648 -1.75856 2.42682 0
M  V30 2763 H 256.209 -0.828312 1.39106 0
M  V30 2764 H 258.201 -3.90067 1.0784 0
M  V30 2765 H 256.771 -3.10325 0.376478 0
M  V30 2766 H 255.991 -2.7387 2.8353 0
M  V30 2767 H 257.279 -3.85613 3.31934 0
M  V30 2768 H 256.677 -5.61718 0.670064 0
M  V30 2769 H 255.234 -6.41533 1.15234 0
M  V30 2770 N 258.668 -1.30515 -0.883378 0
M  V30 2771 C 259.578 -1.18959 -2.02203 0
M  V30 2772 C 260.594 -0.109172 -1.73657 0
M  V30 2773 O 261.77 -0.324413 -1.9877 0
M  V30 2774 C 258.835 -0.883871 -3.35244 0
M  V30 2775 C 257.896 -2.04982 -3.77201 0
M  V30 2776 C 257.129 -1.75859 -5.03894 0
M  V30 2777 O 257.352 -0.687276 -5.66244 0
M  V30 2778 O 256.286 -2.61146 -5.42297 0
M  V30 2779 H 260.112 -2.14616 -2.1488 0
M  V30 2780 H 257.697 -1.10124 -1.0096 0
M  V30 2781 H 259.579 -0.728644 -4.15053 0
M  V30 2782 H 258.254 0.0427798 -3.23672 0
M  V30 2783 H 257.161 -2.26038 -2.9809 0
M  V30 2784 H 258.494 -2.95825 -3.93381 0
M  V30 2785 N 260.146 1.09593 -1.13257 0
M  V30 2786 C 261.093 2.1618 -0.808381 0
M  V30 2787 C 262.063 1.64517 0.228754 0
M  V30 2788 O 263.248 1.9053 0.101381 0
M  V30 2789 C 260.388 3.43973 -0.278675 0
M  V30 2790 C 259.501 4.09545 -1.37466 0
M  V30 2791 C 258.636 5.25088 -0.803479 0
M  V30 2792 C 257.675 5.82579 -1.87799 0
M  V30 2793 N 256.812 6.89486 -1.32488 0
M  V30 2794 H 261.652 2.43254 -1.72138 0
M  V30 2795 H 259.189 1.19392 -0.859294 0
M  V30 2796 H 261.147 4.17174 0.0465583 0
M  V30 2797 H 259.777 3.17223 0.597459 0
M  V30 2798 H 258.829 3.34226 -1.81652 0
M  V30 2799 H 260.141 4.48307 -2.18684 0
M  V30 2800 H 259.295 6.05178 -0.429427 0
M  V30 2801 H 258.034 4.87684 0.0397956 0
M  V30 2802 H 257.039 5.01152 -2.26113 0
M  V30 2803 H 258.264 6.22045 -2.72463 0
M  V30 2804 H 256.21 6.54064 -0.503575 0
M  V30 2805 H 256.127 7.27007 -2.07355 0
M  V30 2806 H 257.395 7.73336 -0.978336 0
M  V30 2807 N 261.624 0.925811 1.2754 0
M  V30 2808 C 263.035 0.610102 1.7645 0
M  V30 2809 C 263.386 -0.874723 1.75622 0
M  V30 2810 O 262.511 -1.68444 1.35851 0
M  V30 2811 C 263.106 1.10073 3.20421 0
M  V30 2812 C 261.665 0.835723 3.67005 0
M  V30 2813 C 260.812 1.26054 2.46993 0
M  V30 2814 H 263.763 1.10579 1.13833 0
M  V30 2815 H 263.784 0.447557 3.77859 0
M  V30 2816 H 263.296 2.18143 3.20991 0
M  V30 2817 H 261.397 -0.231249 3.71882 0
M  V30 2818 H 261.51 1.45193 4.56569 0
M  V30 2819 H 259.874 0.679111 2.45479 0
M  V30 2820 H 260.657 2.34984 2.50275 0
M  V30 2821 N 263.102 -1.41638 0.69111 0
M  V30 2822 C 264.049 -2.30789 0.0229705 0
M  V30 2823 C 265.019 -1.46863 -0.775911 0
M  V30 2824 O 266.204 -1.75661 -0.74485 0
M  V30 2825 C 263.344 -3.32868 -0.910666 0
M  V30 2826 C 262.457 -4.31875 -0.103874 0
M  V30 2827 C 261.592 -5.21024 -1.03475 0
M  V30 2828 C 260.631 -6.11702 -0.220598 0
M  V30 2829 N 259.768 -6.93349 -1.10504 0
M  V30 2830 H 264.608 -2.87366 0.788978 0
M  V30 2831 H 262.145 -1.41535 0.400794 0
M  V30 2832 H 264.103 -3.90596 -1.46597 0
M  V30 2833 H 262.733 -2.77851 -1.64312 0
M  V30 2834 H 261.785 -3.76131 0.568285 0
M  V30 2835 H 263.097 -4.96003 0.527504 0
M  V30 2836 H 262.251 -5.83565 -1.65943 0
M  V30 2837 H 260.99 -4.57112 -1.69999 0
M  V30 2838 H 259.995 -5.48215 0.417187 0
M  V30 2839 H 261.22 -6.77668 0.440784 0
M  V30 2840 H 259.166 -6.3205 -1.75638 0
M  V30 2841 H 259.083 -7.54146 -0.529125 0
M  V30 2842 H 260.351 -7.60362 -1.71667 0
M  V30 2843 N 264.58 -0.43555 -1.51462 0
M  V30 2844 C 265.828 0.131254 -2.01673 0
M  V30 2845 C 266.149 1.43368 -1.32177 0
M  V30 2846 O 265.419 1.90524 -0.455769 0
M  V30 2847 H 263.999 0.0514954 -0.745223 0
M  V30 2848 H 266.661 -0.577847 -1.86137 0
M  V30 2849 H 265.757 0.308446 -3.10572 0
M  V30 2850 N 266.058 1.56714 -0.166846 0
M  V30 2851 C 267.335 1.88412 0.525373 0
M  V30 2852 C 267.715 1.07602 1.81618 0
M  V30 2853 O 267.063 0.168621 2.27877 0
M  V30 2854 C 267.273 3.40363 0.771613 0
M  V30 2855 C 268.621 4.10007 1.1036 0
M  V30 2856 O 269.645 3.45655 0.860304 0
M  V30 2857 O 268.504 5.2369 1.56239 0
M  V30 2858 H 265.598 0.781587 0.270278 0
M  V30 2859 H 268.144 1.68458 -0.204946 0
M  V30 2860 H 266.916 3.91046 -0.141093 0
M  V30 2861 H 266.539 3.65914 1.55541 0
M  V30 2862 N 267.536 -0.106894 1.57237 0
M  V30 2863 C 268.784 -0.810921 1.85117 0
M  V30 2864 C 269.105 -1.7984 0.753827 0
M  V30 2865 O 268.375 -1.94649 -0.221056 0
M  V30 2866 H 266.955 -0.302466 0.683025 0
M  V30 2867 H 269.617 -0.0913324 1.94686 0
M  V30 2868 H 268.713 -1.34875 2.81452 0
M  V30 2869 N 269.014 -1.53014 -0.377408 0
M  V30 2870 C 269.977 -1.77957 -1.44444 0
M  V30 2871 C 270.977 -0.649763 -1.47087 0
M  V30 2872 O 272.167 -0.917897 -1.48055 0
M  V30 2873 C 269.299 -1.89089 -2.83651 0
M  V30 2874 H 270.492 -2.73243 -1.23606 0
M  V30 2875 H 268.045 -1.43912 -0.609844 0
M  V30 2876 H 268.78 -0.958293 -3.09818 0
M  V30 2877 H 268.565 -2.71254 -2.83132 0
M  V30 2878 H 270.055 -2.1002 -3.60945 0
M  V30 2879 N 270.492 0.636531 -1.44174 0
M  V30 2880 C 271.425 1.76139 -1.45087 0
M  V30 2881 C 272.403 1.59611 -0.310326 0
M  V30 2882 O 273.587 1.81568 -0.506477 0
M  V30 2883 C 270.714 3.13648 -1.27839 0
M  V30 2884 C 269.76 3.48838 -2.45386 0
M  V30 2885 S 270.593 3.46927 -4.07924 0
M  V30 2886 C 271.749 4.87064 -3.9309 0
M  V30 2887 H 271.982 1.75096 -2.40268 0
M  V30 2888 H 269.515 0.810666 -1.31406 0
M  V30 2889 H 271.473 3.93002 -1.18575 0
M  V30 2890 H 270.134 3.12235 -0.341787 0
M  V30 2891 H 269.327 4.48886 -2.29167 0
M  V30 2892 H 268.929 2.76935 -2.51362 0
M  V30 2893 H 271.221 5.76153 -3.56446 0
M  V30 2894 H 272.164 5.08337 -4.92949 0
M  V30 2895 H 272.572 4.61384 -3.25246 0
M  V30 2896 N 271.97 1.30982 0.876444 0
M  V30 2897 C 273.219 1.19658 1.62373 0
M  V30 2898 C 273.532 -0.245636 1.94052 0
M  V30 2899 O 274.738 -0.48049 2.67214 0
M  V30 2900 C 273.194 2.09433 2.92687 0
M  V30 2901 C 272.802 3.58613 2.68516 0
M  V30 2902 C 274.546 2.06893 3.70669 0
M  V30 2903 C 272.453 4.40416 3.94699 0
M  V30 2904 H 271.383 0.444268 0.609214 0
M  V30 2905 H 274.034 1.55791 0.969605 0
M  V30 2906 H 272.416 1.66191 3.59439 0
M  V30 2907 H 273.59 4.10058 2.10212 0
M  V30 2908 H 271.905 3.63063 2.03898 0
M  V30 2909 H 274.502 2.65258 4.64265 0
M  V30 2910 H 274.845 1.05448 4.02724 0
M  V30 2911 H 275.378 2.48301 3.10792 0
M  V30 2912 H 272.117 5.42591 3.67798 0
M  V30 2913 H 271.637 3.93731 4.52477 0
M  V30 2914 H 273.316 4.52294 4.62644 0
M  V30 2915 N 273.449 -1.08991 1.13837 0
M  V30 2916 C 274.397 -2.17841 0.815347 0
M  V30 2917 C 275.391 -1.68164 -0.204233 0
M  V30 2918 O 276.597 -1.79897 -0.0609304 0
M  V30 2919 H 272.972 -0.710654 0.245915 0
M  V30 2920 H 274.943 -2.42315 1.74143 0
M  V30 2921 C 273.692 -3.46381 0.302614 0
M  V30 2922 H 273.015 -3.84979 1.0785 0
M  V30 2923 H 274.455 -4.23844 0.115074 0
M  V30 2924 C 272.914 -3.22556 -0.972591 0
M  V30 2925 O 273.444 -3.45599 -2.04754 0
M  V30 2926 N 271.65 -2.76134 -0.905455 0
M  V30 2927 H 271.197 -2.57582 -0.0305421 0
M  V30 2928 H 271.155 -2.60571 -1.75926 0
M  V30 2929 N 274.927 -0.932562 -1.27047 0
M  V30 2930 C 276.175 -0.574422 -1.93765 0
M  V30 2931 C 276.496 0.887993 -1.73608 0
M  V30 2932 O 275.766 1.62999 -1.08665 0
M  V30 2933 H 274.346 -0.209451 -0.717035 0
M  V30 2934 H 277.008 -1.18601 -1.5466 0
M  V30 2935 H 276.104 -0.784841 -3.02071 0
M  V30 2936 N 276.405 1.4127 -0.698611 0
M  V30 2937 C 277.653 2.00782 -0.230409 0
M  V30 2938 C 277.974 1.5562 1.17505 0
M  V30 2939 O 277.244 0.78815 1.79346 0
M  V30 2940 H 275.824 0.742464 -0.0821944 0
M  V30 2941 H 278.486 1.72852 -0.90045 0
M  V30 2942 H 277.582 3.11095 -0.25021 0
M  V30 2943 N 277.883 0.443576 1.51229 0
M  V30 2944 C 279.13 -0.120796 2.02139 0
M  V30 2945 C 279.458 -1.42166 1.32736 0
M  V30 2946 O 278.713 -1.90849 0.43301 0
M  V30 2947 C 279.012 -0.380579 3.55368 0
M  V30 2948 C 278.678 0.83523 4.43097 0
M  V30 2949 C 277.34 1.16864 4.66794 0
M  V30 2950 C 279.692 1.64601 4.94526 0
M  V30 2951 C 277.02 2.31339 5.39165 0
M  V30 2952 C 279.372 2.78181 5.68153 0
M  V30 2953 C 278.036 3.11969 5.90112 0
M  V30 2954 H 277.306 -0.0442023 0.73968 0
M  V30 2955 H 279.953 0.592046 1.82118 0
M  V30 2956 H 278.258 -1.17538 3.73754 0
M  V30 2957 H 279.955 -0.830777 3.923 0
M  V30 2958 H 276.545 0.565437 4.24854 0
M  V30 2959 H 280.729 1.40163 4.76097 0
M  V30 2960 H 275.985 2.57823 5.5438 0
M  V30 2961 H 280.159 3.41371 6.06992 0
M  V30 2962 H 277.786 4.00784 6.45969 0
M  V30 2963 N 279.361 -1.56624 0.175154 0
M  V30 2964 C 280.608 -1.96999 -0.468811 0
M  V30 2965 C 280.936 -1.06129 -1.62994 0
M  V30 2966 O 280.191 -0.0961771 -1.95464 0
M  V30 2967 C 280.49 -3.43419 -0.989864 0
M  V30 2968 C 280.156 -4.50866 0.0557687 0
M  V30 2969 C 278.818 -4.79975 0.343134 0
M  V30 2970 C 281.17 -5.15551 0.765308 0
M  V30 2971 C 278.498 -5.71066 1.34536 0
M  V30 2972 C 280.85 -6.07724 1.75654 0
M  V30 2973 C 279.514 -6.35199 2.05132 0
M  V30 2974 H 278.784 -0.720869 -0.17155 0
M  V30 2975 H 281.431 -1.89616 0.267924 0
M  V30 2976 H 279.736 -3.47772 -1.80449 0
M  V30 2977 H 281.433 -3.72002 -1.49719 0
M  V30 2978 H 278.023 -4.28229 -0.178381 0
M  V30 2979 H 282.207 -4.9317 0.556513 0
M  V30 2980 H 277.463 -5.90635 1.57988 0
M  V30 2981 H 281.637 -6.56912 2.31169 0
M  V30 2982 H 279.264 -7.05584 2.8294 0
M  V30 2983 N 280.839 0.0985539 -1.57292 0
M  V30 2984 C 282.085 0.803867 -1.86188 0
M  V30 2985 C 282.418 1.78549 -0.763794 0
M  V30 2986 O 281.693 1.93153 0.22855 0
M  V30 2987 C 281.976 1.53568 -3.25713 0
M  V30 2988 C 281.829 0.572277 -4.46145 0
M  V30 2989 C 283.148 2.48708 -3.63087 0
M  V30 2990 H 280.267 0.290781 -0.677211 0
M  V30 2991 H 282.909 0.0675783 -1.8988 0
M  V30 2992 H 281.059 2.16332 -3.22696 0
M  V30 2993 H 282.731 -0.0480894 -4.61275 0
M  V30 2994 H 280.974 -0.114618 -4.33649 0
M  V30 2995 H 281.645 1.12139 -5.40489 0
M  V30 2996 H 284.121 1.96039 -3.67026 0
M  V30 2997 H 282.997 2.96932 -4.61652 0
M  V30 2998 H 283.258 3.32309 -2.91588 0
M  V30 2999 N 282.317 1.53212 0.369288 0
M  V30 3000 C 283.247 1.82365 1.45826 0
M  V30 3001 C 284.228 0.676907 1.56051 0
M  V30 3002 O 285.413 0.926401 1.70679 0
M  V30 3003 C 282.543 2.01023 2.83208 0
M  V30 3004 C 281.497 3.1678 2.8781 0
M  V30 3005 C 280.823 3.20724 4.27832 0
M  V30 3006 C 282.123 4.55447 2.55667 0
M  V30 3007 H 283.817 2.73559 1.21678 0
M  V30 3008 H 281.363 1.3163 0.583911 0
M  V30 3009 H 283.316 2.20001 3.59413 0
M  V30 3010 H 282.04 1.06536 3.08736 0
M  V30 3011 H 280.699 2.97616 2.14056 0
M  V30 3012 H 280.347 2.23882 4.50429 0
M  V30 3013 H 280.047 3.98496 4.31827 0
M  V30 3014 H 281.571 3.41881 5.05915 0
M  V30 3015 H 282.985 4.74611 3.21586 0
M  V30 3016 H 281.382 5.35432 2.70984 0
M  V30 3017 H 282.452 4.60812 1.5093 0
M  V30 3018 N 283.795 -0.628877 1.44509 0
M  V30 3019 C 284.743 -1.76193 1.51852 0
M  V30 3020 C 285.737 -1.64849 0.390042 0
M  V30 3021 O 286.943 -1.709 0.565082 0
M  V30 3022 H 283.318 -0.581728 0.476547 0
M  V30 3023 H 285.289 -1.67123 2.47209 0
M  V30 3024 C 284.038 -3.14533 1.48204 0
M  V30 3025 H 283.361 -3.23911 2.34354 0
M  V30 3026 H 284.801 -3.93701 1.57402 0
M  V30 3027 C 283.26 -3.36287 0.203142 0
M  V30 3028 O 283.79 -3.9509 -0.725745 0
M  V30 3029 N 281.996 -2.90408 0.105563 0
M  V30 3030 H 281.543 -2.42739 0.862301 0
M  V30 3031 H 281.501 -3.05339 -0.749371 0
M  V30 3032 N 285.273 -1.31445 -0.869486 0
M  V30 3033 C 286.684 -1.19042 -1.43826 0
M  V30 3034 C 287.035 0.202919 -1.95148 0
M  V30 3035 O 286.16 1.10071 -1.86315 0
M  V30 3036 C 286.755 -2.15499 -2.6143 0
M  V30 3037 C 285.314 -2.07028 -3.14351 0
M  V30 3038 C 284.461 -2.04701 -1.87063 0
M  V30 3039 H 287.412 -1.43489 -0.677984 0
M  V30 3040 H 287.433 -1.74488 -3.38134 0
M  V30 3041 H 286.945 -3.16899 -2.24046 0
M  V30 3042 H 285.046 -1.08825 -3.56354 0
M  V30 3043 H 285.159 -2.96157 -3.766 0
M  V30 3044 H 283.523 -1.49724 -2.06046 0
M  V30 3045 H 284.306 -3.07857 -1.51917 0
M  V30 3046 N 286.751 1.08385 -1.14413 0
M  V30 3047 C 287.976 1.85057 -0.936413 0
M  V30 3048 C 288.401 1.81055 0.509971 0
M  V30 3049 O 287.759 1.1958 1.36273 0
M  V30 3050 C 287.807 3.30505 -1.44217 0
M  V30 3051 O 286.911 4.07491 -0.634409 0
M  V30 3052 H 286.252 0.573425 -0.334784 0
M  V30 3053 H 288.782 1.36799 -1.52142 0
M  V30 3054 H 288.792 3.81348 -1.45043 0
M  V30 3055 H 287.467 3.32734 -2.49522 0
M  V30 3056 H 286.044 3.66368 -0.694902 0
M  V30 3057 N 288.23 0.939286 1.26551 0
M  V30 3058 C 289.476 0.586715 1.94128 0
M  V30 3059 C 289.809 -0.8717 1.73537 0
M  V30 3060 O 289.084 -1.62339 1.07127 0
M  V30 3061 C 289.367 0.927497 3.4795 0
M  V30 3062 C 289.22 2.44052 3.77834 0
M  V30 3063 C 290.539 0.441569 4.37879 0
M  V30 3064 H 287.658 0.21463 0.705055 0
M  V30 3065 H 290.3 1.17316 1.49455 0
M  V30 3066 H 288.45 0.428431 3.8613 0
M  V30 3067 H 290.122 3.01216 3.4938 0
M  V30 3068 H 288.365 2.8848 3.23978 0
M  V30 3069 H 289.036 2.62947 4.85348 0
M  V30 3070 H 291.512 0.869448 4.06915 0
M  V30 3071 H 290.388 0.708856 5.44304 0
M  V30 3072 H 290.649 -0.658467 4.37169 0
M  V30 3073 N 289.708 -1.40897 0.706093 0
M  V30 3074 C 290.957 -2.00284 0.238574 0
M  V30 3075 C 291.27 -1.56604 -1.17194 0
M  V30 3076 O 292.476 -2.08624 -1.73748 0
M  V30 3077 C 290.932 -3.57934 0.375623 0
M  V30 3078 C 290.54 -4.10591 1.79217 0
M  V30 3079 C 292.284 -4.24488 -0.0315857 0
M  V30 3080 C 290.191 -5.60712 1.88032 0
M  V30 3081 H 289.121 -0.749144 0.0854398 0
M  V30 3082 H 291.772 -1.61251 0.875813 0
M  V30 3083 H 290.154 -3.94622 -0.330042 0
M  V30 3084 H 291.328 -3.85301 2.52745 0
M  V30 3085 H 289.643 -3.56601 2.15 0
M  V30 3086 H 292.24 -5.34698 0.0136842 0
M  V30 3087 H 292.583 -4.02261 -1.072 0
M  V30 3088 H 293.116 -3.92873 0.624181 0
M  V30 3089 H 289.855 -5.87781 2.90161 0
M  V30 3090 H 289.375 -5.87896 1.18903 0
M  V30 3091 H 291.054 -6.25658 1.64805 0
M  V30 3092 N 291.186 -0.45159 -1.50991 0
M  V30 3093 C 292.463 0.170707 -1.94854 0
M  V30 3094 C 292.843 1.58788 -1.39103 0
M  V30 3095 O 292.191 2.20913 -0.583921 0
M  V30 3096 C 292.401 0.133929 -3.48743 0
M  V30 3097 C 293.749 0.33248 -4.23296 0
M  V30 3098 O 294.773 0.211403 -3.55572 0
M  V30 3099 O 293.632 0.57486 -5.43468 0
M  V30 3100 H 290.726 0.122264 -0.817912 0
M  V30 3101 H 293.272 -0.510594 -1.61836 0
M  V30 3102 H 292.044 -0.856283 -3.81816 0
M  V30 3103 H 291.667 0.857529 -3.88242 0
M  V30 3104 N 292.664 1.56529 -0.183458 0
M  V30 3105 C 293.594 2.21549 0.737456 0
M  V30 3106 C 294.575 1.17489 1.23005 0
M  V30 3107 O 295.76 1.45959 1.281 0
M  V30 3108 C 292.89 2.86575 1.96194 0
M  V30 3109 C 291.844 3.96778 1.60473 0
M  V30 3110 C 291.17 4.48911 2.90487 0
M  V30 3111 C 292.47 5.15767 0.823497 0
M  V30 3112 H 294.164 2.98761 0.195453 0
M  V30 3113 H 291.71 1.43702 0.0925686 0
M  V30 3114 H 293.663 3.30739 2.61131 0
M  V30 3115 H 292.387 2.06749 2.52828 0
M  V30 3116 H 291.046 3.53286 0.978997 0
M  V30 3117 H 290.694 3.65862 3.45186 0
M  V30 3118 H 290.394 5.23265 2.67335 0
M  V30 3119 H 291.918 4.95771 3.56432 0
M  V30 3120 H 293.332 5.56549 1.37571 0
M  V30 3121 H 291.729 5.96114 0.690551 0
M  V30 3122 H 292.799 4.84574 -0.177782 0
M  V30 3123 N 294.142 -0.090211 1.57342 0
M  V30 3124 C 295.391 -0.791531 1.8552 0
M  V30 3125 C 295.704 -1.79659 0.773441 0
M  V30 3126 O 296.91 -2.54616 0.942497 0
M  V30 3127 C 295.366 -1.45856 3.2902 0
M  V30 3128 C 294.974 -0.493017 4.45279 0
M  V30 3129 C 296.718 -2.14332 3.66418 0
M  V30 3130 C 294.625 -1.16491 5.79814 0
M  V30 3131 H 293.555 -0.299356 0.692027 0
M  V30 3132 H 296.206 -0.0445343 1.83446 0
M  V30 3133 H 294.588 -2.25318 3.2565 0
M  V30 3134 H 295.762 0.270464 4.60006 0
M  V30 3135 H 294.077 0.0863061 4.16311 0
M  V30 3136 H 296.674 -2.65344 4.64216 0
M  V30 3137 H 297.017 -2.93447 2.95287 0
M  V30 3138 H 297.55 -1.41724 3.71698 0
M  V30 3139 H 294.289 -0.41447 6.54188 0
M  V30 3140 H 293.809 -1.8997 5.68921 0
M  V30 3141 H 295.488 -1.69001 6.24538 0
M  V30 3142 N 295.62 -1.53406 -0.361157 0
M  V30 3143 C 296.897 -1.60411 -1.11927 0
M  V30 3144 C 297.277 -0.414385 -2.06993 0
M  V30 3145 O 296.625 0.594976 -2.20618 0
M  V30 3146 C 296.835 -2.95652 -1.85448 0
M  V30 3147 C 298.183 -3.50386 -2.39823 0
M  V30 3148 O 299.207 -2.97711 -1.95568 0
M  V30 3149 O 298.066 -4.42482 -3.20737 0
M  V30 3150 H 295.16 -0.64811 -0.513695 0
M  V30 3151 H 297.706 -1.65749 -0.364065 0
M  V30 3152 H 296.478 -3.73682 -1.16091 0
M  V30 3153 H 296.101 -2.93825 -2.67866 0
M  V30 3154 N 297.098 0.621204 -1.44841 0
M  V30 3155 C 298.046 1.75385 -1.52784 0
M  V30 3156 C 299.04 1.64639 -0.398779 0
M  V30 3157 O 300.246 1.70598 -0.574137 0
M  V30 3158 H 296.621 0.579193 -0.479625 0
M  V30 3159 H 298.592 1.6581 -2.48092 0
M  V30 3160 C 297.341 3.13742 -1.4987 0
M  V30 3161 H 296.664 3.22663 -2.36069 0
M  V30 3162 H 298.104 3.92861 -1.59487 0
M  V30 3163 C 296.563 3.36175 -0.220973 0
M  V30 3164 O 297.093 3.95469 0.704782 0
M  V30 3165 N 295.299 2.90348 -0.120963 0
M  V30 3166 H 294.846 2.42278 -0.875162 0
M  V30 3167 H 294.804 3.05732 0.733168 0
M  V30 3168 N 298.576 1.31904 0.862503 0
M  V30 3169 C 299.853 1.12644 1.59908 0
M  V30 3170 C 300.233 -0.316104 2.0872 0
M  V30 3171 O 299.581 -1.31145 1.87118 0
M  V30 3172 C 299.791 2.1472 2.7513 0
M  V30 3173 C 301.139 2.47637 3.44907 0
M  V30 3174 O 302.163 2.13205 2.85346 0
M  V30 3175 O 301.022 3.06632 4.52371 0
M  V30 3176 H 298.116 0.43416 0.703871 0
M  V30 3177 H 300.662 1.43408 0.907314 0
M  V30 3178 H 299.434 3.1172 2.3653 0
M  V30 3179 H 299.057 1.84905 3.51989 0
M  V30 3180 N 300.054 -1.07777 1.14986 0
M  V30 3181 C 301.017 -2.13041 0.845358 0
M  V30 3182 C 302.017 -1.60071 -0.152931 0
M  V30 3183 O 303.207 -1.74033 0.0761879 0
M  V30 3184 C 300.339 -3.39896 0.261383 0
M  V30 3185 H 301.532 -2.41485 1.77834 0
M  V30 3186 H 299.085 -1.23595 0.956757 0
M  V30 3187 H 299.82 -3.17091 -0.68 0
M  V30 3188 H 299.605 -3.79642 0.980514 0
M  V30 3189 H 301.095 -4.17548 0.0657687 0
M  V30 3190 N 301.532 -0.945985 -1.26051 0
M  V30 3191 C 302.76 -0.613025 -1.9761 0
M  V30 3192 C 303.175 0.813035 -1.70397 0
M  V30 3193 O 302.532 1.54274 -0.974979 0
M  V30 3194 C 302.583 -0.85159 -3.51326 0
M  V30 3195 O 302.304 -2.22157 -3.77595 0
M  V30 3196 C 303.805 -0.529831 -4.40122 0
M  V30 3197 H 301.025 -0.230593 -0.630133 0
M  V30 3198 H 303.569 -1.268 -1.60443 0
M  V30 3199 H 301.724 -0.243151 -3.86636 0
M  V30 3200 H 302.138 -2.2852 -4.721 0
M  V30 3201 H 303.612 -0.747348 -5.46917 0
M  V30 3202 H 304.089 0.535341 -4.35925 0
M  V30 3203 H 304.695 -1.11721 -4.10364 0
M  V30 3204 N 303.011 1.40521 -0.713556 0
M  V30 3205 C 304.239 2.05237 -0.261775 0
M  V30 3206 C 304.654 1.53755 1.09567 0
M  V30 3207 O 304.011 0.693268 1.6882 0
M  V30 3208 C 304.062 3.60763 -0.230706 0
M  V30 3209 O 303.783 4.10345 -1.53455 0
M  V30 3210 C 305.284 4.42651 0.239874 0
M  V30 3211 H 302.504 0.660533 -0.118057 0
M  V30 3212 H 305.048 1.79967 -0.971192 0
M  V30 3213 H 303.203 3.8501 0.429661 0
M  V30 3214 H 303.617 5.04526 -1.43366 0
M  V30 3215 H 305.091 5.51599 0.210468 0
M  V30 3216 H 305.568 4.20082 1.28171 0
M  V30 3217 H 306.174 4.23507 -0.390142 0
M  V30 3218 N 304.489 0.459591 1.5075 0
M  V30 3219 C 305.735 -0.091664 2.03193 0
M  V30 3220 C 306.09 -1.38432 1.3362 0
M  V30 3221 O 305.383 -1.86257 0.449322 0
M  V30 3222 C 305.577 -0.342866 3.55752 0
M  V30 3223 C 305.406 0.923888 4.40107 0
M  V30 3224 C 304.176 1.46388 4.83631 0
M  V30 3225 C 306.374 1.81617 4.81165 0
M  V30 3226 N 304.356 2.68086 5.52271 0
M  V30 3227 C 305.727 2.87907 5.49099 0
M  V30 3228 C 307.782 1.82793 4.63132 0
M  V30 3229 C 306.485 3.95347 6.0091 0
M  V30 3230 C 308.511 2.89182 5.15876 0
M  V30 3231 C 307.873 3.94191 5.83774 0
M  V30 3232 H 303.972 0.00619247 0.781975 0
M  V30 3233 H 306.556 0.625233 1.84388 0
M  V30 3234 H 304.727 -1.0288 3.74527 0
M  V30 3235 H 306.459 -0.887445 3.9485 0
M  V30 3236 H 303.214 1.01466 4.62603 0
M  V30 3237 H 303.638 3.29857 5.91205 0
M  V30 3238 H 308.28 1.0293 4.1008 0
M  V30 3239 H 305.998 4.76035 6.53006 0
M  V30 3240 H 309.584 2.91061 5.0376 0
M  V30 3241 H 308.464 4.75161 6.23853 0
M  V30 3242 N 305.967 -1.56429 0.191757 0
M  V30 3243 C 306.877 -2.22541 -0.742481 0
M  V30 3244 C 307.893 -1.22342 -1.23727 0
M  V30 3245 O 309.069 -1.55069 -1.28513 0
M  V30 3246 C 306.134 -2.8692 -1.94623 0
M  V30 3247 C 305.195 -4.02378 -1.49633 0
M  V30 3248 C 304.428 -4.63678 -2.6427 0
M  V30 3249 O 304.651 -4.23895 -3.81666 0
M  V30 3250 O 303.585 -5.53202 -2.37174 0
M  V30 3251 H 307.411 -3.02977 -0.209462 0
M  V30 3252 H 304.996 -1.49353 -0.0373832 0
M  V30 3253 H 306.878 -3.27663 -2.64982 0
M  V30 3254 H 305.553 -2.09466 -2.46791 0
M  V30 3255 H 304.46 -3.66265 -0.761636 0
M  V30 3256 H 305.793 -4.81487 -1.02134 0
M  V30 3257 N 307.445 0.0818655 -1.57387 0
M  V30 3258 C 308.377 1.12484 -1.997 0
M  V30 3259 C 309.39 1.35564 -0.90146 0
M  V30 3260 O 310.579 1.33982 -1.17945 0
M  V30 3261 C 307.679 2.47778 -2.31213 0
M  V30 3262 C 306.852 2.44793 -3.62485 0
M  V30 3263 C 305.911 3.62117 -3.81782 0
M  V30 3264 O 304.937 3.44005 -4.53486 0
M  V30 3265 N 306.139 4.82094 -3.23367 0
M  V30 3266 H 308.904 0.764585 -2.89783 0
M  V30 3267 H 306.465 0.270664 -1.59621 0
M  V30 3268 H 308.457 3.24891 -2.41304 0
M  V30 3269 H 307.027 2.75843 -1.4707 0
M  V30 3270 H 306.247 1.53134 -3.6324 0
M  V30 3271 H 307.535 2.39889 -4.48699 0
M  V30 3272 H 306.933 4.99713 -2.65148 0
M  V30 3273 H 305.49 5.56753 -3.38923 0
M  V30 3274 N 308.923 1.53595 0.353017 0
M  V30 3275 C 309.833 1.83897 1.45667 0
M  V30 3276 C 310.849 0.728334 1.58023 0
M  V30 3277 O 312.025 1.01968 1.73679 0
M  V30 3278 C 309.09 2.03383 2.80778 0
M  V30 3279 C 308.151 3.27262 2.77845 0
M  V30 3280 C 307.384 3.45809 4.06512 0
M  V30 3281 O 307.607 2.68387 5.03314 0
M  V30 3282 O 306.541 4.39207 4.11559 0
M  V30 3283 H 310.367 2.77686 1.2298 0
M  V30 3284 H 307.952 1.39132 0.544308 0
M  V30 3285 H 309.834 2.17698 3.60812 0
M  V30 3286 H 308.509 1.12783 3.03417 0
M  V30 3287 H 307.416 3.18359 1.96465 0
M  V30 3288 H 308.749 4.17824 2.60161 0
M  V30 3289 N 310.401 -0.613514 1.45168 0
M  V30 3290 C 311.812 -1.19539 1.43413 0
M  V30 3291 C 312.163 -1.95558 0.158632 0
M  V30 3292 O 311.288 -2.0335 -0.740119 0
M  V30 3293 C 311.883 -2.17445 2.59813 0
M  V30 3294 C 310.442 -2.71022 2.61197 0
M  V30 3295 C 309.589 -1.46323 2.35552 0
M  V30 3296 H 312.54 -0.403163 1.53494 0
M  V30 3297 H 312.561 -3.00373 2.33574 0
M  V30 3298 H 312.073 -1.62089 3.52631 0
M  V30 3299 H 310.174 -3.30332 1.7237 0
M  V30 3300 H 310.287 -3.15859 3.60236 0
M  V30 3301 H 308.651 -1.75072 1.84992 0
M  V30 3302 H 309.434 -0.92844 3.30507 0
M  V30 3303 N 311.879 -1.3236 -0.855495 0
M  V30 3304 C 312.809 -1.23833 -1.97958 0
M  V30 3305 C 313.79 -0.122361 -1.69659 0
M  V30 3306 O 314.975 -0.30939 -1.9172 0
M  V30 3307 C 312.105 -0.959772 -3.33775 0
M  V30 3308 C 311.059 -2.03689 -3.76424 0
M  V30 3309 C 310.385 -1.61075 -5.09862 0
M  V30 3310 C 311.685 -3.4518 -3.9198 0
M  V30 3311 H 313.379 -2.1788 -2.0535 0
M  V30 3312 H 310.925 -1.04891 -0.986605 0
M  V30 3313 H 312.878 -0.886678 -4.11966 0
M  V30 3314 H 311.602 0.0163404 -3.26596 0
M  V30 3315 H 310.261 -2.10012 -3.00484 0
M  V30 3316 H 309.909 -0.622107 -4.99138 0
M  V30 3317 H 309.609 -2.33143 -5.39368 0
M  V30 3318 H 311.133 -1.55201 -5.90546 0
M  V30 3319 H 312.547 -3.4145 -4.60526 0
M  V30 3320 H 310.944 -4.1559 -4.32903 0
M  V30 3321 H 312.014 -3.84903 -2.94919 0
M  V30 3322 N 313.357 1.07166 -1.15556 0
M  V30 3323 C 314.29 2.13808 -0.797593 0
M  V30 3324 C 315.268 1.6101 0.226812 0
M  V30 3325 O 316.452 1.88161 0.112932 0
M  V30 3326 C 313.579 3.38187 -0.186371 0
M  V30 3327 C 312.625 4.09766 -1.18297 0
M  V30 3328 S 313.458 4.60932 -2.72584 0
M  V30 3329 C 314.614 5.88583 -2.12886 0
M  V30 3330 H 314.847 2.43843 -1.70083 0
M  V30 3331 H 312.38 1.19467 -0.978106 0
M  V30 3332 H 314.338 4.10189 0.159837 0
M  V30 3333 H 312.999 3.06326 0.694489 0
M  V30 3334 H 312.192 4.99065 -0.703562 0
M  V30 3335 H 311.794 3.43736 -1.47381 0
M  V30 3336 H 314.086 6.60866 -1.49208 0
M  V30 3337 H 315.029 6.41241 -3.0036 0
M  V30 3338 H 315.437 5.42194 -1.57116 0
M  V30 3339 N 314.835 0.952656 1.25548 0
M  V30 3340 C 316.063 0.623496 1.97282 0
M  V30 3341 C 316.478 -0.803987 1.70826 0
M  V30 3342 O 315.835 -1.53755 0.983147 0
M  V30 3343 C 315.886 0.870209 3.5087 0
M  V30 3344 O 315.607 2.24156 3.76412 0
M  V30 3345 C 317.108 0.553164 4.39835 0
M  V30 3346 H 314.328 0.233931 0.628902 0
M  V30 3347 H 316.872 1.27649 1.59768 0
M  V30 3348 H 315.027 0.263652 3.86502 0
M  V30 3349 H 315.441 2.31021 4.70882 0
M  V30 3350 H 316.915 0.776342 5.46513 0
M  V30 3351 H 317.392 -0.512215 4.36203 0
M  V30 3352 H 317.998 1.13896 4.09766 0
M  V30 3353 N 316.313 -1.40141 0.720998 0
M  V30 3354 C 317.243 -2.33339 0.0867621 0
M  V30 3355 C 318.224 -1.53178 -0.739622 0
M  V30 3356 O 319.409 -1.81625 -0.687449 0
M  V30 3357 C 316.539 -3.37194 -0.831728 0
M  V30 3358 C 315.493 -4.27857 -0.110558 0
M  V30 3359 C 314.819 -5.22294 -1.14513 0
M  V30 3360 C 316.119 -5.11872 1.0385 0
M  V30 3361 H 317.813 -2.86626 0.865219 0
M  V30 3362 H 315.359 -1.37814 0.417516 0
M  V30 3363 H 317.312 -4.01335 -1.28485 0
M  V30 3364 H 316.036 -2.82314 -1.64214 0
M  V30 3365 H 314.695 -3.65176 0.322797 0
M  V30 3366 H 314.343 -4.63717 -1.94874 0
M  V30 3367 H 314.043 -5.83797 -0.667446 0
M  V30 3368 H 315.567 -5.89312 -1.59824 0
M  V30 3369 H 316.981 -5.69436 0.664482 0
M  V30 3370 H 315.378 -5.82445 1.4449 0
M  V30 3371 H 316.448 -4.4753 1.86668 0
M  V30 3372 N 317.792 -0.46758 -1.50504 0
M  V30 3373 C 318.755 0.317059 -2.26996 0
M  V30 3374 C 319.755 0.923513 -1.31635 0
M  V30 3375 O 320.945 0.793239 -1.55091 0
M  V30 3376 C 318.077 1.45134 -3.08462 0
M  V30 3377 H 319.27 -0.353723 -2.97807 0
M  V30 3378 H 316.823 -0.221545 -1.54722 0
M  V30 3379 H 317.558 2.15728 -2.4214 0
M  V30 3380 H 317.343 1.02232 -3.78538 0
M  V30 3381 H 318.833 2.00493 -3.66323 0
M  V30 3382 N 319.27 1.56325 -0.20005 0
M  V30 3383 C 320.202 2.16555 0.750771 0
M  V30 3384 C 321.215 1.12871 1.1732 0
M  V30 3385 O 322.404 1.39943 1.10807 0
M  V30 3386 C 319.504 2.71684 2.02586 0
M  V30 3387 C 318.677 4.00321 1.76244 0
M  V30 3388 C 317.736 4.40227 2.88248 0
M  V30 3389 O 316.762 5.07552 2.57642 0
M  V30 3390 N 317.964 4.04138 4.16717 0
M  V30 3391 H 320.729 2.98772 0.235685 0
M  V30 3392 H 318.29 1.6189 -0.0182594 0
M  V30 3393 H 320.282 2.95363 2.76664 0
M  V30 3394 H 318.852 1.93893 2.45202 0
M  V30 3395 H 318.072 3.84723 0.85919 0
M  V30 3396 H 319.36 4.84279 1.56048 0
M  V30 3397 H 318.758 3.49993 4.44434 0
M  V30 3398 H 317.315 4.32756 4.87407 0
M  V30 3399 N 320.748 -0.0735177 1.57428 0
M  V30 3400 C 321.68 -1.11423 2.00294 0
M  V30 3401 C 322.693 -1.35084 0.908637 0
M  V30 3402 O 323.882 -1.33355 1.18654 0
M  V30 3403 C 320.982 -2.46548 2.32523 0
M  V30 3404 C 320.155 -2.42867 3.63778 0
M  V30 3405 C 319.214 -3.60087 3.83697 0
M  V30 3406 O 318.24 -3.41595 4.55304 0
M  V30 3407 N 319.442 -4.80372 3.25919 0
M  V30 3408 H 322.207 -0.749206 2.90184 0
M  V30 3409 H 319.768 -0.262195 1.59763 0
M  V30 3410 H 321.76 -3.23607 2.43024 0
M  V30 3411 H 320.33 -2.75059 1.48531 0
M  V30 3412 H 319.55 -1.51206 3.64047 0
M  V30 3413 H 320.838 -2.37506 4.49965 0
M  V30 3414 H 320.236 -4.983 2.67795 0
M  V30 3415 H 318.793 -5.54948 3.41871 0
M  V30 3416 N 322.226 -1.5378 -0.344866 0
M  V30 3417 C 323.474 -1.70625 -1.08311 0
M  V30 3418 C 323.795 -0.471447 -1.89215 0
M  V30 3419 O 323.065 0.514616 -1.8902 0
M  V30 3420 H 321.645 -0.629058 -0.402859 0
M  V30 3421 H 324.307 -1.9103 -0.386459 0
M  V30 3422 H 323.403 -2.57656 -1.76124 0
M  V30 3423 N 323.704 0.605807 -1.45491 0
M  V30 3424 C 324.614 1.74466 -1.56839 0
M  V30 3425 C 325.63 1.68006 -0.452772 0
M  V30 3426 O 326.806 1.8833 -0.713708 0
M  V30 3427 C 323.871 3.10931 -1.53371 0
M  V30 3428 C 322.932 3.28832 -2.75986 0
M  V30 3429 C 322.165 4.58787 -2.72673 0
M  V30 3430 O 322.388 5.4122 -1.80102 0
M  V30 3431 O 321.322 4.79438 -3.63899 0
M  V30 3432 H 325.148 1.67843 -2.53106 0
M  V30 3433 H 322.733 0.770108 -1.28022 0
M  V30 3434 H 324.615 3.92233 -1.54051 0
M  V30 3435 H 323.29 3.18042 -0.602572 0
M  V30 3436 H 322.197 2.47112 -2.80867 0
M  V30 3437 H 323.53 3.26599 -3.68231 0
M  V30 3438 N 325.182 1.32811 0.848464 0
M  V30 3439 C 326.112 1.24882 1.97299 0
M  V30 3440 C 327.093 0.131357 1.69592 0
M  V30 3441 O 328.278 0.319553 1.91553 0
M  V30 3442 C 325.408 0.97746 3.33261 0
M  V30 3443 C 324.362 2.05682 3.75338 0
M  V30 3444 C 323.688 1.63777 5.09 0
M  V30 3445 C 324.988 3.47254 3.90144 0
M  V30 3446 H 326.682 2.18966 2.04191 0
M  V30 3447 H 324.228 1.05413 0.981029 0
M  V30 3448 H 326.181 0.908513 4.1149 0
M  V30 3449 H 324.905 0.000980011 3.266 0
M  V30 3450 H 323.564 2.11603 2.99366 0
M  V30 3451 H 323.212 0.648569 4.98801 0
M  V30 3452 H 322.912 2.36 5.38124 0
M  V30 3453 H 324.436 1.5833 5.89715 0
M  V30 3454 H 325.85 3.43888 4.58709 0
M  V30 3455 H 324.247 4.1788 4.30693 0
M  V30 3456 H 325.317 3.86462 2.92874 0
M  V30 3457 N 326.66 -1.06551 1.16123 0
M  V30 3458 C 327.593 -2.13382 0.80892 0
M  V30 3459 C 328.571 -1.61128 -0.21827 0
M  V30 3460 O 329.755 -1.88219 -0.102952 0
M  V30 3461 C 326.882 -3.38083 0.204303 0
M  V30 3462 C 325.928 -4.09133 1.20469 0
M  V30 3463 S 326.761 -4.5948 2.75024 0
M  V30 3464 C 327.917 -5.87446 2.16005 0
M  V30 3465 H 328.15 -2.42937 1.71373 0
M  V30 3466 H 325.683 -1.18947 0.984428 0
M  V30 3467 H 327.641 -4.10268 -0.138081 0
M  V30 3468 H 326.302 -3.0669 -0.678234 0
M  V30 3469 H 325.495 -4.98685 0.730019 0
M  V30 3470 H 325.097 -3.4295 1.49202 0
M  V30 3471 H 327.389 -6.60065 1.5271 0
M  V30 3472 H 328.332 -6.39639 3.03756 0
M  V30 3473 H 328.74 -5.41354 1.59989 0
M  V30 3474 N 328.138 -0.959301 -1.25041 0
M  V30 3475 C 329.101 -0.487677 -2.23952 0
M  V30 3476 C 330.101 0.41119 -1.55454 0
M  V30 3477 O 331.291 0.207825 -1.72956 0
M  V30 3478 C 328.423 0.294807 -3.39623 0
M  V30 3479 H 329.616 -1.36198 -2.67189 0
M  V30 3480 H 327.169 -0.743042 -1.37508 0
M  V30 3481 H 327.904 1.18658 -3.01813 0
M  V30 3482 H 327.689 -0.35012 -3.90534 0
M  V30 3483 H 329.179 0.614089 -4.1306 0
M  V30 3484 N 329.616 1.39756 -0.72842 0
M  V30 3485 C 330.863 2.00645 -0.273487 0
M  V30 3486 C 331.191 1.57786 1.13727 0
M  V30 3487 O 330.446 0.794886 1.7883 0
M  V30 3488 C 330.745 3.56002 -0.315776 0
M  V30 3489 C 330.411 4.18489 -1.67863 0
M  V30 3490 C 329.073 4.3527 -2.05166 0
M  V30 3491 C 331.425 4.53219 -2.57375 0
M  V30 3492 C 328.753 4.84069 -3.31503 0
M  V30 3493 C 331.105 5.03423 -3.83077 0
M  V30 3494 C 329.769 5.18413 -4.20481 0
M  V30 3495 H 329.039 0.734211 -0.100076 0
M  V30 3496 H 331.686 1.6718 -0.933972 0
M  V30 3497 H 329.991 3.89452 0.428285 0
M  V30 3498 H 331.688 4.00963 0.0542575 0
M  V30 3499 H 328.278 4.05824 -1.37858 0
M  V30 3500 H 332.462 4.39878 -2.29827 0
M  V30 3501 H 327.718 4.93859 -3.60435 0
M  V30 3502 H 331.892 5.2927 -4.52599 0
M  V30 3503 H 329.519 5.55987 -5.18443 0
M  V30 3504 N 331.094 0.475555 1.50254 0
M  V30 3505 C 332.004 -0.321501 2.32387 0
M  V30 3506 C 333.02 -0.991755 1.42969 0
M  V30 3507 O 334.196 -0.978747 1.76018 0
M  V30 3508 C 331.261 -1.38667 3.17762 0
M  V30 3509 C 330.322 -0.732538 4.23004 0
M  V30 3510 C 329.555 -1.74695 5.04299 0
M  V30 3511 O 329.778 -2.97399 4.86734 0
M  V30 3512 O 328.712 -1.31631 5.8733 0
M  V30 3513 H 332.538 0.350071 3.01676 0
M  V30 3514 H 330.123 0.237321 1.47503 0
M  V30 3515 H 332.005 -2.00354 3.70724 0
M  V30 3516 H 330.68 -2.04163 2.51196 0
M  V30 3517 H 329.587 -0.0765902 3.74022 0
M  V30 3518 H 330.92 -0.120452 4.92053 0
M  V30 3519 N 332.573 -1.56217 0.208337 0
M  V30 3520 C 333.523 -2.16324 -0.720281 0
M  V30 3521 C 334.507 -1.10775 -1.16695 0
M  V30 3522 O 335.699 -1.36801 -1.12314 0
M  V30 3523 C 332.828 -2.83644 -1.93393 0
M  V30 3524 C 331.914 -3.96401 -1.50755 0
M  V30 3525 N 332.305 -4.99546 -0.792937 0
M  V30 3526 C 330.603 -4.08246 -1.79585 0
M  V30 3527 C 331.304 -5.78828 -0.577364 0
M  V30 3528 N 330.28 -5.31723 -1.1301 0
M  V30 3529 H 334.082 -2.93432 -0.165725 0
M  V30 3530 H 331.596 -1.62397 0.00906463 0
M  V30 3531 H 333.593 -3.25107 -2.60981 0
M  V30 3532 H 332.253 -2.08027 -2.49308 0
M  V30 3533 H 333.264 -5.15967 -0.447004 0
M  V30 3534 H 329.941 -3.4377 -2.36915 0
M  V30 3535 H 331.331 -6.71899 -0.00952956 0
M  V30 3536 N 334.051 0.0651679 -1.57465 0
M  V30 3537 C 335.462 0.616213 -1.76238 0
M  V30 3538 C 335.813 1.7756 -0.834689 0
M  V30 3539 O 334.938 2.1639 -0.0204156 0
M  V30 3540 C 335.533 1.12462 -3.1959 0
M  V30 3541 C 334.092 1.62147 -3.39684 0
M  V30 3542 C 333.239 0.543739 -2.71917 0
M  V30 3543 H 336.19 -0.161022 -1.57881 0
M  V30 3544 H 336.211 1.99324 -3.24114 0
M  V30 3545 H 335.723 0.280592 -3.87084 0
M  V30 3546 H 333.824 2.48854 -2.77313 0
M  V30 3547 H 333.937 1.69385 -4.48158 0
M  V30 3548 H 332.301 0.990352 -2.34657 0
M  V30 3549 H 333.084 -0.290216 -3.42071 0
M  V30 3550 N 335.529 1.53961 0.336706 0
M  V30 3551 C 336.777 1.71197 1.07405 0
M  V30 3552 C 337.098 0.481475 1.88962 0
M  V30 3553 O 336.368 -0.504585 1.8929 0
M  V30 3554 H 334.948 0.631185 0.399517 0
M  V30 3555 H 337.61 1.91232 0.376323 0
M  V30 3556 H 336.706 2.58587 1.74755 0
M  V30 3557 N 337.007 -0.598083 1.45811 0
M  V30 3558 C 338.254 -1.35681 1.50323 0
M  V30 3559 C 338.582 -1.9393 0.148739 0
M  V30 3560 O 337.837 -1.76094 -0.853787 0
M  V30 3561 C 338.136 -2.51669 2.53766 0
M  V30 3562 C 337.802 -2.11508 3.98215 0
M  V30 3563 C 336.464 -2.0027 4.37545 0
M  V30 3564 C 338.816 -1.80308 4.89018 0
M  V30 3565 C 336.144 -1.56067 5.65562 0
M  V30 3566 C 338.496 -1.37589 6.17456 0
M  V30 3567 C 337.16 -1.24916 6.55708 0
M  V30 3568 H 336.43 -0.496492 0.550069 0
M  V30 3569 H 339.077 -0.675052 1.79207 0
M  V30 3570 H 337.382 -3.25225 2.18486 0
M  V30 3571 H 339.079 -3.09895 2.54492 0
M  V30 3572 H 335.669 -2.21185 3.67117 0
M  V30 3573 H 339.853 -1.87884 4.59362 0
M  V30 3574 H 335.109 -1.44886 5.93985 0
M  V30 3575 H 339.283 -1.12495 6.87254 0
M  V30 3576 H 336.91 -0.904386 7.54801 0
M  V30 3577 N 338.485 -1.33259 -0.841409 0
M  V30 3578 C 339.731 -1.25766 -1.59857 0
M  V30 3579 C 340.086 0.175602 -1.91597 0
M  V30 3580 O 339.379 1.117 -1.55672 0
M  V30 3581 C 339.573 -2.06381 -2.9179 0
M  V30 3582 C 339.402 -3.57401 -2.72937 0
M  V30 3583 C 338.172 -4.26718 -2.70628 0
M  V30 3584 C 340.37 -4.51786 -2.45753 0
M  V30 3585 N 338.352 -5.63705 -2.43125 0
M  V30 3586 C 339.723 -5.76643 -2.27777 0
M  V30 3587 C 341.778 -4.40898 -2.31329 0
M  V30 3588 C 340.481 -6.91842 -1.96841 0
M  V30 3589 C 342.507 -5.55911 -2.01786 0
M  V30 3590 C 341.869 -6.79776 -1.8462 0
M  V30 3591 H 337.968 -0.515406 -0.588117 0
M  V30 3592 H 340.552 -1.67772 -0.987955 0
M  V30 3593 H 338.723 -1.667 -3.50807 0
M  V30 3594 H 340.455 -1.90678 -3.56965 0
M  V30 3595 H 337.21 -3.78968 -2.84043 0
M  V30 3596 H 337.634 -6.35911 -2.32265 0
M  V30 3597 H 342.276 -3.45772 -2.43314 0
M  V30 3598 H 339.994 -7.86968 -1.83594 0
M  V30 3599 H 343.58 -5.49421 -1.91384 0
M  V30 3600 H 342.46 -7.67266 -1.62088 0
M  V30 3601 N 339.963 1.05934 -1.16686 0
M  V30 3602 C 340.895 2.13468 -0.834503 0
M  V30 3603 C 341.908 1.62013 0.15984 0
M  V30 3604 O 343.097 1.7838 -0.0654228 0
M  V30 3605 C 340.197 3.3817 -0.222361 0
M  V30 3606 C 339.37 4.18928 -1.25771 0
M  V30 3607 C 338.429 5.21985 -0.664703 0
M  V30 3608 O 337.455 5.53334 -1.33453 0
M  V30 3609 N 338.657 5.77919 0.546834 0
M  V30 3610 H 341.422 2.42578 -1.75999 0
M  V30 3611 H 338.983 1.21967 -1.06469 0
M  V30 3612 H 340.975 4.04266 0.187472 0
M  V30 3613 H 339.545 3.06655 0.606758 0
M  V30 3614 H 338.765 3.48433 -1.84358 0
M  V30 3615 H 340.053 4.69687 -1.95631 0
M  V30 3616 H 339.451 5.54721 1.10912 0
M  V30 3617 H 338.008 6.45573 0.898829 0
M  V30 3618 N 341.441 0.965919 1.2453 0
M  V30 3619 C 342.852 0.665929 1.7442 0
M  V30 3620 C 343.203 -0.818407 1.78316 0
M  V30 3621 O 342.328 -1.64037 1.41141 0
M  V30 3622 C 342.923 1.20211 3.16757 0
M  V30 3623 C 341.482 0.952059 3.6416 0
M  V30 3624 C 340.629 1.33848 2.42858 0
M  V30 3625 H 343.58 1.14144 1.10258 0
M  V30 3626 H 343.601 0.567544 3.76244 0
M  V30 3627 H 343.113 2.28244 3.13889 0
M  V30 3628 H 341.214 -0.112821 3.72429 0
M  V30 3629 H 341.327 1.59645 4.51719 0
M  V30 3630 H 339.691 0.756864 2.43195 0
M  V30 3631 H 340.474 2.42827 2.42673 0
M  V30 3632 N 342.919 -1.39368 0.735821 0
M  V30 3633 C 343.852 -2.28155 0.0451175 0
M  V30 3634 C 344.83 -1.44433 -0.746852 0
M  V30 3635 O 346.014 -1.73823 -0.729237 0
M  V30 3636 C 343.141 -3.253 -0.943266 0
M  V30 3637 C 342.187 -4.25826 -0.239685 0
M  V30 3638 S 343.02 -5.25166 1.04693 0
M  V30 3639 C 344.176 -6.2587 0.0611639 0
M  V30 3640 H 344.409 -2.86388 0.79807 0
M  V30 3641 H 341.942 -1.45104 0.527653 0
M  V30 3642 H 343.9 -3.81789 -1.50824 0
M  V30 3643 H 342.561 -2.66085 -1.66906 0
M  V30 3644 H 341.754 -4.94229 -0.987596 0
M  V30 3645 H 341.356 -3.73141 0.253274 0
M  V30 3646 H 343.648 -6.73007 -0.778941 0
M  V30 3647 H 344.591 -7.04508 0.712362 0
M  V30 3648 H 344.999 -5.63639 -0.311602 0
M  V30 3649 N 344.397 -0.483516 -1.5 0
M  V30 3650 C 345.674 0.129337 -1.95172 0
M  V30 3651 C 346.054 1.55802 -1.4244 0
M  V30 3652 O 345.402 2.19625 -0.630649 0
M  V30 3653 C 345.612 0.0599251 -3.48949 0
M  V30 3654 C 346.96 0.242617 -4.23906 0
M  V30 3655 O 347.984 0.135933 -3.55941 0
M  V30 3656 O 346.843 0.459454 -5.44565 0
M  V30 3657 H 343.937 0.104887 -0.820322 0
M  V30 3658 H 346.483 -0.544807 -1.60717 0
M  V30 3659 H 345.255 -0.937079 -3.79914 0
M  V30 3660 H 344.878 0.774984 -3.89974 0
M  V30 3661 N 345.875 1.56104 -0.216619 0
M  V30 3662 C 347.103 2.02563 0.421413 0
M  V30 3663 C 347.518 1.0965 1.53695 0
M  V30 3664 O 346.875 0.10521 1.82196 0
M  V30 3665 C 346.926 3.48584 0.957665 0
M  V30 3666 O 346.647 4.37953 -0.113389 0
M  V30 3667 C 348.148 4.10664 1.66943 0
M  V30 3668 H 345.368 0.662944 0.103665 0
M  V30 3669 H 347.912 2.01793 -0.331629 0
M  V30 3670 H 346.067 3.49985 1.661 0
M  V30 3671 H 346.481 5.23704 0.288932 0
M  V30 3672 H 347.955 5.14622 1.99671 0
M  V30 3673 H 348.432 3.55373 2.58083 0
M  V30 3674 H 349.038 4.13098 1.01142 0
M  V30 3675 N 347.353 -0.0568162 1.57498 0
M  V30 3676 C 348.283 -1.06593 2.0775 0
M  V30 3677 C 349.264 -1.39448 0.974082 0
M  V30 3678 O 350.449 -1.48815 1.24771 0
M  V30 3679 C 347.579 -2.37509 2.5339 0
M  V30 3680 C 346.533 -2.1897 3.67745 0
M  V30 3681 C 345.859 -3.55402 3.99492 0
M  V30 3682 C 347.159 -1.59859 4.97235 0
M  V30 3683 H 348.853 -0.647706 2.9231 0
M  V30 3684 H 346.399 -0.310116 1.40621 0
M  V30 3685 H 348.352 -3.08409 2.87162 0
M  V30 3686 H 347.076 -2.8134 1.65878 0
M  V30 3687 H 345.735 -1.50508 3.3428 0
M  V30 3688 H 345.383 -3.9683 3.09088 0
M  V30 3689 H 345.083 -3.43831 4.76502 0
M  V30 3690 H 346.607 -4.27708 4.35773 0
M  V30 3691 H 348.021 -2.20642 5.29141 0
M  V30 3692 H 346.418 -1.58942 5.78669 0
M  V30 3693 H 347.488 -0.561506 4.81638 0
M  V30 3694 N 348.832 -1.54138 -0.328536 0
M  V30 3695 C 350.248 -1.44736 -0.672574 0
M  V30 3696 C 350.448 -0.616217 -1.91846 0
M  V30 3697 O 349.504 -0.113067 -2.52247 0
M  V30 3698 C 350.817 -2.884 -0.851217 0
M  V30 3699 C 352.365 -2.98271 -0.948877 0
M  V30 3700 C 352.84 -4.43074 -1.15973 0
M  V30 3701 N 354.331 -4.46665 -1.22658 0
M  V30 3702 C 355.066 -5.55857 -1.40751 0
M  V30 3703 N 354.562 -6.75026 -1.5592 0
M  V30 3704 N 356.355 -5.43495 -1.4342 0
M  V30 3705 H 348.506 -2.06661 0.490421 0
M  V30 3706 H 350.769 -0.934812 0.157579 0
M  V30 3707 H 350.475 -3.51699 -0.00704236 0
M  V30 3708 H 350.349 -3.34225 -1.74853 0
M  V30 3709 H 352.736 -2.35102 -1.78356 0
M  V30 3710 H 352.817 -2.55785 -0.0281435 0
M  V30 3711 H 352.461 -5.06827 -0.329915 0
M  V30 3712 H 352.391 -4.83165 -2.09426 0
M  V30 3713 H 354.882 -3.60797 -1.124 0
M  V30 3714 H 355.195 -7.54004 -1.69404 0
M  V30 3715 H 353.54 -6.77944 -1.53027 0
M  V30 3716 H 356.731 -4.49349 -1.31162 0
M  V30 3717 H 356.904 -6.28649 -1.57178 0
M  V30 3718 N 350.31 0.590341 -1.46126 0
M  V30 3719 C 351.587 1.35029 -1.41515 0
M  V30 3720 C 351.967 2.10888 -0.0946472 0
M  V30 3721 O 351.315 2.08998 0.923693 0
M  V30 3722 C 351.525 2.28269 -2.63997 0
M  V30 3723 C 352.873 2.90338 -3.09821 0
M  V30 3724 O 353.897 2.38585 -2.64492 0
M  V30 3725 O 352.756 3.84321 -3.88535 0
M  V30 3726 H 349.85 0.606317 -0.562413 0
M  V30 3727 H 352.396 0.611994 -1.58281 0
M  V30 3728 H 351.168 1.71591 -3.51671 0
M  V30 3729 H 350.791 3.0945 -2.49652 0
M  V30 3730 N 351.788 1.33704 0.83433 0
M  V30 3731 C 352.735 1.24335 1.94447 0
M  V30 3732 C 353.705 0.120991 1.65659 0
M  V30 3733 O 354.89 0.300035 1.88426 0
M  V30 3734 C 352.03 0.993124 3.30501 0
M  V30 3735 C 351.143 2.20217 3.71657 0
M  V30 3736 C 350.278 1.88572 4.96602 0
M  V30 3737 C 349.317 3.05683 5.30306 0
M  V30 3738 N 348.454 2.73997 6.46429 0
M  V30 3739 H 353.294 2.1928 2.01792 0
M  V30 3740 H 350.831 1.09035 0.987404 0
M  V30 3741 H 352.789 0.828467 4.08892 0
M  V30 3742 H 351.419 0.0803902 3.227 0
M  V30 3743 H 350.471 2.47642 2.88752 0
M  V30 3744 H 351.783 3.07752 3.92543 0
M  V30 3745 H 350.937 1.68776 5.82752 0
M  V30 3746 H 349.676 0.982799 4.77695 0
M  V30 3747 H 348.681 3.26088 4.42659 0
M  V30 3748 H 349.906 3.96737 5.51159 0
M  V30 3749 H 347.852 1.86268 6.28999 0
M  V30 3750 H 347.769 3.55064 6.67432 0
M  V30 3751 H 349.037 2.57679 7.35678 0
M  V30 3752 N 353.266 -1.05314 1.17247 0
M  V30 3753 C 354.512 -1.78557 0.961513 0
M  V30 3754 C 354.845 -1.87419 -0.508697 0
M  V30 3755 O 354.12 -1.37307 -1.37757 0
M  V30 3756 C 354.403 -3.22514 1.60176 0
M  V30 3757 C 354.256 -3.21673 3.14399 0
M  V30 3758 C 355.575 -4.20318 1.30463 0
M  V30 3759 H 352.694 -0.6482 0.350723 0
M  V30 3760 H 355.336 -1.23102 1.44727 0
M  V30 3761 H 353.486 -3.69867 1.18871 0
M  V30 3762 H 355.158 -2.82405 3.64753 0
M  V30 3763 H 353.401 -2.60048 3.47214 0
M  V30 3764 H 354.072 -4.23271 3.54324 0
M  V30 3765 H 356.548 -3.81454 1.66229 0
M  V30 3766 H 355.424 -5.19289 1.77848 0
M  V30 3767 H 355.685 -4.41526 0.22521 0
M  V30 3768 N 354.744 -0.972509 -1.24016 0
M  V30 3769 C 355.974 -0.653853 -1.9598 0
M  V30 3770 C 356.382 0.781801 -1.72292 0
M  V30 3771 O 355.725 1.53677 -1.00644 0
M  V30 3772 C 355.787 -0.854608 -3.49194 0
M  V30 3773 C 355.451 -2.27082 -3.96589 0
M  V30 3774 C 356.448 -3.24892 -4.05883 0
M  V30 3775 C 354.133 -2.5998 -4.29786 0
M  V30 3776 C 356.127 -4.53684 -4.47716 0
M  V30 3777 C 353.814 -3.88997 -4.71301 0
M  V30 3778 C 354.812 -4.85661 -4.80232 0
M  V30 3779 O 354.5 -6.12376 -5.20818 0
M  V30 3780 H 354.232 -0.242572 -0.630979 0
M  V30 3781 H 356.786 -1.30431 -1.58673 0
M  V30 3782 H 355.016 -0.146985 -3.86421 0
M  V30 3783 H 356.705 -0.534311 -4.02368 0
M  V30 3784 H 357.471 -3.00805 -3.80449 0
M  V30 3785 H 353.35 -1.85457 -4.22051 0
M  V30 3786 H 356.894 -5.29135 -4.54601 0
M  V30 3787 H 352.791 -4.12882 -4.96184 0
M  V30 3788 H 353.559 -6.16013 -5.38953 0
M  V30 3789 N 356.222 1.38976 -0.743202 0
M  V30 3790 C 357.152 2.33171 -0.123873 0
M  V30 3791 C 358.133 1.54336 0.71516 0
M  V30 3792 O 359.318 1.82696 0.658467 0
M  V30 3793 C 356.448 3.38474 0.777978 0
M  V30 3794 C 355.402 4.27979 0.0424758 0
M  V30 3795 C 354.728 5.2405 1.06189 0
M  V30 3796 C 356.028 5.10155 -1.1198 0
M  V30 3797 H 357.722 2.85213 -0.910709 0
M  V30 3798 H 355.268 1.37133 -0.439388 0
M  V30 3799 H 357.221 4.03328 1.22084 0
M  V30 3800 H 355.945 2.84891 1.59702 0
M  V30 3801 H 354.604 3.64616 -0.380853 0
M  V30 3802 H 354.252 4.66758 1.87472 0
M  V30 3803 H 353.952 5.84785 0.574485 0
M  V30 3804 H 355.476 5.9178 1.50428 0
M  V30 3805 H 356.89 5.68307 -0.75499 0
M  V30 3806 H 355.287 5.80073 -1.53738 0
M  V30 3807 H 356.357 4.44504 -1.93764 0
M  V30 3808 N 357.7 0.491464 1.49741 0
M  V30 3809 C 358.61 -0.296835 2.32715 0
M  V30 3810 C 359.626 -0.976536 1.44013 0
M  V30 3811 O 360.802 -0.960023 1.77047 0
M  V30 3812 C 357.867 -1.35288 3.19215 0
M  V30 3813 C 356.928 -0.687632 4.23757 0
M  V30 3814 C 356.161 -1.69336 5.06123 0
M  V30 3815 O 356.384 -2.92219 4.89861 0
M  V30 3816 O 355.318 -1.25394 5.88693 0
M  V30 3817 H 359.144 0.382048 3.01287 0
M  V30 3818 H 356.729 0.252953 1.47243 0
M  V30 3819 H 358.611 -1.96411 3.72828 0
M  V30 3820 H 357.286 -2.01487 2.53347 0
M  V30 3821 H 356.193 -0.0369159 3.74082 0
M  V30 3822 H 357.526 -0.0682566 4.92153 0
M  V30 3823 N 359.178 -1.55987 0.224894 0
M  V30 3824 C 360.426 -1.97998 -0.405099 0
M  V30 3825 C 360.747 -1.11387 -1.60056 0
M  V30 3826 O 360.017 -0.191645 -1.9496 0
M  V30 3827 H 358.597 -0.731235 -0.152658 0
M  V30 3828 H 361.259 -1.92279 0.318567 0
M  V30 3829 H 360.355 -3.03463 -0.729167 0
M  V30 3830 N 360.656 0.0484629 -1.57525 0
M  V30 3831 C 361.586 1.0549 -2.08313 0
M  V30 3832 C 362.567 1.38929 -0.981463 0
M  V30 3833 O 363.752 1.48151 -1.25558 0
M  V30 3834 C 360.882 2.36162 -2.54646 0
M  V30 3835 C 359.836 2.17016 -3.68901 0
M  V30 3836 C 359.162 3.53278 -4.01371 0
M  V30 3837 C 360.462 1.57219 -4.98076 0
M  V30 3838 H 362.156 0.632195 -2.92649 0
M  V30 3839 H 359.702 0.302654 -1.40784 0
M  V30 3840 H 361.655 3.06882 -2.88793 0
M  V30 3841 H 360.379 2.80456 -1.67368 0
M  V30 3842 H 359.038 1.48733 -3.35073 0
M  V30 3843 H 358.686 3.95185 -3.11188 0
M  V30 3844 H 358.386 3.41299 -4.78318 0
M  V30 3845 H 359.91 4.25391 -4.38035 0
M  V30 3846 H 361.324 2.17832 -5.30304 0
M  V30 3847 H 359.721 1.55871 -5.79503 0
M  V30 3848 H 360.791 0.535956 -4.81929 0
M  V30 3849 N 362.134 1.5431 0.320358 0
M  V30 3850 C 363.38 1.73859 1.05568 0
M  V30 3851 C 363.735 0.507807 1.85578 0
M  V30 3852 O 363.028 -0.499789 1.84967 0
M  V30 3853 C 363.222 2.95639 2.00828 0
M  V30 3854 C 363.051 4.30444 1.30186 0
M  V30 3855 C 361.821 4.94544 1.03703 0
M  V30 3856 C 364.019 5.0929 0.716138 0
M  V30 3857 N 362.001 6.13172 0.298846 0
M  V30 3858 C 363.372 6.19903 0.109729 0
M  V30 3859 C 365.427 4.94034 0.619269 0
M  V30 3860 C 364.13 7.16924 -0.584153 0
M  V30 3861 C 366.156 5.91369 -0.0609184 0
M  V30 3862 C 365.518 7.01336 -0.656258 0
M  V30 3863 H 361.617 0.688988 0.36989 0
M  V30 3864 H 364.201 1.9177 0.336494 0
M  V30 3865 H 362.372 2.79188 2.70016 0
M  V30 3866 H 364.104 3.03802 2.6737 0
M  V30 3867 H 360.859 4.54536 1.33019 0
M  V30 3868 H 361.283 6.76977 -0.0561964 0
M  V30 3869 H 365.925 4.0916 1.06526 0
M  V30 3870 H 363.643 8.01354 -1.04197 0
M  V30 3871 H 367.229 5.81642 -0.135552 0
M  V30 3872 H 366.109 7.75359 -1.17423 0
M  V30 3873 N 363.613 -0.582584 1.46437 0
M  V30 3874 C 364.523 -1.71949 1.59595 0
M  V30 3875 C 365.539 -1.67264 0.479443 0
M  V30 3876 O 366.715 -1.87171 0.743579 0
M  V30 3877 C 363.78 -3.08452 1.58298 0
M  V30 3878 C 362.841 -3.244 2.81182 0
M  V30 3879 C 362.074 -4.54391 2.79937 0
M  V30 3880 O 362.297 -5.38287 1.8869 0
M  V30 3881 O 361.231 -4.73588 3.71481 0
M  V30 3882 H 365.057 -1.63795 2.55744 0
M  V30 3883 H 362.642 -0.749643 1.29231 0
M  V30 3884 H 364.524 -3.89732 1.60271 0
M  V30 3885 H 363.199 -3.17043 0.653094 0
M  V30 3886 H 362.106 -2.42613 2.84763 0
M  V30 3887 H 363.439 -3.20699 3.7338 0
M  V30 3888 N 365.091 -1.34144 -0.827227 0
M  V30 3889 C 366.038 -1.25364 -1.93785 0
M  V30 3890 C 367.008 -0.129774 -1.65592 0
M  V30 3891 O 368.193 -0.310024 -1.88264 0
M  V30 3892 C 365.333 -1.01064 -3.2997 0
M  V30 3893 C 364.446 -2.22185 -3.70484 0
M  V30 3894 C 363.581 -1.91203 -4.95595 0
M  V30 3895 C 362.62 -3.08491 -5.28677 0
M  V30 3896 N 361.757 -2.77421 -6.44967 0
M  V30 3897 H 366.597 -2.20347 -2.00627 0
M  V30 3898 H 364.134 -1.09558 -0.981608 0
M  V30 3899 H 366.092 -0.850139 -4.08446 0
M  V30 3900 H 364.722 -0.0975026 -3.22653 0
M  V30 3901 H 363.774 -2.4917 -2.87434 0
M  V30 3902 H 365.086 -3.0983 -3.90905 0
M  V30 3903 H 364.24 -1.71864 -5.81848 0
M  V30 3904 H 362.979 -1.00812 -4.77167 0
M  V30 3905 H 361.984 -3.28431 -4.40923 0
M  V30 3906 H 363.209 -3.99655 -5.49047 0
M  V30 3907 H 361.155 -1.89601 -6.28003 0
M  V30 3908 H 361.072 -3.58598 -6.6554 0
M  V30 3909 H 362.34 -2.61577 -7.34301 0
M  V30 3910 N 366.569 1.04691 -1.17803 0
M  V30 3911 C 367.817 1.7743 -0.967617 0
M  V30 3912 C 368.138 1.88359 0.504574 0
M  V30 3913 O 367.408 1.40402 1.36617 0
M  V30 3914 H 365.988 0.657242 -0.355024 0
M  V30 3915 H 368.65 1.2638 -1.48371 0
M  V30 3916 H 367.746 2.78924 -1.40027 0
M  V30 3917 N 368.047 0.979072 1.23499 0
M  V30 3918 C 368.994 0.517904 2.24914 0
M  V30 3919 C 369.964 -0.442525 1.60097 0
M  V30 3920 O 371.149 -0.350365 1.87556 0
M  V30 3921 C 368.289 -0.174813 3.44657 0
M  V30 3922 C 367.402 0.825721 4.24035 0
M  V30 3923 C 366.537 0.107946 5.3109 0
M  V30 3924 C 365.576 1.09778 6.02175 0
M  V30 3925 N 364.713 0.40925 7.00906 0
M  V30 3926 H 369.553 1.38751 2.63727 0
M  V30 3927 H 367.09 0.695303 1.2963 0
M  V30 3928 H 369.048 -0.593233 4.12961 0
M  V30 3929 H 367.678 -1.0083 3.06648 0
M  V30 3930 H 366.73 1.36253 3.55161 0
M  V30 3931 H 368.042 1.58005 4.73113 0
M  V30 3932 H 367.196 -0.367904 6.05583 0
M  V30 3933 H 365.935 -0.678994 4.8295 0
M  V30 3934 H 364.94 1.5844 5.26476 0
M  V30 3935 H 366.165 1.88536 6.52404 0
M  V30 3936 H 364.111 -0.358506 6.5502 0
M  V30 3937 H 364.028 1.10226 7.47921 0
M  V30 3938 H 365.296 -0.0442557 7.79487 0
M  V30 3939 N 369.525 -1.3858 0.750561 0
M  V30 3940 C 370.488 -2.28836 0.129152 0
M  V30 3941 C 371.488 -1.47045 -0.650714 0
M  V30 3942 O 372.678 -1.6753 -0.477428 0
M  V30 3943 C 369.81 -3.30751 -0.825622 0
M  V30 3944 H 371.003 -2.85294 0.924516 0
M  V30 3945 H 368.556 -1.47489 0.517376 0
M  V30 3946 H 369.291 -2.79378 -1.64677 0
M  V30 3947 H 369.076 -3.91177 -0.268852 0
M  V30 3948 H 370.566 -3.98249 -1.2565 0
M  V30 3949 N 371.003 -0.499398 -1.49478 0
M  V30 3950 C 372.414 -0.051215 -1.8663 0
M  V30 3951 C 372.765 1.36238 -1.41186 0
M  V30 3952 O 371.89 2.01502 -0.789051 0
M  V30 3953 C 372.485 -0.0861651 -3.3869 0
M  V30 3954 C 371.044 0.30667 -3.75149 0
M  V30 3955 C 370.191 -0.459397 -2.73468 0
M  V30 3956 H 373.142 -0.712264 -1.41818 0
M  V30 3957 H 373.163 0.709507 -3.73826 0
M  V30 3958 H 372.675 -1.11512 -3.71735 0
M  V30 3959 H 370.776 1.33892 -3.47712 0
M  V30 3960 H 370.889 -0.0116669 -4.79099 0
M  V30 3961 H 369.253 0.0905645 -2.54539 0
M  V30 3962 H 370.036 -1.4884 -3.09357 0
M  V30 3963 N 372.481 1.55866 -0.233164 0
M  V30 3964 C 373.727 1.99643 0.389148 0
M  V30 3965 C 374.082 1.11836 1.56558 0
M  V30 3966 O 373.375 0.170848 1.90837 0
M  V30 3967 C 373.569 3.46856 0.861724 0
M  V30 3968 C 373.398 4.48904 -0.267376 0
M  V30 3969 C 372.168 4.99888 -0.737577 0
M  V30 3970 C 374.366 5.02624 -1.08966 0
M  V30 3971 N 372.348 5.8566 -1.84052 0
M  V30 3972 C 373.719 5.85434 -2.04125 0
M  V30 3973 C 375.774 4.84959 -1.12779 0
M  V30 3974 C 374.477 6.52466 -3.02789 0
M  V30 3975 C 376.503 5.52759 -2.10266 0
M  V30 3976 C 375.865 6.35346 -3.04162 0
M  V30 3977 H 371.964 0.774402 0.108742 0
M  V30 3978 H 374.548 1.91572 -0.347596 0
M  V30 3979 H 372.719 3.55352 1.5678 0
M  V30 3980 H 374.451 3.77531 1.45783 0
M  V30 3981 H 371.206 4.7249 -0.324122 0
M  V30 3982 H 371.63 6.33246 -2.39434 0
M  V30 3983 H 376.272 4.20751 -0.415749 0
M  V30 3984 H 373.99 7.15849 -3.74948 0
M  V30 3985 H 377.576 5.41051 -2.13905 0
M  V30 3986 H 376.456 6.86883 -3.78366 0
M  V30 3987 N 373.959 -0.0401083 1.57549 0
M  V30 3988 C 374.906 -1.04413 2.05831 0
M  V30 3989 C 375.876 -1.36585 0.945184 0
M  V30 3990 O 377.061 -1.47112 1.21502 0
M  V30 3991 C 374.201 -2.34336 2.53339 0
M  V30 3992 C 373.314 -2.08419 3.78398 0
M  V30 3993 C 372.449 -3.32133 4.14561 0
M  V30 3994 C 371.488 -3.01721 5.3257 0
M  V30 3995 N 370.625 -4.17855 5.64218 0
M  V30 3996 H 375.465 -0.625442 2.91363 0
M  V30 3997 H 373.002 -0.297218 1.44066 0
M  V30 3998 H 374.96 -3.10234 2.78946 0
M  V30 3999 H 373.59 -2.73948 1.7074 0
M  V30 4000 H 372.642 -1.23069 3.59942 0
M  V30 4001 H 373.954 -1.81978 4.64419 0
M  V30 4002 H 373.108 -4.16406 4.41238 0
M  V30 4003 H 371.847 -3.61678 3.2717 0
M  V30 4004 H 370.852 -2.15849 5.05657 0
M  V30 4005 H 372.077 -2.73466 6.21605 0
M  V30 4006 H 370.023 -4.47372 4.79786 0
M  V30 4007 H 369.94 -3.94798 6.44725 0
M  V30 4008 H 371.208 -5.03033 5.95465 0
M  V30 4009 N 375.437 -1.54477 -0.31217 0
M  V30 4010 C 376.665 -1.77205 -1.068 0
M  V30 4011 C 377.08 -0.526114 -1.81321 0
M  V30 4012 O 376.437 0.503647 -1.75413 0
M  V30 4013 C 376.488 -2.97253 -2.05725 0
M  V30 4014 O 376.209 -4.1703 -1.34228 0
M  V30 4015 C 377.71 -3.32281 -2.93435 0
M  V30 4016 H 374.93 -0.591287 -0.317208 0
M  V30 4017 H 377.474 -2.01398 -0.354834 0
M  V30 4018 H 375.629 -2.753 -2.72559 0
M  V30 4019 H 376.043 -4.84636 -2.00571 0
M  V30 4020 H 377.517 -4.19551 -3.58721 0
M  V30 4021 H 377.994 -2.49945 -3.61143 0
M  V30 4022 H 378.6 -3.56353 -2.32147 0
M  V30 4023 N 376.915 0.57481 -1.46744 0
M  V30 4024 C 378.161 1.33251 -1.53674 0
M  V30 4025 C 378.516 1.91468 -0.189125 0
M  V30 4026 O 377.809 1.73954 0.803151 0
M  V30 4027 C 378.003 2.476 -2.57738 0
M  V30 4028 C 377.832 2.00586 -4.02487 0
M  V30 4029 C 376.602 1.85237 -4.70123 0
M  V30 4030 C 378.8 1.56078 -4.90045 0
M  V30 4031 N 376.782 1.32377 -5.99458 0
M  V30 4032 C 378.153 1.14863 -6.09267 0
M  V30 4033 C 380.208 1.43968 -4.76632 0
M  V30 4034 C 378.911 0.627435 -7.16558 0
M  V30 4035 C 380.937 0.932512 -5.84002 0
M  V30 4036 C 380.299 0.53019 -7.02402 0
M  V30 4037 H 376.398 0.480284 -0.617131 0
M  V30 4038 H 378.982 0.653592 -1.83402 0
M  V30 4039 H 377.153 3.13045 -2.29907 0
M  V30 4040 H 378.885 3.14567 -2.54616 0
M  V30 4041 H 375.64 2.07423 -4.25761 0
M  V30 4042 H 376.064 1.08085 -6.68316 0
M  V30 4043 H 380.706 1.73689 -3.85476 0
M  V30 4044 H 378.424 0.317821 -8.07475 0
M  V30 4045 H 382.01 0.842611 -5.75666 0
M  V30 4046 H 380.89 0.14381 -7.84068 0
M  V30 4047 N 378.394 1.34581 0.820102 0
M  V30 4048 C 379.304 1.28471 1.96297 0
M  V30 4049 C 380.32 0.191902 1.72939 0
M  V30 4050 O 381.496 0.418879 1.96996 0
M  V30 4051 C 378.561 1.04281 3.30645 0
M  V30 4052 C 377.622 2.22745 3.66992 0
M  V30 4053 C 376.855 1.997 4.9493 0
M  V30 4054 O 377.078 0.956656 5.6232 0
M  V30 4055 O 376.012 2.86723 5.2922 0
M  V30 4056 H 379.838 2.24624 2.04396 0
M  V30 4057 H 377.423 1.14816 0.955913 0
M  V30 4058 H 379.305 0.925841 4.11104 0
M  V30 4059 H 377.98 0.111697 3.23507 0
M  V30 4060 H 376.887 2.40003 2.86966 0
M  V30 4061 H 378.22 3.14257 3.78819 0
M  V30 4062 O 379.911 -0.958615 1.29972 0
M  V30 4063 H 380.602 -1.5862 1.11172 0
M  V30 END ATOM
M  V30 BEGIN BOND
M  V30 END BOND
M  V30 END CTAB
M  END
$$$$
