drugbank_target|P26440 Isovaleryl-CoA dehydrogenase, mitochondrial (DB03147; DB04036)
 OpenBabel12092119313D

  0  0  0     0  0            999 V3000
M  V30 BEGIN CTAB
M  V30 COUNTS 6517 6579 0 0 0
M  V30 BEGIN ATOM
M  V30 1 H -0.908 1.98254 -0.117106 0
M  V30 2 N 0 1.576 0 0
M  V30 3 C 0.933 2.03868 1.02534 0
M  V30 4 C 1.911 0.928543 1.3348 0
M  V30 5 O 3.095 1.19667 1.45644 0
M  V30 6 C 0.222 2.43627 2.35294 0
M  V30 7 C -0.732 3.65373 2.2001 0
M  V30 8 S 0.101 5.13292 1.52614 0
M  V30 9 C 1.257 5.56322 2.86805 0
M  V30 10 H 1.49 2.90518 0.631377 0
M  V30 11 H -0.977 1.52953 0.210867 0
M  V30 12 H 0.981 2.67203 3.11629 0
M  V30 13 H -0.358 1.57376 2.7183 0
M  V30 14 H -1.165 3.90944 3.18086 0
M  V30 15 H -1.563 3.418 1.51819 0
M  V30 16 H 0.729 5.58782 3.83104 0
M  V30 17 H 1.672 6.56266 2.65933 0
M  V30 18 H 2.08 4.83886 2.90714 0
M  V30 19 N 1.4781 -0.272755 1.55222 0
M  V30 20 C 2.4411 -1.32041 1.87344 0
M  V30 21 C 3.4411 -1.42342 0.74803 0
M  V30 22 O 4.6311 -1.41488 1.0162 0
M  V30 23 C 1.7631 -2.70173 2.07893 0
M  V30 24 H 2.9561 -1.04789 2.80997 0
M  V30 25 H 0.5091 -0.51083 1.47717 0
M  V30 26 H 1.2441 -3.02605 1.16622 0
M  V30 27 H 1.0291 -2.64082 2.89833 0
M  V30 28 H 2.5191 -3.45869 2.34017 0
M  V30 29 N 2.9562 -1.48159 -0.537278 0
M  V30 30 C 4.1842 -1.59454 -1.31841 0
M  V30 31 C 4.5992 -0.252065 -1.8711 0
M  V30 32 O 3.9562 0.757621 -1.66031 0
M  V30 33 C 4.0072 -2.63546 -2.47439 0
M  V30 34 O 3.7282 -3.92583 -1.94449 0
M  V30 35 C 5.2292 -2.85212 -3.39366 0
M  V30 36 H 2.4492 -0.53785 -0.401196 0
M  V30 37 H 4.9932 -1.93932 -0.648891 0
M  V30 38 H 3.1482 -2.31946 -3.1029 0
M  V30 39 H 3.5622 -4.49629 -2.70063 0
M  V30 40 H 5.0362 -3.61863 -4.16844 0
M  V30 41 H 5.5132 -1.93765 -3.94147 0
M  V30 42 H 6.1192 -3.18086 -2.82314 0
M  V30 43 N 4.4343 0.785586 -1.36625 0
M  V30 44 C 5.3973 1.87999 -1.31107 0
M  V30 45 C 6.3973 1.59316 -0.217959 0
M  V30 46 O 7.5873 1.67656 -0.472977 0
M  V30 47 C 4.7193 3.24861 -1.03334 0
M  V30 48 H 5.9123 1.94307 -2.2844 0
M  V30 49 H 3.4653 0.983813 -1.21453 0
M  V30 50 H 4.2003 3.24235 -0.0647432 0
M  V30 51 H 3.9853 3.4707 -1.82441 0
M  V30 52 H 5.4753 4.04929 -1.02088 0
M  V30 53 N 5.9124 1.20967 1.01018 0
M  V30 54 C 7.1404 1.04956 1.78303 0
M  V30 55 C 7.5554 -0.400915 1.84494 0
M  V30 56 O 6.9124 -1.27826 1.30257 0
M  V30 57 C 6.9634 1.63403 3.22462 0
M  V30 58 O 6.6844 3.02775 3.16637 0
M  V30 59 C 8.1854 1.52432 4.16268 0
M  V30 60 H 5.4054 0.368858 0.560522 0
M  V30 61 H 7.9494 1.60193 1.27116 0
M  V30 62 H 6.1044 1.1227 3.70775 0
M  V30 63 H 6.5184 3.30626 4.07169 0
M  V30 64 H 7.9924 1.98078 5.15237 0
M  V30 65 H 8.4694 0.477875 4.36592 0
M  V30 66 H 9.0754 2.02787 3.73841 0
M  V30 67 N 7.3905 -1.2043 1.01659 0
M  V30 68 C 8.8065 -1.41852 0.731442 0
M  V30 69 C 9.0065 -1.89358 -0.688898 0
M  V30 70 O 8.0625 -2.06247 -1.45666 0
M  V30 71 C 9.3755 -2.44019 1.75714 0
M  V30 72 C 10.9235 -2.57785 1.77527 0
M  V30 73 C 11.3985 -3.63194 2.79023 0
M  V30 74 N 12.8895 -3.70678 2.77763 0
M  V30 75 C 13.6245 -4.51897 3.52954 0
M  V30 76 N 13.1205 -5.36921 4.37821 0
M  V30 77 N 14.9135 -4.4643 3.41551 0
M  V30 78 H 7.0645 -0.879093 1.93354 0
M  V30 79 H 9.3275 -0.448425 0.835236 0
M  V30 80 H 9.0335 -2.1611 2.77469 0
M  V30 81 H 8.9075 -3.43007 1.56927 0
M  V30 82 H 11.2945 -2.85023 0.764569 0
M  V30 83 H 11.3755 -1.58992 2.00387 0
M  V30 84 H 11.0195 -3.36699 3.80258 0
M  V30 85 H 10.9495 -4.61609 2.53425 0
M  V30 86 H 13.4405 -3.09944 2.16201 0
M  V30 87 H 13.7535 -5.95981 4.91962 0
M  V30 88 H 12.0985 -5.36424 4.41899 0
M  V30 89 H 15.2895 -3.79042 2.74672 0
M  V30 90 H 15.4625 -5.09491 4.00404 0
M  V30 91 N 8.8686 -0.792821 -1.36206 0
M  V30 92 C 9.7986 -0.207853 -2.32573 0
M  V30 93 C 10.7796 0.659055 -1.56813 0
M  V30 94 O 11.9646 0.592176 -1.84951 0
M  V30 95 C 9.0946 0.655449 -3.41059 0
M  V30 96 C 8.0486 -0.111842 -4.27854 0
M  V30 97 C 7.3746 0.872274 -5.27537 0
M  V30 98 C 8.6746 -1.30299 -5.05786 0
M  V30 99 H 10.3686 -1.01294 -2.81744 0
M  V30 100 H 7.9146 -0.48854 -1.3546 0
M  V30 101 H 9.8676 1.07464 -4.07467 0
M  V30 102 H 8.5916 1.49328 -2.90463 0
M  V30 103 H 7.2506 -0.512053 -3.63006 0
M  V30 104 H 6.8986 1.70523 -4.73214 0
M  V30 105 H 6.5986 0.363291 -5.86476 0
M  V30 106 H 8.1226 1.28996 -5.96818 0
M  V30 107 H 9.5366 -0.959379 -5.65216 0
M  V30 108 H 7.9336 -1.7455 -5.74154 0
M  V30 109 H 9.0036 -2.09663 -4.37229 0
M  V30 110 N 10.3467 1.47872 -0.545128 0
M  V30 111 C 11.2767 2.32661 0.197793 0
M  V30 112 C 12.2577 1.43041 0.920504 0
M  V30 113 O 13.4427 1.71912 0.90333 0
M  V30 114 C 10.5727 3.24569 1.23582 0
M  V30 115 C 9.5267 4.23333 0.630323 0
M  V30 116 C 8.8527 5.0448 1.77211 0
M  V30 117 C 10.1527 5.20704 -0.407974 0
M  V30 118 H 11.8467 2.95024 -0.510045 0
M  V30 119 H 9.3927 1.4187 -0.246731 0
M  V30 120 H 11.3457 3.8272 1.76362 0
M  V30 121 H 10.0697 2.60236 1.97344 0
M  V30 122 H 8.7287 3.6639 0.123922 0
M  V30 123 H 8.3767 4.36561 2.49847 0
M  V30 124 H 8.0767 5.71339 1.37281 0
M  V30 125 H 9.6007 5.65487 2.3034 0
M  V30 126 H 11.0147 5.7329 0.033305 0
M  V30 127 H 9.4117 5.95699 -0.725486 0
M  V30 128 H 10.4817 4.66917 -1.30828 0
M  V30 129 N 11.8248 0.280983 1.55075 0
M  V30 130 C 13.0728 -0.333455 1.9933 0
M  V30 131 C 13.3938 -1.55937 1.17085 0
M  V30 132 O 12.6638 -1.94143 0.261805 0
M  V30 133 H 11.2438 -0.126197 0.736263 0
M  V30 134 H 13.9058 0.387678 1.91005 0
M  V30 135 H 13.0018 -0.619292 3.05894 0
M  V30 136 N 13.3029 -1.57598 0.00835791 0
M  V30 137 C 14.5489 -1.92046 -0.670055 0
M  V30 138 C 14.9039 -0.88351 -1.70915 0
M  V30 139 O 14.1969 0.103223 -1.91322 0
M  V30 140 C 14.3909 -3.3101 -1.34787 0
M  V30 141 C 14.2199 -4.48126 -0.375945 0
M  V30 142 C 12.9899 -5.05297 0.0166914 0
M  V30 143 C 15.1879 -5.1303 0.361272 0
M  V30 144 N 13.1699 -6.05931 0.985952 0
M  V30 145 C 14.5409 -6.08571 1.18495 0
M  V30 146 C 16.5959 -4.9609 0.42421 0
M  V30 147 C 15.2989 -6.88996 2.06584 0
M  V30 148 C 17.3249 -5.77107 1.29236 0
M  V30 149 C 16.6869 -6.72248 2.10386 0
M  V30 150 H 12.7859 -0.75096 -0.218136 0
M  V30 151 H 15.3699 -1.94572 0.0706669 0
M  V30 152 H 13.5409 -3.29342 -2.05884 0
M  V30 153 H 15.2729 -3.52864 -1.98164 0
M  V30 154 H 12.0279 -4.72279 -0.353435 0
M  V30 155 H 12.4519 -6.60932 1.4662 0
M  V30 156 H 17.0939 -4.22378 -0.188915 0
M  V30 157 H 14.8119 -7.62028 2.6896 0
M  V30 158 H 18.3979 -5.66038 1.34508 0
M  V30 159 H 17.2779 -7.33846 2.76476 0
M  V30 160 N 14.781 0.264519 -1.55364 0
M  V30 161 C 16.197 0.61215 -1.47394 0
M  V30 162 C 16.397 1.89134 -0.695018 0
M  V30 163 O 15.453 2.51563 -0.217275 0
M  V30 164 C 16.766 0.731235 -2.91674 0
M  V30 165 C 18.314 0.82473 -3.01939 0
M  V30 166 C 18.789 0.975522 -4.4749 0
M  V30 167 N 20.28 1.04083 -4.51354 0
M  V30 168 C 21.015 1.17646 -5.61201 0
M  V30 169 N 20.511 1.27874 -6.80896 0
M  V30 170 N 22.304 1.20823 -5.48961 0
M  V30 171 H 14.455 -0.575456 -2.04456 0
M  V30 172 H 16.718 -0.196099 -0.927496 0
M  V30 173 H 16.424 -0.138392 -3.51428 0
M  V30 174 H 16.298 1.60883 -3.41169 0
M  V30 175 H 18.685 1.68482 -2.42276 0
M  V30 176 H 18.766 -0.0776479 -2.55682 0
M  V30 177 H 18.41 0.120058 -5.07758 0
M  V30 178 H 18.34 1.89268 -4.91412 0
M  V30 179 H 20.831 0.973846 -3.65136 0
M  V30 180 H 21.144 1.38081 -7.60364 0
M  V30 181 H 19.489 1.24863 -6.83692 0
M  V30 182 H 22.68 1.12469 -4.54388 0
M  V30 183 H 22.853 1.31049 -6.3461 0
M  V30 184 N 16.2591 1.48442 0.529413 0
M  V30 185 C 17.5051 1.5672 1.28711 0
M  V30 186 C 17.8381 0.2406 1.92704 0
M  V30 187 O 17.1131 -0.753454 1.79313 0
M  V30 188 C 17.3961 2.70587 2.37603 0
M  V30 189 C 17.2491 4.12953 1.78297 0
M  V30 190 C 18.5681 2.80212 3.39366 0
M  V30 191 H 15.6871 0.570474 0.466613 0
M  V30 192 H 18.3291 1.80617 0.589706 0
M  V30 193 H 16.4791 2.50342 2.97088 0
M  V30 194 H 18.1511 4.44639 1.22858 0
M  V30 195 H 16.3941 4.19927 1.0883 0
M  V30 196 H 17.0651 4.88448 2.57144 0
M  V30 197 H 19.5411 2.98553 2.89836 0
M  V30 198 H 18.4171 3.61611 4.12951 0
M  V30 199 H 18.6781 1.88393 3.99951 0
M  V30 200 N 17.7372 -0.778329 1.37039 0
M  V30 201 C 18.7002 -1.87301 1.32102 0
M  V30 202 C 19.7002 -1.59198 0.226405 0
M  V30 203 O 20.8902 -1.67403 0.481861 0
M  V30 204 C 18.0222 -3.24309 1.05055 0
M  V30 205 H 19.2152 -1.93093 2.29467 0
M  V30 206 H 16.7682 -0.977358 1.21973 0
M  V30 207 H 17.5032 -3.24196 0.0819373 0
M  V30 208 H 17.2882 -3.46098 1.84279 0
M  V30 209 H 18.7782 -4.04382 1.04234 0
M  V30 210 N 19.2153 -1.21501 -1.00376 0
M  V30 211 C 20.4403 -1.05977 -1.78279 0
M  V30 212 C 20.8653 0.385994 -1.84097 0
M  V30 213 O 20.2233 1.27849 -1.28547 0
M  V30 214 C 20.2713 -1.66302 -3.19963 0
M  V30 215 O 19.3753 -0.909333 -4.0225 0
M  V30 216 H 18.7163 -0.372906 -0.549397 0
M  V30 217 H 21.2463 -1.6107 -1.26165 0
M  V30 218 H 21.2563 -1.70574 -3.70632 0
M  V30 219 H 19.9313 -2.71515 -3.15043 0
M  V30 220 H 18.5083 -0.941795 -3.60811 0
M  V30 221 N 20.6934 1.19889 -1.02296 0
M  V30 222 C 21.9394 1.89973 -0.726759 0
M  V30 223 C 22.2944 1.7776 0.73614 0
M  V30 224 O 21.5874 1.15523 1.52856 0
M  V30 225 C 21.7814 3.39883 -1.10518 0
M  V30 226 C 21.6104 3.66684 -2.60332 0
M  V30 227 C 20.3804 3.85045 -3.27213 0
M  V30 228 C 22.5784 3.68727 -3.58532 0
M  V30 229 N 20.5604 3.99422 -4.66192 0
M  V30 230 C 21.9314 3.88604 -4.83101 0
M  V30 231 C 23.9864 3.51722 -3.52414 0
M  V30 232 C 22.6894 3.9324 -6.02292 0
M  V30 233 C 24.7154 3.57632 -4.71013 0
M  V30 234 C 24.0774 3.77988 -5.94394 0
M  V30 235 H 20.1764 0.714551 -0.317712 0
M  V30 236 H 22.7604 1.44123 -1.30907 0
M  V30 237 H 20.9314 3.8447 -0.551142 0
M  V30 238 H 22.6634 3.97464 -0.761853 0
M  V30 239 H 19.4184 3.83689 -2.77632 0
M  V30 240 H 19.8424 4.10473 -5.38368 0
M  V30 241 H 24.4844 3.34945 -2.58015 0
M  V30 242 H 22.2024 4.08811 -6.97065 0
M  V30 243 H 25.7884 3.45773 -4.67902 0
M  V30 244 H 24.6684 3.82428 -6.8463 0
M  V30 245 N 22.1715 0.800033 1.35784 0
M  V30 246 C 23.5875 0.482977 1.52117 0
M  V30 247 C 23.7875 -0.996948 1.75109 0
M  V30 248 O 22.8435 -1.78216 1.78872 0
M  V30 249 C 24.1565 1.32264 2.70049 0
M  V30 250 C 25.7045 1.31742 2.83924 0
M  V30 251 C 26.1795 2.14106 4.04874 0
M  V30 252 N 27.6705 2.11607 4.12039 0
M  V30 253 C 28.4055 2.72099 5.04727 0
M  V30 254 N 27.9015 3.41492 6.02789 0
M  V30 255 N 29.6945 2.61776 4.97423 0
M  V30 256 H 21.8455 1.75856 1.19115 0
M  V30 257 H 24.1085 0.748122 0.582252 0
M  V30 258 H 23.8145 2.37261 2.59616 0
M  V30 259 H 23.6885 0.971303 3.6448 0
M  V30 260 H 26.0755 0.275333 2.93813 0
M  V30 261 H 26.1565 1.70859 1.9037 0
M  V30 262 H 25.8005 3.18351 3.95746 0
M  V30 263 H 25.7305 1.72353 4.97596 0
M  V30 264 H 28.2215 1.61112 3.41835 0
M  V30 265 H 28.5345 3.84953 6.70098 0
M  V30 266 H 26.8795 3.45596 6.02983 0
M  V30 267 H 30.0705 2.07157 4.19766 0
M  V30 268 H 30.2435 3.0921 5.69468 0
M  V30 269 N 23.6496 -1.47581 0.552962 0
M  V30 270 C 24.5796 -2.32762 -0.185451 0
M  V30 271 C 25.5606 -1.43527 -0.912905 0
M  V30 272 O 26.7456 -1.72388 -0.894201 0
M  V30 273 C 23.8756 -3.25219 -1.21859 0
M  V30 274 C 22.8296 -4.23661 -0.607864 0
M  V30 275 C 22.1556 -5.05413 -1.74533 0
M  V30 276 C 23.4556 -5.20481 0.435582 0
M  V30 277 H 25.1496 -2.94749 0.525684 0
M  V30 278 H 22.6956 -1.41738 0.254251 0
M  V30 279 H 24.6486 -3.8365 -1.7433 0
M  V30 280 H 23.3726 -2.61279 -1.95961 0
M  V30 281 H 22.0316 -3.66451 -0.104489 0
M  V30 282 H 21.6796 -4.3788 -2.47529 0
M  V30 283 H 21.3796 -5.72059 -1.34249 0
M  V30 284 H 22.9036 -5.66701 -2.27338 0
M  V30 285 H 24.3176 -5.733 -0.00290157 0
M  V30 286 H 22.7146 -5.95305 0.757067 0
M  V30 287 H 23.7846 -4.66217 1.33303 0
M  V30 288 N 25.1277 -0.289203 -1.54924 0
M  V30 289 C 26.5437 0.0645403 -1.59469 0
M  V30 290 C 26.7437 1.53419 -1.30632 0
M  V30 291 O 25.7997 2.2852 -1.074 0
M  V30 292 C 27.1127 -0.32278 -2.98963 0
M  V30 293 C 28.6607 -0.270564 -3.11828 0
M  V30 294 C 29.1357 -0.632532 -4.53611 0
M  V30 295 N 30.6267 -0.584617 -4.59496 0
M  V30 296 C 31.3617 -0.837314 -5.67254 0
M  V30 297 N 30.8577 -1.15536 -6.83098 0
M  V30 298 N 32.6507 -0.765166 -5.56868 0
M  V30 299 H 24.8017 -1.24714 -1.71931 0
M  V30 300 H 27.0647 -0.504809 -0.802416 0
M  V30 301 H 26.7707 -1.34541 -3.24948 0
M  V30 302 H 26.6447 0.32944 -3.75759 0
M  V30 303 H 29.0317 0.742805 -2.85598 0
M  V30 304 H 29.1127 -0.957242 -2.37214 0
M  V30 305 H 28.7567 -1.64365 -4.80569 0
M  V30 306 H 28.6867 0.07609 -5.26545 0
M  V30 307 H 31.1777 -0.349248 -3.76283 0
M  V30 308 H 31.4907 -1.33447 -7.61191 0
M  V30 309 H 29.8357 -1.19328 -6.84679 0
M  V30 310 H 33.0267 -0.516432 -4.65243 0
M  V30 311 H 33.1997 -0.965477 -6.40767 0
M  V30 312 N 26.6058 1.57591 -0.0167156 0
M  V30 313 C 28.0168 1.79201 0.523834 0
M  V30 314 C 28.3678 0.925796 1.72984 0
M  V30 315 O 27.4928 0.132792 2.15992 0
M  V30 316 C 28.0878 3.25 0.957091 0
M  V30 317 C 26.6468 3.47648 1.44283 0
M  V30 318 C 25.7938 2.74374 0.401757 0
M  V30 319 H 28.7448 1.56831 -0.242816 0
M  V30 320 H 28.7658 3.34031 1.82219 0
M  V30 321 H 28.2778 3.88019 0.0791415 0
M  V30 322 H 26.3788 2.89866 2.34113 0
M  V30 323 H 26.4918 4.56352 1.45877 0
M  V30 324 H 24.8558 2.39485 0.867121 0
M  V30 325 H 25.6388 3.40102 -0.467513 0
M  V30 326 N 28.0839 -0.256276 1.55502 0
M  V30 327 C 29.4949 -0.826068 1.67431 0
M  V30 328 C 29.8459 -1.86396 0.612446 0
M  V30 329 O 28.9709 -2.15031 -0.243025 0
M  V30 330 C 29.5659 -1.50512 3.03532 0
M  V30 331 C 28.1249 -2.02273 3.17431 0
M  V30 332 C 27.2719 -0.870548 2.63281 0
M  V30 333 H 30.2229 -0.0322728 1.58667 0
M  V30 334 H 30.2439 -2.37279 2.97454 0
M  V30 335 H 29.7559 -0.749484 3.80794 0
M  V30 336 H 27.8569 -2.80746 2.44974 0
M  V30 337 H 27.9699 -2.22655 4.24219 0
M  V30 338 H 26.3339 -1.26851 2.20864 0
M  V30 339 H 27.1169 -0.128149 3.43061 0
M  V30 340 N 29.562 -1.4872 -0.521534 0
M  V30 341 C 30.492 -1.66771 -1.63431 0
M  V30 342 C 31.473 -0.516499 -1.62069 0
M  V30 343 O 32.658 -0.750013 -1.79132 0
M  V30 344 C 29.788 -1.71515 -3.01993 0
M  V30 345 C 28.742 -2.86222 -3.18216 0
M  V30 346 C 28.068 -2.76061 -4.57924 0
M  V30 347 C 29.368 -4.27419 -3.00184 0
M  V30 348 H 31.062 -2.59932 -1.48579 0
M  V30 349 H 28.608 -1.25089 -0.713358 0
M  V30 350 H 30.561 -1.82731 -3.7972 0
M  V30 351 H 29.285 -0.749393 -3.17886 0
M  V30 352 H 27.944 -2.74575 -2.42908 0
M  V30 353 H 27.592 -1.77437 -4.70665 0
M  V30 354 H 27.292 -3.53037 -4.69722 0
M  V30 355 H 28.816 -2.89256 -5.37739 0
M  V30 356 H 30.23 -4.39855 -3.67697 0
M  V30 357 H 28.627 -5.05458 -3.2347 0
M  V30 358 H 29.697 -4.43293 -1.96518 0
M  V30 359 N 31.0401 0.771051 -1.3745 0
M  V30 360 C 32.0031 1.86598 -1.33093 0
M  V30 361 C 33.0031 1.59076 -0.234845 0
M  V30 362 O 34.1931 1.67145 -0.490732 0
M  V30 363 C 31.3251 3.23747 -1.06773 0
M  V30 364 H 32.5181 1.91873 -2.30488 0
M  V30 365 H 30.0711 0.970876 -1.2249 0
M  V30 366 H 30.8061 3.24148 -0.099129 0
M  V30 367 H 30.5911 3.45115 -1.86112 0
M  V30 368 H 32.0811 4.03824 -1.06377 0
M  V30 369 N 32.5182 1.22032 0.997298 0
M  V30 370 C 33.7662 1.04016 1.73278 0
M  V30 371 C 34.0872 -0.426255 1.90284 0
M  V30 372 O 33.3572 -1.30694 1.45931 0
M  V30 373 H 31.9372 0.381897 0.642 0
M  V30 374 H 34.5992 1.5347 1.20137 0
M  V30 375 H 33.6952 1.51441 2.72896 0
M  V30 376 N 33.9963 -1.19345 1.0293 0
M  V30 377 C 35.2433 -1.89038 0.726008 0
M  V30 378 C 35.5713 -1.79649 -0.745427 0
M  V30 379 O 34.8263 -1.18354 -1.55855 0
M  V30 380 C 35.1253 -3.39292 1.12319 0
M  V30 381 C 34.7913 -3.68885 2.59297 0
M  V30 382 C 33.4533 -3.76671 2.99453 0
M  V30 383 C 35.8053 -3.82178 3.54386 0
M  V30 384 C 33.1333 -3.9522 4.33611 0
M  V30 385 C 35.4853 -4.0224 4.88248 0
M  V30 386 C 34.1493 -4.08259 5.28092 0
M  V30 387 H 33.4193 -0.691739 0.265665 0
M  V30 388 H 36.0663 -1.41328 1.29223 0
M  V30 389 H 34.3713 -3.88903 0.475584 0
M  V30 390 H 36.0683 -3.91536 0.866037 0
M  V30 391 H 32.6583 -3.63433 2.27189 0
M  V30 392 H 36.8423 -3.75505 3.24514 0
M  V30 393 H 32.0983 -3.98119 4.64016 0
M  V30 394 H 36.2723 -4.11468 5.61843 0
M  V30 395 H 33.8993 -4.22384 6.32057 0
M  V30 396 N 35.4744 -0.807222 -1.35358 0
M  V30 397 C 36.7204 -0.388463 -1.99045 0
M  V30 398 C 37.0534 1.04184 -1.63888 0
M  V30 399 O 36.3284 1.72292 -0.902535 0
M  V30 400 C 36.6114 -0.572783 -3.55515 0
M  V30 401 C 36.4644 -2.04807 -4.00468 0
M  V30 402 C 37.7834 0.00114064 -4.401 0
M  V30 403 H 34.9024 -0.142619 -0.723069 0
M  V30 404 H 37.5444 -1.01687 -1.60498 0
M  V30 405 H 35.6944 -0.0378425 -3.88482 0
M  V30 406 H 37.3664 -2.64544 -3.77908 0
M  V30 407 H 35.6094 -2.54427 -3.51353 0
M  V30 408 H 36.2804 -2.12792 -5.09337 0
M  V30 409 H 38.7564 -0.455716 -4.13597 0
M  V30 410 H 37.6324 -0.157737 -5.48673 0
M  V30 411 H 37.8934 1.09488 -4.28328 0
M  V30 412 N 36.9525 1.47285 -0.560781 0
M  V30 413 C 38.1775 2.07359 -0.0410566 0
M  V30 414 C 38.6025 1.41017 1.24483 0
M  V30 415 O 37.9605 0.486368 1.74654 0
M  V30 416 C 38.0085 3.6035 0.134123 0
M  V30 417 O 37.1125 3.94681 1.19587 0
M  V30 418 H 36.4535 0.661887 -0.0529291 0
M  V30 419 H 38.9835 1.89252 -0.777482 0
M  V30 420 H 38.9935 4.0652 0.347207 0
M  V30 421 H 37.6685 4.08034 -0.805047 0
M  V30 422 H 36.2455 3.60251 0.962987 0
M  V30 423 N 38.4306 0.297415 1.54768 0
M  V30 424 C 39.3626 -0.613881 2.20826 0
M  V30 425 C 40.3756 -1.10032 1.19987 0
M  V30 426 O 41.5646 -1.01839 1.46598 0
M  V30 427 C 38.6646 -1.852 2.83821 0
M  V30 428 C 37.8376 -1.50865 4.10559 0
M  V30 429 C 36.8966 -2.60154 4.57391 0
M  V30 430 O 35.9226 -2.25398 5.2267 0
M  V30 431 N 37.1246 -3.90629 4.29406 0
M  V30 432 H 39.8896 -0.048389 2.99661 0
M  V30 433 H 37.4506 0.11946 1.61459 0
M  V30 434 H 39.4426 -2.57652 3.12086 0
M  V30 435 H 38.0126 -2.32597 2.08847 0
M  V30 436 H 37.2326 -0.616925 3.89343 0
M  V30 437 H 38.5206 -1.25458 4.9309 0
M  V30 438 H 37.9186 -4.21677 3.77101 0
M  V30 439 H 36.4756 -4.59391 4.62388 0
M  V30 440 N 39.9087 -1.5758 0.0250728 0
M  V30 441 C 41.3247 -1.56124 -0.331282 0
M  V30 442 C 41.5247 -1.03029 -1.73169 0
M  V30 443 O 40.5807 -0.675215 -2.43305 0
M  V30 444 C 41.8937 -3.00139 -0.183584 0
M  V30 445 C 43.4417 -3.11946 -0.256654 0
M  V30 446 C 43.9167 -4.57793 -0.137792 0
M  V30 447 N 45.4077 -4.6279 -0.194904 0
M  V30 448 C 46.1427 -5.7326 -0.126655 0
M  V30 449 N 45.6387 -6.928 -0.00755288 0
M  V30 450 N 47.4317 -5.61811 -0.180348 0
M  V30 451 H 39.5827 -1.90424 0.94087 0
M  V30 452 H 41.8457 -0.875761 0.362968 0
M  V30 453 H 41.5517 -3.4292 0.780927 0
M  V30 454 H 41.4257 -3.64899 -0.955448 0
M  V30 455 H 43.8127 -2.69079 -1.21162 0
M  V30 456 H 43.8937 -2.49915 0.545517 0
M  V30 457 H 43.5377 -5.01339 0.813739 0
M  V30 458 H 43.4677 -5.17798 -0.958775 0
M  V30 459 H 45.9587 -3.76807 -0.287267 0
M  V30 460 H 46.2717 -7.72791 0.0379428 0
M  V30 461 H 44.6167 -6.94995 0.0271731 0
M  V30 462 H 47.8077 -4.6731 -0.271767 0
M  V30 463 H 47.9807 -6.47882 -0.123697 0
M  V30 464 N 41.3868 0.248026 -1.55636 0
M  V30 465 C 42.3498 1.29044 -1.89421 0
M  V30 466 C 43.3498 1.41134 -0.770581 0
M  V30 467 O 44.5398 1.39854 -1.03858 0
M  V30 468 C 41.6718 2.66831 -2.12165 0
M  V30 469 H 42.8648 1.00305 -2.82629 0
M  V30 470 H 40.4178 0.487265 -1.48511 0
M  V30 471 H 41.1528 3.00711 -1.21422 0
M  V30 472 H 40.9378 2.59438 -2.93997 0
M  V30 473 H 42.4278 3.42103 -2.3949 0
M  V30 474 N 42.8649 1.48995 0.513639 0
M  V30 475 C 43.8149 1.61127 1.61314 0
M  V30 476 C 44.7989 0.467521 1.53958 0
M  V30 477 O 45.9909 0.719826 1.61702 0
M  V30 478 C 43.1199 1.66937 2.99978 0
M  V30 479 C 42.2059 2.86847 3.12377 0
M  V30 480 N 42.5969 4.11078 2.94701 0
M  V30 481 C 40.8949 2.84521 3.43459 0
M  V30 482 C 41.5959 4.91615 3.10949 0
M  V30 483 N 40.5719 4.24739 3.3926 0
M  V30 484 H 44.3739 2.54909 1.46282 0
M  V30 485 H 41.8879 1.45593 0.719483 0
M  V30 486 H 43.8849 1.73725 3.78979 0
M  V30 487 H 42.5449 0.742831 3.16089 0
M  V30 488 H 43.5559 4.41258 2.71131 0
M  V30 489 H 40.2329 2.01192 3.65825 0
M  V30 490 H 41.6229 6.00264 3.01882 0
M  V30 491 N 44.343 -0.763751 1.37857 0
M  V30 492 C 45.568 -1.55805 1.36893 0
M  V30 493 C 45.993 -1.88054 -0.0416135 0
M  V30 494 O 45.351 -1.49825 -1.02089 0
M  V30 495 C 45.399 -2.84012 2.22192 0
M  V30 496 O 44.503 -3.78732 1.63204 0
M  V30 497 H 43.844 -0.471638 0.46739 0
M  V30 498 H 46.374 -0.944657 1.81487 0
M  V30 499 H 46.384 -3.33037 2.35691 0
M  V30 500 H 45.059 -2.59869 3.24716 0
M  V30 501 H 43.636 -3.37402 1.58791 0
M  V30 502 N 45.8211 -1.22559 -0.990812 0
M  V30 503 C 46.7511 -1.0218 -2.09956 0
M  V30 504 C 47.7321 0.0579394 -1.70001 0
M  V30 505 O 48.9171 -0.104684 -1.93918 0
M  V30 506 C 46.0471 -0.601023 -3.4206 0
M  V30 507 C 45.0011 -1.62694 -3.95872 0
M  V30 508 C 44.3271 -1.06193 -5.24049 0
M  V30 509 C 45.6271 -3.01743 -4.2632 0
M  V30 510 H 47.3211 -1.94916 -2.27262 0
M  V30 511 H 44.8671 -0.938566 -1.09211 0
M  V30 512 H 46.8201 -0.445561 -4.19038 0
M  V30 513 H 45.5441 0.362005 -3.24588 0
M  V30 514 H 44.2031 -1.77021 -3.21028 0
M  V30 515 H 43.8511 -0.0901903 -5.02919 0
M  V30 516 H 43.5511 -1.74732 -5.61019 0
M  V30 517 H 45.0751 -0.918092 -6.03658 0
M  V30 518 H 46.4891 -2.90777 -4.94087 0
M  V30 519 H 44.8861 -3.67425 -4.74467 0
M  V30 520 H 45.9561 -3.51518 -3.34011 0
M  V30 521 N 47.2992 1.18797 -1.03562 0
M  V30 522 C 48.2292 2.24472 -0.643019 0
M  V30 523 C 49.2102 1.66433 0.351283 0
M  V30 524 O 50.3952 1.92803 0.232505 0
M  V30 525 C 47.5252 3.473 4.24935e-05 0
M  V30 526 C 46.4792 4.18055 -0.917257 0
M  V30 527 C 45.8052 5.34519 -0.138941 0
M  V30 528 C 47.1052 4.72109 -2.23407 0
M  V30 529 H 48.7992 2.57566 -1.52643 0
M  V30 530 H 46.3452 1.23806 -0.735394 0
M  V30 531 H 48.2982 4.20426 0.286383 0
M  V30 532 H 47.0222 3.13424 0.918299 0
M  V30 533 H 45.6812 3.46821 -1.1879 0
M  V30 534 H 45.3292 4.96891 0.781562 0
M  V30 535 H 45.0292 5.82794 -0.750005 0
M  V30 536 H 46.5532 6.10438 0.1405 0
M  V30 537 H 47.9672 5.36955 -2.00879 0
M  V30 538 H 46.3642 5.30897 -2.79765 0
M  V30 539 H 47.4342 3.89807 -2.88407 0
M  V30 540 N 48.7773 0.814389 1.34928 0
M  V30 541 C 50.1883 0.458364 1.80986 0
M  V30 542 C 50.5393 -1.02042 1.67577 0
M  V30 543 O 49.6643 -1.79352 1.21086 0
M  V30 544 C 50.2593 0.825212 3.28597 0
M  V30 545 C 48.8183 0.521677 3.72767 0
M  V30 546 C 47.9653 1.04668 2.56788 0
M  V30 547 H 50.9163 1.00533 1.22795 0
M  V30 548 H 50.9373 0.12571 3.80292 0
M  V30 549 H 50.4493 1.90154 3.38324 0
M  V30 550 H 48.5503 -0.545589 3.68584 0
M  V30 551 H 48.6633 1.05977 4.67232 0
M  V30 552 H 47.0273 0.468622 2.50352 0
M  V30 553 H 47.8103 2.12927 2.6929 0
M  V30 554 N 50.2554 -1.46986 0.568584 0
M  V30 555 C 51.5014 -2.02741 0.0488709 0
M  V30 556 C 51.8344 -1.44077 -1.30214 0
M  V30 557 O 51.1094 -0.600552 -1.84996 0
M  V30 558 C 51.3924 -3.60086 -0.032047 0
M  V30 559 C 51.2454 -4.29162 1.34686 0
M  V30 560 C 52.5644 -4.33838 -0.739798 0
M  V30 561 H 49.6834 -0.736749 0.0192338 0
M  V30 562 H 52.3254 -1.75289 0.733065 0
M  V30 563 H 50.4754 -3.83606 -0.61473 0
M  V30 564 H 52.1474 -4.16948 1.97362 0
M  V30 565 H 50.3904 -3.89073 1.91846 0
M  V30 566 H 51.0614 -5.37826 1.24285 0
M  V30 567 H 53.5374 -4.15378 -0.244939 0
M  V30 568 H 52.4134 -5.43537 -0.765406 0
M  V30 569 H 52.6744 -4.03875 -1.79827 0
M  V30 570 N 51.7335 -0.305618 -1.54608 0
M  V30 571 C 53.0105 0.355652 -1.92339 0
M  V30 572 C 53.3905 1.71324 -1.23335 0
M  V30 573 O 52.7385 2.25473 -0.370702 0
M  V30 574 C 52.9485 0.46572 -3.45879 0
M  V30 575 C 54.2965 0.734426 -4.182 0
M  V30 576 O 55.3205 0.54935 -3.51938 0
M  V30 577 O 54.1795 1.09024 -5.35515 0
M  V30 578 H 51.2735 0.199666 -0.802535 0
M  V30 579 H 53.8195 -0.354017 -1.65966 0
M  V30 580 H 52.5915 -0.488461 -3.88239 0
M  V30 581 H 52.2145 1.22367 -3.78301 0
M  V30 582 N 53.2116 1.57565 -0.0334293 0
M  V30 583 C 54.4886 1.83282 0.683163 0
M  V30 584 C 54.8686 0.91823 1.90084 0
M  V30 585 O 54.2166 -0.025113 2.28486 0
M  V30 586 C 54.4266 3.32599 1.0573 0
M  V30 587 C 55.7746 3.99179 1.44711 0
M  V30 588 O 56.7986 3.3712 1.15015 0
M  V30 589 O 55.6576 5.08565 2.0006 0
M  V30 590 H 52.7516 0.755869 0.335546 0
M  V30 591 H 55.2976 1.69589 -0.0614402 0
M  V30 592 H 54.0696 3.90834 0.190828 0
M  V30 593 H 53.6926 3.51415 1.85993 0
M  V30 594 N 54.6897 -0.239769 1.55765 0
M  V30 595 C 55.6527 -1.28038 1.90103 0
M  V30 596 C 56.6527 -1.40723 0.778055 0
M  V30 597 O 57.8427 -1.39301 1.04599 0
M  V30 598 C 54.9747 -2.65702 2.13577 0
M  V30 599 H 56.1677 -0.988048 2.83157 0
M  V30 600 H 53.7207 -0.479382 1.48767 0
M  V30 601 H 54.4557 -3.00063 1.23015 0
M  V30 602 H 54.2407 -2.57875 2.95369 0
M  V30 603 H 55.7307 -3.40828 2.41301 0
M  V30 604 N 56.1678 -1.49265 -0.50573 0
M  V30 605 C 57.4168 -1.57761 -1.25675 0
M  V30 606 C 57.7298 -0.267371 -1.93764 0
M  V30 607 O 58.9358 -0.230827 -2.70517 0
M  V30 608 C 57.3918 -2.78332 -2.28165 0
M  V30 609 C 56.9998 -4.16096 -1.66037 0
M  V30 610 C 58.7438 -2.96155 -3.04125 0
M  V30 611 C 56.6508 -5.27895 -2.6661 0
M  V30 612 H 55.5808 -0.587391 -0.472745 0
M  V30 613 H 58.2318 -1.75644 -0.53118 0
M  V30 614 H 56.6138 -2.53934 -3.03865 0
M  V30 615 H 57.7878 -4.50612 -0.963622 0
M  V30 616 H 56.1028 -4.03591 -1.02484 0
M  V30 617 H 58.6998 -3.76849 -3.79327 0
M  V30 618 H 59.0428 -2.06534 -3.61455 0
M  V30 619 H 59.5758 -3.2057 -2.35541 0
M  V30 620 H 56.3148 -6.1956 -2.14068 0
M  V30 621 H 55.8348 -4.97839 -3.34539 0
M  V30 622 H 57.5138 -5.57031 -3.29129 0
M  V30 623 N 57.6459 0.756429 -1.3826 0
M  V30 624 C 58.5939 1.89149 -1.35372 0
M  V30 625 C 59.5879 1.67691 -0.24004 0
M  V30 626 O 60.7939 1.75294 -0.408919 0
M  V30 627 H 57.1689 0.622271 -0.422236 0
M  V30 628 H 59.1399 1.88701 -2.31159 0
M  V30 629 C 57.8889 3.26599 -1.19284 0
M  V30 630 H 57.2119 3.43695 -2.0424 0
M  V30 631 H 58.6519 4.06274 -1.21316 0
M  V30 632 C 57.1109 3.3675 0.100454 0
M  V30 633 O 57.6409 3.86951 1.07851 0
M  V30 634 N 55.8469 2.90179 0.15633 0
M  V30 635 H 55.3939 2.49517 -0.640253 0
M  V30 636 H 55.3519 2.97352 1.02123 0
M  V30 637 N 59.124 1.23083 0.984299 0
M  V30 638 C 60.372 1.05848 1.72165 0
M  V30 639 C 60.693 -0.406049 1.90726 0
M  V30 640 O 59.963 -1.29139 1.47309 0
M  V30 641 H 58.543 0.388685 0.637913 0
M  V30 642 H 61.205 1.54736 1.18503 0
M  V30 643 H 60.301 1.54327 2.71274 0
M  V30 644 N 60.6021 -1.18246 1.0419 0
M  V30 645 C 61.5321 -2.24127 0.654914 0
M  V30 646 C 62.5131 -1.66617 -0.342451 0
M  V30 647 O 63.6981 -1.92924 -0.222277 0
M  V30 648 C 60.8281 -3.47295 0.0183757 0
M  V30 649 C 59.7821 -4.17563 0.939414 0
M  V30 650 C 59.1081 -5.34438 0.167286 0
M  V30 651 C 60.4081 -4.70917 2.25908 0
M  V30 652 H 62.1021 -2.56753 1.54007 0
M  V30 653 H 59.6481 -1.23414 0.74195 0
M  V30 654 H 61.6011 -4.20572 -0.264082 0
M  V30 655 H 60.3251 -3.13907 -0.901664 0
M  V30 656 H 58.9841 -3.46186 1.20628 0
M  V30 657 H 58.6321 -4.97298 -0.7552 0
M  V30 658 H 58.3321 -5.82388 0.780901 0
M  V30 659 H 59.8561 -6.10504 -0.108125 0
M  V30 660 H 61.2701 -5.35882 2.03724 0
M  V30 661 H 59.6671 -5.29406 2.82577 0
M  V30 662 H 60.7371 -3.88272 2.9047 0
M  V30 663 N 62.0802 -0.821533 -1.34494 0
M  V30 664 C 63.3052 -0.420873 -2.03085 0
M  V30 665 C 63.7302 0.964915 -1.61465 0
M  V30 666 O 63.0882 1.62763 -0.798607 0
M  V30 667 C 63.1362 -0.529414 -3.56693 0
M  V30 668 O 62.2402 0.451302 -4.09923 0
M  V30 669 H 61.5812 -0.173489 -0.640935 0
M  V30 670 H 64.1112 -1.11157 -1.71771 0
M  V30 671 H 64.1212 -0.404671 -4.05988 0
M  V30 672 H 62.7962 -1.54014 -3.86332 0
M  V30 673 H 61.3732 0.285558 -3.71805 0
M  V30 674 N 63.5583 1.46682 -0.576371 0
M  V30 675 C 64.4683 2.34032 0.163141 0
M  V30 676 C 65.4843 1.49367 0.892501 0
M  V30 677 O 66.6603 1.82252 0.857106 0
M  V30 678 C 63.7253 3.26435 1.16795 0
M  V30 679 C 62.7863 4.26998 0.443944 0
M  V30 680 C 62.0193 5.14986 1.40088 0
M  V30 681 O 62.2423 5.05785 2.637 0
M  V30 682 O 61.1763 5.94906 0.914917 0
M  V30 683 H 65.0023 2.98607 -0.55388 0
M  V30 684 H 62.5873 1.45554 -0.336821 0
M  V30 685 H 64.4693 3.83459 1.74748 0
M  V30 686 H 63.1443 2.64465 1.86655 0
M  V30 687 H 62.0513 3.7368 -0.177271 0
M  V30 688 H 63.3843 4.91736 -0.213566 0
M  V30 689 N 65.0364 0.313813 1.54444 0
M  V30 690 C 65.9464 -0.565714 2.27677 0
M  V30 691 C 66.9624 -1.13754 1.31666 0
M  V30 692 O 68.1384 -1.15959 1.64668 0
M  V30 693 C 65.2034 -1.71528 3.01296 0
M  V30 694 C 64.2644 -1.17624 4.12872 0
M  V30 695 C 63.4974 -2.27102 4.8297 0
M  V30 696 O 63.7204 -3.47256 4.52514 0
M  V30 697 O 62.6544 -1.9307 5.70094 0
M  V30 698 H 66.4804 0.0287296 3.03686 0
M  V30 699 H 64.0654 0.0798312 1.49187 0
M  V30 700 H 65.9474 -2.38476 3.4743 0
M  V30 701 H 64.6224 -2.29608 2.2817 0
M  V30 702 H 63.5294 -0.472124 3.71109 0
M  V30 703 H 64.8624 -0.640695 4.88012 0
M  V30 704 N 66.5145 -1.57545 0.0417849 0
M  V30 705 C 67.4465 -2.07904 -0.964799 0
M  V30 706 C 68.4595 -1.00497 -1.28079 0
M  V30 707 O 69.6485 -1.28087 -1.24322 0
M  V30 708 C 66.7485 -2.49928 -2.28887 0
M  V30 709 C 65.9215 -3.80562 -2.15619 0
M  V30 710 C 64.9805 -4.08999 -3.31069 0
M  V30 711 O 64.0065 -4.79061 -3.0739 0
M  V30 712 N 65.2085 -3.6017 -4.55256 0
M  V30 713 H 67.9735 -2.94886 -0.535029 0
M  V30 714 H 65.5345 -1.61252 -0.144681 0
M  V30 715 H 67.5265 -2.66034 -3.04972 0
M  V30 716 H 66.0965 -1.68245 -2.63463 0
M  V30 717 H 65.3165 -3.74129 -1.24183 0
M  V30 718 H 66.6045 -4.66126 -2.03971 0
M  V30 719 H 66.0025 -3.03512 -4.77386 0
M  V30 720 H 64.5595 -3.81532 -5.28466 0
M  V30 721 N 67.9926 0.231505 -1.5589 0
M  V30 722 C 69.4086 0.580748 -1.48659 0
M  V30 723 C 69.6086 1.87617 -0.73498 0
M  V30 724 O 68.6646 2.51046 -0.270586 0
M  V30 725 C 69.9776 0.669202 -2.93159 0
M  V30 726 C 71.5256 0.760499 -3.03621 0
M  V30 727 C 72.0006 0.880383 -4.49459 0
M  V30 728 N 73.4916 0.944861 -4.53461 0
M  V30 729 C 74.2266 1.05716 -5.63571 0
M  V30 730 N 73.7226 1.13403 -6.83456 0
M  V30 731 N 75.5156 1.09152 -5.514 0
M  V30 732 H 67.6666 -0.618695 -2.03189 0
M  V30 733 H 69.9296 -0.215728 -0.923128 0
M  V30 734 H 69.6356 -0.212904 -3.51055 0
M  V30 735 H 69.5096 1.5361 -3.44505 0
M  V30 736 H 71.8966 1.63305 -2.45796 0
M  V30 737 H 71.9776 -0.131864 -2.5546 0
M  V30 738 H 71.6216 0.0123284 -5.07899 0
M  V30 739 H 71.5516 1.78802 -4.95316 0
M  V30 740 H 74.0426 0.896176 -3.6712 0
M  V30 741 H 74.3556 1.21921 -7.63122 0
M  V30 742 H 72.7006 1.10333 -6.86186 0
M  V30 743 H 75.8916 1.02805 -4.56671 0
M  V30 744 H 76.0646 1.17558 -6.37247 0
M  V30 745 N 69.4707 1.49531 0.497807 0
M  V30 746 C 70.4027 1.62559 1.61578 0
M  V30 747 C 71.4157 0.508134 1.54667 0
M  V30 748 O 72.6047 0.780309 1.60541 0
M  V30 749 C 69.7047 1.56925 3.00379 0
M  V30 750 C 68.8777 2.84257 3.3244 0
M  V30 751 C 67.9367 2.71632 4.50669 0
M  V30 752 O 66.9627 3.4557 4.52294 0
M  V30 753 N 68.1647 1.83391 5.5077 0
M  V30 754 H 70.9297 2.58981 1.50828 0
M  V30 755 H 68.4907 1.4666 0.685743 0
M  V30 756 H 70.4827 1.46129 3.77397 0
M  V30 757 H 69.0527 0.683483 3.05037 0
M  V30 758 H 68.2727 3.09381 2.44289 0
M  V30 759 H 69.5607 3.68666 3.5066 0
M  V30 760 H 68.9587 1.22583 5.52259 0
M  V30 761 H 67.5157 1.78515 6.26878 0
M  V30 762 N 70.9488 -0.749086 1.3866 0
M  V30 763 C 71.8788 -1.8764 1.38973 0
M  V30 764 C 72.8598 -1.68178 0.255004 0
M  V30 765 O 74.0448 -1.88704 0.458754 0
M  V30 766 C 71.1748 -3.25222 1.21851 0
M  V30 767 C 70.1288 -3.59295 2.32575 0
M  V30 768 C 69.4548 -4.95663 2.00555 0
M  V30 769 C 70.7548 -3.63709 3.7485 0
M  V30 770 H 72.4488 -1.87635 2.3331 0
M  V30 771 H 69.9948 -0.901329 1.12303 0
M  V30 772 H 71.9478 -4.03746 1.20695 0
M  V30 773 H 70.6718 -3.25719 0.239775 0
M  V30 774 H 69.3308 -2.83093 2.32925 0
M  V30 775 H 68.9788 -4.92724 1.01154 0
M  V30 776 H 68.6788 -5.19429 2.74714 0
M  V30 777 H 70.2028 -5.7656 2.01024 0
M  V30 778 H 71.6168 -4.32338 3.76506 0
M  V30 779 H 70.0138 -3.98986 4.48252 0
M  V30 780 H 71.0838 -2.63834 4.06841 0
M  V30 781 N 72.4269 -1.23603 -0.977757 0
M  V30 782 C 73.8429 -0.999251 -1.24447 0
M  V30 783 C 74.0429 0.298053 -1.99283 0
M  V30 784 O 73.0989 1.01681 -2.31122 0
M  V30 785 C 74.4119 -2.20784 -2.04144 0
M  V30 786 C 75.9599 -2.25303 -2.17273 0
M  V30 787 C 76.4349 -3.45755 -3.00362 0
M  V30 788 N 77.9259 -3.4601 -3.07947 0
M  V30 789 C 78.6609 -4.35868 -3.72568 0
M  V30 790 N 78.1569 -5.35966 -4.38991 0
M  V30 791 N 79.9499 -4.23605 -3.6948 0
M  V30 792 H 72.1009 -2.06986 -0.476483 0
M  V30 793 H 74.3639 -0.907801 -0.273134 0
M  V30 794 H 74.0699 -3.14945 -1.56533 0
M  V30 795 H 73.9439 -2.22085 -3.04891 0
M  V30 796 H 76.3309 -1.3168 -2.64092 0
M  V30 797 H 76.4119 -2.28033 -1.15907 0
M  V30 798 H 76.0559 -4.39687 -2.5424 0
M  V30 799 H 75.9859 -3.40266 -4.01904 0
M  V30 800 H 78.4769 -2.73588 -2.60688 0
M  V30 801 H 78.7899 -6.00783 -4.86086 0
M  V30 802 H 77.1349 -5.39863 -4.37691 0
M  V30 803 H 80.3259 -3.44647 -3.16759 0
M  V30 804 H 80.4989 -4.93836 -4.1956 0
M  V30 805 N 73.905 1.17692 -1.04816 0
M  V30 806 C 74.837 2.21103 -0.603822 0
M  V30 807 C 75.85 1.59411 0.33046 0
M  V30 808 O 77.039 1.7807 0.12379 0
M  V30 809 C 74.139 3.38623 0.136898 0
M  V30 810 C 73.312 4.29888 -0.807137 0
M  V30 811 C 72.371 5.26088 -0.10836 0
M  V30 812 O 71.397 5.64353 -0.741232 0
M  V30 813 N 72.599 5.68882 1.15558 0
M  V30 814 H 75.364 2.59848 -1.49329 0
M  V30 815 H 72.925 1.32553 -0.929587 0
M  V30 816 H 74.917 4.00009 0.614401 0
M  V30 817 H 73.487 2.98508 0.927993 0
M  V30 818 H 72.707 3.65993 -1.46434 0
M  V30 819 H 73.995 4.87759 -1.44807 0
M  V30 820 H 73.393 5.39861 1.69015 0
M  V30 821 H 71.95 6.32429 1.57722 0
M  V30 822 N 75.3831 0.828654 1.34056 0
M  V30 823 C 76.6111 0.43262 2.02326 0
M  V30 824 C 77.0261 -0.963147 1.62385 0
M  V30 825 O 76.3831 -1.62425 0.832121 0
M  V30 826 C 76.4341 0.53182 3.57567 0
M  V30 827 O 76.1551 1.87258 3.96063 0
M  V30 828 C 77.6561 0.131422 4.43105 0
M  V30 829 H 74.8761 0.172923 0.648335 0
M  V30 830 H 77.4201 1.1184 1.71208 0
M  V30 831 H 75.5751 -0.105938 3.87255 0
M  V30 832 H 75.9891 1.85087 4.90758 0
M  V30 833 H 77.4631 0.251904 5.51425 0
M  V30 834 H 77.9401 -0.925645 4.29335 0
M  V30 835 H 78.5461 0.743207 4.18756 0
M  V30 836 N 76.8612 -1.46375 0.584142 0
M  V30 837 C 77.7942 -2.27351 -0.196676 0
M  V30 838 C 78.7722 -1.35715 -0.895561 0
M  V30 839 O 79.9562 -1.65126 -0.90916 0
M  V30 840 C 77.0832 -3.13486 -1.28235 0
M  V30 841 C 76.1292 -4.20896 -0.689145 0
M  V30 842 S 76.9622 -5.33299 0.48507 0
M  V30 843 C 78.1182 -6.23 -0.601767 0
M  V30 844 H 78.3512 -2.93228 0.490395 0
M  V30 845 H 75.8842 -1.49875 0.371071 0
M  V30 846 H 77.8422 -3.63676 -1.90395 0
M  V30 847 H 76.5032 -2.4692 -1.94138 0
M  V30 848 H 75.6962 -4.80997 -1.50527 0
M  V30 849 H 75.2982 -3.73726 -0.143181 0
M  V30 850 H 77.5902 -6.60979 -1.48705 0
M  V30 851 H 78.5332 -7.0809 -0.0374799 0
M  V30 852 H 78.9412 -5.57173 -0.906557 0
M  V30 853 N 78.3393 -0.321999 -1.54275 0
M  V30 854 C 79.3023 0.531975 -2.22941 0
M  V30 855 C 80.3023 1.04478 -1.22234 0
M  V30 856 O 81.4923 0.937452 -1.46825 0
M  V30 857 C 78.6243 1.73874 -2.93224 0
M  V30 858 H 79.8173 -0.0682612 -2.99822 0
M  V30 859 H 77.3703 -0.0730644 -1.56129 0
M  V30 860 H 78.1053 2.37825 -2.20476 0
M  V30 861 H 77.8903 1.37847 -3.6707 0
M  V30 862 H 79.3803 2.34496 -3.45545 0
M  V30 863 N 79.8174 1.5752 -0.0501392 0
M  V30 864 C 80.7644 2.1147 0.924603 0
M  V30 865 C 81.7344 1.02182 1.30951 0
M  V30 866 O 82.9194 1.29723 1.39916 0
M  V30 867 C 80.0594 2.66337 2.19451 0
M  V30 868 C 79.1724 3.89708 1.86418 0
M  V30 869 C 78.3074 4.32893 3.07859 0
M  V30 870 C 77.3464 5.48967 2.70742 0
M  V30 871 N 76.4834 5.87211 3.84874 0
M  V30 872 H 81.3234 2.94465 0.457639 0
M  V30 873 H 78.8604 1.45531 0.214266 0
M  V30 874 H 80.8184 2.96247 2.93758 0
M  V30 875 H 79.4484 1.86141 2.63726 0
M  V30 876 H 78.5004 3.66396 1.02264 0
M  V30 877 H 79.8124 4.74074 1.55096 0
M  V30 878 H 78.9664 4.6435 3.90466 0
M  V30 879 H 77.7054 3.47336 3.42358 0
M  V30 880 H 76.7104 5.17183 1.86551 0
M  V30 881 H 77.9354 6.3624 2.37436 0
M  V30 882 H 75.8814 5.04607 4.19175 0
M  V30 883 H 75.7984 6.66266 3.57247 0
M  V30 884 H 77.0664 6.23282 4.68123 0
M  V30 885 N 81.2955 -0.223234 1.56011 0
M  V30 886 C 82.5425 -0.947875 1.78946 0
M  V30 887 C 82.8705 -1.844 0.618608 0
M  V30 888 O 82.1255 -1.91629 -0.397093 0
M  V30 889 C 82.4245 -1.81948 3.0762 0
M  V30 890 C 82.0905 -1.07672 4.37856 0
M  V30 891 C 80.7525 -0.871544 4.73242 0
M  V30 892 C 83.1045 -0.552081 5.18268 0
M  V30 893 C 80.4325 -0.129791 5.86556 0
M  V30 894 C 82.7845 0.17632 6.32354 0
M  V30 895 C 81.4485 0.39277 6.66343 0
M  V30 896 H 80.7185 -0.346852 0.654809 0
M  V30 897 H 83.3655 -0.216171 1.90276 0
M  V30 898 H 81.6705 -2.61899 2.91404 0
M  V30 899 H 83.3675 -2.38227 3.22566 0
M  V30 900 H 79.9575 -1.24662 4.1007 0
M  V30 901 H 84.1415 -0.698076 4.91366 0
M  V30 902 H 79.3975 0.048153 6.11381 0
M  V30 903 H 83.5715 0.590367 6.93893 0
M  V30 904 H 81.1985 0.969466 7.53993 0
M  V30 905 N 82.7736 -1.49793 -0.48987 0
M  V30 906 C 83.7036 -1.70201 -1.59856 0
M  V30 907 C 84.6846 -0.55076 -1.60937 0
M  V30 908 O 85.8696 -0.787841 -1.77501 0
M  V30 909 C 82.9996 -1.77882 -2.98287 0
M  V30 910 C 81.9536 -2.92907 -3.12073 0
M  V30 911 C 81.2796 -2.85712 -4.51965 0
M  V30 912 C 82.5796 -4.3369 -2.91051 0
M  V30 913 H 84.2736 -2.63025 -1.43032 0
M  V30 914 H 81.8196 -1.26574 -0.686664 0
M  V30 915 H 83.7726 -1.90744 -3.75759 0
M  V30 916 H 82.4966 -0.816653 -3.16225 0
M  V30 917 H 81.1556 -2.79665 -2.37029 0
M  V30 918 H 80.8036 -1.8738 -4.66795 0
M  V30 919 H 80.5036 -3.62921 -4.62128 0
M  V30 920 H 82.0276 -3.00598 -5.31482 0
M  V30 921 H 83.4416 -4.47555 -3.58284 0
M  V30 922 H 81.8386 -5.12205 -3.12675 0
M  V30 923 H 82.9086 -4.47362 -1.87071 0
M  V30 924 N 84.2517 0.741722 -1.39055 0
M  V30 925 C 85.1837 1.8657 -1.33133 0
M  V30 926 C 86.1967 1.61001 -0.241329 0
M  V30 927 O 87.3857 1.7136 -0.499784 0
M  V30 928 C 84.4857 3.22457 -1.04283 0
M  V30 929 C 83.6587 3.75435 -2.24427 0
M  V30 930 C 82.7177 4.89867 -1.92138 0
M  V30 931 O 81.7437 5.03879 -2.64754 0
M  V30 932 N 82.9457 5.73738 -0.88347 0
M  V30 933 H 85.7107 1.92156 -2.29991 0
M  V30 934 H 83.2717 0.922172 -1.3307 0
M  V30 935 H 85.2637 3.9657 -0.807128 0
M  V30 936 H 83.8337 3.12181 -0.161807 0
M  V30 937 H 83.0537 2.92751 -2.6399 0
M  V30 938 H 84.3417 4.07563 -3.04581 0
M  V30 939 H 83.7397 5.64999 -0.281517 0
M  V30 940 H 82.2967 6.47947 -0.707662 0
M  V30 941 N 85.7298 1.2412 0.971189 0
M  V30 942 C 86.6398 1.04747 2.09917 0
M  V30 943 C 87.6558 -0.0107162 1.73997 0
M  V30 944 O 88.8318 0.186714 2.00533 0
M  V30 945 C 85.8968 0.650828 3.40537 0
M  V30 946 C 84.9578 1.7851 3.90426 0
M  V30 947 C 84.1908 1.40729 5.14812 0
M  V30 948 O 84.4138 0.29557 5.69634 0
M  V30 949 O 83.3478 2.23168 5.58999 0
M  V30 950 H 87.1738 1.99304 2.29154 0
M  V30 951 H 84.7588 1.02908 1.08307 0
M  V30 952 H 86.6408 0.440992 4.19086 0
M  V30 953 H 85.3158 -0.265649 3.22608 0
M  V30 954 H 84.2228 2.04966 3.12953 0
M  V30 955 H 85.5558 2.68023 4.12825 0
M  V30 956 N 87.2079 -1.17134 1.05439 0
M  V30 957 C 88.1579 -2.1919 0.627675 0
M  V30 958 C 89.1419 -1.57328 -0.337147 0
M  V30 959 O 90.3339 -1.76329 -0.153976 0
M  V30 960 C 87.4629 -3.43299 0.00651435 0
M  V30 961 C 86.5489 -4.12255 0.995312 0
M  V30 962 N 86.9399 -4.56997 2.16765 0
M  V30 963 C 85.2379 -4.38316 0.824336 0
M  V30 964 C 85.9389 -5.10239 2.7934 0
M  V30 965 N 84.9149 -5.02595 2.07122 0
M  V30 966 H 88.7169 -2.5149 1.52086 0
M  V30 967 H 86.2309 -1.33491 0.924868 0
M  V30 968 H 88.2279 -4.15693 -0.316965 0
M  V30 969 H 86.8879 -3.1249 -0.882033 0
M  V30 970 H 87.8989 -4.51006 2.54587 0
M  V30 971 H 84.5759 -4.17498 -0.0129526 0
M  V30 972 H 85.9659 -5.54961 3.78772 0
M  V30 973 N 88.686 -0.835752 -1.33615 0
M  V30 974 C 89.616 -0.281739 -2.31794 0
M  V30 975 C 90.597 0.608833 -1.58831 0
M  V30 976 O 91.782 0.533035 -1.86741 0
M  V30 977 C 88.912 0.546612 -3.42971 0
M  V30 978 C 87.866 -0.247904 -4.27281 0
M  V30 979 C 87.192 0.704001 -5.30045 0
M  V30 980 C 88.492 -1.46324 -5.01385 0
M  V30 981 H 90.186 -1.10206 -2.78379 0
M  V30 982 H 87.732 -0.531388 -1.33837 0
M  V30 983 H 89.685 0.944467 -4.1068 0
M  V30 984 H 88.409 1.40011 -2.95067 0
M  V30 985 H 87.068 -0.627281 -3.61194 0
M  V30 986 H 86.716 1.55381 -4.78399 0
M  V30 987 H 86.416 0.176524 -5.87335 0
M  V30 988 H 87.94 1.09944 -6.0062 0
M  V30 989 H 89.354 -1.13871 -5.61877 0
M  V30 990 H 87.751 -1.92728 -5.6831 0
M  V30 991 H 88.821 -2.23467 -4.30338 0
M  V30 992 N 90.1641 1.46063 -0.591896 0
M  V30 993 C 91.1271 2.28854 0.125973 0
M  V30 994 C 92.1271 1.38903 0.810107 0
M  V30 995 O 93.3171 1.61186 0.66066 0
M  V30 996 C 90.4491 3.19526 1.1881 0
M  V30 997 H 91.6421 2.93802 -0.601717 0
M  V30 998 H 89.1951 1.52325 -0.350254 0
M  V30 999 H 89.9301 2.59345 1.94707 0
M  V30 1000 H 89.7151 3.85766 0.701936 0
M  V30 1001 H 91.2051 3.81817 1.69132 0
M  V30 1002 N 91.6422 0.330177 1.54103 0
M  V30 1003 C 93.0532 -0.15652 1.86043 0
M  V30 1004 C 93.4042 -1.51086 1.2517 0
M  V30 1005 O 92.5292 -2.09023 0.560217 0
M  V30 1006 C 93.1242 -0.290784 3.3755 0
M  V30 1007 C 91.6832 -0.721705 3.69416 0
M  V30 1008 C 90.8302 0.152622 2.7688 0
M  V30 1009 H 93.7812 0.550237 1.48856 0
M  V30 1010 H 93.8022 -1.12058 3.63625 0
M  V30 1011 H 93.3142 0.695068 3.81825 0
M  V30 1012 H 91.4152 -1.71706 3.30678 0
M  V30 1013 H 91.5282 -0.520869 4.7626 0
M  V30 1014 H 89.8922 -0.372894 2.51956 0
M  V30 1015 H 90.6752 1.13536 3.23982 0
M  V30 1016 N 93.1203 -1.57491 0.0584922 0
M  V30 1017 C 94.0673 -2.11958 -0.913376 0
M  V30 1018 C 95.0373 -1.02875 -1.30407 0
M  V30 1019 O 96.2223 -1.30464 -1.39226 0
M  V30 1020 C 93.3623 -2.67497 -2.18035 0
M  V30 1021 C 92.4753 -3.90691 -1.84349 0
M  V30 1022 C 91.6103 -4.3452 -3.05559 0
M  V30 1023 C 90.6493 -5.50395 -2.67827 0
M  V30 1024 N 89.7863 -5.89244 -3.81754 0
M  V30 1025 H 94.6263 -2.94704 -0.442017 0
M  V30 1026 H 92.1633 -1.45643 -0.206545 0
M  V30 1027 H 94.1213 -2.978 -2.92183 0
M  V30 1028 H 92.7513 -1.87537 -2.62735 0
M  V30 1029 H 91.8033 -3.66934 -1.00319 0
M  V30 1030 H 93.1153 -4.7489 -1.5258 0
M  V30 1031 H 92.2693 -4.66414 -3.87998 0
M  V30 1032 H 91.0083 -3.49147 -3.40511 0
M  V30 1033 H 90.0133 -5.18165 -1.83806 0
M  V30 1034 H 91.2383 -6.3749 -2.34059 0
M  V30 1035 H 89.1843 -5.06823 -4.16493 0
M  V30 1036 H 89.1013 -6.68151 -3.53708 0
M  V30 1037 H 90.3693 -6.25756 -4.64811 0
M  V30 1038 N 94.5984 0.214957 -1.56127 0
M  V30 1039 C 95.5614 1.24997 -1.92116 0
M  V30 1040 C 96.5614 1.39467 -0.800344 0
M  V30 1041 O 97.7514 1.37619 -1.06802 0
M  V30 1042 C 94.8834 2.62271 -2.17777 0
M  V30 1043 H 96.0764 0.942875 -2.84693 0
M  V30 1044 H 93.6294 0.455654 -1.49511 0
M  V30 1045 H 94.3644 2.98068 -1.27773 0
M  V30 1046 H 94.1494 2.53143 -2.99434 0
M  V30 1047 H 95.6394 3.36946 -2.46693 0
M  V30 1048 N 96.0765 1.50051 0.48192 0
M  V30 1049 C 97.0085 1.64263 1.59844 0
M  V30 1050 C 98.0215 0.52451 1.54119 0
M  V30 1051 O 99.2105 0.797293 1.59704 0
M  V30 1052 C 96.3105 1.60102 2.98698 0
M  V30 1053 C 95.4835 2.87767 3.29407 0
M  V30 1054 C 94.5425 2.76397 4.47762 0
M  V30 1055 O 93.5685 3.50348 4.48603 0
M  V30 1056 N 94.7705 1.89222 5.48794 0
M  V30 1057 H 97.5355 2.60566 1.48073 0
M  V30 1058 H 95.0965 1.47379 0.670149 0
M  V30 1059 H 97.0885 1.50123 3.75826 0
M  V30 1060 H 95.6585 0.715798 3.04294 0
M  V30 1061 H 94.8785 3.11954 2.40994 0
M  V30 1062 H 96.1665 3.72365 3.4673 0
M  V30 1063 H 95.5645 1.28434 5.50928 0
M  V30 1064 H 94.1215 1.85154 6.24949 0
M  V30 1065 N 97.5546 -0.734337 1.39446 0
M  V30 1066 C 98.4646 -1.87879 1.40495 0
M  V30 1067 C 99.4806 -1.714 0.299672 0
M  V30 1068 O 100.657 -1.93991 0.541249 0
M  V30 1069 C 97.7216 -3.23477 1.24754 0
M  V30 1070 C 96.7826 -3.52344 2.45259 0
M  V30 1071 C 96.0156 -4.81473 2.30259 0
M  V30 1072 O 96.2386 -5.55237 1.30643 0
M  V30 1073 O 95.1726 -5.10254 3.19256 0
M  V30 1074 H 98.9986 -1.89949 2.36966 0
M  V30 1075 H 96.5836 -0.882243 1.20569 0
M  V30 1076 H 98.4656 -4.04509 1.18111 0
M  V30 1077 H 97.1406 -3.22176 0.313781 0
M  V30 1078 H 96.0476 -2.71396 2.57478 0
M  V30 1079 H 97.3806 -3.58426 3.37331 0
M  V30 1080 N 99.0327 -1.24633 -0.964593 0
M  V30 1081 C 100.282 -1.08188 -1.7023 0
M  V30 1082 C 100.595 0.37873 -1.91898 0
M  V30 1083 O 101.801 0.663427 -2.6327 0
M  V30 1084 C 100.257 -1.88773 -3.06419 0
M  V30 1085 C 99.8647 -3.39263 -2.92582 0
M  V30 1086 C 101.609 -1.80867 -3.84041 0
M  V30 1087 C 99.5157 -4.1218 -4.24101 0
M  V30 1088 H 98.4457 -0.401245 -0.638372 0
M  V30 1089 H 101.097 -1.48742 -1.07462 0
M  V30 1090 H 99.4787 -1.41035 -3.70034 0
M  V30 1091 H 100.653 -3.94603 -2.37961 0
M  V30 1092 H 98.9677 -3.48154 -2.28424 0
M  V30 1093 H 101.565 -2.32646 -4.81435 0
M  V30 1094 H 101.908 -0.774543 -4.09031 0
M  V30 1095 H 102.441 -2.26301 -3.27159 0
M  V30 1096 H 99.1797 -5.15965 -4.04303 0
M  V30 1097 H 98.6997 -3.61626 -4.78526 0
M  V30 1098 H 100.379 -4.19349 -4.92702 0
M  V30 1099 N 100.511 1.16574 -1.06058 0
M  V30 1100 C 101.788 1.83048 -0.689416 0
M  V30 1101 C 102.168 1.94122 0.829443 0
M  V30 1102 O 101.516 1.48249 1.7388 0
M  V30 1103 C 101.726 3.20186 -1.38859 0
M  V30 1104 C 103.074 3.95989 -1.53226 0
M  V30 1105 O 104.098 3.29696 -1.3483 0
M  V30 1106 O 102.957 5.14813 -1.83384 0
M  V30 1107 H 100.051 0.790258 -0.243764 0
M  V30 1108 H 102.597 1.23797 -1.16071 0
M  V30 1109 H 101.369 3.07146 -2.4244 0
M  V30 1110 H 100.992 3.87112 -0.907216 0
M  V30 1111 N 101.989 0.842826 1.3317 0
M  V30 1112 C 103.405 0.531128 1.50503 0
M  V30 1113 C 103.605 -0.940734 1.78192 0
M  V30 1114 O 102.661 -1.72436 1.84451 0
M  V30 1115 C 103.974 1.40789 2.65705 0
M  V30 1116 C 105.522 1.40708 2.79589 0
M  V30 1117 C 105.997 2.26878 3.97857 0
M  V30 1118 N 107.488 2.24609 4.05099 0
M  V30 1119 C 108.223 2.88019 4.95815 0
M  V30 1120 N 107.719 3.60496 5.9162 0
M  V30 1121 N 109.512 2.77469 4.88843 0
M  V30 1122 H 101.663 1.79557 1.1346 0
M  V30 1123 H 103.926 0.766267 0.558156 0
M  V30 1124 H 103.632 2.454 2.51936 0
M  V30 1125 H 103.506 1.08677 3.61205 0
M  V30 1126 H 105.893 0.368668 2.92788 0
M  V30 1127 H 105.974 1.76829 1.84838 0
M  V30 1128 H 105.618 3.3078 3.85418 0
M  V30 1129 H 105.548 1.88096 4.91861 0
M  V30 1130 H 108.039 1.71906 3.36536 0
M  V30 1131 H 108.352 4.06076 6.57512 0
M  V30 1132 H 106.697 3.64604 5.91683 0
M  V30 1133 H 109.888 2.20406 4.12963 0
M  V30 1134 H 110.061 3.2717 5.59342 0
M  V30 1135 N 103.467 -1.45747 0.599634 0
M  V30 1136 C 104.692 -2.07178 0.0960198 0
M  V30 1137 C 105.117 -1.44268 -1.207 0
M  V30 1138 O 104.475 -0.532503 -1.73303 0
M  V30 1139 C 104.523 -3.60579 -0.0385348 0
M  V30 1140 O 103.627 -3.97713 -1.0908 0
M  V30 1141 H 102.968 -0.660251 0.0704593 0
M  V30 1142 H 105.498 -1.87124 0.827385 0
M  V30 1143 H 105.508 -4.07298 -0.239304 0
M  V30 1144 H 104.183 -4.05756 0.912947 0
M  V30 1145 H 102.76 -3.62678 -0.867135 0
M  V30 1146 N 104.945 -0.338344 -1.53925 0
M  V30 1147 C 105.893 0.536231 -2.26335 0
M  V30 1148 C 106.887 1.1063 -1.28286 0
M  V30 1149 O 108.093 1.05264 -1.46012 0
M  V30 1150 H 104.468 0.191602 -0.727181 0
M  V30 1151 H 106.439 -0.0965747 -2.98244 0
M  V30 1152 C 105.188 1.67803 -3.04528 0
M  V30 1153 H 104.511 1.24864 -3.79801 0
M  V30 1154 H 105.951 2.26526 -3.58416 0
M  V30 1155 C 104.41 2.60439 -2.13712 0
M  V30 1156 O 104.94 3.6255 -1.72975 0
M  V30 1157 N 103.146 2.29006 -1.78898 0
M  V30 1158 H 102.693 1.46011 -2.12223 0
M  V30 1159 H 102.651 2.91248 -1.18416 0
M  V30 1160 N 106.423 1.57458 -0.0668435 0
M  V30 1161 C 107.333 2.15937 0.916975 0
M  V30 1162 C 108.349 1.12123 1.33058 0
M  V30 1163 O 109.525 1.44366 1.40429 0
M  V30 1164 C 106.59 2.70547 2.16807 0
M  V30 1165 C 105.651 3.89215 1.81135 0
M  V30 1166 C 104.884 4.41211 3.0028 0
M  V30 1167 O 105.107 3.92225 4.14144 0
M  V30 1168 O 104.041 5.32605 2.80384 0
M  V30 1169 H 107.867 3.00354 0.449561 0
M  V30 1170 H 105.452 1.48584 0.155949 0
M  V30 1171 H 107.334 3.0557 2.90181 0
M  V30 1172 H 106.009 1.89192 2.62656 0
M  V30 1173 H 104.916 3.59054 1.05028 0
M  V30 1174 H 106.249 4.71848 1.40073 0
M  V30 1175 N 107.901 -0.206675 1.56239 0
M  V30 1176 C 109.148 -0.928842 1.79941 0
M  V30 1177 C 109.476 -1.83734 0.638131 0
M  V30 1178 O 108.731 -1.92039 -0.376746 0
M  V30 1179 C 109.03 -1.78675 3.09532 0
M  V30 1180 C 108.696 -1.03022 4.38973 0
M  V30 1181 C 107.358 -0.821302 4.74139 0
M  V30 1182 C 109.71 -0.497081 5.18824 0
M  V30 1183 C 107.038 -0.0675719 5.86661 0
M  V30 1184 C 109.39 0.24338 6.32132 0
M  V30 1185 C 108.054 0.463422 6.65889 0
M  V30 1186 H 107.324 -0.339887 0.658451 0
M  V30 1187 H 109.971 -0.195977 1.90495 0
M  V30 1188 H 108.276 -2.58794 2.94165 0
M  V30 1189 H 109.973 -2.34792 3.25075 0
M  V30 1190 H 106.563 -1.20306 4.11369 0
M  V30 1191 H 110.747 -0.645921 4.92079 0
M  V30 1192 H 106.003 0.112995 6.11296 0
M  V30 1193 H 110.177 0.66393 6.93228 0
M  V30 1194 H 107.804 1.04938 7.52922 0
M  V30 1195 N 109.379 -1.50304 -0.473955 0
M  V30 1196 C 110.326 -1.68959 -1.57231 0
M  V30 1197 C 111.296 -0.530899 -1.57387 0
M  V30 1198 O 112.481 -0.761133 -1.74961 0
M  V30 1199 C 109.621 -1.7871 -2.95223 0
M  V30 1200 C 108.734 -3.06061 -3.04878 0
M  V30 1201 C 107.869 -3.06626 -4.33767 0
M  V30 1202 C 106.908 -4.28443 -4.37154 0
M  V30 1203 N 106.045 -4.26763 -5.5751 0
M  V30 1204 H 110.885 -2.6273 -1.40631 0
M  V30 1205 H 108.422 -1.30241 -0.683789 0
M  V30 1206 H 110.38 -1.82344 -3.75242 0
M  V30 1207 H 109.01 -0.883806 -3.10465 0
M  V30 1208 H 108.062 -3.11911 -2.17751 0
M  V30 1209 H 109.374 -3.96039 -3.0324 0
M  V30 1210 H 108.528 -3.08973 -5.22131 0
M  V30 1211 H 107.267 -2.14473 -4.3801 0
M  V30 1212 H 106.272 -4.2631 -3.47188 0
M  V30 1213 H 107.497 -5.2182 -4.34605 0
M  V30 1214 H 105.443 -3.37462 -5.62544 0
M  V30 1215 H 105.36 -5.10507 -5.57601 0
M  V30 1216 H 106.628 -4.33253 -6.48006 0
M  V30 1217 N 110.857 0.726932 -1.39834 0
M  V30 1218 C 111.805 1.86235 -1.39353 0
M  V30 1219 C 112.799 1.67144 -0.275555 0
M  V30 1220 O 114.005 1.74387 -0.44601 0
M  V30 1221 H 110.38 0.613174 -0.43534 0
M  V30 1222 H 112.351 1.83756 -2.35109 0
M  V30 1223 C 111.1 3.23995 -1.26185 0
M  V30 1224 H 110.423 3.39285 -2.11484 0
M  V30 1225 H 111.863 4.03609 -1.29907 0
M  V30 1226 C 110.322 3.36888 0.0290018 0
M  V30 1227 O 110.852 3.89152 0.99619 0
M  V30 1228 N 109.058 2.90446 0.0947437 0
M  V30 1229 H 108.605 2.48102 -0.693035 0
M  V30 1230 H 108.563 2.99451 0.957932 0
M  V30 1231 N 112.336 1.25143 0.95797 0
M  V30 1232 C 113.266 1.07711 2.07173 0
M  V30 1233 C 114.247 -0.0128462 1.70095 0
M  V30 1234 O 115.432 0.156061 1.93572 0
M  V30 1235 C 112.562 0.691503 3.40346 0
M  V30 1236 C 111.516 1.73132 3.9142 0
M  V30 1237 C 110.842 1.20049 5.21049 0
M  V30 1238 C 112.142 3.1294 4.1817 0
M  V30 1239 H 113.836 2.00873 2.22014 0
M  V30 1240 H 111.382 0.967191 1.06684 0
M  V30 1241 H 113.335 0.556505 4.17709 0
M  V30 1242 H 112.059 -0.275819 3.25433 0
M  V30 1243 H 110.718 1.8547 3.16222 0
M  V30 1244 H 110.366 0.223499 5.02503 0
M  V30 1245 H 110.066 1.89545 5.56189 0
M  V30 1246 H 111.59 1.07782 6.01012 0
M  V30 1247 H 113.004 3.03775 4.86203 0
M  V30 1248 H 111.401 3.79875 4.64559 0
M  V30 1249 H 112.471 3.6025 3.24573 0
M  V30 1250 N 113.814 -1.1601 1.06675 0
M  V30 1251 C 115.23 -1.38622 0.790948 0
M  V30 1252 C 115.43 -1.92109 -0.607965 0
M  V30 1253 O 114.486 -2.12239 -1.36787 0
M  V30 1254 C 115.799 -2.36347 1.85905 0
M  V30 1255 C 117.347 -2.50023 1.88301 0
M  V30 1256 C 117.822 -3.51033 2.94176 0
M  V30 1257 N 119.313 -3.58563 2.93235 0
M  V30 1258 C 120.048 -4.36521 3.71803 0
M  V30 1259 N 119.544 -5.17869 4.602 0
M  V30 1260 N 121.337 -4.31541 3.60178 0
M  V30 1261 H 113.488 -0.796294 1.96908 0
M  V30 1262 H 115.751 -0.412597 0.853503 0
M  V30 1263 H 115.457 -2.04147 2.86386 0
M  V30 1264 H 115.331 -3.36042 1.71334 0
M  V30 1265 H 117.718 -2.81524 0.884769 0
M  V30 1266 H 117.799 -1.5035 2.06951 0
M  V30 1267 H 117.443 -3.20268 3.94196 0
M  V30 1268 H 117.373 -4.50445 2.72776 0
M  V30 1269 H 119.864 -3.00496 2.29152 0
M  V30 1270 H 120.177 -5.74578 5.16797 0
M  V30 1271 H 118.522 -5.17199 4.64253 0
M  V30 1272 H 121.713 -3.67051 2.90502 0
M  V30 1273 H 121.886 -4.9205 4.21653 0
M  V30 1274 N 115.292 -0.849877 -1.32721 0
M  V30 1275 C 116.202 -0.293791 -2.32753 0
M  V30 1276 C 117.218 0.585906 -1.63839 0
M  V30 1277 O 118.394 0.487413 -1.95413 0
M  V30 1278 C 115.459 0.512752 -3.42887 0
M  V30 1279 C 114.52 -0.39252 -4.27502 0
M  V30 1280 C 113.753 0.375625 -5.32377 0
M  V30 1281 O 113.976 1.60613 -5.4732 0
M  V30 1282 O 112.91 -0.256094 -6.01355 0
M  V30 1283 H 116.736 -1.12242 -2.82197 0
M  V30 1284 H 114.321 -0.612685 -1.36259 0
M  V30 1285 H 116.203 0.970704 -4.10067 0
M  V30 1286 H 114.878 1.31826 -2.95641 0
M  V30 1287 H 113.785 -0.898547 -3.63149 0
M  V30 1288 H 115.118 -1.16309 -4.7826 0
M  V30 1289 N 116.77 1.45427 -0.607355 0
M  V30 1290 C 118.017 2.02241 -0.102455 0
M  V30 1291 C 118.345 1.4758 1.26691 0
M  V30 1292 O 117.6 0.640468 1.84923 0
M  V30 1293 C 117.899 3.57398 -0.0129263 0
M  V30 1294 C 117.565 4.3121 -1.31792 0
M  V30 1295 C 116.227 4.51092 -1.67539 0
M  V30 1296 C 118.579 4.73401 -2.18039 0
M  V30 1297 C 115.907 5.10422 -2.89285 0
M  V30 1298 C 118.259 5.34078 -3.39034 0
M  V30 1299 C 116.923 5.52184 -3.75033 0
M  V30 1300 H 116.193 0.740051 -0.037491 0
M  V30 1301 H 118.84 1.74494 -0.788926 0
M  V30 1302 H 117.145 3.84421 0.756806 0
M  V30 1303 H 118.842 3.99061 0.393881 0
M  V30 1304 H 115.432 4.16047 -1.02968 0
M  V30 1305 H 119.616 4.57774 -1.91721 0
M  V30 1306 H 114.872 5.22629 -3.17283 0
M  V30 1307 H 119.046 5.65724 -4.06115 0
M  V30 1308 H 116.673 5.97925 -4.69457 0
M  V30 1309 N 118.248 0.346503 1.53744 0
M  V30 1310 C 119.494 -0.242135 2.01954 0
M  V30 1311 C 119.849 -1.47962 1.22984 0
M  V30 1312 O 119.142 -1.89077 0.309924 0
M  V30 1313 C 119.336 -0.605809 3.52228 0
M  V30 1314 C 119.165 0.594882 4.45748 0
M  V30 1315 C 117.935 1.1011 4.93157 0
M  V30 1316 C 120.133 1.45425 4.93311 0
M  V30 1317 N 118.115 2.26381 5.70636 0
M  V30 1318 C 119.486 2.46383 5.68942 0
M  V30 1319 C 121.541 1.47935 4.75415 0
M  V30 1320 C 120.244 3.49684 6.28581 0
M  V30 1321 C 122.27 2.50119 5.35905 0
M  V30 1322 C 121.632 3.49803 6.11406 0
M  V30 1323 H 117.731 -0.0518296 0.780281 0
M  V30 1324 H 120.315 0.486736 1.88518 0
M  V30 1325 H 118.486 -1.30378 3.65864 0
M  V30 1326 H 120.218 -1.17789 3.87179 0
M  V30 1327 H 116.973 0.668721 4.68855 0
M  V30 1328 H 117.397 2.85094 6.14044 0
M  V30 1329 H 122.039 0.722274 4.16585 0
M  V30 1330 H 119.757 4.26285 6.86518 0
M  V30 1331 H 123.343 2.52892 5.23963 0
M  V30 1332 H 122.223 4.27576 6.5738 0
M  V30 1333 N 119.726 -1.57421 0.075193 0
M  V30 1334 C 120.673 -2.12915 -0.890843 0
M  V30 1335 C 121.643 -1.04252 -1.29309 0
M  V30 1336 O 122.828 -1.31933 -1.37834 0
M  V30 1337 C 119.968 -2.69795 -2.15186 0
M  V30 1338 C 119.081 -3.92624 -1.80194 0
M  V30 1339 C 118.216 -4.37736 -3.00933 0
M  V30 1340 C 117.255 -5.53205 -2.61974 0
M  V30 1341 N 116.392 -5.9326 -3.75483 0
M  V30 1342 H 121.232 -2.95156 -0.410735 0
M  V30 1343 H 118.769 -1.45854 -0.191086 0
M  V30 1344 H 120.727 -3.00883 -2.89008 0
M  V30 1345 H 119.357 -1.90313 -2.60731 0
M  V30 1346 H 118.409 -3.67977 -0.964218 0
M  V30 1347 H 119.721 -4.76482 -1.47534 0
M  V30 1348 H 118.875 -4.70503 -3.8303 0
M  V30 1349 H 117.614 -3.52739 -3.36789 0
M  V30 1350 H 116.619 -5.20086 -1.783 0
M  V30 1351 H 117.844 -6.39936 -2.27284 0
M  V30 1352 H 115.79 -5.11212 -4.11094 0
M  V30 1353 H 115.707 -6.71865 -3.46602 0
M  V30 1354 H 116.975 -6.30651 -4.58148 0
M  V30 1355 N 121.204 0.198386 -1.56346 0
M  V30 1356 C 122.136 1.26987 -1.90806 0
M  V30 1357 C 123.149 1.41877 -0.798419 0
M  V30 1358 O 124.338 1.42362 -1.07682 0
M  V30 1359 C 121.438 2.64246 -2.12196 0
M  V30 1360 C 120.611 2.71007 -3.43328 0
M  V30 1361 C 119.67 3.89439 -3.5387 0
M  V30 1362 O 118.696 3.76695 -4.26719 0
M  V30 1363 N 119.898 5.04752 -2.86715 0
M  V30 1364 H 122.663 0.977433 -2.83313 0
M  V30 1365 H 120.224 0.388322 -1.57174 0
M  V30 1366 H 122.216 3.41896 -2.1654 0
M  V30 1367 H 120.786 2.85992 -1.26204 0
M  V30 1368 H 120.006 1.79657 -3.50881 0
M  V30 1369 H 121.294 2.72512 -4.29668 0
M  V30 1370 H 120.692 5.18004 -2.2735 0
M  V30 1371 H 119.249 5.8036 -2.96691 0
M  V30 1372 N 122.682 1.50554 0.465978 0
M  V30 1373 C 123.612 1.72722 1.57128 0
M  V30 1374 C 124.593 0.576294 1.6004 0
M  V30 1375 O 125.778 0.81598 1.76225 0
M  V30 1376 C 122.908 1.82605 2.95419 0
M  V30 1377 C 121.862 2.97835 3.07373 0
M  V30 1378 C 121.188 2.92867 4.47363 0
M  V30 1379 C 122.488 4.38265 2.84114 0
M  V30 1380 H 124.182 2.65267 1.38829 0
M  V30 1381 H 121.728 1.2765 0.666441 0
M  V30 1382 H 123.681 1.96698 3.72677 0
M  V30 1383 H 122.405 0.866858 3.14886 0
M  V30 1384 H 121.064 2.83401 2.3255 0
M  V30 1385 H 120.712 1.94783 4.63755 0
M  V30 1386 H 120.412 3.70227 4.56296 0
M  V30 1387 H 121.936 3.09015 5.26633 0
M  V30 1388 H 123.35 4.53198 3.51118 0
M  V30 1389 H 121.747 5.17115 3.04487 0
M  V30 1390 H 122.817 4.50281 1.7993 0
M  V30 1391 N 124.16 -0.719506 1.40217 0
M  V30 1392 C 125.408 -1.47641 1.3801 0
M  V30 1393 C 125.729 -1.94992 -0.018145 0
M  V30 1394 O 124.999 -1.70073 -0.972207 0
M  V30 1395 H 123.579 -0.547744 0.507923 0
M  V30 1396 H 126.241 -0.853187 1.75233 0
M  V30 1397 H 125.337 -2.35112 2.05253 0
M  V30 1398 N 125.638 -1.25649 -0.95132 0
M  V30 1399 C 126.586 -1.06118 -2.06982 0
M  V30 1400 C 127.58 0.00889169 -1.69398 0
M  V30 1401 O 128.786 -0.146988 -1.79399 0
M  V30 1402 H 125.161 -0.326248 -0.677544 0
M  V30 1403 H 127.132 -2.00932 -2.2061 0
M  V30 1404 C 125.881 -0.700145 -3.40578 0
M  V30 1405 H 125.204 -1.51537 -3.69968 0
M  V30 1406 H 126.644 -0.603211 -4.19687 0
M  V30 1407 C 125.103 0.59403 -3.31622 0
M  V30 1408 O 125.633 1.63522 -3.66911 0
M  V30 1409 N 123.839 0.58089 -2.84735 0
M  V30 1410 H 123.386 -0.266783 -2.56215 0
M  V30 1411 H 123.344 1.44695 -2.79125 0
M  V30 1412 N 127.117 1.15442 -1.07289 0
M  V30 1413 C 128.047 2.22312 -0.714107 0
M  V30 1414 C 129.028 1.67467 0.298155 0
M  V30 1415 O 130.213 1.93445 0.171048 0
M  V30 1416 C 127.343 3.47124 -0.110448 0
M  V30 1417 C 126.297 4.14926 -1.04979 0
M  V30 1418 C 125.623 5.33807 -0.308924 0
M  V30 1419 C 126.923 4.64762 -2.38314 0
M  V30 1420 H 128.617 2.5258 -1.6076 0
M  V30 1421 H 126.163 1.21404 -0.77441 0
M  V30 1422 H 128.116 4.21124 0.152482 0
M  V30 1423 H 126.84 3.16187 0.81812 0
M  V30 1424 H 125.499 3.42866 -1.29764 0
M  V30 1425 H 125.147 4.99126 0.623084 0
M  V30 1426 H 124.847 5.80113 -0.935036 0
M  V30 1427 H 126.371 6.10576 -0.0537771 0
M  V30 1428 H 127.785 5.30292 -2.1786 0
M  V30 1429 H 126.182 5.21728 -2.96514 0
M  V30 1430 H 127.252 3.80434 -3.00663 0
M  V30 1431 N 128.595 0.856903 1.32268 0
M  V30 1432 C 129.843 0.460474 1.96784 0
M  V30 1433 C 130.164 -0.987701 1.68135 0
M  V30 1434 O 129.434 -1.69058 0.989765 0
M  V30 1435 H 128.014 0.167289 0.728027 0
M  V30 1436 H 130.676 1.09383 1.61312 0
M  V30 1437 H 129.772 0.60739 3.06133 0
M  V30 1438 N 130.073 -1.45103 0.615059 0
M  V30 1439 C 131.319 -2.02483 0.113347 0
M  V30 1440 C 131.652 -1.48146 -1.25564 0
M  V30 1441 O 130.927 -0.659104 -1.82992 0
M  V30 1442 C 131.21 -3.60005 0.0825278 0
M  V30 1443 C 131.063 -4.2466 1.48271 0
M  V30 1444 C 132.382 -4.35972 -0.601401 0
M  V30 1445 H 129.501 -0.735764 0.0426632 0
M  V30 1446 H 132.143 -1.72868 0.788461 0
M  V30 1447 H 130.293 -3.85367 -0.492378 0
M  V30 1448 H 131.965 -4.10458 2.10527 0
M  V30 1449 H 130.208 -3.82772 2.04127 0
M  V30 1450 H 130.879 -5.336 1.41332 0
M  V30 1451 H 133.355 -4.15947 -0.112666 0
M  V30 1452 H 132.231 -5.45697 -0.592097 0
M  V30 1453 H 132.492 -4.09391 -1.66887 0
M  V30 1454 N 131.551 -0.354651 -1.53558 0
M  V30 1455 C 132.481 0.489091 -2.2832 0
M  V30 1456 C 133.462 1.09324 -1.30316 0
M  V30 1457 O 134.647 1.11255 -1.59173 0
M  V30 1458 C 131.777 1.63456 -3.0643 0
M  V30 1459 C 130.731 1.1582 -4.12031 0
M  V30 1460 C 130.057 2.39305 -4.7816 0
M  V30 1461 C 131.357 0.250731 -5.21698 0
M  V30 1462 H 133.051 -0.134614 -2.99097 0
M  V30 1463 H 130.597 -0.0661826 -1.43848 0
M  V30 1464 H 132.55 2.23136 -3.57475 0
M  V30 1465 H 131.274 2.28533 -2.33325 0
M  V30 1466 H 129.933 0.584146 -3.61916 0
M  V30 1467 H 129.581 3.02814 -4.01637 0
M  V30 1468 H 129.281 2.08109 -5.49513 0
M  V30 1469 H 130.805 2.99691 -5.31994 0
M  V30 1470 H 132.219 0.754695 -5.68311 0
M  V30 1471 H 130.616 0.0301468 -6.00092 0
M  V30 1472 H 131.686 -0.710125 -4.79672 0
M  V30 1473 N 133.029 1.57378 -0.0835403 0
M  V30 1474 C 134.277 1.93547 0.581718 0
M  V30 1475 C 134.598 0.96524 1.69435 0
M  V30 1476 O 133.868 0.0153369 1.95894 0
M  V30 1477 H 132.448 0.714521 0.217874 0
M  V30 1478 H 135.11 1.94366 -0.144158 0
M  V30 1479 H 134.206 2.95665 0.999423 0
M  V30 1480 N 134.507 -0.190092 1.56449 0
M  V30 1481 C 135.756 -0.907912 1.80111 0
M  V30 1482 C 136.069 -1.84214 0.657619 0
M  V30 1483 O 137.275 -2.60094 0.778663 0
M  V30 1484 C 135.731 -1.66485 3.19078 0
M  V30 1485 C 135.339 -0.7752 4.41242 0
M  V30 1486 C 137.083 -2.37201 3.52045 0
M  V30 1487 C 134.99 -1.53129 5.71231 0
M  V30 1488 H 133.92 -0.34276 0.671589 0
M  V30 1489 H 136.571 -0.161109 1.82791 0
M  V30 1490 H 134.953 -2.45572 3.10661 0
M  V30 1491 H 136.127 -0.0226298 4.60794 0
M  V30 1492 H 134.442 -0.178627 4.16017 0
M  V30 1493 H 137.039 -2.94329 4.46402 0
M  V30 1494 H 137.382 -3.11632 2.76028 0
M  V30 1495 H 137.915 -1.65075 3.61932 0
M  V30 1496 H 134.654 -0.82967 6.50228 0
M  V30 1497 H 134.174 -2.25767 5.55688 0
M  V30 1498 H 135.853 -2.08377 6.12526 0
M  V30 1499 N 135.985 -1.50799 -0.457987 0
M  V30 1500 C 137.213 -1.66218 -1.23203 0
M  V30 1501 C 137.628 -0.350894 -1.85511 0
M  V30 1502 O 136.985 0.668546 -1.69814 0
M  V30 1503 C 137.036 -2.76291 -2.33121 0
M  V30 1504 O 136.757 -4.02338 -1.73366 0
M  V30 1505 C 138.258 -3.028 -3.2377 0
M  V30 1506 H 135.478 -0.558361 -0.372121 0
M  V30 1507 H 138.022 -1.97099 -0.545179 0
M  V30 1508 H 136.177 -2.48068 -2.97558 0
M  V30 1509 H 136.591 -4.63312 -2.4585 0
M  V30 1510 H 138.065 -3.8345 -3.97077 0
M  V30 1511 H 138.542 -2.14385 -3.83322 0
M  V30 1512 H 139.148 -3.32604 -2.65056 0
M  V30 1513 N 137.463 0.71206 -1.40597 0
M  V30 1514 C 138.426 1.80785 -1.40888 0
M  V30 1515 C 139.426 1.57937 -0.302103 0
M  V30 1516 O 140.616 1.64913 -0.561182 0
M  V30 1517 C 137.748 3.18927 -1.20409 0
M  V30 1518 H 138.941 1.81924 -2.38419 0
M  V30 1519 H 136.494 0.91805 -1.26497 0
M  V30 1520 H 137.229 3.23436 -0.236522 0
M  V30 1521 H 137.014 3.36911 -2.00582 0
M  V30 1522 H 138.504 3.98949 -1.23408 0
M  V30 1523 N 138.941 1.26152 0.944643 0
M  V30 1524 C 140.352 1.10454 1.50522 0
M  V30 1525 C 140.703 -0.31635 1.93633 0
M  V30 1526 O 139.828 -1.20746 1.79581 0
M  V30 1527 C 140.423 1.99891 2.73549 0
M  V30 1528 C 138.982 1.88348 3.25886 0
M  V30 1529 C 138.129 1.93447 1.9868 0
M  V30 1530 H 141.08 1.39292 0.760489 0
M  V30 1531 H 141.101 1.54477 3.47732 0
M  V30 1532 H 140.613 3.03297 2.42141 0
M  V30 1533 H 138.714 0.878636 3.62092 0
M  V30 1534 H 138.827 2.73696 3.93227 0
M  V30 1535 H 137.191 1.37456 2.14425 0
M  V30 1536 H 137.974 2.98476 1.69607 0
M  V30 1537 N 140.419 -1.14872 1.07899 0
M  V30 1538 C 141.665 -1.86064 0.806725 0
M  V30 1539 C 141.998 -1.82434 -0.665706 0
M  V30 1540 O 141.273 -1.25138 -1.48899 0
M  V30 1541 C 141.556 -3.34929 1.32267 0
M  V30 1542 C 141.409 -3.47161 2.86006 0
M  V30 1543 C 142.728 -4.29863 0.943717 0
M  V30 1544 H 139.847 -0.675591 0.294526 0
M  V30 1545 H 142.489 -1.34925 1.33773 0
M  V30 1546 H 140.639 -3.78611 0.870974 0
M  V30 1547 H 142.311 -3.12302 3.39507 0
M  V30 1548 H 140.554 -2.88539 3.23925 0
M  V30 1549 H 141.225 -4.51777 3.17177 0
M  V30 1550 H 143.701 -3.9417 1.33302 0
M  V30 1551 H 142.577 -5.32494 1.33198 0
M  V30 1552 H 142.838 -4.41846 -0.149796 0
M  V30 1553 N 141.898 -0.863906 -1.31812 0
M  V30 1554 C 142.83 -0.272485 -2.27575 0
M  V30 1555 C 143.843 0.56104 -1.52827 0
M  V30 1556 O 145.032 0.384021 -1.7432 0
M  V30 1557 C 142.132 0.63283 -3.32939 0
M  V30 1558 C 141.305 -0.166902 -4.37081 0
M  V30 1559 C 140.364 0.665608 -5.21973 0
M  V30 1560 O 139.39 0.0958091 -5.69119 0
M  V30 1561 N 140.592 1.9787 -5.45736 0
M  V30 1562 H 143.357 -1.0954 -2.78964 0
M  V30 1563 H 140.918 -0.724791 -1.4477 0
M  V30 1564 H 142.91 1.19532 -3.86645 0
M  V30 1565 H 141.48 1.35642 -2.81638 0
M  V30 1566 H 140.7 -0.910838 -3.83533 0
M  V30 1567 H 141.988 -0.715874 -5.03739 0
M  V30 1568 H 141.386 2.46484 -5.09178 0
M  V30 1569 H 139.943 2.48911 -6.024 0
M  V30 1570 N 143.376 1.44774 -0.622745 0
M  V30 1571 C 144.606 2.06187 -0.130532 0
M  V30 1572 C 145.014 1.46547 1.19669 0
M  V30 1573 O 144.357 0.579636 1.74316 0
M  V30 1574 C 144.419 3.59437 0.0674983 0
M  V30 1575 C 144.083 4.41496 -1.18026 0
M  V30 1576 C 145.08 4.75512 -2.102 0
M  V30 1577 C 142.765 4.82007 -1.41333 0
M  V30 1578 C 144.759 5.48912 -3.23998 0
M  V30 1579 C 142.446 5.55157 -2.55429 0
M  V30 1580 C 143.444 5.88528 -3.46589 0
M  V30 1581 O 143.132 6.60191 -4.58697 0
M  V30 1582 H 142.864 0.672045 -0.0730162 0
M  V30 1583 H 145.418 1.86768 -0.854802 0
M  V30 1584 H 143.648 3.77314 0.846825 0
M  V30 1585 H 145.337 4.02642 0.513209 0
M  V30 1586 H 146.103 4.4476 -1.93425 0
M  V30 1587 H 141.982 4.55457 -0.712709 0
M  V30 1588 H 145.526 5.74877 -3.95174 0
M  V30 1589 H 141.423 5.85324 -2.72151 0
M  V30 1590 H 142.191 6.78654 -4.57571 0
M  V30 1591 N 144.854 0.36279 1.53368 0
M  V30 1592 C 146.102 -0.227326 2.00817 0
M  V30 1593 C 146.423 -1.49511 1.25186 0
M  V30 1594 O 145.693 -1.92482 0.364348 0
M  V30 1595 H 144.273 -0.0869923 0.741917 0
M  V30 1596 H 146.935 0.488381 1.88682 0
M  V30 1597 H 146.031 -0.456273 3.08747 0
M  V30 1598 N 146.332 -1.57332 0.0918853 0
M  V30 1599 C 147.58 -1.93853 -0.571446 0
M  V30 1600 C 147.901 -0.974212 -1.6892 0
M  V30 1601 O 147.171 -0.0257254 -1.95883 0
M  V30 1602 H 145.751 -0.715666 -0.214082 0
M  V30 1603 H 148.413 -1.94287 0.154464 0
M  V30 1604 H 147.509 -2.96191 -0.983729 0
M  V30 1605 N 147.81 0.181792 -1.56548 0
M  V30 1606 C 149.035 0.920019 -1.85877 0
M  V30 1607 C 149.46 1.75494 -0.677021 0
M  V30 1608 O 148.818 1.77399 0.374056 0
M  V30 1609 C 148.866 1.78112 -3.13542 0
M  V30 1610 O 147.97 2.88152 -2.95029 0
M  V30 1611 H 147.311 0.258334 -0.611686 0
M  V30 1612 H 149.841 0.183092 -2.03779 0
M  V30 1613 H 149.851 2.18314 -3.44678 0
M  V30 1614 H 148.526 1.16777 -3.99169 0
M  V30 1615 H 147.103 2.51609 -2.75222 0
M  V30 1616 N 149.288 1.51039 0.449983 0
M  V30 1617 C 150.536 1.62759 1.19808 0
M  V30 1618 C 150.857 0.339981 1.92013 0
M  V30 1619 O 150.127 -0.643606 1.85026 0
M  V30 1620 H 148.707 0.599811 0.445237 0
M  V30 1621 H 151.369 1.87914 0.517138 0
M  V30 1622 H 150.465 2.44911 1.93455 0
M  V30 1623 N 150.766 -0.704594 1.40972 0
M  V30 1624 C 151.696 -1.83124 1.44872 0
M  V30 1625 C 152.677 -1.67281 0.30838 0
M  V30 1626 O 153.862 -1.87149 0.518556 0
M  V30 1627 C 150.992 -3.21181 1.32136 0
M  V30 1628 C 149.946 -3.51714 2.43888 0
M  V30 1629 C 149.272 -4.89032 2.16222 0
M  V30 1630 C 150.572 -3.516 3.86232 0
M  V30 1631 H 152.266 -1.80117 2.39161 0
M  V30 1632 H 149.812 -0.865145 1.15114 0
M  V30 1633 H 151.765 -3.99702 1.33479 0
M  V30 1634 H 150.489 -3.24791 0.343279 0
M  V30 1635 H 149.148 -2.75539 2.41813 0
M  V30 1636 H 148.796 -4.89256 1.16778 0
M  V30 1637 H 148.496 -5.10426 2.911 0
M  V30 1638 H 150.02 -5.69873 2.19265 0
M  V30 1639 H 151.434 -4.2014 3.9007 0
M  V30 1640 H 149.831 -3.84523 4.60719 0
M  V30 1641 H 150.901 -2.50757 4.15029 0
M  V30 1642 N 152.244 -1.26651 -0.937939 0
M  V30 1643 C 153.492 -1.12165 -1.68118 0
M  V30 1644 C 153.813 0.334983 -1.92101 0
M  V30 1645 O 153.083 1.23583 -1.52 0
M  V30 1646 H 151.663 -0.412093 -0.623048 0
M  V30 1647 H 154.325 -1.59027 -1.12678 0
M  V30 1648 H 153.421 -1.64289 -2.6536 0
M  V30 1649 N 153.722 1.14298 -1.08507 0
M  V30 1650 C 154.952 1.88945 -0.835663 0
M  V30 1651 C 155.36 1.78894 0.615928 0
M  V30 1652 O 154.703 1.1468 1.43506 0
M  V30 1653 C 154.765 3.39585 -1.17994 0
M  V30 1654 C 154.429 3.7342 -2.63451 0
M  V30 1655 C 155.426 3.73454 -3.61702 0
M  V30 1656 C 153.111 4.03368 -2.99332 0
M  V30 1657 C 155.105 4.02961 -4.93864 0
M  V30 1658 C 152.792 4.32538 -4.31687 0
M  V30 1659 C 153.79 4.32318 -5.28763 0
M  V30 1660 O 153.478 4.6078 -6.58739 0
M  V30 1661 H 153.21 0.605307 -0.300965 0
M  V30 1662 H 155.764 1.45673 -1.44806 0
M  V30 1663 H 153.994 3.83315 -0.51055 0
M  V30 1664 H 155.683 3.9554 -0.911182 0
M  V30 1665 H 156.449 3.50403 -3.35325 0
M  V30 1666 H 152.328 4.02692 -2.24411 0
M  V30 1667 H 155.872 4.02704 -5.69627 0
M  V30 1668 H 151.769 4.55059 -4.57812 0
M  V30 1669 H 152.537 4.78492 -6.64069 0
M  V30 1670 N 155.201 0.870884 1.31352 0
M  V30 1671 C 156.131 0.343096 2.30966 0
M  V30 1672 C 157.112 -0.566507 1.60389 0
M  V30 1673 O 158.297 -0.483336 1.88089 0
M  V30 1674 C 155.427 -0.455487 3.443 0
M  V30 1675 C 154.381 0.361103 4.26474 0
M  V30 1676 C 153.707 -0.563221 5.31725 0
M  V30 1677 C 155.007 1.59566 4.97329 0
M  V30 1678 H 156.701 1.17548 2.75359 0
M  V30 1679 H 154.247 0.566686 1.32381 0
M  V30 1680 H 156.2 -0.83525 4.13039 0
M  V30 1681 H 154.924 -1.32139 2.98675 0
M  V30 1682 H 153.583 0.722825 3.59403 0
M  V30 1683 H 153.231 -1.42643 4.82351 0
M  V30 1684 H 152.931 -0.0207409 5.87596 0
M  V30 1685 H 154.455 -0.939808 6.03324 0
M  V30 1686 H 155.869 1.28728 5.58661 0
M  V30 1687 H 154.266 2.07728 5.63 0
M  V30 1688 H 155.336 2.34798 4.24262 0
M  V30 1689 N 156.679 -1.44442 0.630414 0
M  V30 1690 C 157.589 -2.34476 -0.0761693 0
M  V30 1691 C 158.605 -1.52576 -0.836449 0
M  V30 1692 O 159.781 -1.85307 -0.788874 0
M  V30 1693 C 156.846 -3.30545 -1.04599 0
M  V30 1694 C 155.907 -4.28352 -0.28516 0
M  V30 1695 C 155.14 -5.19831 -1.20878 0
M  V30 1696 O 155.363 -5.15223 -2.44747 0
M  V30 1697 O 154.297 -5.97892 -0.693491 0
M  V30 1698 H 158.123 -2.96345 0.664324 0
M  V30 1699 H 155.708 -1.44203 0.39061 0
M  V30 1700 H 157.59 -3.89681 -1.60396 0
M  V30 1701 H 156.265 -2.7121 -1.76711 0
M  V30 1702 H 155.172 -3.72764 0.315837 0
M  V30 1703 H 156.505 -4.90605 0.395924 0
M  V30 1704 N 158.157 -0.370918 -1.53173 0
M  V30 1705 C 159.107 0.489588 -2.22681 0
M  V30 1706 C 160.091 1.04442 -1.22395 0
M  V30 1707 O 161.283 0.973578 -1.47819 0
M  V30 1708 C 158.412 1.626 -3.02351 0
M  V30 1709 C 157.498 1.08379 -4.10018 0
M  V30 1710 N 157.889 0.265004 -5.05105 0
M  V30 1711 C 156.187 1.35809 -4.2482 0
M  V30 1712 C 156.888 -0.0324755 -5.81691 0
M  V30 1713 N 155.864 0.566581 -5.40639 0
M  V30 1714 H 159.666 -0.142729 -2.93553 0
M  V30 1715 H 157.18 -0.179221 -1.61408 0
M  V30 1716 H 159.177 2.2547 -3.50669 0
M  V30 1717 H 157.837 2.26132 -2.33011 0
M  V30 1718 H 158.848 -0.0962352 -5.17811 0
M  V30 1719 H 155.525 1.9958 -3.66707 0
M  V30 1720 H 156.915 -0.69473 -6.68299 0
M  V30 1721 N 159.635 1.57281 -0.100228 0
M  V30 1722 C 160.881 1.94826 0.563101 0
M  V30 1723 C 161.214 0.982475 1.67514 0
M  V30 1724 O 160.489 0.0164069 1.94493 0
M  V30 1725 C 160.772 3.42453 1.11346 0
M  V30 1726 C 160.625 4.498 0.00612081 0
M  V30 1727 C 161.944 3.91506 2.01024 0
M  V30 1728 H 159.063 0.708428 0.203221 0
M  V30 1729 H 161.705 1.8922 -0.171979 0
M  V30 1730 H 159.855 3.47361 1.7399 0
M  V30 1731 H 161.527 4.57 -0.628357 0
M  V30 1732 H 159.77 4.28756 -0.659581 0
M  V30 1733 H 160.441 5.50306 0.432109 0
M  V30 1734 H 162.917 3.88784 1.48278 0
M  V30 1735 H 161.793 4.95358 2.36457 0
M  V30 1736 H 162.054 3.31099 2.92961 0
M  V30 1737 N 161.113 -0.173488 1.56642 0
M  V30 1738 C 162.043 -1.2171 1.99271 0
M  V30 1739 C 163.024 -1.46289 0.867959 0
M  V30 1740 O 164.209 -1.5766 1.13388 0
M  V30 1741 C 161.339 -2.55651 2.35074 0
M  V30 1742 C 160.293 -2.45645 3.50489 0
M  V30 1743 C 159.619 -3.84056 3.72028 0
M  V30 1744 C 160.919 -1.96302 4.84007 0
M  V30 1745 H 162.613 -0.86275 2.867 0
M  V30 1746 H 160.159 -0.413571 1.37933 0
M  V30 1747 H 162.112 -3.2886 2.63494 0
M  V30 1748 H 160.836 -2.92869 1.44552 0
M  V30 1749 H 159.495 -1.7489 3.22194 0
M  V30 1750 H 159.143 -4.18664 2.788 0
M  V30 1751 H 158.843 -3.7823 4.49684 0
M  V30 1752 H 160.367 -4.58854 4.02846 0
M  V30 1753 H 161.781 -2.59284 5.11317 0
M  V30 1754 H 160.178 -2.01429 5.65284 0
M  V30 1755 H 161.248 -0.917226 4.76146 0
M  V30 1756 N 162.591 -1.51276 -0.441967 0
M  V30 1757 C 163.837 -1.63958 -1.19355 0
M  V30 1758 C 164.17 -0.352543 -1.90973 0
M  V30 1759 O 163.445 0.647627 -1.83401 0
M  V30 1760 C 163.728 -2.83979 -2.21422 0
M  V30 1761 C 163.581 -4.22646 -1.53918 0
M  V30 1762 C 164.9 -2.99521 -3.22451 0
M  V30 1763 H 162.019 -0.596709 -0.432559 0
M  V30 1764 H 164.661 -1.83748 -0.483398 0
M  V30 1765 H 162.811 -2.67237 -2.81987 0
M  V30 1766 H 164.483 -4.51045 -0.967256 0
M  V30 1767 H 162.726 -4.25558 -0.841615 0
M  V30 1768 H 163.397 -5.02609 -2.28229 0
M  V30 1769 H 165.873 -3.14944 -2.71937 0
M  V30 1770 H 164.749 -3.85072 -3.91166 0
M  V30 1771 H 165.01 -2.11391 -3.88287 0
M  V30 1772 N 164.069 0.697108 -1.41344 0
M  V30 1773 C 165.002 1.82134 -1.37486 0
M  V30 1774 C 165.98 1.60784 -0.242351 0
M  V30 1775 O 167.164 1.83553 -0.429012 0
M  V30 1776 C 164.291 3.18788 -1.14421 0
M  V30 1777 C 163.337 3.58932 -2.3037 0
M  V30 1778 S 164.17 3.63916 -3.92843 0
M  V30 1779 C 165.326 5.03298 -3.72078 0
M  V30 1780 H 165.559 1.85129 -2.32625 0
M  V30 1781 H 163.092 0.865671 -1.2785 0
M  V30 1782 H 165.05 3.97677 -1.018 0
M  V30 1783 H 163.711 3.13404 -0.20905 0
M  V30 1784 H 162.904 4.58202 -2.09922 0
M  V30 1785 H 162.506 2.87347 -2.39391 0
M  V30 1786 H 164.798 5.90753 -3.31688 0
M  V30 1787 H 165.741 5.28788 -4.70945 0
M  V30 1788 H 166.149 4.74764 -3.05384 0
M  V30 1789 N 165.547 1.27147 0.931209 0
M  V30 1790 C 166.457 1.11372 2.06478 0
M  V30 1791 C 167.473 0.044645 1.73943 0
M  V30 1792 O 168.649 0.250417 1.99837 0
M  V30 1793 C 165.714 0.758838 3.38294 0
M  V30 1794 C 164.775 1.90841 3.84549 0
M  V30 1795 C 164.008 1.57036 5.10074 0
M  V30 1796 O 164.231 0.476645 5.68405 0
M  V30 1797 O 163.165 2.40839 5.51616 0
M  V30 1798 H 166.991 2.06493 2.22698 0
M  V30 1799 H 164.576 1.06301 1.04978 0
M  V30 1800 H 166.458 0.574098 4.17471 0
M  V30 1801 H 165.133 -0.162879 3.2329 0
M  V30 1802 H 164.04 2.14819 3.06274 0
M  V30 1803 H 165.373 2.81021 4.04089 0
M  V30 1804 N 167.025 -1.13721 1.09112 0
M  V30 1805 C 167.935 -2.22638 0.73957 0
M  V30 1806 C 168.951 -1.72091 -0.257068 0
M  V30 1807 O 170.127 -2.01155 -0.0992154 0
M  V30 1808 C 167.192 -3.46322 0.16191 0
M  V30 1809 C 166.253 -4.11775 1.21408 0
M  V30 1810 C 165.486 -5.29555 0.663891 0
M  V30 1811 O 165.709 -5.68077 -0.514274 0
M  V30 1812 O 164.643 -5.84973 1.41738 0
M  V30 1813 H 168.469 -2.55074 1.64836 0
M  V30 1814 H 166.054 -1.21791 0.865289 0
M  V30 1815 H 167.936 -4.21107 -0.157073 0
M  V30 1816 H 166.611 -3.15593 -0.719932 0
M  V30 1817 H 165.518 -3.3883 1.58571 0
M  V30 1818 H 166.851 -4.46627 2.06845 0
M  V30 1819 N 168.503 -0.877838 -1.30888 0
M  V30 1820 C 169.752 -0.488793 -1.95688 0
M  V30 1821 C 170.065 0.965485 -1.70111 0
M  V30 1822 O 171.271 1.46104 -2.28836 0
M  V30 1823 C 169.727 -0.823201 -3.50359 0
M  V30 1824 C 169.335 -2.29477 -3.84765 0
M  V30 1825 C 171.079 -0.503009 -4.21509 0
M  V30 1826 C 168.986 -2.57118 -5.32583 0
M  V30 1827 H 167.916 -0.179062 -0.732429 0
M  V30 1828 H 170.567 -1.07183 -1.48943 0
M  V30 1829 H 168.949 -0.169331 -3.95638 0
M  V30 1830 H 170.123 -2.99236 -3.5042 0
M  V30 1831 H 168.438 -2.58178 -3.267 0
M  V30 1832 H 171.035 -0.68665 -5.30273 0
M  V30 1833 H 171.378 0.557109 -4.12555 0
M  V30 1834 H 171.911 -1.11376 -3.8189 0
M  V30 1835 H 168.65 -3.61843 -5.4658 0
M  V30 1836 H 168.17 -1.91961 -5.68253 0
M  V30 1837 H 169.849 -2.42251 -5.99936 0
M  V30 1838 N 169.982 1.44106 -0.638065 0
M  V30 1839 C 171.207 2.0685 -0.150916 0
M  V30 1840 C 171.632 1.47417 1.16833 0
M  V30 1841 O 170.99 0.578264 1.71831 0
M  V30 1842 C 171.038 3.60555 -0.05708 0
M  V30 1843 O 170.142 4.00465 0.984972 0
M  V30 1844 H 169.483 0.658151 -0.0879399 0
M  V30 1845 H 172.013 1.84865 -0.876707 0
M  V30 1846 H 172.023 4.07789 0.131232 0
M  V30 1847 H 170.698 4.03193 -1.02021 0
M  V30 1848 H 169.275 3.64849 0.770672 0
M  V30 1849 N 171.46 0.379036 1.52974 0
M  V30 1850 C 172.876 0.0285448 1.59574 0
M  V30 1851 C 173.076 -1.45542 1.39355 0
M  V30 1852 O 172.132 -2.2187 1.20541 0
M  V30 1853 C 173.445 0.496535 2.96572 0
M  V30 1854 C 174.993 0.451909 3.0972 0
M  V30 1855 C 175.468 0.895924 4.49152 0
M  V30 1856 N 176.959 0.851522 4.55306 0
M  V30 1857 C 177.694 1.16661 5.61407 0
M  V30 1858 N 177.19 1.55166 6.752 0
M  V30 1859 N 178.983 1.08853 5.51459 0
M  V30 1860 H 171.134 1.34525 1.64367 0
M  V30 1861 H 173.397 0.550733 0.771619 0
M  V30 1862 H 173.103 1.53258 3.16552 0
M  V30 1863 H 172.977 -0.109802 3.7704 0
M  V30 1864 H 175.364 -0.575029 2.89443 0
M  V30 1865 H 175.445 1.09392 2.3123 0
M  V30 1866 H 175.089 1.92104 4.70168 0
M  V30 1867 H 175.019 0.23103 5.26093 0
M  V30 1868 H 177.51 0.568038 3.73606 0
M  V30 1869 H 177.823 1.776 7.52116 0
M  V30 1870 H 176.168 1.59044 6.76557 0
M  V30 1871 H 179.359 0.786803 4.6144 0
M  V30 1872 H 179.532 1.33742 6.34048 0
M  V30 1873 N 172.938 -1.57226 0.108567 0
M  V30 1874 C 173.901 -2.13602 -0.831082 0
M  V30 1875 C 174.901 -1.06841 -1.20173 0
M  V30 1876 O 176.091 -1.32666 -1.12895 0
M  V30 1877 C 173.223 -2.66769 -2.12243 0
M  V30 1878 H 174.416 -2.97951 -0.341317 0
M  V30 1879 H 171.969 -1.55667 -0.14057 0
M  V30 1880 H 172.704 -1.85977 -2.65675 0
M  V30 1881 H 172.489 -3.44839 -1.86625 0
M  V30 1882 H 173.979 -3.10332 -2.79435 0
M  V30 1883 N 174.416 0.165178 -1.56732 0
M  V30 1884 C 175.641 0.900253 -1.86843 0
M  V30 1885 C 176.066 1.74766 -0.695596 0
M  V30 1886 O 175.424 1.77786 0.35522 0
M  V30 1887 C 175.472 1.74777 -3.15413 0
M  V30 1888 O 174.576 2.85007 -2.98068 0
M  V30 1889 H 173.917 0.251832 -0.614391 0
M  V30 1890 H 176.447 0.161468 -2.03962 0
M  V30 1891 H 176.457 2.14646 -3.46974 0
M  V30 1892 H 175.132 1.12537 -4.00385 0
M  V30 1893 H 173.709 2.48676 -2.77875 0
M  V30 1894 N 175.894 1.51508 0.433938 0
M  V30 1895 C 177.142 1.6402 1.18075 0
M  V30 1896 C 177.463 0.360328 1.91642 0
M  V30 1897 O 176.733 -0.623945 1.85698 0
M  V30 1898 H 175.313 0.6045 0.43885 0
M  V30 1899 H 177.975 1.88452 0.497178 0
M  V30 1900 H 177.071 2.46949 1.90847 0
M  V30 1901 N 177.372 -0.689602 1.41712 0
M  V30 1902 C 178.335 -1.78521 1.43746 0
M  V30 1903 C 179.335 -1.57436 0.327191 0
M  V30 1904 O 180.525 -1.64 0.587348 0
M  V30 1905 C 177.657 -3.16971 1.25467 0
M  V30 1906 H 178.85 -1.78108 2.41283 0
M  V30 1907 H 176.403 -0.89781 1.27942 0
M  V30 1908 H 177.138 -3.23019 0.287948 0
M  V30 1909 H 176.923 -3.33678 2.05917 0
M  V30 1910 H 178.413 -3.96935 1.2974 0
M  V30 1911 N 178.85 -1.27639 -0.924453 0
M  V30 1912 C 180.096 -1.14336 -1.67497 0
M  V30 1913 C 180.429 0.309465 -1.91718 0
M  V30 1914 O 179.704 1.22608 -1.50989 0
M  V30 1915 C 179.987 -1.93096 -3.0395 0
M  V30 1916 C 179.84 -3.46381 -2.8695 0
M  V30 1917 C 181.159 -1.73798 -4.0433 0
M  V30 1918 H 178.278 -0.416728 -0.607871 0
M  V30 1919 H 180.92 -1.56832 -1.07256 0
M  V30 1920 H 179.07 -1.56982 -3.55372 0
M  V30 1921 H 180.742 -3.92343 -2.42621 0
M  V30 1922 H 178.985 -3.72557 -2.22225 0
M  V30 1923 H 179.656 -3.96735 -3.83804 0
M  V30 1924 H 182.132 -2.05293 -3.61931 0
M  V30 1925 H 181.008 -2.31294 -4.97789 0
M  V30 1926 H 181.269 -0.686725 -4.36734 0
M  V30 1927 N 180.328 1.1314 -1.09713 0
M  V30 1928 C 181.576 1.84119 -0.833338 0
M  V30 1929 C 181.897 1.84097 0.642904 0
M  V30 1930 O 181.167 1.29881 1.46655 0
M  V30 1931 H 179.747 0.681766 -0.305293 0
M  V30 1932 H 182.409 1.37038 -1.38588 0
M  V30 1933 H 181.505 2.88543 -1.18951 0
M  V30 1934 N 181.806 0.884767 1.30421 0
M  V30 1935 C 182.736 0.367574 2.30589 0
M  V30 1936 C 183.717 -0.549464 1.60981 0
M  V30 1937 O 184.902 -0.46336 1.88591 0
M  V30 1938 C 182.032 -0.418944 3.44764 0
M  V30 1939 C 180.986 0.406316 4.26067 0
M  V30 1940 C 180.312 -0.506793 5.32293 0
M  V30 1941 C 181.612 1.64832 4.95608 0
M  V30 1942 H 183.306 1.20462 2.74097 0
M  V30 1943 H 180.852 0.580695 1.31772 0
M  V30 1944 H 182.805 -0.791395 4.13902 0
M  V30 1945 H 181.529 -1.28964 3.0006 0
M  V30 1946 H 180.188 0.760903 3.58617 0
M  V30 1947 H 179.836 -1.37519 4.83836 0
M  V30 1948 H 179.536 0.0415828 5.87585 0
M  V30 1949 H 181.06 -0.875764 6.04287 0
M  V30 1950 H 182.474 1.34646 5.57264 0
M  V30 1951 H 180.871 2.13688 5.60765 0
M  V30 1952 H 181.941 2.39284 4.21748 0
M  V30 1953 N 183.284 -1.43765 0.645699 0
M  V30 1954 C 184.509 -2.06767 0.161883 0
M  V30 1955 C 184.934 -1.48034 -1.16049 0
M  V30 1956 O 184.292 -0.587369 -1.71522 0
M  V30 1957 C 184.34 -3.60519 0.0762003 0
M  V30 1958 O 183.444 -4.00982 -0.963721 0
M  V30 1959 H 182.785 -0.657675 0.091429 0
M  V30 1960 H 185.315 -1.84397 0.886499 0
M  V30 1961 H 185.325 -4.07853 -0.109604 0
M  V30 1962 H 184 -4.02646 1.04157 0
M  V30 1963 H 182.577 -3.65253 -0.751312 0
M  V30 1964 N 184.763 -0.387143 -1.52771 0
M  V30 1965 C 185.993 0.195585 -2.05672 0
M  V30 1966 C 186.401 1.41241 -1.25887 0
M  V30 1967 O 185.744 1.81265 -0.298081 0
M  V30 1968 C 185.806 0.632327 -3.53895 0
M  V30 1969 C 185.47 -0.470739 -4.54569 0
M  V30 1970 C 186.467 -1.32746 -5.02667 0
M  V30 1971 C 184.152 -0.637151 -4.98243 0
M  V30 1972 C 186.146 -2.33574 -5.93061 0
M  V30 1973 C 183.833 -1.64877 -5.88438 0
M  V30 1974 C 184.831 -2.49649 -6.35739 0
M  V30 1975 O 184.519 -3.49082 -7.24153 0
M  V30 1976 H 184.251 0.033658 -0.675162 0
M  V30 1977 H 186.805 -0.550221 -1.97893 0
M  V30 1978 H 185.035 1.43008 -3.59285 0
M  V30 1979 H 186.724 1.14048 -3.89548 0
M  V30 1980 H 187.49 -1.21019 -4.69659 0
M  V30 1981 H 183.369 0.0129567 -4.60998 0
M  V30 1982 H 186.913 -2.99777 -6.29904 0
M  V30 1983 H 182.81 -1.76643 -6.2086 0
M  V30 1984 H 183.578 -3.45065 -7.42208 0
M  V30 1985 N 186.241 1.57166 -0.116904 0
M  V30 1986 C 187.489 1.94737 0.540533 0
M  V30 1987 C 187.81 1.00096 1.67349 0
M  V30 1988 O 187.08 0.0568854 1.95817 0
M  V30 1989 H 185.66 0.718981 0.202669 0
M  V30 1990 H 188.322 1.94017 -0.185353 0
M  V30 1991 H 187.418 2.97719 0.936483 0
M  V30 1992 N 187.719 -0.156864 1.56817 0
M  V30 1993 C 188.682 -1.17781 1.96622 0
M  V30 1994 C 189.682 -1.36401 0.851555 0
M  V30 1995 O 190.872 -1.33561 1.11836 0
M  V30 1996 C 188.004 -2.54008 2.27361 0
M  V30 1997 H 189.197 -0.836564 2.87996 0
M  V30 1998 H 186.75 -0.39985 1.51099 0
M  V30 1999 H 187.485 -2.9312 1.38748 0
M  V30 2000 H 187.27 -2.41856 3.08623 0
M  V30 2001 H 188.76 -3.27558 2.59029 0
M  V30 2002 N 189.197 -1.51736 -0.425897 0
M  V30 2003 C 190.147 -1.70258 -1.51645 0
M  V30 2004 C 191.131 -0.556488 -1.5097 0
M  V30 2005 O 192.323 -0.812879 -1.5723 0
M  V30 2006 C 189.452 -1.84143 -2.89735 0
M  V30 2007 C 188.538 -3.04572 -2.95122 0
M  V30 2008 N 188.929 -4.2756 -2.70233 0
M  V30 2009 C 187.227 -3.04061 -3.26286 0
M  V30 2010 C 187.928 -5.08908 -2.81757 0
M  V30 2011 N 186.904 -4.43797 -3.13919 0
M  V30 2012 H 190.706 -2.63004 -1.31172 0
M  V30 2013 H 188.22 -1.4954 -0.633375 0
M  V30 2014 H 190.217 -1.95525 -3.68206 0
M  V30 2015 H 188.877 -0.925857 -3.1122 0
M  V30 2016 H 189.888 -4.56315 -2.44943 0
M  V30 2017 H 186.565 -2.22179 -3.53473 0
M  V30 2018 H 187.955 -6.16843 -2.66372 0
M  V30 2019 N 190.675 0.682077 -1.42076 0
M  V30 2020 C 191.9 1.47558 -1.45744 0
M  V30 2021 C 192.325 1.87977 -0.0680981 0
M  V30 2022 O 191.683 1.55522 0.9318 0
M  V30 2023 C 191.731 2.70575 -2.38373 0
M  V30 2024 O 190.835 3.68573 -1.85007 0
M  V30 2025 H 190.176 0.443585 -0.494093 0
M  V30 2026 H 192.706 0.837238 -1.86686 0
M  V30 2027 H 192.716 3.18729 -2.54707 0
M  V30 2028 H 191.391 2.40495 -3.39315 0
M  V30 2029 H 189.968 3.2757 -1.78192 0
M  V30 2030 N 192.153 1.28127 0.917671 0
M  V30 2031 C 193.101 1.11569 2.04096 0
M  V30 2032 C 194.095 0.0360242 1.69362 0
M  V30 2033 O 195.301 0.194501 1.78946 0
M  V30 2034 H 191.676 0.344097 0.668656 0
M  V30 2035 H 193.647 2.06711 2.15205 0
M  V30 2036 C 192.396 0.790197 3.38602 0
M  V30 2037 H 191.719 1.61293 3.6582 0
M  V30 2038 H 193.159 0.714271 4.1794 0
M  V30 2039 C 191.618 -0.505897 3.3308 0
M  V30 2040 O 192.148 -1.53736 3.71117 0
M  V30 2041 N 190.354 -0.505193 2.86175 0
M  V30 2042 H 189.901 0.334621 2.55417 0
M  V30 2043 H 189.859 -1.37243 2.82863 0
M  V30 2044 N 193.631 -1.12557 1.10312 0
M  V30 2045 C 194.561 -2.20341 0.772798 0
M  V30 2046 C 195.542 -1.68198 -0.25365 0
M  V30 2047 O 196.727 -1.93831 -0.119699 0
M  V30 2048 C 193.857 -3.46709 0.202443 0
M  V30 2049 C 192.811 -4.11996 1.15943 0
M  V30 2050 C 192.137 -5.328 0.450345 0
M  V30 2051 C 193.437 -4.5828 2.50552 0
M  V30 2052 H 195.131 -2.48229 1.674 0
M  V30 2053 H 192.677 -1.19308 0.806326 0
M  V30 2054 H 194.63 -4.2138 -0.0407752 0
M  V30 2055 H 193.354 -3.18245 -0.734001 0
M  V30 2056 H 192.013 -3.39305 1.38808 0
M  V30 2057 H 191.661 -5.00602 -0.490531 0
M  V30 2058 H 191.361 -5.7743 1.08851 0
M  V30 2059 H 192.885 -6.10219 0.215642 0
M  V30 2060 H 194.299 -5.2433 2.31843 0
M  V30 2061 H 192.696 -5.13683 3.10242 0
M  V30 2062 H 193.766 -3.72329 3.10643 0
M  V30 2063 N 195.109 -0.891671 -1.2995 0
M  V30 2064 C 196.349 -0.520296 -1.97667 0
M  V30 2065 C 196.713 0.914797 -1.68806 0
M  V30 2066 O 197.914 1.39263 -2.29911 0
M  V30 2067 C 196.185 -0.795222 -3.48441 0
M  V30 2068 S 197.744 -0.526953 -4.35624 0
M  V30 2069 H 194.562 -0.19333 -0.684211 0
M  V30 2070 H 197.164 -1.15238 -1.57926 0
M  V30 2071 H 195.868 -1.83805 -3.66938 0
M  V30 2072 H 195.399 -0.15095 -3.9311 0
M  V30 2073 H 197.414 0.631533 -4.92165 0
M  V30 2074 N 196.587 1.43421 -0.653314 0
M  V30 2075 C 197.836 2.01032 -0.164076 0
M  V30 2076 C 198.149 1.52147 1.22926 0
M  V30 2077 O 199.355 2.02031 1.81371 0
M  V30 2078 C 197.811 3.59082 -0.24252 0
M  V30 2079 C 197.419 4.1696 -1.63855 0
M  V30 2080 C 199.163 4.24079 0.18911 0
M  V30 2081 C 197.07 5.67304 -1.67092 0
M  V30 2082 H 196 0.751798 -0.0575769 0
M  V30 2083 H 198.651 1.6439 -0.815362 0
M  V30 2084 H 197.033 3.93125 0.476276 0
M  V30 2085 H 198.207 3.94416 -2.38271 0
M  V30 2086 H 196.522 3.64335 -2.01616 0
M  V30 2087 H 199.119 5.34381 0.184775 0
M  V30 2088 H 199.462 3.98005 1.22056 0
M  V30 2089 H 199.995 3.94918 -0.477938 0
M  V30 2090 H 196.734 5.98145 -2.68146 0
M  V30 2091 H 196.254 5.91904 -0.970014 0
M  V30 2092 H 197.933 6.31344 -1.4147 0
M  V30 2093 N 198.065 0.39524 1.52563 0
M  V30 2094 C 199.013 -0.451859 2.28169 0
M  V30 2095 C 200.007 -1.05792 1.32304 0
M  V30 2096 O 201.213 -0.997718 1.49818 0
M  V30 2097 H 197.588 -0.164481 0.733792 0
M  V30 2098 H 199.559 0.207199 2.9768 0
M  V30 2099 C 198.308 -1.56385 3.10546 0
M  V30 2100 H 197.631 -1.10682 3.84174 0
M  V30 2101 H 199.071 -2.13067 3.66577 0
M  V30 2102 C 197.53 -2.52328 2.23231 0
M  V30 2103 O 198.06 -3.5588 1.86312 0
M  V30 2104 N 196.266 -2.22209 1.87274 0
M  V30 2105 H 195.813 -1.38033 2.17496 0
M  V30 2106 H 195.771 -2.86652 1.29143 0
M  V30 2107 N 199.544 -1.57102 0.125237 0
M  V30 2108 C 200.476 -2.12726 -0.853237 0
M  V30 2109 C 201.489 -1.07145 -1.22571 0
M  V30 2110 O 202.678 -1.34497 -1.17358 0
M  V30 2111 C 199.778 -2.61709 -2.15317 0
M  V30 2112 C 198.951 -3.91456 -1.95143 0
M  V30 2113 C 198.01 -4.25973 -3.08923 0
M  V30 2114 O 197.036 -4.94682 -2.81564 0
M  V30 2115 N 198.238 -3.83795 -4.35524 0
M  V30 2116 H 201.003 -2.97307 -0.377964 0
M  V30 2117 H 198.564 -1.61792 -0.0590011 0
M  V30 2118 H 200.556 -2.81826 -2.90441 0
M  V30 2119 H 199.126 -1.81974 -2.54174 0
M  V30 2120 H 198.346 -3.80185 -1.04177 0
M  V30 2121 H 199.634 -4.76283 -1.78976 0
M  V30 2122 H 199.032 -3.2839 -4.60626 0
M  V30 2123 H 197.589 -4.09008 -5.07499 0
M  V30 2124 N 201.022 0.148545 -1.56898 0
M  V30 2125 C 201.952 1.18524 -2.01182 0
M  V30 2126 C 202.933 1.4489 -0.891123 0
M  V30 2127 O 204.118 1.55836 -1.15882 0
M  V30 2128 C 201.248 2.51879 -2.39112 0
M  V30 2129 C 200.202 2.40038 -3.54353 0
M  V30 2130 C 199.528 3.78089 -3.78091 0
M  V30 2131 C 200.828 1.88577 -4.87069 0
M  V30 2132 H 202.522 0.817029 -2.88036 0
M  V30 2133 H 200.068 0.391575 -1.38574 0
M  V30 2134 H 202.021 3.24627 -2.68692 0
M  V30 2135 H 200.745 2.90532 -1.49193 0
M  V30 2136 H 199.404 1.69742 -3.24936 0
M  V30 2137 H 199.052 4.14175 -2.85426 0
M  V30 2138 H 198.752 3.71028 -4.55645 0
M  V30 2139 H 200.276 4.52387 -4.10095 0
M  V30 2140 H 201.69 2.51117 -5.15377 0
M  V30 2141 H 200.087 1.9241 -5.68417 0
M  V30 2142 H 201.157 0.84136 -4.77545 0
M  V30 2143 N 202.5 1.5196 0.417844 0
M  V30 2144 C 203.746 1.65836 1.16732 0
M  V30 2145 C 204.079 0.382881 1.90388 0
M  V30 2146 O 203.354 -0.618368 1.84408 0
M  V30 2147 C 203.637 2.87466 2.16876 0
M  V30 2148 C 203.49 4.25041 1.47174 0
M  V30 2149 C 204.809 3.04613 3.17646 0
M  V30 2150 H 201.928 0.603515 0.423011 0
M  V30 2151 H 204.57 1.84494 0.454105 0
M  V30 2152 H 202.72 2.71689 2.777 0
M  V30 2153 H 204.392 4.52527 0.895376 0
M  V30 2154 H 202.635 4.26843 0.773806 0
M  V30 2155 H 203.306 5.06176 2.20204 0
M  V30 2156 H 205.782 3.1923 2.66892 0
M  V30 2157 H 204.658 3.91247 3.8499 0
M  V30 2158 H 204.919 2.17541 3.84874 0
M  V30 2159 N 203.978 -0.674533 1.42435 0
M  V30 2160 C 205.394 -0.98769 1.25367 0
M  V30 2161 C 205.594 -2.00879 0.158044 0
M  V30 2162 O 204.65 -2.48075 -0.470633 0
M  V30 2163 C 205.963 -1.49224 2.6106 0
M  V30 2164 C 207.511 -1.61 2.68417 0
M  V30 2165 C 207.986 -2.14852 4.04478 0
M  V30 2166 N 209.477 -2.22185 4.06434 0
M  V30 2167 C 210.212 -2.64928 5.08528 0
M  V30 2168 N 209.708 -3.07121 6.21006 0
M  V30 2169 N 211.501 -2.64679 4.95885 0
M  V30 2170 H 203.652 0.00152503 2.124 0
M  V30 2171 H 205.915 -0.0618434 0.945981 0
M  V30 2172 H 205.621 -0.816453 3.42092 0
M  V30 2173 H 205.495 -2.47094 2.84999 0
M  V30 2174 H 207.882 -2.27686 1.87732 0
M  V30 2175 H 207.963 -0.616195 2.48267 0
M  V30 2176 H 207.607 -1.48775 4.85622 0
M  V30 2177 H 207.537 -3.15024 4.2198 0
M  V30 2178 H 210.028 -1.92435 3.25234 0
M  V30 2179 H 210.341 -3.38423 6.94759 0
M  V30 2180 H 208.686 -3.04978 6.24511 0
M  V30 2181 H 211.877 -2.31078 4.07088 0
M  V30 2182 H 212.05 -2.9767 5.75584 0
M  V30 2183 N 205.456 -1.28612 -0.910864 0
M  V30 2184 C 206.404 -1.1265 -2.03501 0
M  V30 2185 C 207.398 -0.0450054 -1.6934 0
M  V30 2186 O 208.604 -0.203988 -1.7884 0
M  V30 2187 H 204.979 -0.347639 -0.666822 0
M  V30 2188 H 206.95 -2.07849 -2.14106 0
M  V30 2189 C 205.699 -0.808143 -3.38178 0
M  V30 2190 H 205.022 -1.63231 -3.6496 0
M  V30 2191 H 206.462 -0.736426 -4.17556 0
M  V30 2192 C 204.921 0.488226 -3.33344 0
M  V30 2193 O 205.451 1.51766 -3.71927 0
M  V30 2194 N 203.657 0.490009 -2.86439 0
M  V30 2195 H 203.204 -0.348161 -2.55236 0
M  V30 2196 H 203.162 1.35741 -2.83587 0
M  V30 2197 N 206.934 1.1197 -1.10907 0
M  V30 2198 C 208.182 1.83225 -0.852819 0
M  V30 2199 C 208.503 1.84769 0.623341 0
M  V30 2200 O 207.773 1.3143 1.45269 0
M  V30 2201 H 206.353 0.67849 -0.312507 0
M  V30 2202 H 209.015 1.3556 -1.40033 0
M  V30 2203 H 208.111 2.87265 -1.22005 0
M  V30 2204 N 208.412 0.89855 1.29475 0
M  V30 2205 C 209.36 0.365253 2.29714 0
M  V30 2206 C 210.354 -0.534993 1.6073 0
M  V30 2207 O 211.56 -0.417921 1.75081 0
M  V30 2208 H 207.935 0.0994853 0.74539 0
M  V30 2209 H 209.906 1.22406 2.72138 0
M  V30 2210 C 208.655 -0.393159 3.4547 0
M  V30 2211 H 207.978 0.290332 3.98744 0
M  V30 2212 H 209.418 -0.731189 4.17648 0
M  V30 2213 C 207.877 -1.59539 2.9673 0
M  V30 2214 O 208.407 -2.69469 2.97908 0
M  V30 2215 N 206.613 -1.43716 2.52575 0
M  V30 2216 H 206.16 -0.542828 2.51816 0
M  V30 2217 H 206.118 -2.24288 2.20323 0
M  V30 2218 N 209.89 -1.43072 0.660911 0
M  V30 2219 C 210.8 -2.34585 -0.0264163 0
M  V30 2220 C 211.816 -1.54316 -0.803898 0
M  V30 2221 O 212.992 -1.86939 -0.749391 0
M  V30 2222 C 210.057 -3.32689 -0.975639 0
M  V30 2223 C 209.118 -4.2886 -0.194236 0
M  V30 2224 C 208.351 -5.22278 -1.09825 0
M  V30 2225 O 208.574 -5.20299 -2.33763 0
M  V30 2226 O 207.508 -5.99228 -0.566513 0
M  V30 2227 H 211.334 -2.94869 0.727034 0
M  V30 2228 H 208.919 -1.43342 0.42111 0
M  V30 2229 H 210.801 -3.92995 -1.52094 0
M  V30 2230 H 209.476 -2.74898 -1.70918 0
M  V30 2231 H 208.383 -3.72011 0.394835 0
M  V30 2232 H 209.716 -4.89655 0.499899 0
M  V30 2233 N 211.368 -0.403325 -1.52352 0
M  V30 2234 C 212.331 0.413051 -2.25447 0
M  V30 2235 C 213.331 0.978513 -1.276 0
M  V30 2236 O 214.521 0.858305 -1.51587 0
M  V30 2237 C 211.653 1.58087 -3.02029 0
M  V30 2238 H 212.846 -0.227094 -2.99039 0
M  V30 2239 H 210.399 -0.155722 -1.55522 0
M  V30 2240 H 211.134 2.25804 -2.32772 0
M  V30 2241 H 210.919 1.18195 -3.73861 0
M  V30 2242 H 212.409 2.1585 -3.57489 0
M  V30 2243 N 212.846 1.57033 -0.133567 0
M  V30 2244 C 213.778 2.13176 0.841944 0
M  V30 2245 C 214.791 1.07794 1.22001 0
M  V30 2246 O 215.98 1.35117 1.16643 0
M  V30 2247 C 213.08 2.62847 2.13926 0
M  V30 2248 C 212.253 3.92486 1.93064 0
M  V30 2249 C 211.312 4.27605 3.0666 0
M  V30 2250 O 210.338 4.96168 2.78937 0
M  V30 2251 N 211.54 3.861 4.33483 0
M  V30 2252 H 214.305 2.97503 0.362192 0
M  V30 2253 H 211.866 1.61821 0.05042 0
M  V30 2254 H 213.858 2.83363 2.88942 0
M  V30 2255 H 212.428 1.83319 2.53205 0
M  V30 2256 H 211.648 3.80732 1.02159 0
M  V30 2257 H 212.936 4.77225 1.76447 0
M  V30 2258 H 212.334 3.30828 4.58878 0
M  V30 2259 H 210.891 4.11694 5.05323 0
M  V30 2260 N 214.325 -0.140222 1.56975 0
M  V30 2261 C 215.272 -1.17292 1.98774 0
M  V30 2262 C 216.242 -1.4232 0.856408 0
M  V30 2263 O 217.427 -1.54541 1.119 0
M  V30 2264 C 214.567 -2.49973 2.37923 0
M  V30 2265 C 213.68 -2.32062 3.64378 0
M  V30 2266 C 212.815 -3.57825 3.926 0
M  V30 2267 C 211.854 -3.3498 5.12303 0
M  V30 2268 N 210.991 -4.52891 5.36502 0
M  V30 2269 H 215.831 -0.809472 2.86795 0
M  V30 2270 H 213.368 -0.388237 1.41884 0
M  V30 2271 H 215.326 -3.27346 2.58652 0
M  V30 2272 H 213.956 -2.84252 1.52972 0
M  V30 2273 H 213.008 -1.45711 3.51387 0
M  V30 2274 H 214.32 -2.11145 4.51906 0
M  V30 2275 H 213.474 -4.43624 4.13863 0
M  V30 2276 H 212.213 -3.81753 3.03506 0
M  V30 2277 H 211.218 -2.4757 4.90906 0
M  V30 2278 H 212.443 -3.12444 6.02956 0
M  V30 2279 H 210.389 -4.76979 4.50363 0
M  V30 2280 H 210.306 -4.35001 6.18312 0
M  V30 2281 H 211.574 -5.39884 5.62268 0
M  V30 2282 N 215.803 -1.52179 -0.40978 0
M  V30 2283 C 216.713 -1.78364 -1.52392 0
M  V30 2284 C 217.729 -0.669183 -1.60617 0
M  V30 2285 O 218.905 -0.954518 -1.77344 0
M  V30 2286 C 215.97 -1.92822 -2.88133 0
M  V30 2287 C 215.031 -3.16725 -2.898 0
M  V30 2288 C 214.264 -3.30483 -4.19067 0
M  V30 2289 O 214.487 -2.49522 -5.12928 0
M  V30 2290 O 213.421 -4.2363 -4.27576 0
M  V30 2291 H 217.247 -2.72931 -1.33201 0
M  V30 2292 H 214.832 -1.37016 -0.59557 0
M  V30 2293 H 216.714 -2.04157 -3.68643 0
M  V30 2294 H 215.389 -1.01444 -3.07393 0
M  V30 2295 H 214.296 -3.10848 -2.08146 0
M  V30 2296 H 215.629 -4.07881 -2.75489 0
M  V30 2297 N 217.281 0.66697 -1.42791 0
M  V30 2298 C 218.228 1.7803 -1.4688 0
M  V30 2299 C 219.198 1.6299 -0.319919 0
M  V30 2300 O 220.383 1.83432 -0.525118 0
M  V30 2301 C 217.523 3.1611 -1.38451 0
M  V30 2302 C 216.636 3.42381 -2.63437 0
M  V30 2303 C 215.771 4.70232 -2.47094 0
M  V30 2304 C 214.81 4.89564 -3.67415 0
M  V30 2305 N 213.947 6.08661 -3.49966 0
M  V30 2306 H 218.787 1.7387 -2.42019 0
M  V30 2307 H 216.324 0.84868 -1.20149 0
M  V30 2308 H 218.282 3.95914 -1.31561 0
M  V30 2309 H 216.912 3.19374 -0.469033 0
M  V30 2310 H 215.964 2.56774 -2.80662 0
M  V30 2311 H 217.276 3.52557 -3.52853 0
M  V30 2312 H 216.43 5.5814 -2.37834 0
M  V30 2313 H 215.169 4.62353 -1.5518 0
M  V30 2314 H 214.174 4.00096 -3.77099 0
M  V30 2315 H 215.399 4.99282 -4.6032 0
M  V30 2316 H 213.345 6.0194 -2.60776 0
M  V30 2317 H 213.262 6.19733 -4.32975 0
M  V30 2318 H 214.53 6.99226 -3.44532 0
M  V30 2319 N 218.759 1.29093 0.90403 0
M  V30 2320 C 219.989 1.19516 1.68522 0
M  V30 2321 C 220.397 -0.24738 1.87576 0
M  V30 2322 O 219.74 -1.17798 1.40959 0
M  V30 2323 C 219.802 1.83249 3.0929 0
M  V30 2324 C 219.466 3.32531 3.13484 0
M  V30 2325 C 220.463 4.28821 2.93953 0
M  V30 2326 C 218.148 3.73656 3.35688 0
M  V30 2327 C 220.142 5.64212 2.96553 0
M  V30 2328 C 217.829 5.0917 3.37919 0
M  V30 2329 C 218.827 6.04258 3.18373 0
M  V30 2330 O 218.515 7.37298 3.20385 0
M  V30 2331 H 218.247 0.415467 0.533257 0
M  V30 2332 H 220.801 1.70912 1.13922 0
M  V30 2333 H 219.031 1.26358 3.65473 0
M  V30 2334 H 220.72 1.68054 3.69476 0
M  V30 2335 H 221.486 3.98382 2.76616 0
M  V30 2336 H 217.365 3.00101 3.49943 0
M  V30 2337 H 220.909 6.38407 2.81216 0
M  V30 2338 H 216.806 5.39256 3.54787 0
M  V30 2339 H 217.574 7.46048 3.36681 0
M  V30 2340 N 220.237 -1.11381 1.11499 0
M  V30 2341 C 221.167 -2.19509 0.796125 0
M  V30 2342 C 222.148 -1.68458 -0.235796 0
M  V30 2343 O 223.333 -1.93947 -0.0991344 0
M  V30 2344 C 220.463 -3.46475 0.239205 0
M  V30 2345 C 219.417 -4.10744 1.20307 0
M  V30 2346 C 218.743 -5.32293 0.50683 0
M  V30 2347 C 220.043 -4.55597 2.55399 0
M  V30 2348 H 221.737 -2.46439 1.70024 0
M  V30 2349 H 219.283 -1.18446 0.818935 0
M  V30 2350 H 221.236 -4.214 0.00392006 0
M  V30 2351 H 219.96 -3.19006 -0.700206 0
M  V30 2352 H 218.619 -3.37813 1.42399 0
M  V30 2353 H 218.267 -5.01095 -0.437408 0
M  V30 2354 H 217.967 -5.76243 1.1497 0
M  V30 2355 H 219.491 -6.09956 0.280351 0
M  V30 2356 H 220.905 -5.21841 2.37391 0
M  V30 2357 H 219.302 -5.10363 3.15673 0
M  V30 2358 H 220.372 -3.69013 3.14575 0
M  V30 2359 N 221.715 -0.905404 -1.28997 0
M  V30 2360 C 223.126 -0.581953 -1.77398 0
M  V30 2361 C 223.477 0.902552 -1.74208 0
M  V30 2362 O 222.602 1.70584 -1.33154 0
M  V30 2363 C 223.197 -1.04961 -3.22131 0
M  V30 2364 C 221.756 -0.777229 -3.68288 0
M  V30 2365 C 220.903 -1.22109 -2.48967 0
M  V30 2366 H 223.854 -1.08754 -1.15578 0
M  V30 2367 H 223.875 -0.387387 -3.78523 0
M  V30 2368 H 223.387 -2.13008 -3.24421 0
M  V30 2369 H 221.488 0.290383 -3.71467 0
M  V30 2370 H 221.601 -1.37911 -4.58822 0
M  V30 2371 H 219.965 -0.639971 -2.46529 0
M  V30 2372 H 220.748 -2.30972 -2.53982 0
M  V30 2373 N 223.193 1.4272 -0.668489 0
M  V30 2374 C 224.14 2.30796 0.0137489 0
M  V30 2375 C 225.11 1.4561 0.799177 0
M  V30 2376 O 226.295 1.74453 0.772702 0
M  V30 2377 C 223.435 3.31377 0.963507 0
M  V30 2378 C 222.548 4.31655 0.172569 0
M  V30 2379 C 221.683 5.19312 1.1175 0
M  V30 2380 C 220.722 6.11274 0.317886 0
M  V30 2381 N 219.859 6.91504 1.2152 0
M  V30 2382 H 224.699 2.88585 -0.743161 0
M  V30 2383 H 222.236 1.42154 -0.378226 0
M  V30 2384 H 224.194 3.88214 1.52792 0
M  V30 2385 H 222.824 2.75202 1.68712 0
M  V30 2386 H 221.876 3.76988 -0.508374 0
M  V30 2387 H 223.188 4.96779 -0.448527 0
M  V30 2388 H 222.342 5.80851 1.75206 0
M  V30 2389 H 221.081 4.5435 1.77249 0
M  V30 2390 H 220.086 5.48809 -0.329918 0
M  V30 2391 H 221.311 6.78283 -0.332917 0
M  V30 2392 H 219.257 6.29176 1.85671 0
M  V30 2393 H 219.174 7.53209 0.649036 0
M  V30 2394 H 220.442 7.57535 1.83742 0
M  V30 2395 N 224.671 0.411399 1.52136 0
M  V30 2396 C 225.601 -0.404015 2.29978 0
M  V30 2397 C 226.582 -1.04412 1.34284 0
M  V30 2398 O 227.767 -1.0527 1.63192 0
M  V30 2399 C 224.897 -1.5197 3.12286 0
M  V30 2400 C 223.851 -1.00448 4.16046 0
M  V30 2401 C 223.177 -2.21393 4.86712 0
M  V30 2402 C 224.477 -0.0569336 5.22269 0
M  V30 2403 H 226.171 0.245529 2.98392 0
M  V30 2404 H 223.717 0.119525 1.43503 0
M  V30 2405 H 225.67 -2.09715 3.6551 0
M  V30 2406 H 224.394 -2.19716 2.41646 0
M  V30 2407 H 223.053 -0.449421 3.63835 0
M  V30 2408 H 222.701 -2.87699 4.12599 0
M  V30 2409 H 222.401 -1.87571 5.56858 0
M  V30 2410 H 223.925 -2.7974 5.4275 0
M  V30 2411 H 225.339 -0.54325 5.7072 0
M  V30 2412 H 223.736 0.192594 5.99791 0
M  V30 2413 H 224.806 0.887663 4.76706 0
M  V30 2414 N 226.149 -1.5696 0.141893 0
M  V30 2415 C 227.398 -1.95135 -0.510427 0
M  V30 2416 C 227.711 -1.02896 -1.66348 0
M  V30 2417 O 228.917 -1.30629 -2.38009 0
M  V30 2418 C 227.373 -3.46876 -0.959427 0
M  V30 2419 C 226.981 -4.47691 0.166419 0
M  V30 2420 C 228.725 -3.93927 -1.58183 0
M  V30 2421 C 226.632 -5.90636 -0.300565 0
M  V30 2422 H 225.562 -0.728494 -0.194454 0
M  V30 2423 H 228.213 -1.8211 0.22542 0
M  V30 2424 H 226.595 -3.55215 -1.75038 0
M  V30 2425 H 227.769 -4.51043 0.94325 0
M  V30 2426 H 226.084 -4.10527 0.696905 0
M  V30 2427 H 228.681 -4.98158 -1.94275 0
M  V30 2428 H 229.024 -3.3519 -2.46888 0
M  V30 2429 H 229.557 -3.88484 -0.855863 0
M  V30 2430 H 226.296 -6.5318 0.550989 0
M  V30 2431 H 225.816 -5.90655 -1.04338 0
M  V30 2432 H 227.495 -6.42588 -0.754265 0
M  V30 2433 N 227.627 0.131896 -1.57047 0
M  V30 2434 C 228.852 0.860418 -1.8871 0
M  V30 2435 C 229.277 1.73251 -0.73251 0
M  V30 2436 O 228.635 1.785 0.317429 0
M  V30 2437 C 228.683 1.68047 -3.19049 0
M  V30 2438 O 227.787 2.7862 -3.04047 0
M  V30 2439 H 227.128 0.238743 -0.619595 0
M  V30 2440 H 229.658 0.118169 -2.04258 0
M  V30 2441 H 229.668 2.07238 -3.51449 0
M  V30 2442 H 228.343 1.04018 -4.02682 0
M  V30 2443 H 226.92 2.42726 -2.83088 0
M  V30 2444 N 229.106 1.52395 0.401703 0
M  V30 2445 C 230.354 1.66488 1.14569 0
M  V30 2446 C 230.675 0.400897 1.90835 0
M  V30 2447 O 229.945 -0.584415 1.8698 0
M  V30 2448 H 228.525 0.613672 0.425929 0
M  V30 2449 H 231.187 1.89464 0.457093 0
M  V30 2450 H 230.283 2.50942 1.85566 0
M  V30 2451 N 230.584 -0.659388 1.43143 0
M  V30 2452 C 231.494 -1.80167 1.50256 0
M  V30 2453 C 232.51 -1.69571 0.390106 0
M  V30 2454 O 233.686 -1.90849 0.643319 0
M  V30 2455 C 230.751 -3.16409 1.41725 0
M  V30 2456 C 229.812 -3.38848 2.63591 0
M  V30 2457 C 229.045 -4.68591 2.55458 0
M  V30 2458 O 229.268 -5.47532 1.59891 0
M  V30 2459 O 228.202 -4.92614 3.45854 0
M  V30 2460 H 232.028 -1.77121 2.46702 0
M  V30 2461 H 229.613 -0.817092 1.25076 0
M  V30 2462 H 231.495 -3.9768 1.39387 0
M  V30 2463 H 230.17 -3.20059 0.484118 0
M  V30 2464 H 229.077 -2.57366 2.71502 0
M  V30 2465 H 230.41 -3.4004 3.55856 0
M  V30 2466 N 232.062 -1.29571 -0.897171 0
M  V30 2467 C 233.292 -1.20408 -1.67886 0
M  V30 2468 C 233.7 0.237429 -1.87704 0
M  V30 2469 O 233.043 1.17048 -1.41582 0
M  V30 2470 C 233.105 -1.84887 -3.08314 0
M  V30 2471 C 232.769 -3.34189 -3.11716 0
M  V30 2472 C 233.766 -4.30374 -2.91675 0
M  V30 2473 C 231.451 -3.75431 -3.33701 0
M  V30 2474 C 233.445 -5.65776 -2.93557 0
M  V30 2475 C 231.132 -5.10955 -3.35214 0
M  V30 2476 C 232.13 -6.05938 -3.15164 0
M  V30 2477 O 231.818 -7.38987 -3.1647 0
M  V30 2478 H 231.55 -0.418289 -0.531046 0
M  V30 2479 H 234.104 -1.71514 -1.13014 0
M  V30 2480 H 232.334 -1.28295 -3.64798 0
M  V30 2481 H 234.023 -1.70011 -3.6858 0
M  V30 2482 H 234.789 -3.99844 -2.74499 0
M  V30 2483 H 230.668 -3.01953 -3.48347 0
M  V30 2484 H 234.212 -6.39889 -2.77826 0
M  V30 2485 H 230.109 -5.4113 -3.51922 0
M  V30 2486 H 230.877 -7.47823 -3.3272 0
M  V30 2487 N 233.54 1.10788 -1.12088 0
M  V30 2488 C 234.789 1.82036 -0.868659 0
M  V30 2489 C 235.102 1.85929 0.607426 0
M  V30 2490 O 236.308 2.53346 0.97613 0
M  V30 2491 C 234.764 3.26951 -1.50435 0
M  V30 2492 C 234.372 3.31367 -3.01496 0
M  V30 2493 C 236.116 4.03053 -1.33225 0
M  V30 2494 C 234.023 4.7072 -3.58017 0
M  V30 2495 H 232.953 0.682108 -0.321318 0
M  V30 2496 H 235.604 1.24618 -1.34694 0
M  V30 2497 H 233.986 3.84343 -0.953735 0
M  V30 2498 H 235.16 2.83819 -3.6302 0
M  V30 2499 H 233.475 2.6875 -3.18061 0
M  V30 2500 H 236.072 5.05981 -1.72878 0
M  V30 2501 H 236.415 4.15387 -0.275529 0
M  V30 2502 H 236.948 3.52066 -1.85188 0
M  V30 2503 H 233.687 4.63585 -4.63432 0
M  V30 2504 H 233.207 5.1865 -3.01268 0
M  V30 2505 H 234.886 5.39685 -3.56859 0
M  V30 2506 N 235.018 0.912232 1.28515 0
M  V30 2507 C 236.266 0.543523 1.94654 0
M  V30 2508 C 236.587 -0.9155 1.72173 0
M  V30 2509 O 235.857 -1.64708 1.06058 0
M  V30 2510 H 234.437 0.198017 0.720277 0
M  V30 2511 H 237.099 1.16126 1.56527 0
M  V30 2512 H 236.195 0.736684 3.03281 0
M  V30 2513 N 236.496 -1.42363 0.676048 0
M  V30 2514 C 237.459 -2.29199 0.00766941 0
M  V30 2515 C 238.459 -1.43389 -0.727745 0
M  V30 2516 O 239.649 -1.64764 -0.56556 0
M  V30 2517 C 236.781 -3.2591 -0.999785 0
M  V30 2518 H 237.974 -2.89794 0.771988 0
M  V30 2519 H 235.527 -1.50024 0.438468 0
M  V30 2520 H 236.262 -2.70256 -1.79255 0
M  V30 2521 H 236.047 -3.89202 -0.475829 0
M  V30 2522 H 237.537 -3.91028 -1.46583 0
M  V30 2523 N 237.974 -0.419461 -1.51915 0
M  V30 2524 C 238.904 0.391813 -2.30189 0
M  V30 2525 C 239.885 1.03699 -1.34836 0
M  V30 2526 O 241.07 1.04403 -1.63748 0
M  V30 2527 C 238.2 1.50312 -3.13087 0
M  V30 2528 C 237.154 0.9824 -4.16573 0
M  V30 2529 C 236.48 2.18809 -4.8788 0
M  V30 2530 C 237.78 0.0292356 -5.22292 0
M  V30 2531 H 239.474 -0.26135 -2.98257 0
M  V30 2532 H 237.02 -0.127134 -1.43438 0
M  V30 2533 H 238.973 2.07773 -3.66617 0
M  V30 2534 H 237.697 2.18431 -2.42807 0
M  V30 2535 H 236.356 0.430119 -3.64068 0
M  V30 2536 H 236.004 2.85507 -4.14119 0
M  V30 2537 H 235.704 1.84615 -5.57845 0
M  V30 2538 H 237.228 2.76858 -5.44226 0
M  V30 2539 H 238.642 0.512976 -5.71 0
M  V30 2540 H 237.039 -0.2244 -5.9968 0
M  V30 2541 H 238.109 -0.912931 -4.76228 0
M  V30 2542 N 239.452 1.56882 -0.150215 0
M  V30 2543 C 240.415 2.1573 0.774157 0
M  V30 2544 C 241.415 1.0999 1.17298 0
M  V30 2545 O 242.605 1.35613 1.09338 0
M  V30 2546 C 239.737 2.72302 2.05096 0
M  V30 2547 H 240.93 2.98752 0.262201 0
M  V30 2548 H 238.483 1.55985 0.099248 0
M  V30 2549 H 239.218 1.92956 2.6065 0
M  V30 2550 H 239.003 3.49665 1.77416 0
M  V30 2551 H 240.493 3.17632 2.71109 0
M  V30 2552 N 240.93 -0.123565 1.57115 0
M  V30 2553 C 241.863 -1.18202 1.95201 0
M  V30 2554 C 242.841 -1.40349 0.821031 0
M  V30 2555 O 244.025 -1.54578 1.07879 0
M  V30 2556 C 241.152 -2.53671 2.24429 0
M  V30 2557 C 240.198 -2.4798 3.46999 0
M  V30 2558 S 241.031 -1.92389 4.99747 0
M  V30 2559 C 242.187 -3.2954 5.32123 0
M  V30 2560 H 242.42 -0.857212 2.84674 0
M  V30 2561 H 239.953 -0.33014 1.50829 0
M  V30 2562 H 241.911 -3.3162 2.41947 0
M  V30 2563 H 240.572 -2.83332 1.35579 0
M  V30 2564 H 239.765 -3.47758 3.64801 0
M  V30 2565 H 239.367 -1.7815 3.28844 0
M  V30 2566 H 241.659 -4.25736 5.27025 0
M  V30 2567 H 242.602 -3.16569 6.33395 0
M  V30 2568 H 243.01 -3.27758 4.59603 0
M  V30 2569 N 242.408 -1.52605 -0.393616 0
M  V30 2570 C 243.633 -1.71592 -1.16495 0
M  V30 2571 C 244.058 -0.43133 -1.83088 0
M  V30 2572 O 243.416 0.612523 -1.7064 0
M  V30 2573 C 243.464 -2.86318 -2.19213 0
M  V30 2574 O 242.568 -2.52969 -3.257 0
M  V30 2575 H 241.909 -0.570734 -0.33935 0
M  V30 2576 H 244.439 -1.99377 -0.459324 0
M  V30 2577 H 244.449 -3.1168 -2.63286 0
M  V30 2578 H 243.124 -3.79511 -1.7013 0
M  V30 2579 H 241.701 -2.38332 -2.86797 0
M  V30 2580 N 243.887 0.651787 -1.4349 0
M  V30 2581 C 244.797 1.79368 -1.5121 0
M  V30 2582 C 245.813 1.69361 -0.399093 0
M  V30 2583 O 246.989 1.90505 -0.653431 0
M  V30 2584 C 244.054 3.15653 -1.43401 0
M  V30 2585 C 243.115 3.37446 -2.65384 0
M  V30 2586 C 242.348 4.67229 -2.57939 0
M  V30 2587 O 242.571 5.46676 -1.62792 0
M  V30 2588 O 241.505 4.90773 -3.48462 0
M  V30 2589 H 245.331 1.7581 -2.47638 0
M  V30 2590 H 242.916 0.810447 -1.25507 0
M  V30 2591 H 244.798 3.96935 -1.41494 0
M  V30 2592 H 243.473 3.19798 -0.501085 0
M  V30 2593 H 242.38 2.55923 -2.72863 0
M  V30 2594 H 243.713 3.38148 -3.57654 0
M  V30 2595 N 245.365 1.30045 0.890287 0
M  V30 2596 C 246.776 1.16738 1.45702 0
M  V30 2597 C 247.127 -0.233939 1.948 0
M  V30 2598 O 246.252 -1.13021 1.84541 0
M  V30 2599 C 246.847 2.11313 2.64825 0
M  V30 2600 C 245.406 2.02001 3.17604 0
M  V30 2601 C 244.553 2.01699 1.90296 0
M  V30 2602 H 247.504 1.42392 0.700726 0
M  V30 2603 H 247.525 1.69086 3.40867 0
M  V30 2604 H 247.037 3.13294 2.2906 0
M  V30 2605 H 245.138 1.03142 3.5804 0
M  V30 2606 H 245.251 2.90128 3.81264 0
M  V30 2607 H 243.615 1.46427 2.08402 0
M  V30 2608 H 244.398 3.05402 1.56795 0
M  V30 2609 N 246.843 -1.10192 1.12674 0
M  V30 2610 C 247.791 -2.18694 0.792196 0
M  V30 2611 C 248.785 -1.67938 -0.222058 0
M  V30 2612 O 249.991 -1.79822 -0.0800074 0
M  V30 2613 H 246.366 -0.713223 0.238364 0
M  V30 2614 H 248.337 -2.44149 1.71564 0
M  V30 2615 C 247.086 -3.46682 0.265859 0
M  V30 2616 H 246.409 -3.86101 1.03761 0
M  V30 2617 H 247.849 -4.23942 0.0701128 0
M  V30 2618 C 246.308 -3.21506 -1.00675 0
M  V30 2619 O 246.838 -3.43408 -2.08408 0
M  V30 2620 N 245.044 -2.75158 -0.934692 0
M  V30 2621 H 244.591 -2.57535 -0.0578604 0
M  V30 2622 H 244.549 -2.58691 -1.7868 0
M  V30 2623 N 248.321 -0.919034 -1.28029 0
M  V30 2624 C 249.284 -0.416182 -2.2539 0
M  V30 2625 C 250.284 0.460438 -1.54067 0
M  V30 2626 O 251.474 0.262744 -1.72207 0
M  V30 2627 C 248.606 0.402707 -3.38513 0
M  V30 2628 H 249.799 -1.27629 -2.71387 0
M  V30 2629 H 247.352 -0.698919 -1.39803 0
M  V30 2630 H 248.087 1.282 -2.97885 0
M  V30 2631 H 247.872 -0.225698 -3.9145 0
M  V30 2632 H 249.362 0.745191 -4.10897 0
M  V30 2633 N 249.799 1.42003 -0.683588 0
M  V30 2634 C 251.047 2.01015 -0.209101 0
M  V30 2635 C 251.368 1.54365 1.19149 0
M  V30 2636 O 250.638 0.769083 1.80172 0
M  V30 2637 H 249.218 0.743294 -0.074315 0
M  V30 2638 H 251.88 1.73798 -0.882066 0
M  V30 2639 H 250.976 3.11343 -0.2172 0
M  V30 2640 N 251.277 0.427512 1.51691 0
M  V30 2641 C 252.502 -0.143601 2.06902 0
M  V30 2642 C 252.927 -1.36536 1.29382 0
M  V30 2643 O 252.285 -1.78289 0.329043 0
M  V30 2644 C 252.333 -0.454207 3.57728 0
M  V30 2645 O 251.437 -1.54228 3.82475 0
M  V30 2646 H 250.778 -0.00617128 0.663971 0
M  V30 2647 H 253.308 0.606014 1.95419 0
M  V30 2648 H 253.318 -0.707525 4.01818 0
M  V30 2649 H 251.993 0.438812 4.13579 0
M  V30 2650 H 250.57 -1.2797 3.50254 0
M  V30 2651 N 252.755 -1.56801 0.158532 0
M  V30 2652 C 254.032 -1.88131 -0.535357 0
M  V30 2653 C 254.412 -1.06638 -1.82186 0
M  V30 2654 O 253.76 -0.156533 -2.27963 0
M  V30 2655 C 253.97 -3.39949 -0.789653 0
M  V30 2656 C 255.318 -4.09416 -1.12533 0
M  V30 2657 O 256.342 -3.45194 -0.878622 0
M  V30 2658 O 255.201 -5.22855 -1.59014 0
M  V30 2659 H 252.295 -0.780143 -0.27442 0
M  V30 2660 H 254.841 -1.68564 0.19601 0
M  V30 2661 H 253.613 -3.91115 0.120353 0
M  V30 2662 H 253.236 -3.65084 -1.57479 0
M  V30 2663 N 254.233 0.115231 -1.57178 0
M  V30 2664 C 255.479 0.82357 -1.85325 0
M  V30 2665 C 255.812 1.79349 -0.744814 0
M  V30 2666 O 255.087 1.92899 0.249024 0
M  V30 2667 C 255.37 1.57014 -3.24066 0
M  V30 2668 C 255.223 0.619565 -4.45513 0
M  V30 2669 C 256.542 2.52545 -3.60429 0
M  V30 2670 H 253.661 0.297948 -0.674089 0
M  V30 2671 H 256.303 0.0877138 -1.89797 0
M  V30 2672 H 254.453 2.19742 -3.20383 0
M  V30 2673 H 256.125 0.000837639 -4.613 0
M  V30 2674 H 254.368 -0.0686174 -4.33746 0
M  V30 2675 H 255.039 1.17866 -5.3927 0
M  V30 2676 H 257.515 1.9992 -3.64926 0
M  V30 2677 H 256.391 3.01811 -4.58477 0
M  V30 2678 H 256.652 3.35383 -2.88047 0
M  V30 2679 N 255.711 1.52812 0.385517 0
M  V30 2680 C 256.957 1.68275 1.13188 0
M  V30 2681 C 257.29 0.423179 1.89533 0
M  V30 2682 O 256.565 -0.579113 1.85679 0
M  V30 2683 C 256.848 2.92001 2.1073 0
M  V30 2684 C 256.701 4.28067 1.38125 0
M  V30 2685 C 258.02 3.11283 3.11113 0
M  V30 2686 H 255.139 0.612352 0.410115 0
M  V30 2687 H 257.781 1.85415 0.414869 0
M  V30 2688 H 255.931 2.77519 2.71874 0
M  V30 2689 H 257.603 4.54324 0.799187 0
M  V30 2690 H 255.846 4.28388 0.683092 0
M  V30 2691 H 256.517 5.10733 2.09417 0
M  V30 2692 H 258.993 3.2482 2.6006 0
M  V30 2693 H 257.869 3.99325 3.76605 0
M  V30 2694 H 258.13 2.25656 3.80173 0
M  V30 2695 N 257.189 -0.644168 1.43834 0
M  V30 2696 C 258.414 -1.43642 1.49605 0
M  V30 2697 C 258.839 -1.8773 0.117913 0
M  V30 2698 O 258.197 -1.57938 -0.890239 0
M  V30 2699 C 258.245 -2.6416 2.45463 0
M  V30 2700 O 257.349 -3.63538 1.94714 0
M  V30 2701 H 256.69 -0.430329 0.50568 0
M  V30 2702 H 259.22 -0.787448 1.8884 0
M  V30 2703 H 259.23 -3.11864 2.63068 0
M  V30 2704 H 257.905 -2.31414 3.45572 0
M  V30 2705 H 256.482 -3.2273 1.86814 0
M  V30 2706 N 258.668 -1.30515 -0.883378 0
M  V30 2707 C 259.601 -1.11359 -1.99184 0
M  V30 2708 C 260.579 -0.0207858 -1.62587 0
M  V30 2709 O 261.763 -0.174646 -1.87689 0
M  V30 2710 C 258.89 -0.69871 -3.31415 0
M  V30 2711 C 257.936 -1.79261 -3.86998 0
M  V30 2712 S 258.769 -3.39536 -4.14096 0
M  V30 2713 C 259.925 -2.99954 -5.49344 0
M  V30 2714 H 260.158 -2.052 -2.15128 0
M  V30 2715 H 257.691 -1.14847 -1.03196 0
M  V30 2716 H 259.649 -0.466075 -4.07846 0
M  V30 2717 H 258.31 0.220368 -3.13326 0
M  V30 2718 H 257.503 -1.45464 -4.82552 0
M  V30 2719 H 257.105 -1.97961 -3.17313 0
M  V30 2720 H 259.397 -2.48013 -6.30473 0
M  V30 2721 H 260.34 -3.9442 -5.8808 0
M  V30 2722 H 260.748 -2.37775 -5.1198 0
M  V30 2723 N 260.146 1.09593 -1.13257 0
M  V30 2724 C 261.093 2.1618 -0.808381 0
M  V30 2725 C 262.063 1.64517 0.228754 0
M  V30 2726 O 263.248 1.9053 0.101381 0
M  V30 2727 C 260.388 3.43973 -0.278675 0
M  V30 2728 C 259.501 4.09545 -1.37466 0
M  V30 2729 C 258.636 5.25088 -0.803479 0
M  V30 2730 C 257.675 5.82579 -1.87799 0
M  V30 2731 N 256.812 6.89486 -1.32488 0
M  V30 2732 H 261.652 2.43254 -1.72138 0
M  V30 2733 H 259.189 1.19392 -0.859294 0
M  V30 2734 H 261.147 4.17174 0.0465583 0
M  V30 2735 H 259.777 3.17223 0.597459 0
M  V30 2736 H 258.829 3.34226 -1.81652 0
M  V30 2737 H 260.141 4.48307 -2.18684 0
M  V30 2738 H 259.295 6.05178 -0.429427 0
M  V30 2739 H 258.034 4.87684 0.0397956 0
M  V30 2740 H 257.039 5.01152 -2.26113 0
M  V30 2741 H 258.264 6.22045 -2.72463 0
M  V30 2742 H 256.21 6.54064 -0.503575 0
M  V30 2743 H 256.127 7.27007 -2.07355 0
M  V30 2744 H 257.395 7.73336 -0.978336 0
M  V30 2745 N 261.624 0.925811 1.2754 0
M  V30 2746 C 262.554 0.440748 2.29303 0
M  V30 2747 C 263.535 -0.497971 1.62648 0
M  V30 2748 O 264.72 -0.403126 1.8997 0
M  V30 2749 C 261.85 -0.309048 3.45922 0
M  V30 2750 C 260.804 0.54166 4.24559 0
M  V30 2751 C 260.13 -0.337191 5.33636 0
M  V30 2752 C 261.43 1.80516 4.90114 0
M  V30 2753 H 263.124 1.29121 2.70126 0
M  V30 2754 H 260.67 0.622323 1.29858 0
M  V30 2755 H 262.623 -0.659315 4.1621 0
M  V30 2756 H 261.347 -1.19352 3.04011 0
M  V30 2757 H 260.006 0.874609 3.56014 0
M  V30 2758 H 259.654 -1.22056 4.87966 0
M  V30 2759 H 259.354 0.228497 5.87156 0
M  V30 2760 H 260.878 -0.683072 6.06767 0
M  V30 2761 H 262.292 1.52307 5.52698 0
M  V30 2762 H 260.689 2.3142 5.53683 0
M  V30 2763 H 261.759 2.52581 4.13921 0
M  V30 2764 N 263.102 -1.41638 0.69111 0
M  V30 2765 C 264.049 -2.30789 0.0229705 0
M  V30 2766 C 265.019 -1.46863 -0.775911 0
M  V30 2767 O 266.204 -1.75661 -0.74485 0
M  V30 2768 C 263.344 -3.32868 -0.910666 0
M  V30 2769 C 262.457 -4.31875 -0.103874 0
M  V30 2770 C 261.592 -5.21024 -1.03475 0
M  V30 2771 C 260.631 -6.11702 -0.220598 0
M  V30 2772 N 259.768 -6.93349 -1.10504 0
M  V30 2773 H 264.608 -2.87366 0.788978 0
M  V30 2774 H 262.145 -1.41535 0.400794 0
M  V30 2775 H 264.103 -3.90596 -1.46597 0
M  V30 2776 H 262.733 -2.77851 -1.64312 0
M  V30 2777 H 261.785 -3.76131 0.568285 0
M  V30 2778 H 263.097 -4.96003 0.527504 0
M  V30 2779 H 262.251 -5.83565 -1.65943 0
M  V30 2780 H 260.99 -4.57112 -1.69999 0
M  V30 2781 H 259.995 -5.48215 0.417187 0
M  V30 2782 H 261.22 -6.77668 0.440784 0
M  V30 2783 H 259.166 -6.3205 -1.75638 0
M  V30 2784 H 259.083 -7.54146 -0.529125 0
M  V30 2785 H 260.351 -7.60362 -1.71667 0
M  V30 2786 N 264.58 -0.43555 -1.51462 0
M  V30 2787 C 265.543 0.365137 -2.26273 0
M  V30 2788 C 266.543 0.951227 -1.29647 0
M  V30 2789 O 267.733 0.825958 -1.53374 0
M  V30 2790 C 264.865 1.51645 -3.05314 0
M  V30 2791 H 266.058 -0.290474 -2.9849 0
M  V30 2792 H 263.611 -0.188676 -1.55157 0
M  V30 2793 H 264.346 2.20816 -2.3751 0
M  V30 2794 H 264.131 1.10238 -3.76284 0
M  V30 2795 H 265.621 2.08218 -3.61987 0
M  V30 2796 N 266.058 1.56714 -0.166846 0
M  V30 2797 C 266.968 2.21331 0.777791 0
M  V30 2798 C 267.984 1.20358 1.25658 0
M  V30 2799 O 269.16 1.53005 1.30964 0
M  V30 2800 C 266.225 2.83787 1.99163 0
M  V30 2801 C 265.286 3.99947 1.56016 0
M  V30 2802 C 264.519 4.59415 2.71613 0
M  V30 2803 O 264.742 4.17769 3.88362 0
M  V30 2804 O 263.676 5.49359 2.45945 0
M  V30 2805 H 267.502 3.02605 0.257636 0
M  V30 2806 H 265.087 1.49275 0.0611393 0
M  V30 2807 H 266.969 3.23405 2.70161 0
M  V30 2808 H 265.644 2.05513 2.50092 0
M  V30 2809 H 264.551 3.65007 0.819809 0
M  V30 2810 H 265.884 4.79801 1.09782 0
M  V30 2811 N 267.536 -0.106894 1.57237 0
M  V30 2812 C 268.483 -1.13049 2.01217 0
M  V30 2813 C 269.453 -1.40471 0.886403 0
M  V30 2814 O 270.638 -1.52133 1.15153 0
M  V30 2815 C 267.778 -2.4487 2.43172 0
M  V30 2816 C 266.891 -2.24281 3.69218 0
M  V30 2817 C 266.026 -3.49417 4.00101 0
M  V30 2818 C 265.065 -3.24038 5.19294 0
M  V30 2819 N 264.202 -4.41409 5.45988 0
M  V30 2820 H 269.042 -0.748456 2.88448 0
M  V30 2821 H 266.579 -0.358054 1.42676 0
M  V30 2822 H 268.537 -3.21786 2.65537 0
M  V30 2823 H 267.167 -2.80944 1.58967 0
M  V30 2824 H 266.219 -1.38224 3.54398 0
M  V30 2825 H 267.531 -2.01512 4.56283 0
M  V30 2826 H 266.685 -4.34746 4.2318 0
M  V30 2827 H 265.424 -3.75229 3.11535 0
M  V30 2828 H 264.429 -2.37102 4.96047 0
M  V30 2829 H 265.654 -2.99584 6.09447 0
M  V30 2830 H 263.6 -4.67319 4.60379 0
M  V30 2831 H 263.517 -4.21788 6.274 0
M  V30 2832 H 264.785 -5.27836 5.73593 0
M  V30 2833 N 269.014 -1.53014 -0.377408 0
M  V30 2834 C 269.961 -1.78616 -1.46168 0
M  V30 2835 C 270.931 -0.629917 -1.53692 0
M  V30 2836 O 272.116 -0.870861 -1.69766 0
M  V30 2837 C 269.256 -1.97123 -2.8326 0
M  V30 2838 C 268.369 -3.24831 -2.84796 0
M  V30 2839 C 267.504 -3.33591 -4.13389 0
M  V30 2840 C 266.543 -4.55377 -4.09021 0
M  V30 2841 N 265.68 -4.61355 -5.29241 0
M  V30 2842 H 270.52 -2.71142 -1.23637 0
M  V30 2843 H 268.057 -1.34326 -0.599577 0
M  V30 2844 H 270.015 -2.05839 -3.62886 0
M  V30 2845 H 268.645 -1.07946 -3.04216 0
M  V30 2846 H 267.697 -3.25128 -1.97474 0
M  V30 2847 H 269.009 -4.14523 -2.77439 0
M  V30 2848 H 268.163 -3.41554 -5.01424 0
M  V30 2849 H 266.902 -2.41894 -4.23484 0
M  V30 2850 H 265.907 -4.47527 -3.19373 0
M  V30 2851 H 267.132 -5.48402 -4.00539 0
M  V30 2852 H 265.078 -3.72554 -5.39944 0
M  V30 2853 H 264.995 -5.44935 -5.24006 0
M  V30 2854 H 266.263 -4.73586 -6.19141 0
M  V30 2855 N 270.492 0.636531 -1.44174 0
M  V30 2856 C 271.74 1.39343 -1.46383 0
M  V30 2857 C 272.061 1.94766 -0.0955715 0
M  V30 2858 O 271.331 1.75452 0.871395 0
M  V30 2859 H 269.911 0.517199 -0.538994 0
M  V30 2860 H 272.573 0.74957 -1.7991 0
M  V30 2861 H 271.669 2.22746 -2.18611 0
M  V30 2862 N 271.97 1.30982 0.876444 0
M  V30 2863 C 272.918 1.18006 2.00443 0
M  V30 2864 C 273.912 0.0898871 1.69161 0
M  V30 2865 O 275.118 0.251333 1.78237 0
M  V30 2866 H 271.493 0.365196 0.65737 0
M  V30 2867 H 273.464 2.13453 2.0852 0
M  V30 2868 C 272.213 0.897521 3.35916 0
M  V30 2869 H 271.536 1.7285 3.60504 0
M  V30 2870 H 272.976 0.846874 4.15456 0
M  V30 2871 C 271.435 -0.399674 3.34521 0
M  V30 2872 O 271.965 -1.41852 3.7582 0
M  V30 2873 N 270.171 -0.413893 2.87637 0
M  V30 2874 H 269.718 0.41571 2.54224 0
M  V30 2875 H 269.676 -1.28175 2.87086 0
M  V30 2876 N 273.449 -1.08991 1.13837 0
M  V30 2877 C 274.399 -2.1393 0.788535 0
M  V30 2878 C 275.383 -1.59396 -0.219516 0
M  V30 2879 O 276.575 -1.76985 -0.0227557 0
M  V30 2880 C 273.704 -3.42305 0.261147 0
M  V30 2881 C 272.79 -4.03736 1.29837 0
M  V30 2882 N 273.181 -4.39659 2.50067 0
M  V30 2883 C 271.479 -4.30993 1.1472 0
M  V30 2884 C 272.18 -4.88113 3.16419 0
M  V30 2885 N 271.156 -4.85846 2.43832 0
M  V30 2886 H 274.958 -2.39516 1.70322 0
M  V30 2887 H 272.472 -1.26263 1.02134 0
M  V30 2888 H 274.469 -4.16899 -0.0077405 0
M  V30 2889 H 273.129 -3.18172 -0.647805 0
M  V30 2890 H 274.14 -4.30878 2.8734 0
M  V30 2891 H 270.817 -4.16444 0.296773 0
M  V30 2892 H 272.207 -5.25336 4.18894 0
M  V30 2893 N 274.927 -0.932562 -1.27047 0
M  V30 2894 C 276.157 -0.591173 -1.97961 0
M  V30 2895 C 276.565 0.836219 -1.69717 0
M  V30 2896 O 275.908 1.56801 -0.957036 0
M  V30 2897 C 275.97 -0.743082 -3.51736 0
M  V30 2898 C 275.634 -2.1435 -4.03613 0
M  V30 2899 C 276.631 -3.11815 -4.16014 0
M  V30 2900 C 274.316 -2.46175 -4.37839 0
M  V30 2901 C 276.31 -4.39211 -4.61923 0
M  V30 2902 C 273.997 -3.73806 -4.83438 0
M  V30 2903 C 274.995 -4.70137 -4.95439 0
M  V30 2904 O 274.683 -5.95496 -5.40037 0
M  V30 2905 H 274.415 -0.222375 -0.638377 0
M  V30 2906 H 276.969 -1.25317 -1.62742 0
M  V30 2907 H 275.199 -0.0239739 -3.86693 0
M  V30 2908 H 276.888 -0.40603 -4.03864 0
M  V30 2909 H 277.654 -2.88549 -3.89826 0
M  V30 2910 H 273.533 -1.71936 -4.27737 0
M  V30 2911 H 277.077 -5.14404 -4.71205 0
M  V30 2912 H 272.974 -3.96888 -5.09068 0
M  V30 2913 H 273.742 -5.98554 -5.58279 0
M  V30 2914 N 276.405 1.4127 -0.698611 0
M  V30 2915 C 277.654 2.00408 -0.227949 0
M  V30 2916 C 277.967 1.55981 1.18023 0
M  V30 2917 O 279.173 2.07699 1.74852 0
M  V30 2918 C 277.629 3.58129 -0.356636 0
M  V30 2919 C 277.237 4.11536 -1.77037 0
M  V30 2920 C 278.981 4.24466 0.0540969 0
M  V30 2921 C 276.888 5.61701 -1.85055 0
M  V30 2922 H 275.818 0.749586 -0.0814657 0
M  V30 2923 H 278.469 1.61713 -0.867249 0
M  V30 2924 H 276.851 3.94442 0.350965 0
M  V30 2925 H 278.025 3.86636 -2.50698 0
M  V30 2926 H 276.34 3.57736 -2.13105 0
M  V30 2927 H 278.937 5.34698 0.0146723 0
M  V30 2928 H 279.28 4.01687 1.09332 0
M  V30 2929 H 279.813 3.93198 -0.603337 0
M  V30 2930 H 276.552 5.89312 -2.8704 0
M  V30 2931 H 276.072 5.88519 -1.15783 0
M  V30 2932 H 277.751 6.26524 -1.61484 0
M  V30 2933 N 277.883 0.443576 1.51229 0
M  V30 2934 C 278.813 -0.355142 2.30783 0
M  V30 2935 C 279.794 -1.0154 1.36468 0
M  V30 2936 O 280.979 -1.01785 1.65389 0
M  V30 2937 C 278.109 -1.45312 3.15439 0
M  V30 2938 C 277.063 -0.916002 4.18083 0
M  V30 2939 C 276.389 -2.1102 4.91299 0
M  V30 2940 C 277.689 0.0538602 5.22272 0
M  V30 2941 H 279.383 0.308767 2.97804 0
M  V30 2942 H 276.929 0.149937 1.43217 0
M  V30 2943 H 278.882 -2.01914 3.69876 0
M  V30 2944 H 277.606 -2.14541 2.46252 0
M  V30 2945 H 276.265 -0.372145 3.64706 0
M  V30 2946 H 275.913 -2.78882 4.18609 0
M  V30 2947 H 275.613 -1.75717 5.60712 0
M  V30 2948 H 277.137 -2.68164 5.48562 0
M  V30 2949 H 278.551 -0.422069 5.71744 0
M  V30 2950 H 276.948 0.319776 5.99247 0
M  V30 2951 H 278.018 0.98858 4.74716 0
M  V30 2952 N 279.361 -1.56624 0.175154 0
M  V30 2953 C 280.309 -2.19468 -0.770495 0
M  V30 2954 C 281.303 -1.15985 -1.23466 0
M  V30 2955 O 282.509 -1.34176 -1.19987 0
M  V30 2956 H 278.884 -0.703095 -0.266761 0
M  V30 2957 H 280.855 -2.97613 -0.216542 0
M  V30 2958 C 279.604 -2.85264 -1.98796 0
M  V30 2959 H 278.927 -3.64623 -1.63983 0
M  V30 2960 H 280.367 -3.327 -2.62843 0
M  V30 2961 C 278.826 -1.85239 -2.81404 0
M  V30 2962 O 279.356 -1.34024 -3.78682 0
M  V30 2963 N 277.562 -1.53911 -2.46495 0
M  V30 2964 H 277.109 -1.95751 -1.67449 0
M  V30 2965 H 277.067 -0.872382 -3.02054 0
M  V30 2966 N 280.839 0.0985539 -1.57292 0
M  V30 2967 C 282.087 0.801092 -1.85545 0
M  V30 2968 C 282.408 1.79438 -0.763353 0
M  V30 2969 O 281.678 1.94763 0.21073 0
M  V30 2970 H 280.258 0.29884 -0.684619 0
M  V30 2971 H 282.92 0.0810064 -1.94732 0
M  V30 2972 H 282.016 1.3338 -2.82163 0
M  V30 2973 N 282.317 1.53212 0.369288 0
M  V30 2974 C 283.265 1.80054 1.47253 0
M  V30 2975 C 284.259 0.669456 1.55611 0
M  V30 2976 O 285.465 0.852328 1.58541 0
M  V30 2977 H 281.84 0.570034 0.490475 0
M  V30 2978 H 283.811 2.72403 1.21817 0
M  V30 2979 C 282.56 2.00403 2.84137 0
M  V30 2980 H 281.883 2.86876 2.78464 0
M  V30 2981 H 283.323 2.23164 3.60519 0
M  V30 2982 C 281.782 0.782081 3.27697 0
M  V30 2983 O 282.312 -0.0310205 4.01688 0
M  V30 2984 N 280.518 0.606573 2.84199 0
M  V30 2985 H 280.065 1.26939 2.24152 0
M  V30 2986 H 280.023 -0.20962 3.137 0
M  V30 2987 N 283.795 -0.628877 1.44509 0
M  V30 2988 C 284.742 -1.74074 1.51549 0
M  V30 2989 C 285.712 -1.62084 0.363021 0
M  V30 2990 O 286.897 -1.81975 0.573567 0
M  V30 2991 C 284.037 -3.12328 1.46784 0
M  V30 2992 C 283.15 -3.35277 2.72422 0
M  V30 2993 C 282.285 -4.63515 2.59475 0
M  V30 2994 C 281.324 -4.7965 3.80266 0
M  V30 2995 N 280.461 -5.99168 3.65981 0
M  V30 2996 H 285.301 -1.67392 2.46544 0
M  V30 2997 H 282.838 -0.816527 1.22357 0
M  V30 2998 H 284.796 -3.92286 1.42012 0
M  V30 2999 H 283.426 -3.18018 0.553544 0
M  V30 3000 H 282.478 -2.49242 2.87372 0
M  V30 3001 H 283.79 -3.43078 3.62076 0
M  V30 3002 H 282.944 -5.51638 2.52548 0
M  V30 3003 H 281.683 -4.58076 1.67384 0
M  V30 3004 H 280.688 -3.89957 3.87574 0
M  V30 3005 H 281.913 -4.86902 4.73395 0
M  V30 3006 H 279.859 -5.94814 2.76644 0
M  V30 3007 H 279.776 -6.08035 4.49254 0
M  V30 3008 H 281.044 -6.89846 3.6295 0
M  V30 3009 N 285.273 -1.31445 -0.869486 0
M  V30 3010 C 286.52 -1.21158 -1.62256 0
M  V30 3011 C 286.848 0.230155 -1.93133 0
M  V30 3012 O 286.103 1.17906 -1.56194 0
M  V30 3013 C 286.402 -2.00145 -2.96102 0
M  V30 3014 C 286.068 -3.4964 -2.84715 0
M  V30 3015 C 284.73 -3.90403 -2.81317 0
M  V30 3016 C 287.082 -4.44769 -2.71716 0
M  V30 3017 C 284.41 -5.24561 -2.62778 0
M  V30 3018 C 286.762 -5.79054 -2.54714 0
M  V30 3019 C 285.426 -6.19037 -2.49699 0
M  V30 3020 H 284.696 -0.443348 -0.593737 0
M  V30 3021 H 287.343 -1.62715 -1.00976 0
M  V30 3022 H 285.648 -1.5127 -3.6142 0
M  V30 3023 H 287.345 -1.89566 -3.53363 0
M  V30 3024 H 283.935 -3.17256 -2.88178 0
M  V30 3025 H 288.119 -4.14208 -2.73397 0
M  V30 3026 H 283.375 -5.54613 -2.57321 0
M  V30 3027 H 287.549 -6.52393 -2.43632 0
M  V30 3028 H 285.176 -7.22935 -2.35093 0
M  V30 3029 N 286.751 1.08385 -1.14413 0
M  V30 3030 C 287.997 1.81212 -0.923793 0
M  V30 3031 C 288.352 1.84555 0.543814 0
M  V30 3032 O 287.645 1.31056 1.39767 0
M  V30 3033 C 287.839 3.26273 -1.45879 0
M  V30 3034 C 287.668 3.37063 -2.97689 0
M  V30 3035 C 286.438 3.4824 -3.66138 0
M  V30 3036 C 288.636 3.28698 -3.95553 0
M  V30 3037 N 286.618 3.47824 -5.05858 0
M  V30 3038 C 287.989 3.35276 -5.21527 0
M  V30 3039 C 290.044 3.12437 -3.8767 0
M  V30 3040 C 288.747 3.27267 -6.40538 0
M  V30 3041 C 290.773 3.05757 -5.06228 0
M  V30 3042 C 290.135 3.12938 -6.3107 0
M  V30 3043 H 286.234 0.6769 -0.391574 0
M  V30 3044 H 288.818 1.29455 -1.45429 0
M  V30 3045 H 286.989 3.76474 -0.95507 0
M  V30 3046 H 288.721 3.87165 -1.17835 0
M  V30 3047 H 285.476 3.52141 -3.16692 0
M  V30 3048 H 285.9 3.51171 -5.78798 0
M  V30 3049 H 290.542 3.05747 -2.92025 0
M  V30 3050 H 288.26 3.32718 -7.36427 0
M  V30 3051 H 291.846 2.94295 -5.01878 0
M  V30 3052 H 290.726 3.078 -7.21269 0
M  V30 3053 N 288.23 0.939286 1.26551 0
M  V30 3054 C 289.479 0.581601 1.93133 0
M  V30 3055 C 289.792 -0.883224 1.74524 0
M  V30 3056 O 290.998 -1.3502 2.35546 0
M  V30 3057 C 289.454 0.989425 3.46032 0
M  V30 3058 C 289.062 2.47573 3.73379 0
M  V30 3059 C 290.806 0.703544 4.18629 0
M  V30 3060 C 288.713 2.82235 5.19709 0
M  V30 3061 H 287.643 0.213803 0.723052 0
M  V30 3062 H 290.294 1.14167 1.4366 0
M  V30 3063 H 288.676 0.357902 3.94379 0
M  V30 3064 H 289.85 3.15614 3.35744 0
M  V30 3065 H 288.165 2.73471 3.1401 0
M  V30 3066 H 290.762 0.938869 5.26393 0
M  V30 3067 H 291.105 -0.359639 4.14744 0
M  V30 3068 H 291.638 1.2947 3.76141 0
M  V30 3069 H 288.377 3.87509 5.28694 0
M  V30 3070 H 287.897 2.18854 5.58447 0
M  V30 3071 H 289.576 2.70599 5.87695 0
M  V30 3072 N 289.708 -1.40897 0.706093 0
M  V30 3073 C 290.936 -2.05373 0.250887 0
M  V30 3074 C 291.351 -1.53172 -1.10381 0
M  V30 3075 O 290.708 -0.684305 -1.69185 0
M  V30 3076 C 290.759 -3.6088 0.211571 0
M  V30 3077 O 290.48 -4.11153 1.51276 0
M  V30 3078 C 291.981 -4.42517 -0.263346 0
M  V30 3079 H 289.201 -0.66115 0.114552 0
M  V30 3080 H 291.745 -1.80479 0.961635 0
M  V30 3081 H 289.9 -3.84777 -0.450073 0
M  V30 3082 H 290.314 -5.05279 1.40689 0
M  V30 3083 H 291.788 -5.51479 -0.239718 0
M  V30 3084 H 292.265 -4.19396 -1.30397 0
M  V30 3085 H 292.871 -4.23708 0.367677 0
M  V30 3086 N 291.186 -0.45159 -1.50991 0
M  V30 3087 C 292.134 0.366864 -2.29689 0
M  V30 3088 C 293.128 1.00809 -1.36139 0
M  V30 3089 O 294.334 0.941427 -1.53418 0
M  V30 3090 H 290.709 0.137133 -0.739391 0
M  V30 3091 H 292.68 -0.317538 -2.96706 0
M  V30 3092 C 291.429 1.44751 -3.16137 0
M  V30 3093 H 290.752 0.963473 -3.88017 0
M  V30 3094 H 292.192 1.99315 -3.74232 0
M  V30 3095 C 290.651 2.43869 -2.32442 0
M  V30 3096 O 291.181 3.4872 -1.99392 0
M  V30 3097 N 289.387 2.15105 -1.95392 0
M  V30 3098 H 288.934 1.29866 -2.22469 0
M  V30 3099 H 288.892 2.81661 -1.39693 0
M  V30 3100 N 292.664 1.56529 -0.183458 0
M  V30 3101 C 293.912 1.96855 0.457452 0
M  V30 3102 C 294.233 1.07104 1.62953 0
M  V30 3103 O 293.503 0.139887 1.954 0
M  V30 3104 H 292.083 0.72693 0.171992 0
M  V30 3105 H 294.745 1.93056 -0.267476 0
M  V30 3106 H 293.841 3.01423 0.809368 0
M  V30 3107 N 294.142 -0.090211 1.57342 0
M  V30 3108 C 295.553 -0.644173 1.75235 0
M  V30 3109 C 295.904 -1.78865 0.806335 0
M  V30 3110 O 295.029 -2.16395 -0.0140128 0
M  V30 3111 C 295.624 -1.17532 3.1776 0
M  V30 3112 C 294.183 -1.67531 3.37061 0
M  V30 3113 C 293.33 -0.58693 2.71017 0
M  V30 3114 H 296.281 0.135884 1.58117 0
M  V30 3115 H 296.302 -2.04455 3.20902 0
M  V30 3116 H 295.814 -0.342138 3.86589 0
M  V30 3117 H 293.915 -2.53234 2.73319 0
M  V30 3118 H 294.028 -1.76493 4.45406 0
M  V30 3119 H 292.392 -1.02756 2.33052 0
M  V30 3120 H 293.175 0.235758 3.4249 0
M  V30 3121 N 295.62 -1.53406 -0.361157 0
M  V30 3122 C 296.897 -1.60411 -1.11927 0
M  V30 3123 C 297.277 -0.414385 -2.06993 0
M  V30 3124 O 296.625 0.594976 -2.20618 0
M  V30 3125 C 296.835 -2.95652 -1.85448 0
M  V30 3126 C 298.183 -3.50386 -2.39823 0
M  V30 3127 O 299.207 -2.97711 -1.95568 0
M  V30 3128 O 298.066 -4.42482 -3.20737 0
M  V30 3129 H 295.16 -0.64811 -0.513695 0
M  V30 3130 H 297.706 -1.65749 -0.364065 0
M  V30 3131 H 296.478 -3.73682 -1.16091 0
M  V30 3132 H 296.101 -2.93825 -2.67866 0
M  V30 3133 N 297.098 0.621204 -1.44841 0
M  V30 3134 C 298.061 1.71459 -1.521 0
M  V30 3135 C 299.061 1.55696 -0.401933 0
M  V30 3136 O 300.251 1.61011 -0.664925 0
M  V30 3137 C 297.383 3.10624 -1.40447 0
M  V30 3138 H 298.576 1.66394 -2.49506 0
M  V30 3139 H 296.129 0.835745 -1.3208 0
M  V30 3140 H 296.864 3.21277 -0.441737 0
M  V30 3141 H 296.649 3.23473 -2.21602 0
M  V30 3142 H 298.139 3.90293 -1.4853 0
M  V30 3143 N 298.576 1.31904 0.862503 0
M  V30 3144 C 299.853 1.12644 1.59908 0
M  V30 3145 C 300.233 -0.316104 2.0872 0
M  V30 3146 O 299.581 -1.31145 1.87118 0
M  V30 3147 C 299.791 2.1472 2.7513 0
M  V30 3148 C 301.139 2.47637 3.44907 0
M  V30 3149 O 302.163 2.13205 2.85346 0
M  V30 3150 O 301.022 3.06632 4.52371 0
M  V30 3151 H 298.116 0.43416 0.703871 0
M  V30 3152 H 300.662 1.43408 0.907314 0
M  V30 3153 H 299.434 3.1172 2.3653 0
M  V30 3154 H 299.057 1.84905 3.51989 0
M  V30 3155 N 300.054 -1.07777 1.14986 0
M  V30 3156 C 301.3 -1.80557 0.923422 0
M  V30 3157 C 301.633 -1.86298 -0.548337 0
M  V30 3158 O 300.908 -1.34354 -1.40639 0
M  V30 3159 C 301.191 -3.25839 1.53299 0
M  V30 3160 C 301.044 -3.28269 3.07505 0
M  V30 3161 C 302.363 -4.22991 1.21518 0
M  V30 3162 H 299.482 -0.655493 0.336894 0
M  V30 3163 H 302.124 -1.26144 1.42083 0
M  V30 3164 H 300.274 -3.72306 1.10999 0
M  V30 3165 H 301.946 -2.90079 3.58681 0
M  V30 3166 H 300.189 -2.67355 3.4162 0
M  V30 3167 H 300.86 -4.30691 3.45266 0
M  V30 3168 H 303.336 -3.84894 1.581 0
M  V30 3169 H 302.212 -5.22945 1.66793 0
M  V30 3170 H 302.473 -4.41904 0.131505 0
M  V30 3171 N 301.532 -0.945985 -1.26051 0
M  V30 3172 C 302.462 -0.477172 -2.28572 0
M  V30 3173 C 303.443 0.472032 -1.63419 0
M  V30 3174 O 304.628 0.372853 -1.90587 0
M  V30 3175 C 301.758 0.253975 -3.4637 0
M  V30 3176 C 300.712 -0.609135 -4.23643 0
M  V30 3177 C 300.038 0.252252 -5.34105 0
M  V30 3178 C 301.338 -1.8829 -4.8718 0
M  V30 3179 H 303.032 -1.33402 -2.68038 0
M  V30 3180 H 300.578 -0.642904 -1.28852 0
M  V30 3181 H 302.531 0.593016 -4.17207 0
M  V30 3182 H 301.255 1.145 -3.05871 0
M  V30 3183 H 299.914 -0.931138 -3.54578 0
M  V30 3184 H 299.562 1.14278 -4.89846 0
M  V30 3185 H 299.262 -0.32188 -5.86718 0
M  V30 3186 H 300.786 0.586454 -6.07777 0
M  V30 3187 H 302.2 -1.61081 -5.50205 0
M  V30 3188 H 300.597 -2.40199 -5.49931 0
M  V30 3189 H 301.667 -2.59134 -4.09851 0
M  V30 3190 N 303.011 1.40521 -0.713556 0
M  V30 3191 C 304.26 2.00155 -0.249192 0
M  V30 3192 C 304.573 1.57224 1.16362 0
M  V30 3193 O 305.779 2.09542 1.72639 0
M  V30 3194 C 304.235 3.5773 -0.3946 0
M  V30 3195 C 303.843 4.09635 -1.81392 0
M  V30 3196 C 305.587 4.24499 0.00907364 0
M  V30 3197 C 303.494 5.59707 -1.91003 0
M  V30 3198 H 302.424 0.74868 -0.0894114 0
M  V30 3199 H 305.075 1.60784 -0.884352 0
M  V30 3200 H 303.457 3.94792 0.30911 0
M  V30 3201 H 304.631 3.83955 -2.54785 0
M  V30 3202 H 302.946 3.55456 -2.16888 0
M  V30 3203 H 305.543 5.34683 -0.0420404 0
M  V30 3204 H 305.886 4.02824 1.05065 0
M  V30 3205 H 306.419 3.92536 -0.645007 0
M  V30 3206 H 303.158 5.86234 -2.93275 0
M  V30 3207 H 302.678 5.87258 -1.22019 0
M  V30 3208 H 304.357 6.24776 -1.6812 0
M  V30 3209 N 304.489 0.459591 1.5075 0
M  V30 3210 C 305.735 -0.0994966 2.02556 0
M  V30 3211 C 306.068 -1.40399 1.3417 0
M  V30 3212 O 305.343 -1.88892 0.463683 0
M  V30 3213 C 305.626 -0.295242 3.58888 0
M  V30 3214 C 305.479 1.02947 4.37861 0
M  V30 3215 C 306.798 -1.05502 4.27267 0
M  V30 3216 H 303.917 -0.034686 0.736183 0
M  V30 3217 H 306.559 0.602938 1.8018 0
M  V30 3218 H 304.709 -0.893563 3.78084 0
M  V30 3219 H 306.381 1.66348 4.30263 0
M  V30 3220 H 304.624 1.62885 4.02058 0
M  V30 3221 H 305.295 0.846281 5.45474 0
M  V30 3222 H 307.771 -0.547993 4.12476 0
M  V30 3223 H 306.647 -1.16077 5.36486 0
M  V30 3224 H 306.908 -2.08875 3.89645 0
M  V30 3225 N 305.967 -1.56429 0.191757 0
M  V30 3226 C 307.197 -2.01574 -0.452928 0
M  V30 3227 C 307.605 -1.07107 -1.55964 0
M  V30 3228 O 306.948 -0.067534 -1.83576 0
M  V30 3229 C 307.01 -3.43121 -1.07278 0
M  V30 3230 C 306.674 -4.56879 -0.105214 0
M  V30 3231 C 307.671 -5.15379 0.684149 0
M  V30 3232 C 305.356 -5.023 0.00489824 0
M  V30 3233 C 307.35 -6.17746 1.57062 0
M  V30 3234 C 305.037 -6.04511 0.894935 0
M  V30 3235 C 306.035 -6.62108 1.67637 0
M  V30 3236 O 305.723 -7.62335 2.55149 0
M  V30 3237 H 305.455 -0.665554 -0.118379 0
M  V30 3238 H 308.009 -2.03245 0.296737 0
M  V30 3239 H 306.239 -3.38425 -1.87097 0
M  V30 3240 H 307.928 -3.72093 -1.62177 0
M  V30 3241 H 308.694 -4.81157 0.609365 0
M  V30 3242 H 304.573 -4.57168 -0.593156 0
M  V30 3243 H 308.117 -6.6263 2.181 0
M  V30 3244 H 304.014 -6.38157 0.970847 0
M  V30 3245 H 304.782 -7.79741 2.48892 0
M  V30 3246 N 307.445 0.0818655 -1.57387 0
M  V30 3247 C 308.408 1.08265 -2.02018 0
M  V30 3248 C 309.408 1.32183 -0.915664 0
M  V30 3249 O 310.598 1.28073 -1.18081 0
M  V30 3250 C 307.73 2.42871 -2.39221 0
M  V30 3251 H 308.923 0.698204 -2.91659 0
M  V30 3252 H 306.476 0.327303 -1.52835 0
M  V30 3253 H 307.211 2.86167 -1.52575 0
M  V30 3254 H 306.996 2.26855 -3.19811 0
M  V30 3255 H 308.486 3.14826 -2.74362 0
M  V30 3256 N 308.923 1.53595 0.353017 0
M  V30 3257 C 309.87 1.80919 1.43308 0
M  V30 3258 C 310.84 0.654288 1.5267 0
M  V30 3259 O 312.025 0.897759 1.6836 0
M  V30 3260 C 309.165 2.01605 2.80089 0
M  V30 3261 C 308.278 3.29321 2.79593 0
M  V30 3262 C 307.413 3.40125 4.0803 0
M  V30 3263 C 306.452 4.61826 4.01725 0
M  V30 3264 N 305.589 4.69716 5.21834 0
M  V30 3265 H 310.429 2.73074 1.19308 0
M  V30 3266 H 307.966 1.35263 0.578131 0
M  V30 3267 H 309.924 2.11586 3.59565 0
M  V30 3268 H 308.554 1.12772 3.0246 0
M  V30 3269 H 307.606 3.28229 1.92276 0
M  V30 3270 H 308.918 4.18884 2.70809 0
M  V30 3271 H 308.072 3.49488 4.95927 0
M  V30 3272 H 306.811 2.48601 4.19582 0
M  V30 3273 H 305.816 4.52552 3.12213 0
M  V30 3274 H 307.041 5.54705 3.91764 0
M  V30 3275 H 304.987 3.81097 5.33948 0
M  V30 3276 H 304.904 5.53202 5.1527 0
M  V30 3277 H 306.172 4.83376 6.11529 0
M  V30 3278 N 310.401 -0.613514 1.45168 0
M  V30 3279 C 311.629 -1.39946 1.5239 0
M  V30 3280 C 312.044 -1.88167 0.154531 0
M  V30 3281 O 311.401 -1.61872 -0.842843 0
M  V30 3282 C 311.452 -2.60795 2.50337 0
M  V30 3283 O 311.173 -2.1458 3.81952 0
M  V30 3284 C 312.674 -3.53723 2.67198 0
M  V30 3285 H 309.894 -0.428593 0.516284 0
M  V30 3286 H 312.438 -0.748753 1.903 0
M  V30 3287 H 310.593 -3.21919 2.15515 0
M  V30 3288 H 311.007 -2.93055 4.34993 0
M  V30 3289 H 312.481 -4.35079 3.39721 0
M  V30 3290 H 312.958 -4.0368 1.73029 0
M  V30 3291 H 313.564 -2.98456 3.02992 0
M  V30 3292 N 311.879 -1.3236 -0.855495 0
M  V30 3293 C 313.156 -1.13491 -1.59309 0
M  V30 3294 C 313.536 0.30503 -2.08885 0
M  V30 3295 O 312.884 1.30151 -1.87811 0
M  V30 3296 C 313.094 -2.16176 -2.73987 0
M  V30 3297 C 314.442 -2.49463 -3.43589 0
M  V30 3298 O 315.466 -2.14715 -2.84211 0
M  V30 3299 O 314.325 -3.09027 -4.50738 0
M  V30 3300 H 311.419 -0.437887 -0.701559 0
M  V30 3301 H 313.965 -1.43887 -0.899696 0
M  V30 3302 H 312.737 -3.1297 -2.34873 0
M  V30 3303 H 312.36 -1.86769 -3.51003 0
M  V30 3304 N 313.357 1.07166 -1.15556 0
M  V30 3305 C 314.287 2.16403 -0.877046 0
M  V30 3306 C 315.268 1.69217 0.173111 0
M  V30 3307 O 316.453 1.94181 0.027084 0
M  V30 3308 C 313.583 3.45349 -0.367632 0
M  V30 3309 C 312.537 4.05995 -1.35468 0
M  V30 3310 C 311.863 5.30045 -0.704038 0
M  V30 3311 C 313.163 4.45804 -2.72132 0
M  V30 3312 H 314.857 2.39959 -1.79053 0
M  V30 3313 H 312.403 1.15325 -0.862331 0
M  V30 3314 H 314.356 4.21095 -0.160317 0
M  V30 3315 H 313.08 3.21385 0.581326 0
M  V30 3316 H 311.739 3.32296 -1.54839 0
M  V30 3317 H 311.387 5.02373 0.251128 0
M  V30 3318 H 311.087 5.71579 -1.36277 0
M  V30 3319 H 312.611 6.08495 -0.50654 0
M  V30 3320 H 314.025 5.12671 -2.56595 0
M  V30 3321 H 312.422 4.98296 -3.34397 0
M  V30 3322 H 313.492 3.57083 -3.28054 0
M  V30 3323 N 314.835 0.952656 1.25548 0
M  V30 3324 C 315.798 0.475794 2.24207 0
M  V30 3325 C 316.798 -0.419428 1.55234 0
M  V30 3326 O 317.988 -0.216994 1.72843 0
M  V30 3327 C 315.12 -0.312814 3.39462 0
M  V30 3328 H 316.313 1.34779 2.67908 0
M  V30 3329 H 313.866 0.735739 1.37901 0
M  V30 3330 H 314.601 -1.20257 3.01179 0
M  V30 3331 H 314.386 0.329404 3.90714 0
M  V30 3332 H 315.876 -0.635986 4.12729 0
M  V30 3333 N 316.313 -1.40141 0.720998 0
M  V30 3334 C 317.276 -2.29058 0.0805834 0
M  V30 3335 C 318.276 -1.45632 -0.681758 0
M  V30 3336 O 319.466 -1.6648 -0.512856 0
M  V30 3337 C 316.598 -3.28925 -0.895593 0
M  V30 3338 H 317.791 -2.87191 0.863793 0
M  V30 3339 H 315.344 -1.48553 0.485975 0
M  V30 3340 H 316.079 -2.75822 -1.70566 0
M  V30 3341 H 315.864 -3.90519 -0.351766 0
M  V30 3342 H 317.354 -3.95494 -1.34069 0
M  V30 3343 N 317.792 -0.46758 -1.50504 0
M  V30 3344 C 319.038 0.0887532 -2.02606 0
M  V30 3345 C 319.371 1.39686 -1.34913 0
M  V30 3346 O 318.646 1.88644 -0.473694 0
M  V30 3347 C 318.929 0.276206 -3.59039 0
M  V30 3348 C 318.782 -1.05267 -4.37309 0
M  V30 3349 C 320.101 1.03235 -4.27821 0
M  V30 3350 H 317.22 0.0307814 -0.736357 0
M  V30 3351 H 319.862 -0.612485 -1.79857 0
M  V30 3352 H 318.012 0.8735 -3.78553 0
M  V30 3353 H 319.684 -1.68628 -4.29374 0
M  V30 3354 H 317.927 -1.65015 -4.01189 0
M  V30 3355 H 318.598 -0.875197 -5.45018 0
M  V30 3356 H 321.074 0.526111 -4.12761 0
M  V30 3357 H 319.95 1.1323 -5.37094 0
M  V30 3358 H 320.211 2.06806 -3.90748 0
M  V30 3359 N 319.27 1.56325 -0.20005 0
M  V30 3360 C 320.681 1.8408 0.31167 0
M  V30 3361 C 321.032 1.12087 1.61031 0
M  V30 3362 O 320.157 0.38332 2.12978 0
M  V30 3363 C 320.752 3.33932 0.57226 0
M  V30 3364 C 319.311 3.6208 1.02834 0
M  V30 3365 C 318.458 2.77186 0.079634 0
M  V30 3366 H 321.409 1.52939 -0.423729 0
M  V30 3367 H 321.43 3.52971 1.42096 0
M  V30 3368 H 320.942 3.86303 -0.37308 0
M  V30 3369 H 319.043 3.15147 1.98778 0
M  V30 3370 H 319.156 4.7023 0.917624 0
M  V30 3371 H 317.52 2.47951 0.582448 0
M  V30 3372 H 318.303 3.32347 -0.860238 0
M  V30 3373 N 320.748 -0.0735177 1.57428 0
M  V30 3374 C 321.711 -1.07192 2.02589 0
M  V30 3375 C 322.711 -1.31695 0.922661 0
M  V30 3376 O 323.901 -1.27445 1.18758 0
M  V30 3377 C 321.033 -2.41599 2.40506 0
M  V30 3378 H 322.226 -0.682727 2.92025 0
M  V30 3379 H 319.779 -0.319193 1.53006 0
M  V30 3380 H 320.514 -2.85354 1.5409 0
M  V30 3381 H 320.299 -2.25156 3.21009 0
M  V30 3382 H 321.789 -3.13367 2.76027 0
M  V30 3383 N 322.226 -1.5378 -0.344866 0
M  V30 3384 C 323.451 -1.75211 -1.10977 0
M  V30 3385 C 323.876 -0.48936 -1.81623 0
M  V30 3386 O 323.234 0.557925 -1.72502 0
M  V30 3387 C 323.282 -2.93147 -2.09993 0
M  V30 3388 O 322.386 -2.63203 -3.17487 0
M  V30 3389 H 321.727 -0.581241 -0.321021 0
M  V30 3390 H 324.257 -2.00738 -0.395661 0
M  V30 3391 H 324.267 -3.19898 -2.53237 0
M  V30 3392 H 322.942 -3.84731 -1.5797 0
M  V30 3393 H 321.519 -2.47336 -2.79069 0
M  V30 3394 N 323.704 0.605807 -1.45491 0
M  V30 3395 C 325.12 0.926751 -1.29936 0
M  V30 3396 C 325.32 1.99896 -0.253706 0
M  V30 3397 O 324.376 2.50038 0.351737 0
M  V30 3398 C 325.689 1.36599 -2.67883 0
M  V30 3399 C 327.237 1.4801 -2.75793 0
M  V30 3400 C 327.712 1.95309 -4.14268 0
M  V30 3401 N 329.203 2.0254 -4.16571 0
M  V30 3402 C 329.938 2.40363 -5.20589 0
M  V30 3403 N 329.434 2.77143 -6.34952 0
M  V30 3404 N 331.227 2.40718 -5.07948 0
M  V30 3405 H 323.378 -0.102862 -2.12151 0
M  V30 3406 H 325.641 0.016639 -0.947854 0
M  V30 3407 H 325.347 0.652306 -3.45598 0
M  V30 3408 H 325.221 2.33215 -2.96463 0
M  V30 3409 H 327.608 2.1847 -1.98381 0
M  V30 3410 H 327.689 0.497041 -2.50925 0
M  V30 3411 H 327.333 1.25436 -4.92167 0
M  V30 3412 H 327.263 2.94532 -4.3653 0
M  V30 3413 H 329.754 1.76699 -3.34045 0
M  V30 3414 H 330.067 3.0489 -7.10114 0
M  V30 3415 H 328.412 2.74834 -6.3835 0
M  V30 3416 H 331.603 2.11392 -4.1765 0
M  V30 3417 H 331.776 2.69869 -5.89131 0
M  V30 3418 N 325.182 1.32811 0.848464 0
M  V30 3419 C 326.43 1.23479 1.59991 0
M  V30 3420 C 326.751 -0.201853 1.93952 0
M  V30 3421 O 326.021 -1.12818 1.60153 0
M  V30 3422 H 324.601 0.454034 0.593179 0
M  V30 3423 H 327.263 1.66412 1.01455 0
M  V30 3424 H 326.359 1.82178 2.53412 0
M  V30 3425 N 326.66 -1.06551 1.16123 0
M  V30 3426 C 327.909 -1.78687 0.935622 0
M  V30 3427 C 328.222 -1.88056 -0.538001 0
M  V30 3428 O 329.428 -2.56794 -0.88143 0
M  V30 3429 C 327.884 -3.21143 1.62466 0
M  V30 3430 C 327.492 -3.19949 3.13587 0
M  V30 3431 C 329.236 -3.9783 1.48092 0
M  V30 3432 C 327.143 -4.57108 3.75241 0
M  V30 3433 H 326.073 -0.669712 0.346412 0
M  V30 3434 H 328.724 -1.19534 1.39226 0
M  V30 3435 H 327.106 -3.80539 1.09572 0
M  V30 3436 H 328.28 -2.70151 3.73303 0
M  V30 3437 H 326.595 -2.5676 3.27816 0
M  V30 3438 H 329.192 -4.99217 1.91538 0
M  V30 3439 H 329.535 -4.14078 0.429507 0
M  V30 3440 H 330.068 -3.4495 1.98127 0
M  V30 3441 H 326.807 -4.46065 4.80319 0
M  V30 3442 H 326.327 -5.07111 3.20309 0
M  V30 3443 H 328.006 -5.26069 3.76644 0
M  V30 3444 N 328.138 -0.959301 -1.25041 0
M  V30 3445 C 329.366 -0.633949 -1.96948 0
M  V30 3446 C 329.781 0.794916 -1.7125 0
M  V30 3447 O 329.138 1.53231 -0.991287 0
M  V30 3448 C 329.189 -0.888805 -3.50403 0
M  V30 3449 O 328.91 -2.26149 -3.75218 0
M  V30 3450 C 330.411 -0.576482 -4.39536 0
M  V30 3451 H 327.631 -0.237263 -0.627652 0
M  V30 3452 H 330.175 -1.28495 -1.59089 0
M  V30 3453 H 328.33 -0.284145 -3.86357 0
M  V30 3454 H 328.744 -2.33514 -4.6965 0
M  V30 3455 H 330.218 -0.805314 -5.46094 0
M  V30 3456 H 330.695 0.489075 -4.36468 0
M  V30 3457 H 331.301 -1.16067 -4.09156 0
M  V30 3458 N 329.616 1.39756 -0.72842 0
M  V30 3459 C 330.579 2.29012 -0.0927297 0
M  V30 3460 C 331.579 1.45992 0.674025 0
M  V30 3461 O 332.769 1.66749 0.50402 0
M  V30 3462 C 329.901 3.29396 0.878137 0
M  V30 3463 H 331.094 2.86729 -0.879011 0
M  V30 3464 H 328.647 1.48293 -0.493847 0
M  V30 3465 H 329.382 2.76722 1.69101 0
M  V30 3466 H 329.167 3.907 0.331051 0
M  V30 3467 H 330.657 3.96199 1.3197 0
M  V30 3468 N 331.094 0.475555 1.50254 0
M  V30 3469 C 332.341 -0.0778919 2.0235 0
M  V30 3470 C 332.669 -1.39319 1.35722 0
M  V30 3471 O 331.924 -1.89888 0.473395 0
M  V30 3472 C 332.223 -0.305114 3.56095 0
M  V30 3473 C 331.889 0.92903 4.41225 0
M  V30 3474 C 330.551 1.26739 4.6421 0
M  V30 3475 C 332.903 1.75054 4.90923 0
M  V30 3476 C 330.231 2.42724 5.34137 0
M  V30 3477 C 332.583 2.9017 5.62125 0
M  V30 3478 C 331.247 3.24416 5.83362 0
M  V30 3479 H 330.517 -0.0285027 0.740452 0
M  V30 3480 H 333.164 0.630543 1.80821 0
M  V30 3481 H 331.469 -1.09584 3.76163 0
M  V30 3482 H 333.166 -0.747377 3.93974 0
M  V30 3483 H 329.756 0.655428 4.23559 0
M  V30 3484 H 333.94 1.50231 4.73016 0
M  V30 3485 H 329.196 2.69525 5.48786 0
M  V30 3486 H 333.37 3.54169 5.99614 0
M  V30 3487 H 330.997 4.14396 6.37323 0
M  V30 3488 N 332.573 -1.56217 0.208337 0
M  V30 3489 C 333.822 -1.97124 -0.427204 0
M  V30 3490 C 334.135 -1.09859 -1.61835 0
M  V30 3491 O 335.341 -1.40606 -2.32255 0
M  V30 3492 C 333.797 -3.50633 -0.811442 0
M  V30 3493 C 333.405 -4.46582 0.35615 0
M  V30 3494 C 335.149 -4.00282 -1.41332 0
M  V30 3495 C 333.056 -5.91379 -0.0497852 0
M  V30 3496 H 331.986 -0.736086 -0.163381 0
M  V30 3497 H 334.637 -1.8099 0.302456 0
M  V30 3498 H 333.019 -3.62319 -1.59815 0
M  V30 3499 H 334.193 -4.46636 1.1337 0
M  V30 3500 H 332.508 -4.07202 0.870396 0
M  V30 3501 H 335.105 -5.0595 -1.72972 0
M  V30 3502 H 335.448 -3.45359 -2.32449 0
M  V30 3503 H 335.981 -3.91764 -0.690323 0
M  V30 3504 H 332.72 -6.50255 0.827529 0
M  V30 3505 H 332.24 -5.94549 -0.791926 0
M  V30 3506 H 333.919 -6.45209 -0.481042 0
M  V30 3507 N 334.051 0.0651679 -1.57465 0
M  V30 3508 C 335.297 0.764193 -1.87851 0
M  V30 3509 C 335.63 1.76889 -0.801495 0
M  V30 3510 O 334.905 1.93594 0.187528 0
M  V30 3511 C 335.188 1.46625 -3.28897 0
M  V30 3512 C 335.041 0.477515 -4.47258 0
M  V30 3513 C 336.36 2.4095 -3.68281 0
M  V30 3514 H 333.479 0.276351 -0.683227 0
M  V30 3515 H 336.121 0.0272868 -1.8998 0
M  V30 3516 H 334.271 2.09438 -3.27212 0
M  V30 3517 H 335.943 -0.145922 -4.61069 0
M  V30 3518 H 334.186 -0.206576 -4.33308 0
M  V30 3519 H 334.857 1.0065 -5.42746 0
M  V30 3520 H 337.333 1.88209 -3.71102 0
M  V30 3521 H 336.209 2.87072 -4.67847 0
M  V30 3522 H 336.47 3.26049 -2.98571 0
M  V30 3523 N 335.529 1.53961 0.336706 0
M  V30 3524 C 336.439 1.85432 1.43708 0
M  V30 3525 C 337.455 0.745053 1.57242 0
M  V30 3526 O 338.631 1.03804 1.72588 0
M  V30 3527 C 335.696 2.06349 2.78605 0
M  V30 3528 C 334.757 3.30191 2.74358 0
M  V30 3529 C 333.99 3.50101 4.02822 0
M  V30 3530 O 334.213 2.7371 5.00439 0
M  V30 3531 O 333.147 4.43547 4.06878 0
M  V30 3532 H 336.973 2.78975 1.20028 0
M  V30 3533 H 334.558 1.39701 0.52952 0
M  V30 3534 H 336.44 2.21513 3.58483 0
M  V30 3535 H 335.115 1.15995 3.02203 0
M  V30 3536 H 334.022 3.20425 1.93078 0
M  V30 3537 H 335.355 4.2056 2.55715 0
M  V30 3538 N 337.007 -0.598083 1.45811 0
M  V30 3539 C 337.954 -1.7082 1.55207 0
M  V30 3540 C 338.924 -1.61278 0.39732 0
M  V30 3541 O 340.109 -1.80717 0.612038 0
M  V30 3542 C 337.249 -3.09144 1.53376 0
M  V30 3543 C 336.362 -3.29423 2.79472 0
M  V30 3544 C 335.497 -4.57907 2.69248 0
M  V30 3545 C 334.536 -4.71476 3.90354 0
M  V30 3546 N 333.673 -5.9127 3.78608 0
M  V30 3547 H 338.513 -1.62125 2.50039 0
M  V30 3548 H 336.05 -0.790389 1.24062 0
M  V30 3549 H 338.008 -3.89186 1.50301 0
M  V30 3550 H 336.638 -3.16773 0.620876 0
M  V30 3551 H 335.69 -2.43091 2.92594 0
M  V30 3552 H 337.002 -3.3532 3.69272 0
M  V30 3553 H 336.156 -5.46157 2.64192 0
M  V30 3554 H 334.895 -4.54423 1.77063 0
M  V30 3555 H 333.9 -3.81648 3.95759 0
M  V30 3556 H 335.125 -4.76751 4.83617 0
M  V30 3557 H 333.071 -5.88813 2.89199 0
M  V30 3558 H 332.988 -5.98369 4.6205 0
M  V30 3559 H 334.256 -6.81992 3.77501 0
M  V30 3560 N 338.485 -1.33259 -0.841409 0
M  V30 3561 C 339.733 -1.24326 -1.59334 0
M  V30 3562 C 340.054 0.191564 -1.94057 0
M  V30 3563 O 339.324 1.11967 -1.60749 0
M  V30 3564 H 337.904 -0.457174 -0.590763 0
M  V30 3565 H 340.566 -1.66947 -1.00571 0
M  V30 3566 H 339.662 -1.8352 -2.52442 0
M  V30 3567 N 339.963 1.05934 -1.16686 0
M  V30 3568 C 340.896 2.1295 -0.820225 0
M  V30 3569 C 341.874 1.61242 0.209722 0
M  V30 3570 O 343.058 1.88271 0.0929688 0
M  V30 3571 C 340.185 3.3797 -0.22223 0
M  V30 3572 C 339.231 4.08488 -1.22637 0
M  V30 3573 S 340.064 4.58015 -2.77457 0
M  V30 3574 C 341.22 5.86292 -2.19117 0
M  V30 3575 H 341.453 2.42025 -1.72659 0
M  V30 3576 H 338.986 1.18423 -0.990722 0
M  V30 3577 H 340.944 4.10335 0.116322 0
M  V30 3578 H 339.605 3.07045 0.66196 0
M  V30 3579 H 338.798 4.98291 -0.756455 0
M  V30 3580 H 338.4 3.42154 -1.51019 0
M  V30 3581 H 340.692 6.59246 -1.56209 0
M  V30 3582 H 341.635 6.38019 -3.07144 0
M  V30 3583 H 342.043 5.40497 -1.62858 0
M  V30 3584 N 341.441 0.965919 1.2453 0
M  V30 3585 C 342.852 0.665929 1.7442 0
M  V30 3586 C 343.203 -0.818407 1.78316 0
M  V30 3587 O 342.328 -1.64037 1.41141 0
M  V30 3588 C 342.923 1.20211 3.16757 0
M  V30 3589 C 341.482 0.952059 3.6416 0
M  V30 3590 C 340.629 1.33848 2.42858 0
M  V30 3591 H 343.58 1.14144 1.10258 0
M  V30 3592 H 343.601 0.567544 3.76244 0
M  V30 3593 H 343.113 2.28244 3.13889 0
M  V30 3594 H 341.214 -0.112821 3.72429 0
M  V30 3595 H 341.327 1.59645 4.51719 0
M  V30 3596 H 339.691 0.756864 2.43195 0
M  V30 3597 H 340.474 2.42827 2.42673 0
M  V30 3598 N 342.919 -1.39368 0.735821 0
M  V30 3599 C 344.167 -2.00101 0.283562 0
M  V30 3600 C 344.488 -1.5868 -1.13338 0
M  V30 3601 O 343.758 -0.835423 -1.77193 0
M  V30 3602 H 342.338 -0.740024 0.101851 0
M  V30 3603 H 345 -1.70404 0.945962 0
M  V30 3604 H 344.096 -3.10323 0.332604 0
M  V30 3605 N 344.397 -0.483516 -1.5 0
M  V30 3606 C 345.644 0.0671597 -2.02389 0
M  V30 3607 C 345.972 1.38597 -1.36459 0
M  V30 3608 O 345.227 1.89634 -0.483458 0
M  V30 3609 C 345.526 0.286226 -3.56252 0
M  V30 3610 C 345.192 -0.952416 -4.40726 0
M  V30 3611 C 343.854 -1.29199 -4.63531 0
M  V30 3612 C 346.206 -1.77655 -4.89988 0
M  V30 3613 C 343.534 -2.45553 -5.32842 0
M  V30 3614 C 345.886 -2.93147 -5.60578 0
M  V30 3615 C 344.55 -3.27505 -5.81633 0
M  V30 3616 H 343.82 0.0245755 -0.740592 0
M  V30 3617 H 346.467 -0.640124 -1.80485 0
M  V30 3618 H 344.772 1.07587 -3.76739 0
M  V30 3619 H 346.469 0.726473 -3.94365 0
M  V30 3620 H 343.059 -0.677881 -4.23205 0
M  V30 3621 H 347.243 -1.52737 -4.72213 0
M  V30 3622 H 342.499 -2.72431 -5.47349 0
M  V30 3623 H 346.673 -3.57344 -5.97727 0
M  V30 3624 H 344.3 -4.1777 -6.35116 0
M  V30 3625 N 345.875 1.56104 -0.216619 0
M  V30 3626 C 347.1 2.0301 0.424462 0
M  V30 3627 C 347.525 1.0955 1.52907 0
M  V30 3628 O 346.883 0.0827914 1.81111 0
M  V30 3629 C 346.931 3.4819 0.937883 0
M  V30 3630 O 346.035 3.57865 2.04955 0
M  V30 3631 H 345.376 0.656925 0.0966755 0
M  V30 3632 H 347.906 2.01859 -0.33381 0
M  V30 3633 H 347.916 3.88413 1.24897 0
M  V30 3634 H 346.591 4.15699 0.129387 0
M  V30 3635 H 345.168 3.29527 1.74546 0
M  V30 3636 N 347.353 -0.0568162 1.57498 0
M  V30 3637 C 348.581 -0.765626 1.92213 0
M  V30 3638 C 348.996 -1.70353 0.813961 0
M  V30 3639 O 348.353 -1.81268 -0.211701 0
M  V30 3640 C 348.404 -1.5465 3.2675 0
M  V30 3641 O 348.125 -0.646278 4.33307 0
M  V30 3642 C 349.626 -2.35497 3.75574 0
M  V30 3643 H 346.846 -0.216835 0.634999 0
M  V30 3644 H 349.39 -0.0226146 2.04487 0
M  V30 3645 H 347.545 -2.24165 3.15957 0
M  V30 3646 H 347.959 -1.19093 5.108 0
M  V30 3647 H 349.433 -2.85722 4.72299 0
M  V30 3648 H 349.91 -3.15692 3.05344 0
M  V30 3649 H 350.516 -1.7111 3.8936 0
M  V30 3650 N 348.832 -1.54138 -0.328536 0
M  V30 3651 C 350.057 -1.76378 -1.09112 0
M  V30 3652 C 350.482 -0.508596 -1.81094 0
M  V30 3653 O 349.84 0.539598 -1.73084 0
M  V30 3654 C 349.888 -2.95358 -2.06872 0
M  V30 3655 O 348.992 -2.66556 -3.14677 0
M  V30 3656 H 348.333 -0.584614 -0.314838 0
M  V30 3657 H 350.863 -2.01146 -0.374348 0
M  V30 3658 H 350.873 -3.22566 -2.4983 0
M  V30 3659 H 349.548 -3.86385 -1.5388 0
M  V30 3660 H 348.125 -2.50282 -2.7643 0
M  V30 3661 N 350.31 0.590341 -1.46126 0
M  V30 3662 C 351.257 1.69994 -1.56111 0
M  V30 3663 C 352.227 1.61065 -0.405867 0
M  V30 3664 O 353.412 1.8039 -0.621613 0
M  V30 3665 C 350.552 3.08326 -1.55013 0
M  V30 3666 C 349.665 3.27936 -2.81215 0
M  V30 3667 C 348.8 4.56473 -2.71673 0
M  V30 3668 C 347.839 4.694 -3.92849 0
M  V30 3669 N 346.976 5.89254 -3.81738 0
M  V30 3670 H 351.816 1.60797 -2.50895 0
M  V30 3671 H 349.353 0.783799 -1.24479 0
M  V30 3672 H 351.311 3.88383 -1.52362 0
M  V30 3673 H 349.941 3.16439 -0.637667 0
M  V30 3674 H 348.993 2.41536 -2.93879 0
M  V30 3675 H 350.305 3.33357 -3.71045 0
M  V30 3676 H 349.459 5.44748 -2.67085 0
M  V30 3677 H 348.198 4.53477 -1.7947 0
M  V30 3678 H 347.203 3.79544 -3.97777 0
M  V30 3679 H 348.428 4.7418 -4.86138 0
M  V30 3680 H 346.374 5.87271 -2.92317 0
M  V30 3681 H 346.291 5.95911 -4.65217 0
M  V30 3682 H 347.559 6.79981 -3.81112 0
M  V30 3683 N 351.788 1.33704 0.83433 0
M  V30 3684 C 352.735 1.24335 1.94447 0
M  V30 3685 C 353.705 0.120991 1.65659 0
M  V30 3686 O 354.89 0.300035 1.88426 0
M  V30 3687 C 352.03 0.993124 3.30501 0
M  V30 3688 C 351.143 2.20217 3.71657 0
M  V30 3689 C 350.278 1.88572 4.96602 0
M  V30 3690 C 349.317 3.05683 5.30306 0
M  V30 3691 N 348.454 2.73997 6.46429 0
M  V30 3692 H 353.294 2.1928 2.01792 0
M  V30 3693 H 350.831 1.09035 0.987404 0
M  V30 3694 H 352.789 0.828467 4.08892 0
M  V30 3695 H 351.419 0.0803902 3.227 0
M  V30 3696 H 350.471 2.47642 2.88752 0
M  V30 3697 H 351.783 3.07752 3.92543 0
M  V30 3698 H 350.937 1.68776 5.82752 0
M  V30 3699 H 349.676 0.982799 4.77695 0
M  V30 3700 H 348.681 3.26088 4.42659 0
M  V30 3701 H 349.906 3.96737 5.51159 0
M  V30 3702 H 347.852 1.86268 6.28999 0
M  V30 3703 H 347.769 3.55064 6.67432 0
M  V30 3704 H 349.037 2.57679 7.35678 0
M  V30 3705 N 353.266 -1.05314 1.17247 0
M  V30 3706 C 354.196 -2.1498 0.911362 0
M  V30 3707 C 355.177 -1.69471 -0.146169 0
M  V30 3708 O 356.362 -1.942 0.003812 0
M  V30 3709 C 353.492 -3.4472 0.422528 0
M  V30 3710 C 352.446 -4.03789 1.4191 0
M  V30 3711 C 351.772 -5.28858 0.788274 0
M  V30 3712 C 353.072 -4.41418 2.7919 0
M  V30 3713 H 354.766 -2.3708 1.82848 0
M  V30 3714 H 352.312 -1.13938 0.880569 0
M  V30 3715 H 354.265 -4.20787 0.227289 0
M  V30 3716 H 352.989 -3.22269 -0.530123 0
M  V30 3717 H 351.648 -3.2979 1.60106 0
M  V30 3718 H 351.296 -5.02709 -0.171173 0
M  V30 3719 H 350.996 -5.69338 1.45353 0
M  V30 3720 H 352.52 -6.07612 0.603282 0
M  V30 3721 H 353.934 -5.08524 2.64719 0
M  V30 3722 H 352.331 -4.92913 3.42282 0
M  V30 3723 H 353.401 -3.51819 3.33693 0
M  V30 3724 N 354.744 -0.972509 -1.24016 0
M  V30 3725 C 356.021 -0.553733 -1.87598 0
M  V30 3726 C 356.401 0.969158 -1.87538 0
M  V30 3727 O 355.749 1.84255 -1.35139 0
M  V30 3728 C 355.959 -1.15076 -3.29482 0
M  V30 3729 C 357.307 -1.23862 -4.06132 0
M  V30 3730 O 358.331 -1.10363 -3.38672 0
M  V30 3731 O 357.19 -1.45252 -5.26844 0
M  V30 3732 H 354.284 -0.185331 -0.805966 0
M  V30 3733 H 356.83 -1.06709 -1.31952 0
M  V30 3734 H 355.602 -2.19333 -3.2405 0
M  V30 3735 H 355.225 -0.621746 -3.92709 0
M  V30 3736 N 356.222 1.38976 -0.743202 0
M  V30 3737 C 357.169 2.30544 -0.10861 0
M  V30 3738 C 358.139 1.49642 0.720869 0
M  V30 3739 O 359.324 1.78304 0.679142 0
M  V30 3740 C 356.464 3.36018 0.786496 0
M  V30 3741 C 355.577 4.31963 -0.0564849 0
M  V30 3742 C 354.712 5.24506 0.840657 0
M  V30 3743 C 353.751 6.121 -0.00658363 0
M  V30 3744 N 352.888 6.96973 0.846943 0
M  V30 3745 H 357.728 2.8424 -0.895088 0
M  V30 3746 H 355.265 1.3995 -0.453048 0
M  V30 3747 H 357.223 3.95768 1.31999 0
M  V30 3748 H 355.853 2.83758 1.53887 0
M  V30 3749 H 354.905 3.73763 -0.707492 0
M  V30 3750 H 356.217 4.93703 -0.711229 0
M  V30 3751 H 355.371 5.89322 1.4417 0
M  V30 3752 H 354.11 4.63107 1.52916 0
M  V30 3753 H 353.115 5.46289 -0.620366 0
M  V30 3754 H 354.34 6.75565 -0.691992 0
M  V30 3755 H 352.286 6.38133 1.52059 0
M  V30 3756 H 352.203 7.5559 0.248864 0
M  V30 3757 H 353.471 7.6621 1.43328 0
M  V30 3758 N 357.7 0.491464 1.49741 0
M  V30 3759 C 358.63 -0.28154 2.31796 0
M  V30 3760 C 359.611 -0.971473 1.3963 0
M  V30 3761 O 360.796 -0.964719 1.68543 0
M  V30 3762 C 357.926 -1.35203 3.19902 0
M  V30 3763 C 356.88 -0.782529 4.20786 0
M  V30 3764 C 356.206 -1.95283 4.97764 0
M  V30 3765 C 357.506 0.21999 5.21837 0
M  V30 3766 H 359.2 0.403355 2.96671 0
M  V30 3767 H 356.746 0.195425 1.42668 0
M  V30 3768 H 358.699 -1.90045 3.76113 0
M  V30 3769 H 357.423 -2.06598 2.52953 0
M  V30 3770 H 356.082 -0.255928 3.65706 0
M  V30 3771 H 355.73 -2.65423 4.2727 0
M  V30 3772 H 355.43 -1.57789 5.66018 0
M  V30 3773 H 356.954 -2.50577 5.56816 0
M  V30 3774 H 358.368 -0.23996 5.72798 0
M  V30 3775 H 356.765 0.51026 5.97927 0
M  V30 3776 H 357.835 1.13911 4.7133 0
M  V30 3777 N 359.178 -1.55987 0.224894 0
M  V30 3778 C 360.426 -1.97998 -0.405099 0
M  V30 3779 C 360.747 -1.11387 -1.60056 0
M  V30 3780 O 360.017 -0.191645 -1.9496 0
M  V30 3781 H 358.597 -0.731235 -0.152658 0
M  V30 3782 H 361.259 -1.92279 0.318567 0
M  V30 3783 H 360.355 -3.03463 -0.729167 0
M  V30 3784 N 360.656 0.0484629 -1.57525 0
M  V30 3785 C 361.589 1.08755 -2.00618 0
M  V30 3786 C 362.567 1.36272 -0.887058 0
M  V30 3787 O 363.751 1.49255 -1.15131 0
M  V30 3788 C 360.878 2.42675 -2.36277 0
M  V30 3789 C 359.924 2.31142 -3.58435 0
M  V30 3790 S 360.757 1.68326 -5.08357 0
M  V30 3791 C 361.913 3.03776 -5.47239 0
M  V30 3792 H 362.146 0.720415 -2.88439 0
M  V30 3793 H 359.679 0.257801 -1.52233 0
M  V30 3794 H 361.637 3.19699 -2.57494 0
M  V30 3795 H 360.298 2.76541 -1.48942 0
M  V30 3796 H 359.491 3.29957 -3.80978 0
M  V30 3797 H 359.093 1.62258 -3.36969 0
M  V30 3798 H 361.385 4.00106 -5.46737 0
M  V30 3799 H 362.328 2.85988 -6.47778 0
M  V30 3800 H 362.736 3.05456 -4.74718 0
M  V30 3801 N 362.134 1.5431 0.320358 0
M  V30 3802 C 363.55 1.45091 0.664889 0
M  V30 3803 C 363.75 0.626382 1.91517 0
M  V30 3804 O 362.806 0.126443 2.52183 0
M  V30 3805 C 364.119 2.88848 0.83591 0
M  V30 3806 C 365.667 2.9877 0.933046 0
M  V30 3807 C 366.142 4.43683 1.13621 0
M  V30 3808 N 367.633 4.47309 1.20287 0
M  V30 3809 C 368.368 5.56595 1.37801 0
M  V30 3810 N 367.864 6.75844 1.52338 0
M  V30 3811 N 369.657 5.44248 1.40535 0
M  V30 3812 H 361.808 2.06398 -0.501374 0
M  V30 3813 H 364.071 0.933963 -0.162534 0
M  V30 3814 H 363.777 3.51698 -0.0116092 0
M  V30 3815 H 363.651 3.35148 1.73078 0
M  V30 3816 H 366.038 2.36045 1.77107 0
M  V30 3817 H 366.119 2.55796 0.0145782 0
M  V30 3818 H 365.763 5.06995 0.303032 0
M  V30 3819 H 365.693 4.84269 2.0686 0
M  V30 3820 H 368.184 3.61388 1.10485 0
M  V30 3821 H 368.497 7.54892 1.65403 0
M  V30 3822 H 366.842 6.78746 1.4943 0
M  V30 3823 H 370.033 4.50038 1.28777 0
M  V30 3824 H 370.206 6.29473 1.53842 0
M  V30 3825 N 363.613 -0.582584 1.46437 0
M  V30 3826 C 364.861 -1.33814 1.51453 0
M  V30 3827 C 365.182 -1.94277 0.167792 0
M  V30 3828 O 364.452 -1.78566 -0.805677 0
M  V30 3829 H 363.032 -0.496838 0.557818 0
M  V30 3830 H 365.694 -0.682281 1.82568 0
M  V30 3831 H 364.79 -2.14479 2.26728 0
M  V30 3832 N 365.091 -1.34144 -0.827227 0
M  V30 3833 C 366.316 -1.29476 -1.62021 0
M  V30 3834 C 366.741 0.129292 -1.87655 0
M  V30 3835 O 366.099 1.08967 -1.449 0
M  V30 3836 C 366.147 -2.08702 -2.94068 0
M  V30 3837 O 365.251 -1.45359 -3.85933 0
M  V30 3838 H 364.592 -0.444881 -0.492927 0
M  V30 3839 H 367.122 -1.76882 -1.02829 0
M  V30 3840 H 367.132 -2.19898 -3.43669 0
M  V30 3841 H 365.807 -3.12241 -2.74734 0
M  V30 3842 H 364.384 -1.42879 -3.44442 0
M  V30 3843 N 366.569 1.04691 -1.17803 0
M  V30 3844 C 367.517 2.14665 -0.895635 0
M  V30 3845 C 368.511 1.68806 0.141679 0
M  V30 3846 O 369.717 1.79999 -0.00587914 0
M  V30 3847 H 366.092 0.701038 -0.272121 0
M  V30 3848 H 368.063 2.35685 -1.83017 0
M  V30 3849 C 366.812 3.45019 -0.430962 0
M  V30 3850 H 366.135 3.8071 -1.22064 0
M  V30 3851 H 367.575 4.23125 -0.272301 0
M  V30 3852 C 366.034 3.25943 0.852207 0
M  V30 3853 O 366.564 3.5296 1.91786 0
M  V30 3854 N 364.77 2.79304 0.802346 0
M  V30 3855 H 364.317 2.57518 -0.0650788 0
M  V30 3856 H 364.275 2.66921 1.66134 0
M  V30 3857 N 368.047 0.979072 1.23499 0
M  V30 3858 C 369.275 0.665202 1.95915 0
M  V30 3859 C 369.69 -0.767571 1.72493 0
M  V30 3860 O 369.047 -1.51635 1.01554 0
M  V30 3861 C 369.098 0.944438 3.48945 0
M  V30 3862 O 368.819 2.3209 3.71572 0
M  V30 3863 C 370.32 0.646336 4.38563 0
M  V30 3864 H 367.54 0.247218 0.623798 0
M  V30 3865 H 370.084 1.31009 1.57025 0
M  V30 3866 H 368.239 0.345575 3.85856 0
M  V30 3867 H 368.653 2.40957 4.65876 0
M  V30 3868 H 370.127 0.892091 5.44744 0
M  V30 3869 H 370.604 -0.419575 4.37191 0
M  V30 3870 H 371.21 1.22562 4.07258 0
M  V30 3871 N 369.525 -1.3858 0.750561 0
M  V30 3872 C 370.765 -2.02032 0.310258 0
M  V30 3873 C 371.129 -1.58288 -1.08668 0
M  V30 3874 O 372.33 -2.14049 -1.62593 0
M  V30 3875 C 370.601 -3.54856 0.425647 0
M  V30 3876 S 372.16 -4.38748 0.0674797 0
M  V30 3877 H 368.978 -0.700705 0.120554 0
M  V30 3878 H 371.58 -1.69134 0.980512 0
M  V30 3879 H 370.284 -3.84182 1.44335 0
M  V30 3880 H 369.815 -3.92527 -0.261894 0
M  V30 3881 H 371.83 -4.82835 -1.14388 0
M  V30 3882 N 371.003 -0.499398 -1.49478 0
M  V30 3883 C 371.913 0.284489 -2.32869 0
M  V30 3884 C 372.929 0.968885 -1.44529 0
M  V30 3885 O 374.105 0.95062 -1.77553 0
M  V30 3886 C 371.17 1.33594 -3.19928 0
M  V30 3887 C 370.231 0.665149 -4.24116 0
M  V30 3888 C 369.464 1.6665 -5.07014 0
M  V30 3889 O 369.687 2.89618 -4.91404 0
M  V30 3890 O 368.621 1.22271 -5.8935 0
M  V30 3891 H 372.447 -0.39802 -3.01081 0
M  V30 3892 H 370.032 -0.260758 -1.47107 0
M  V30 3893 H 371.914 1.94431 -3.73864 0
M  V30 3894 H 370.589 2.0014 -2.54412 0
M  V30 3895 H 369.496 0.0170769 -3.74096 0
M  V30 3896 H 370.829 0.0421555 -4.92182 0
M  V30 3897 N 372.481 1.55866 -0.233164 0
M  V30 3898 C 373.411 2.23783 0.666599 0
M  V30 3899 C 374.392 1.21343 1.19205 0
M  V30 3900 O 375.577 1.4996 1.23392 0
M  V30 3901 C 372.707 2.92671 1.86978 0
M  V30 3902 C 371.661 4.01682 1.47768 0
M  V30 3903 C 370.987 4.57926 2.76058 0
M  V30 3904 C 372.287 5.18126 0.658993 0
M  V30 3905 H 373.981 2.99232 0.100306 0
M  V30 3906 H 371.527 1.43924 0.046804 0
M  V30 3907 H 373.48 3.3888 2.50476 0
M  V30 3908 H 372.204 2.14688 2.46123 0
M  V30 3909 H 370.863 3.56222 0.866106 0
M  V30 3910 H 370.511 3.76659 3.33372 0
M  V30 3911 H 370.211 5.31505 2.50552 0
M  V30 3912 H 371.735 5.06859 3.40479 0
M  V30 3913 H 373.149 5.60644 1.19795 0
M  V30 3914 H 371.546 5.98009 0.500552 0
M  V30 3915 H 372.616 4.83763 -0.331856 0
M  V30 3916 N 373.959 -0.0401083 1.57549 0
M  V30 3917 C 375.208 -0.732108 1.87944 0
M  V30 3918 C 375.521 -1.77107 0.830206 0
M  V30 3919 O 376.727 -2.51488 1.02302 0
M  V30 3920 C 375.183 -1.35315 3.33494 0
M  V30 3921 C 374.791 -0.351105 4.46622 0
M  V30 3922 C 376.535 -2.02566 3.73051 0
M  V30 3923 C 374.442 -0.979859 5.83226 0
M  V30 3924 H 373.372 -0.277188 0.701201 0
M  V30 3925 H 376.023 0.0138501 1.83495 0
M  V30 3926 H 374.405 -2.14844 3.32653 0
M  V30 3927 H 375.579 0.416674 4.58912 0
M  V30 3928 H 373.894 0.218708 4.15825 0
M  V30 3929 H 376.491 -2.50441 4.72423 0
M  V30 3930 H 376.834 -2.83904 3.04474 0
M  V30 3931 H 377.367 -1.29827 3.76018 0
M  V30 3932 H 374.106 -0.206135 6.55176 0
M  V30 3933 H 373.626 -1.71774 5.74677 0
M  V30 3934 H 375.305 -1.49046 6.29599 0
M  V30 3935 N 375.437 -1.54477 -0.31217 0
M  V30 3936 C 376.684 -1.73227 -1.04875 0
M  V30 3937 C 377.012 -0.512042 -1.87639 0
M  V30 3938 O 376.267 0.506131 -1.89042 0
M  V30 3939 C 376.566 -2.967 -1.99258 0
M  V30 3940 C 376.232 -4.30974 -1.32559 0
M  V30 3941 C 374.894 -4.67477 -1.141 0
M  V30 3942 C 377.246 -5.14258 -0.847835 0
M  V30 3943 C 374.574 -5.84852 -0.465326 0
M  V30 3944 C 376.926 -6.32327 -0.185931 0
M  V30 3945 C 375.59 -6.67499 0.0107077 0
M  V30 3946 H 374.86 -0.633881 -0.383765 0
M  V30 3947 H 377.507 -1.88727 -0.324731 0
M  V30 3948 H 375.812 -2.75935 -2.7815 0
M  V30 3949 H 377.509 -3.08401 -2.563 0
M  V30 3950 H 374.099 -4.02262 -1.4793 0
M  V30 3951 H 378.283 -4.86565 -0.978192 0
M  V30 3952 H 373.539 -6.10654 -0.301883 0
M  V30 3953 H 377.713 -6.96135 0.192211 0
M  V30 3954 H 375.34 -7.58306 0.536287 0
M  V30 3955 N 376.915 0.57481 -1.46744 0
M  V30 3956 C 377.825 1.711 -1.60505 0
M  V30 3957 C 378.841 1.67008 -0.488307 0
M  V30 3958 O 380.017 1.86774 -0.753495 0
M  V30 3959 C 377.082 3.07608 -1.59932 0
M  V30 3960 C 376.143 3.22904 -2.82898 0
M  V30 3961 C 375.376 4.529 -2.82343 0
M  V30 3962 O 375.599 5.37278 -1.91542 0
M  V30 3963 O 374.533 4.71611 -3.73987 0
M  V30 3964 H 378.359 1.62436 -2.56609 0
M  V30 3965 H 375.944 0.742779 -1.29627 0
M  V30 3966 H 377.826 3.88877 -1.62336 0
M  V30 3967 H 376.501 3.16692 -0.669898 0
M  V30 3968 H 375.408 2.41099 -2.86046 0
M  V30 3969 H 376.741 3.18715 -3.75076 0
M  V30 3970 N 378.394 1.34581 0.820102 0
M  V30 3971 C 379.671 1.17675 1.56244 0
M  V30 3972 C 380.051 -0.249541 2.0962 0
M  V30 3973 O 379.399 -1.25125 1.91196 0
M  V30 3974 C 379.609 2.23364 2.6816 0
M  V30 3975 C 380.957 2.58485 3.36854 0
M  V30 3976 O 381.981 2.22175 2.78418 0
M  V30 3977 O 380.84 3.20868 4.42386 0
M  V30 3978 H 377.934 0.456333 0.689702 0
M  V30 3979 H 380.48 1.46222 0.861231 0
M  V30 3980 H 379.252 3.19087 2.26493 0
M  V30 3981 H 378.875 1.96009 3.45928 0
M  V30 3982 N 379.872 -1.04064 1.18357 0
M  V30 3983 C 381.112 -1.78829 0.989921 0
M  V30 3984 C 381.476 -1.86106 -0.472095 0
M  V30 3985 O 382.677 -2.57076 -0.785187 0
M  V30 3986 C 380.948 -3.1823 1.6268 0
M  V30 3987 S 382.507 -4.09332 1.58091 0
M  V30 3988 H 379.325 -0.615754 0.355482 0
M  V30 3989 H 381.927 -1.24778 1.50501 0
M  V30 3990 H 380.631 -3.10543 2.68311 0
M  V30 3991 H 380.162 -3.77357 1.112 0
M  V30 3992 H 382.177 -4.92598 0.596817 0
M  V30 3993 N 381.35 -0.985608 -1.22978 0
M  V30 3994 C 382.297 -0.529825 -2.24636 0
M  V30 3995 C 383.267 0.434028 -1.60329 0
M  V30 3996 O 384.452 0.340414 -1.87739 0
M  V30 3997 C 381.592 0.156533 -3.44745 0
M  V30 3998 C 380.705 -0.848197 -4.23591 0
M  V30 3999 C 379.84 -0.136109 -5.31026 0
M  V30 4000 C 378.879 -1.1297 -6.01585 0
M  V30 4001 N 378.016 -0.446415 -7.00679 0
M  V30 4002 H 382.856 -1.40148 -2.62988 0
M  V30 4003 H 380.393 -0.702168 -1.29259 0
M  V30 4004 H 382.351 0.571324 -4.1327 0
M  V30 4005 H 380.981 0.992025 -3.07179 0
M  V30 4006 H 380.033 -1.38135 -3.54433 0
M  V30 4007 H 381.345 -1.60512 -4.72268 0
M  V30 4008 H 380.499 0.335784 -6.0577 0
M  V30 4009 H 379.238 0.653373 -4.83304 0
M  V30 4010 H 378.243 -1.6123 -5.25628 0
M  V30 4011 H 379.468 -1.91993 -6.51395 0
M  V30 4012 H 377.414 0.323763 -6.55201 0
M  V30 4013 H 377.331 -1.1419 -7.47326 0
M  V30 4014 H 378.599 0.00291697 -7.795 0
M  V30 4015 N 382.828 1.3818 -0.7579 0
M  V30 4016 C 384.077 1.99261 -0.312744 0
M  V30 4017 C 384.39 1.60846 1.11301 0
M  V30 4018 O 385.596 2.14929 1.65885 0
M  V30 4019 C 384.052 3.56294 -0.50821 0
M  V30 4020 C 383.66 4.03657 -1.94333 0
M  V30 4021 C 385.404 4.24313 -0.125982 0
M  V30 4022 C 383.311 5.53347 -2.08712 0
M  V30 4023 H 382.241 0.745456 -0.113185 0
M  V30 4024 H 384.892 1.57889 -0.935056 0
M  V30 4025 H 383.274 3.95575 0.183353 0
M  V30 4026 H 384.448 3.75655 -2.66871 0
M  V30 4027 H 382.763 3.48376 -2.28086 0
M  V30 4028 H 385.36 5.34279 -0.212125 0
M  V30 4029 H 385.703 4.05962 0.921964 0
M  V30 4030 H 386.236 3.90285 -0.769563 0
M  V30 4031 H 382.975 5.76607 -3.11777 0
M  V30 4032 H 382.495 5.83078 -1.4064 0
M  V30 4033 H 384.174 6.19111 -1.87912 0
M  V30 4034 N 384.306 0.507319 1.49211 0
M  V30 4035 C 385.717 0.0611118 1.866 0
M  V30 4036 C 386.068 -1.35488 1.41907 0
M  V30 4037 O 385.193 -2.0108 0.799726 0
M  V30 4038 C 385.788 0.104125 3.3864 0
M  V30 4039 C 384.347 -0.28677 3.75306 0
M  V30 4040 C 383.494 0.473893 2.73221 0
M  V30 4041 H 386.445 0.719775 1.41439 0
M  V30 4042 H 386.466 -0.689672 3.74198 0
M  V30 4043 H 385.978 1.13482 3.71138 0
M  V30 4044 H 384.079 -1.32046 3.48417 0
M  V30 4045 H 384.192 0.0370745 4.79086 0
M  V30 4046 H 382.556 -0.0770644 2.54583 0
M  V30 4047 H 383.339 1.50478 3.08563 0
M  V30 4048 N 385.784 -1.5574 0.241426 0
M  V30 4049 C 386.747 -2.19877 -0.647063 0
M  V30 4050 C 387.747 -1.16642 -1.10686 0
M  V30 4051 O 388.937 -1.41757 -1.01245 0
M  V30 4052 C 386.069 -2.83797 -1.88871 0
M  V30 4053 H 387.262 -2.99772 -0.087574 0
M  V30 4054 H 384.815 -1.56298 -0.00813574 0
M  V30 4055 H 385.55 -2.07824 -2.48957 0
M  V30 4056 H 385.335 -3.59414 -1.56728 0
M  V30 4057 H 386.825 -3.32898 -2.52129 0
M  V30 4058 N 387.262 0.0317525 -1.57568 0
M  V30 4059 C 388.225 1.01783 -2.0536 0
M  V30 4060 C 389.225 1.29203 -0.957253 0
M  V30 4061 O 390.415 1.24251 -1.22095 0
M  V30 4062 C 387.547 2.35137 -2.46827 0
M  V30 4063 H 388.74 0.605062 -2.93733 0
M  V30 4064 H 386.293 0.278514 -1.53799 0
M  V30 4065 H 387.028 2.81168 -1.61602 0
M  V30 4066 H 386.813 2.16566 -3.26866 0
M  V30 4067 H 388.303 3.05938 -2.84239 0
M  V30 4068 N 388.74 1.54641 0.303973 0
M  V30 4069 C 389.688 1.86137 1.39484 0
M  V30 4070 C 390.682 0.734854 1.52631 0
M  V30 4071 O 391.888 0.918803 1.54784 0
M  V30 4072 H 388.263 0.590324 0.465856 0
M  V30 4073 H 390.234 2.77324 1.10154 0
M  V30 4074 C 388.983 2.12274 2.75382 0
M  V30 4075 H 388.306 2.98429 2.66046 0
M  V30 4076 H 389.746 2.38254 3.5073 0
M  V30 4077 C 388.205 0.920365 3.24085 0
M  V30 4078 O 388.735 0.139377 4.01458 0
M  V30 4079 N 386.941 0.726566 2.81371 0
M  V30 4080 H 386.488 1.36332 2.18567 0
M  V30 4081 H 386.446 -0.0763799 3.14307 0
M  V30 4082 N 390.218 -0.567019 1.47046 0
M  V30 4083 C 391.467 -1.32091 1.5243 0
M  V30 4084 C 391.78 -1.94704 0.187021 0
M  V30 4085 O 392.986 -2.7124 0.118771 0
M  V30 4086 C 391.442 -2.39479 2.68659 0
M  V30 4087 C 391.05 -1.831 4.08874 0
M  V30 4088 C 392.794 -3.16111 2.83327 0
M  V30 4089 C 390.701 -2.8821 5.16419 0
M  V30 4090 H 389.631 -0.496629 0.56734 0
M  V30 4091 H 392.282 -0.603354 1.73297 0
M  V30 4092 H 390.664 -3.14105 2.41152 0
M  V30 4093 H 391.838 -1.14913 4.46242 0
M  V30 4094 H 390.153 -1.19085 3.99008 0
M  V30 4095 H 392.75 -3.94585 3.60842 0
M  V30 4096 H 393.093 -3.69686 1.91411 0
M  V30 4097 H 393.626 -2.48595 3.10556 0
M  V30 4098 H 390.365 -2.39504 6.10179 0
M  V30 4099 H 389.885 -3.54839 4.8358 0
M  V30 4100 H 391.564 -3.51881 5.42945 0
M  V30 4101 N 391.696 -1.35014 -0.812953 0
M  V30 4102 C 392.626 -1.30069 -1.93919 0
M  V30 4103 C 393.607 -0.176275 -1.69184 0
M  V30 4104 O 394.792 -0.370227 -1.90638 0
M  V30 4105 C 391.922 -1.06547 -3.30552 0
M  V30 4106 C 390.876 -2.15561 -3.69753 0
M  V30 4107 C 390.202 -1.77214 -5.04479 0
M  V30 4108 C 391.502 -3.57476 -3.808 0
M  V30 4109 H 393.196 -2.24303 -1.98314 0
M  V30 4110 H 390.742 -1.07977 -0.952736 0
M  V30 4111 H 392.695 -1.01729 -4.08937 0
M  V30 4112 H 391.419 -0.0875719 -3.26483 0
M  V30 4113 H 390.078 -2.19466 -2.9365 0
M  V30 4114 H 389.726 -0.780589 -4.96906 0
M  V30 4115 H 389.426 -2.50184 -5.31678 0
M  V30 4116 H 390.95 -1.7391 -5.8531 0
M  V30 4117 H 392.364 -3.55929 -4.4943 0
M  V30 4118 H 390.761 -4.29152 -4.19462 0
M  V30 4119 H 391.831 -3.94091 -2.82525 0
M  V30 4120 N 393.175 1.03435 -1.18907 0
M  V30 4121 C 394.423 1.76394 -0.986382 0
M  V30 4122 C 394.744 1.88883 0.484567 0
M  V30 4123 O 394.014 1.41843 1.3512 0
M  V30 4124 H 392.594 0.65344 -0.361975 0
M  V30 4125 H 395.256 1.248 -1.49703 0
M  V30 4126 H 394.352 2.77424 -1.42978 0
M  V30 4127 N 394.653 0.992116 1.22453 0
M  V30 4128 C 395.603 0.512969 2.22155 0
M  V30 4129 C 396.587 -0.418416 1.55364 0
M  V30 4130 O 397.779 -0.245363 1.75291 0
M  V30 4131 C 394.908 -0.171822 3.4287 0
M  V30 4132 C 393.994 0.779822 4.16869 0
M  V30 4133 N 394.385 1.92734 4.6764 0
M  V30 4134 C 392.683 0.59554 4.42006 0
M  V30 4135 C 393.384 2.52458 5.24061 0
M  V30 4136 N 392.36 1.80735 5.12675 0
M  V30 4137 H 396.162 1.38817 2.5905 0
M  V30 4138 H 393.676 0.854277 1.38115 0
M  V30 4139 H 395.673 -0.532469 4.13486 0
M  V30 4140 H 394.333 -1.04317 3.07487 0
M  V30 4141 H 395.344 2.30816 4.63621 0
M  V30 4142 H 392.021 -0.229805 4.16867 0
M  V30 4143 H 393.411 3.49433 5.73887 0
M  V30 4144 N 396.131 -1.37776 0.765217 0
M  V30 4145 C 397.041 -2.34135 0.147666 0
M  V30 4146 C 398.057 -1.59854 -0.687215 0
M  V30 4147 O 399.233 -1.91983 -0.608659 0
M  V30 4148 C 396.298 -3.3901 -0.72617 0
M  V30 4149 C 395.359 -4.2912 0.124417 0
M  V30 4150 C 394.592 -5.28986 -0.707807 0
M  V30 4151 O 394.815 -5.36205 -1.94525 0
M  V30 4152 O 393.749 -6.01779 -0.12046 0
M  V30 4153 H 397.575 -2.88664 0.943758 0
M  V30 4154 H 395.16 -1.39824 0.526277 0
M  V30 4155 H 397.042 -4.03195 -1.22524 0
M  V30 4156 H 395.717 -2.86819 -1.50056 0
M  V30 4157 H 394.624 -3.68057 0.669696 0
M  V30 4158 H 395.957 -4.84598 0.861736 0
M  V30 4159 N 397.609 -0.515225 -1.4894 0
M  V30 4160 C 398.557 0.269115 -2.31038 0
M  V30 4161 C 399.551 0.949443 -1.40292 0
M  V30 4162 O 400.757 0.87551 -1.57273 0
M  V30 4163 H 397.132 0.10565 -0.744542 0
M  V30 4164 H 399.103 -0.443096 -2.95092 0
M  V30 4165 C 397.852 1.31213 -3.21991 0
M  V30 4166 H 397.175 0.798034 -3.91754 0
M  V30 4167 H 398.615 1.83263 -3.82349 0
M  V30 4168 C 397.074 2.33791 -2.42576 0
M  V30 4169 O 397.604 3.3995 -2.14003 0
M  V30 4170 N 395.81 2.06625 -2.0434 0
M  V30 4171 H 395.357 1.20314 -2.27777 0
M  V30 4172 H 395.315 2.75483 -1.51514 0
M  V30 4173 N 399.087 1.5561 -0.249682 0
M  V30 4174 C 400.034 2.21496 0.648694 0
M  V30 4175 C 401.004 1.17977 1.16921 0
M  V30 4176 O 402.189 1.46434 1.22318 0
M  V30 4177 C 399.329 2.92039 1.83868 0
M  V30 4178 C 398.442 4.10219 1.35442 0
M  V30 4179 C 397.577 4.6847 2.50419 0
M  V30 4180 C 396.616 5.78893 1.98869 0
M  V30 4181 N 395.753 6.31315 3.07223 0
M  V30 4182 H 400.593 2.97892 0.0801582 0
M  V30 4183 H 398.13 1.47074 0.0278031 0
M  V30 4184 H 400.088 3.31138 2.53778 0
M  V30 4185 H 398.718 2.18111 2.37965 0
M  V30 4186 H 397.77 3.76413 0.54928 0
M  V30 4187 H 399.082 4.89927 0.936649 0
M  V30 4188 H 398.236 5.10158 3.28366 0
M  V30 4189 H 396.975 3.87984 2.95499 0
M  V30 4190 H 395.98 5.3668 1.19393 0
M  V30 4191 H 397.205 6.61232 1.54755 0
M  V30 4192 H 395.151 5.53733 3.51732 0
M  V30 4193 H 395.068 7.06224 2.69784 0
M  V30 4194 H 396.336 6.77662 3.8522 0
M  V30 4195 N 400.565 -0.0233959 1.57583 0
M  V30 4196 C 401.813 -0.711654 1.89156 0
M  V30 4197 C 402.134 -1.75591 0.848096 0
M  V30 4198 O 401.404 -1.95547 -0.117566 0
M  V30 4199 H 399.984 -0.265835 0.698098 0
M  V30 4200 H 402.646 0.0119948 1.94896 0
M  V30 4201 H 401.742 -1.19766 2.88206 0
M  V30 4202 N 402.043 -1.548 -0.295768 0
M  V30 4203 C 403.289 -1.74588 -1.03184 0
M  V30 4204 C 403.622 -0.532962 -1.86744 0
M  V30 4205 O 402.897 0.469872 -1.88739 0
M  V30 4206 C 403.18 -3.03791 -1.93347 0
M  V30 4207 C 403.033 -4.35392 -1.12933 0
M  V30 4208 C 404.352 -3.28892 -2.92435 0
M  V30 4209 H 401.471 -0.635221 -0.373715 0
M  V30 4210 H 404.113 -1.87519 -0.30606 0
M  V30 4211 H 402.263 -2.92898 -2.55232 0
M  V30 4212 H 403.935 -4.58211 -0.532943 0
M  V30 4213 H 402.178 -4.31642 -0.432168 0
M  V30 4214 H 402.849 -5.22074 -1.79284 0
M  V30 4215 H 405.325 -3.39429 -2.4068 0
M  V30 4216 H 404.201 -4.20603 -3.52682 0
M  V30 4217 H 404.462 -2.47437 -3.6637 0
M  V30 4218 N 403.521 0.559213 -1.47345 0
M  V30 4219 C 404.751 1.33999 -1.57251 0
M  V30 4220 C 405.159 1.87905 -0.220978 0
M  V30 4221 O 404.502 1.65577 0.795617 0
M  V30 4222 C 404.564 2.54798 -2.53611 0
M  V30 4223 C 404.228 2.22192 -3.99349 0
M  V30 4224 C 405.225 1.79607 -4.87891 0
M  V30 4225 C 402.91 2.33613 -4.44669 0
M  V30 4226 C 404.904 1.48868 -6.19772 0
M  V30 4227 C 402.591 2.02487 -5.76578 0
M  V30 4228 C 403.589 1.60183 -6.63951 0
M  V30 4229 O 403.277 1.29451 -7.93409 0
M  V30 4230 H 403.009 0.414858 -0.533731 0
M  V30 4231 H 405.563 0.684465 -1.9366 0
M  V30 4232 H 403.793 3.23235 -2.12265 0
M  V30 4233 H 405.482 3.16873 -2.53666 0
M  V30 4234 H 406.248 1.70278 -4.54126 0
M  V30 4235 H 402.127 2.65501 -3.76869 0
M  V30 4236 H 405.671 1.15775 -6.87926 0
M  V30 4237 H 401.568 2.11448 -6.09885 0
M  V30 4238 H 402.336 1.43098 -8.05894 0
M  V30 4239 N 404.999 1.35443 0.805782 0
M  V30 4240 C 406.245 1.28952 1.56522 0
M  V30 4241 C 406.578 -0.135597 1.93726 0
M  V30 4242 O 405.853 -1.08516 1.61414 0
M  V30 4243 C 406.136 2.19678 2.85331 0
M  V30 4244 C 405.989 3.7081 2.54598 0
M  V30 4245 C 407.308 2.09495 3.8704 0
M  V30 4246 H 404.427 0.469764 0.567883 0
M  V30 4247 H 407.069 1.65851 0.927001 0
M  V30 4248 H 405.219 1.8834 3.39795 0
M  V30 4249 H 406.891 4.12593 2.06312 0
M  V30 4250 H 405.134 3.91051 1.8778 0
M  V30 4251 H 405.805 4.29679 3.46525 0
M  V30 4252 H 408.281 2.37045 3.41978 0
M  V30 4253 H 407.157 2.75173 4.74943 0
M  V30 4254 H 407.418 1.07714 4.28777 0
M  V30 4255 N 406.477 -1.02803 1.19454 0
M  V30 4256 C 407.407 -2.12999 0.956758 0
M  V30 4257 C 408.388 -1.69743 -0.110188 0
M  V30 4258 O 409.573 -1.94148 0.0450038 0
M  V30 4259 C 406.703 -3.43746 0.495553 0
M  V30 4260 C 405.657 -4.00688 1.50443 0
M  V30 4261 C 404.983 -5.27067 0.900275 0
M  V30 4262 C 406.283 -4.35397 2.8849 0
M  V30 4263 H 407.977 -2.33148 1.87836 0
M  V30 4264 H 405.523 -1.12045 0.904539 0
M  V30 4265 H 407.476 -4.2021 0.316493 0
M  V30 4266 H 406.2 -3.23321 -0.461646 0
M  V30 4267 H 404.859 -3.2632 1.67065 0
M  V30 4268 H 404.507 -5.02959 -0.064503 0
M  V30 4269 H 404.207 -5.66127 1.57397 0
M  V30 4270 H 405.731 -6.06196 0.73203 0
M  V30 4271 H 407.145 -5.02795 2.75446 0
M  V30 4272 H 405.542 -4.85541 3.52661 0
M  V30 4273 H 406.612 -3.44662 3.41081 0
M  V30 4274 N 407.956 -0.998596 -1.21925 0
M  V30 4275 C 408.889 -0.498517 -2.22688 0
M  V30 4276 C 409.867 0.444301 -1.56412 0
M  V30 4277 O 411.051 0.368518 -1.84863 0
M  V30 4278 C 408.178 0.276639 -3.37568 0
M  V30 4279 C 407.224 -0.61302 -4.22071 0
M  V30 4280 S 408.057 -2.07168 -4.93803 0
M  V30 4281 C 409.213 -1.30617 -6.12119 0
M  V30 4282 H 409.446 -1.35234 -2.64762 0
M  V30 4283 H 406.979 -0.806018 -1.31692 0
M  V30 4284 H 408.937 0.717817 -4.04175 0
M  V30 4285 H 407.598 1.10581 -2.93991 0
M  V30 4286 H 406.791 -0.0162909 -5.03997 0
M  V30 4287 H 406.393 -0.991202 -3.60626 0
M  V30 4288 H 408.685 -0.57675 -6.75041 0
M  V30 4289 H 409.628 -2.10091 -6.76215 0
M  V30 4290 H 410.036 -0.816957 -5.58557 0
M  V30 4291 N 409.434 1.37368 -0.772513 0
M  V30 4292 C 410.659 2.0447 -0.347386 0
M  V30 4293 C 411.084 1.57882 1.0225 0
M  V30 4294 O 410.442 0.73941 1.65537 0
M  V30 4295 C 410.49 3.58369 -0.400479 0
M  V30 4296 O 409.594 4.0803 0.598789 0
M  V30 4297 H 408.935 0.646773 -0.15027 0
M  V30 4298 H 411.465 1.75667 -1.04892 0
M  V30 4299 H 411.475 4.07183 -0.258045 0
M  V30 4300 H 410.15 3.91633 -1.39986 0
M  V30 4301 H 408.727 3.70534 0.419411 0
M  V30 4302 N 410.912 0.523116 1.48665 0
M  V30 4303 C 412.16 -0.0134497 2.02096 0
M  V30 4304 C 412.481 -1.35418 1.40311 0
M  V30 4305 O 411.751 -1.87543 0.566074 0
M  V30 4306 H 410.331 -0.00795915 0.746958 0
M  V30 4307 H 412.993 0.685388 1.82451 0
M  V30 4308 H 412.089 -0.126849 3.11842 0
M  V30 4309 N 412.39 -1.55475 0.257931 0
M  V30 4310 C 413.32 -2.24815 -0.630912 0
M  V30 4311 C 414.301 -1.23224 -1.17259 0
M  V30 4312 O 415.486 -1.51904 -1.20991 0
M  V30 4313 C 412.616 -2.95609 -1.82298 0
M  V30 4314 C 411.57 -4.03982 -1.41359 0
M  V30 4315 C 410.896 -4.6226 -2.68738 0
M  V30 4316 C 412.196 -5.19109 -0.57648 0
M  V30 4317 H 413.89 -2.99354 -0.0526878 0
M  V30 4318 H 411.436 -1.4398 -0.023901 0
M  V30 4319 H 413.389 -3.42822 -2.45054 0
M  V30 4320 H 412.113 -2.18577 -2.42676 0
M  V30 4321 H 410.772 -3.57555 -0.809324 0
M  V30 4322 H 410.42 -3.81915 -3.27338 0
M  V30 4323 H 410.12 -5.35424 -2.42065 0
M  V30 4324 H 411.644 -5.12212 -3.32372 0
M  V30 4325 H 413.058 -5.62479 -1.10861 0
M  V30 4326 H 411.455 -5.98729 -0.405351 0
M  V30 4327 H 412.525 -4.83174 0.408776 0
M  V30 4328 N 413.868 0.0150385 -1.57593 0
M  V30 4329 C 415.145 0.7392 -1.81094 0
M  V30 4330 C 415.525 1.92817 -0.859344 0
M  V30 4331 O 414.873 2.28301 0.095362 0
M  V30 4332 C 415.083 1.15907 -3.29191 0
M  V30 4333 C 416.431 1.56918 -3.9454 0
M  V30 4334 O 417.455 1.25328 -3.33424 0
M  V30 4335 O 416.314 2.15604 -5.02173 0
M  V30 4336 H 413.408 0.358631 -0.745193 0
M  V30 4337 H 415.954 -0.00926156 -1.69697 0
M  V30 4338 H 414.726 0.310921 -3.90063 0
M  V30 4339 H 414.349 1.96711 -3.45529 0
M  V30 4340 N 415.346 1.54954 0.287554 0
M  V30 4341 C 416.276 1.89839 1.35954 0
M  V30 4342 C 417.257 0.758675 1.52244 0
M  V30 4343 O 418.442 1.01557 1.65529 0
M  V30 4344 C 415.572 2.15753 2.72154 0
M  V30 4345 C 414.526 3.3159 2.70614 0
M  V30 4346 C 413.852 3.42952 4.10229 0
M  V30 4347 C 415.152 4.68359 2.31165 0
M  V30 4348 H 416.846 2.79625 1.07007 0
M  V30 4349 H 414.392 1.3454 0.513316 0
M  V30 4350 H 416.345 2.38743 3.47246 0
M  V30 4351 H 415.069 1.22752 3.02654 0
M  V30 4352 H 413.728 3.08545 1.97979 0
M  V30 4353 H 413.376 2.47443 4.37928 0
M  V30 4354 H 413.076 4.20826 4.10097 0
M  V30 4355 H 414.6 3.68218 4.87081 0
M  V30 4356 H 416.014 4.9099 2.95976 0
M  V30 4357 H 414.411 5.49044 2.42221 0
M  V30 4358 H 415.481 4.68165 1.26291 0
M  V30 4359 N 416.824 -0.551391 1.4764 0
M  V30 4360 C 417.734 -1.68525 1.63207 0
M  V30 4361 C 418.75 -1.6621 0.514815 0
M  V30 4362 O 419.926 -1.85551 0.783113 0
M  V30 4363 C 416.991 -3.05025 1.64805 0
M  V30 4364 C 416.052 -3.18362 2.88 0
M  V30 4365 C 415.285 -4.4835 2.89513 0
M  V30 4366 O 415.508 -5.34163 2.00065 0
M  V30 4367 O 414.442 -4.65602 3.81443 0
M  V30 4368 H 418.268 -1.58333 2.59161 0
M  V30 4369 H 415.853 -0.722063 1.30792 0
M  V30 4370 H 417.735 -3.86245 1.68502 0
M  V30 4371 H 416.41 -3.15587 0.720197 0
M  V30 4372 H 415.317 -2.36518 2.89845 0
M  V30 4373 H 416.65 -3.12707 3.80099 0
M  V30 4374 N 418.302 -1.35869 -0.798587 0
M  V30 4375 C 419.718 -1.16082 -1.09532 0
M  V30 4376 C 419.918 0.0213124 -2.01489 0
M  V30 4377 O 418.974 0.689488 -2.42904 0
M  V30 4378 C 420.287 -2.46748 -1.7186 0
M  V30 4379 C 421.835 -2.53028 -1.84244 0
M  V30 4380 C 422.31 -3.83758 -2.49988 0
M  V30 4381 N 423.801 -3.85053 -2.57465 0
M  V30 4382 C 424.536 -4.8294 -3.09122 0
M  V30 4383 N 424.032 -5.91217 -3.61157 0
M  V30 4384 N 425.825 -4.70369 -3.0775 0
M  V30 4385 H 417.976 -2.11571 -0.187461 0
M  V30 4386 H 420.239 -0.936726 -0.145765 0
M  V30 4387 H 419.945 -3.33471 -1.11759 0
M  V30 4388 H 419.819 -2.61883 -2.71472 0
M  V30 4389 H 422.206 -1.66729 -2.43486 0
M  V30 4390 H 422.287 -2.418 -0.834643 0
M  V30 4391 H 421.931 -4.70459 -1.91393 0
M  V30 4392 H 421.861 -3.92278 -3.5132 0
M  V30 4393 H 424.352 -3.06822 -2.20609 0
M  V30 4394 H 424.665 -6.61892 -3.98896 0
M  V30 4395 H 423.01 -5.94899 -3.59333 0
M  V30 4396 H 426.201 -3.84914 -2.66381 0
M  V30 4397 H 426.374 -5.46816 -3.47701 0
M  V30 4398 N 419.78 1.02168 -1.19998 0
M  V30 4399 C 420.71 2.12488 -0.96804 0
M  V30 4400 C 421.691 1.69799 0.101185 0
M  V30 4401 O 422.876 1.94121 -0.0552993 0
M  V30 4402 C 420.006 3.43479 -0.513776 0
M  V30 4403 C 418.96 3.99884 -1.52566 0
M  V30 4404 C 418.286 5.26582 -0.928214 0
M  V30 4405 C 419.586 4.33861 -2.90795 0
M  V30 4406 H 421.28 2.32149 -1.89069 0
M  V30 4407 H 418.826 1.11564 -0.910468 0
M  V30 4408 H 420.779 4.20036 -0.338774 0
M  V30 4409 H 419.503 3.23561 0.444493 0
M  V30 4410 H 418.162 3.25429 -1.68794 0
M  V30 4411 H 417.81 5.02986 0.0378289 0
M  V30 4412 H 417.51 5.65284 -1.60397 0
M  V30 4413 H 419.034 6.05799 -0.764167 0
M  V30 4414 H 420.448 5.01327 -2.78109 0
M  V30 4415 H 418.845 4.83664 -3.55231 0
M  V30 4416 H 419.915 3.42848 -3.42904 0
M  V30 4417 N 421.258 1.00505 1.21394 0
M  V30 4418 C 422.504 0.688793 1.90745 0
M  V30 4419 C 422.837 -0.778486 1.77914 0
M  V30 4420 O 422.112 -1.56433 1.15581 0
M  V30 4421 C 422.395 1.11063 3.42545 0
M  V30 4422 C 422.248 2.63737 3.64367 0
M  V30 4423 C 423.567 0.673059 4.34923 0
M  V30 4424 H 420.686 0.251702 0.692687 0
M  V30 4425 H 423.328 1.25074 1.43026 0
M  V30 4426 H 421.478 0.632508 3.83317 0
M  V30 4427 H 423.15 3.19313 3.32922 0
M  V30 4428 H 421.393 3.05248 3.08231 0
M  V30 4429 H 422.064 2.88305 4.70727 0
M  V30 4430 H 424.54 1.08392 4.01734 0
M  V30 4431 H 423.416 0.996383 5.39781 0
M  V30 4432 H 423.677 -0.425808 4.40045 0
M  V30 4433 N 422.737 -1.36956 0.779787 0
M  V30 4434 C 423.667 -2.32761 0.185651 0
M  V30 4435 C 424.648 -1.56177 -0.673989 0
M  V30 4436 O 425.833 -1.84378 -0.609797 0
M  V30 4437 C 422.963 -3.40418 -0.687964 0
M  V30 4438 C 421.917 -4.27941 0.0710102 0
M  V30 4439 C 421.243 -5.26681 -0.922573 0
M  V30 4440 C 422.543 -5.07006 1.25467 0
M  V30 4441 H 424.237 -2.82698 0.986008 0
M  V30 4442 H 421.783 -1.3592 0.475592 0
M  V30 4443 H 423.736 -4.06423 -1.11348 0
M  V30 4444 H 422.46 -2.89025 -1.52093 0
M  V30 4445 H 421.119 -3.63478 0.47739 0
M  V30 4446 H 420.767 -4.71565 -1.7503 0
M  V30 4447 H 420.467 -5.86103 -0.419237 0
M  V30 4448 H 421.991 -5.9556 -1.34686 0
M  V30 4449 H 423.405 -5.66105 0.905401 0
M  V30 4450 H 421.802 -5.75793 1.69063 0
M  V30 4451 H 422.872 -4.3921 2.05481 0
M  V30 4452 N 424.215 -0.530993 -1.48385 0
M  V30 4453 C 425.178 0.220497 -2.28137 0
M  V30 4454 C 426.178 0.866851 -1.35434 0
M  V30 4455 O 427.368 0.726746 -1.58316 0
M  V30 4456 C 424.5 1.31921 -3.1434 0
M  V30 4457 H 425.693 -0.479714 -2.96038 0
M  V30 4458 H 423.246 -0.286968 -1.53643 0
M  V30 4459 H 423.981 2.05264 -2.51072 0
M  V30 4460 H 423.766 0.86085 -3.82533 0
M  V30 4461 H 425.256 1.84776 -3.74497 0
M  V30 4462 N 425.693 1.55336 -0.266172 0
M  V30 4463 C 426.941 1.99003 0.35246 0
M  V30 4464 C 427.262 1.15591 1.57047 0
M  V30 4465 O 426.532 0.243268 1.94384 0
M  V30 4466 H 425.112 0.735025 0.133217 0
M  V30 4467 H 427.774 1.91367 -0.369434 0
M  V30 4468 H 426.87 3.05289 0.648453 0
M  V30 4469 N 427.171 -0.0066808 1.57599 0
M  V30 4470 C 428.419 -0.691552 1.899 0
M  V30 4471 C 428.74 -1.74682 0.866672 0
M  V30 4472 O 428.01 -1.95661 -0.0968189 0
M  V30 4473 H 426.59 -0.258416 0.700878 0
M  V30 4474 H 429.252 0.0326655 1.94873 0
M  V30 4475 H 428.348 -1.16702 2.8946 0
M  V30 4476 N 428.649 -1.55105 -0.279332 0
M  V30 4477 C 430.06 -1.66186 -0.850832 0
M  V30 4478 C 430.411 -0.584707 -1.87285 0
M  V30 4479 O 429.536 0.274919 -2.14647 0
M  V30 4480 C 430.131 -3.01264 -1.55001 0
M  V30 4481 C 428.69 -3.14394 -2.06963 0
M  V30 4482 C 427.837 -2.61959 -0.909536 0
M  V30 4483 H 430.788 -1.58602 -0.0558235 0
M  V30 4484 H 430.809 -2.93899 -2.41669 0
M  V30 4485 H 430.321 -3.7964 -0.805931 0
M  V30 4486 H 428.422 -2.4078 -2.84352 0
M  V30 4487 H 428.535 -4.20867 -2.28928 0
M  V30 4488 H 426.899 -2.18957 -1.30116 0
M  V30 4489 H 427.682 -3.42833 -0.179062 0
M  V30 4490 N 430.127 0.543554 -1.4793 0
M  V30 4491 C 431.057 1.65888 -1.64327 0
M  V30 4492 C 432.038 1.62818 -0.492383 0
M  V30 4493 O 433.223 1.80226 -0.723338 0
M  V30 4494 C 430.353 3.04506 -1.67013 0
M  V30 4495 C 429.307 3.2243 -2.81466 0
M  V30 4496 C 428.633 4.61972 -2.69233 0
M  V30 4497 C 429.933 3.06496 -4.22915 0
M  V30 4498 H 431.627 1.52421 -2.57698 0
M  V30 4499 H 429.173 0.731849 -1.24016 0
M  V30 4500 H 431.126 3.82391 -1.77074 0
M  V30 4501 H 429.85 3.18964 -0.70212 0
M  V30 4502 H 428.509 2.46957 -2.70938 0
M  V30 4503 H 428.157 4.73247 -1.7043 0
M  V30 4504 H 427.857 4.74911 -3.46025 0
M  V30 4505 H 429.381 5.41974 -2.81242 0
M  V30 4506 H 430.795 3.74186 -4.34348 0
M  V30 4507 H 429.192 3.30938 -5.006 0
M  V30 4508 H 430.262 2.03077 -4.40327 0
M  V30 4509 N 431.605 1.3629 0.791371 0
M  V30 4510 C 432.853 1.30154 1.5461 0
M  V30 4511 C 433.174 -0.119409 1.94634 0
M  V30 4512 O 432.444 -1.05924 1.64794 0
M  V30 4513 H 431.024 0.478784 0.573389 0
M  V30 4514 H 433.686 1.70565 0.94306 0
M  V30 4515 H 432.782 1.92762 2.45457 0
M  V30 4516 N 433.083 -1.0153 1.20538 0
M  V30 4517 C 434.013 -2.11972 0.979295 0
M  V30 4518 C 434.994 -1.6985 -0.0921787 0
M  V30 4519 O 436.179 -1.94089 0.0655932 0
M  V30 4520 C 433.309 -3.43201 0.531984 0
M  V30 4521 C 432.263 -3.9907 1.54685 0
M  V30 4522 C 431.589 -5.26082 0.956127 0
M  V30 4523 C 432.889 -4.32313 2.93092 0
M  V30 4524 H 434.583 -2.31143 1.90298 0
M  V30 4525 H 432.129 -1.11079 0.916372 0
M  V30 4526 H 434.082 -4.1985 0.361044 0
M  V30 4527 H 432.806 -3.23792 -0.427327 0
M  V30 4528 H 431.465 -3.2453 1.70517 0
M  V30 4529 H 431.113 -5.02999 -0.0111538 0
M  V30 4530 H 430.813 -5.64426 1.63393 0
M  V30 4531 H 432.337 -6.05386 0.796284 0
M  V30 4532 H 433.751 -4.99845 2.80763 0
M  V30 4533 H 432.148 -4.81774 3.57791 0
M  V30 4534 H 433.218 -3.41025 3.44717 0
M  V30 4535 N 434.561 -1.01147 -1.20859 0
M  V30 4536 C 435.494 -0.522108 -2.22147 0
M  V30 4537 C 436.472 0.427686 -1.56874 0
M  V30 4538 O 437.656 0.34889 -1.85243 0
M  V30 4539 C 434.783 0.240819 -3.37843 0
M  V30 4540 C 433.829 -0.657752 -4.21398 0
M  V30 4541 S 434.662 -2.12393 -4.91578 0
M  V30 4542 C 435.818 -1.37102 -6.10699 0
M  V30 4543 H 436.051 -1.38035 -2.63313 0
M  V30 4544 H 433.584 -0.819941 -1.30829 0
M  V30 4545 H 435.542 0.674908 -4.04914 0
M  V30 4546 H 434.203 1.07457 -2.95147 0
M  V30 4547 H 433.396 -0.0697456 -5.03952 0
M  V30 4548 H 432.998 -1.0294 -3.59555 0
M  V30 4549 H 435.29 -0.648315 -6.74391 0
M  V30 4550 H 436.233 -2.17252 -6.73949 0
M  V30 4551 H 436.641 -0.876154 -5.57659 0
M  V30 4552 N 436.039 1.36541 -0.78704 0
M  V30 4553 C 436.971 2.28761 -0.141773 0
M  V30 4554 C 437.984 1.49365 0.647599 0
M  V30 4555 O 439.173 1.71836 0.483173 0
M  V30 4556 C 436.273 3.28771 0.822368 0
M  V30 4557 C 435.446 4.3732 0.0835594 0
M  V30 4558 C 434.505 5.17307 0.963296 0
M  V30 4559 O 433.531 5.67638 0.421419 0
M  V30 4560 N 434.733 5.33515 2.28784 0
M  V30 4561 H 437.498 2.84777 -0.933919 0
M  V30 4562 H 435.059 1.48682 -0.640735 0
M  V30 4563 H 437.051 3.79169 1.41468 0
M  V30 4564 H 435.621 2.73412 1.5154 0
M  V30 4565 H 434.841 3.88118 -0.689809 0
M  V30 4566 H 436.129 5.0701 -0.426358 0
M  V30 4567 H 435.527 4.94234 2.75226 0
M  V30 4568 H 434.084 5.87165 2.82985 0
M  V30 4569 N 437.518 0.538854 1.48102 0
M  V30 4570 C 438.481 -0.208395 2.28251 0
M  V30 4571 C 439.481 -0.859656 1.35892 0
M  V30 4572 O 440.671 -0.71834 1.58699 0
M  V30 4573 C 437.803 -1.30252 3.15035 0
M  V30 4574 H 438.996 0.495407 2.9578 0
M  V30 4575 H 436.549 0.295112 1.53489 0
M  V30 4576 H 437.284 -2.0393 2.52157 0
M  V30 4577 H 437.069 -0.840551 3.82985 0
M  V30 4578 H 438.559 -1.82787 3.75471 0
M  V30 4579 N 438.996 -1.55193 0.274407 0
M  V30 4580 C 440.242 -1.99877 -0.343086 0
M  V30 4581 C 440.575 -1.16256 -1.55558 0
M  V30 4582 O 439.85 -0.232462 -1.93106 0
M  V30 4583 C 440.133 -3.52706 -0.725965 0
M  V30 4584 C 439.986 -4.47081 0.493818 0
M  V30 4585 C 441.305 -4.11422 -1.56268 0
M  V30 4586 H 438.424 -0.726625 -0.123229 0
M  V30 4587 H 441.066 -1.86136 0.38121 0
M  V30 4588 H 439.216 -3.64546 -1.34307 0
M  V30 4589 H 440.888 -4.47186 1.13237 0
M  V30 4590 H 439.131 -4.1877 1.13201 0
M  V30 4591 H 439.802 -5.51699 0.18217 0
M  V30 4592 H 442.278 -4.02855 -1.04151 0
M  V30 4593 H 441.154 -5.18568 -1.79939 0
M  V30 4594 H 441.415 -3.61607 -2.54348 0
M  V30 4595 N 440.474 -0.00167713 -1.576 0
M  V30 4596 C 441.404 0.988091 -2.11563 0
M  V30 4597 C 442.385 1.35736 -1.02517 0
M  V30 4598 O 443.57 1.44082 -1.30208 0
M  V30 4599 C 440.7 2.27941 -2.62031 0
M  V30 4600 C 439.654 2.0517 -3.75619 0
M  V30 4601 C 438.98 3.4033 -4.12407 0
M  V30 4602 C 440.28 1.41294 -5.02825 0
M  V30 4603 H 441.974 0.538771 -2.94513 0
M  V30 4604 H 439.52 0.257712 -1.41675 0
M  V30 4605 H 441.473 2.97539 -2.9841 0
M  V30 4606 H 440.197 2.74989 -1.76205 0
M  V30 4607 H 438.856 1.37998 -3.39635 0
M  V30 4608 H 438.504 3.85085 -3.23603 0
M  V30 4609 H 438.204 3.25909 -4.88935 0
M  V30 4610 H 439.728 4.1124 -4.51347 0
M  V30 4611 H 441.142 2.00851 -5.36965 0
M  V30 4612 H 439.539 1.37356 -5.84169 0
M  V30 4613 H 440.609 0.382362 -4.8339 0
M  V30 4614 N 441.952 1.55251 0.271103 0
M  V30 4615 C 443.229 1.66664 1.02384 0
M  V30 4616 C 443.609 0.534363 2.04225 0
M  V30 4617 O 442.957 -0.465337 2.23712 0
M  V30 4618 C 443.167 3.05961 1.67895 0
M  V30 4619 C 444.515 3.63772 2.18986 0
M  V30 4620 O 445.539 3.08606 1.77878 0
M  V30 4621 O 444.398 4.60429 2.94393 0
M  V30 4622 H 441.492 0.676957 0.475035 0
M  V30 4623 H 444.038 1.67589 0.26681 0
M  V30 4624 H 442.81 3.79815 0.941071 0
M  V30 4625 H 442.433 3.08943 2.5028 0
M  V30 4626 N 443.43 -0.535701 1.48216 0
M  V30 4627 C 444.38 -1.63688 1.58714 0
M  V30 4628 C 445.364 -1.54635 0.444615 0
M  V30 4629 O 446.556 -1.62753 0.695742 0
M  V30 4630 C 443.685 -3.02423 1.62466 0
M  V30 4631 C 442.771 -3.16601 2.82178 0
M  V30 4632 N 443.162 -3.00771 4.06658 0
M  V30 4633 C 441.46 -3.47645 2.79391 0
M  V30 4634 C 442.161 -3.18213 4.86945 0
M  V30 4635 N 441.137 -3.45528 4.19656 0
M  V30 4636 H 444.939 -1.5005 2.5271 0
M  V30 4637 H 442.453 -0.741018 1.44508 0
M  V30 4638 H 444.45 -3.81517 1.6808 0
M  V30 4639 H 443.11 -3.17157 0.695826 0
M  V30 4640 H 444.121 -2.77652 4.37184 0
M  V30 4641 H 440.798 -3.68771 1.95739 0
M  V30 4642 H 442.188 -3.1076 5.95716 0
M  V30 4643 N 444.908 -1.36708 -0.784132 0
M  V30 4644 C 446.136 -1.34398 -1.57305 0
M  V30 4645 C 446.551 0.0735577 -1.88657 0
M  V30 4646 O 445.908 1.03193 -1.50524 0
M  V30 4647 C 445.959 -2.17053 -2.89085 0
M  V30 4648 O 445.68 -3.53281 -2.59083 0
M  V30 4649 C 447.181 -2.22583 -3.83369 0
M  V30 4650 H 444.401 -0.460819 -0.487736 0
M  V30 4651 H 446.945 -1.79879 -0.972819 0
M  V30 4652 H 445.1 -1.75113 -3.45564 0
M  V30 4653 H 445.514 -3.9647 -3.43383 0
M  V30 4654 H 446.988 -2.84763 -4.72878 0
M  V30 4655 H 447.465 -1.23075 -4.21603 0
M  V30 4656 H 448.071 -2.64781 -3.32823 0
M  V30 4657 N 446.386 1.0089 -1.21074 0
M  V30 4658 C 447.635 1.74019 -1.01981 0
M  V30 4659 C 447.948 1.90408 0.447665 0
M  V30 4660 O 449.154 2.60707 0.757906 0
M  V30 4661 C 447.61 3.13026 -1.77603 0
M  V30 4662 C 447.218 3.04623 -3.28495 0
M  V30 4663 C 448.962 3.90312 -1.66904 0
M  V30 4664 C 446.869 4.38685 -3.96623 0
M  V30 4665 H 445.799 0.652422 -0.377971 0
M  V30 4666 H 448.45 1.12755 -1.44771 0
M  V30 4667 H 446.832 3.74878 -1.27604 0
M  V30 4668 H 448.006 2.52032 -3.85767 0
M  V30 4669 H 446.321 2.40827 -3.39693 0
M  V30 4670 H 448.918 4.8951 -2.15138 0
M  V30 4671 H 449.261 4.11558 -0.62658 0
M  V30 4672 H 449.794 3.35104 -2.14359 0
M  V30 4673 H 446.533 4.22641 -5.01054 0
M  V30 4674 H 446.053 4.91252 -3.4414 0
M  V30 4675 H 447.732 5.075 -4.01314 0
M  V30 4676 N 447.864 1.01787 1.20321 0
M  V30 4677 C 449.275 0.739307 1.71438 0
M  V30 4678 C 449.626 -0.742041 1.81627 0
M  V30 4679 O 448.751 -1.57903 1.47971 0
M  V30 4680 C 449.346 1.33538 3.11373 0
M  V30 4681 C 447.905 1.10566 3.59795 0
M  V30 4682 C 447.052 1.44028 2.36962 0
M  V30 4683 H 450.003 1.18718 1.05317 0
M  V30 4684 H 450.024 0.726611 3.73498 0
M  V30 4685 H 449.536 2.41352 3.03926 0
M  V30 4686 H 447.637 0.0452405 3.72573 0
M  V30 4687 H 447.75 1.78661 4.44542 0
M  V30 4688 H 446.114 0.85933 2.39766 0
M  V30 4689 H 446.897 2.52901 2.32155 0
M  V30 4690 N 449.342 -1.36122 0.79427 0
M  V30 4691 C 450.572 -2.03067 0.380437 0
M  V30 4692 C 450.98 -1.60018 -1.00949 0
M  V30 4693 O 450.323 -0.787425 -1.65968 0
M  V30 4694 C 450.385 -3.57587 0.37034 0
M  V30 4695 C 450.049 -4.23855 1.70867 0
M  V30 4696 C 451.046 -4.46404 2.66496 0
M  V30 4697 C 448.731 -4.61229 1.9893 0
M  V30 4698 C 450.725 -5.05412 3.88378 0
M  V30 4699 C 448.412 -5.19953 3.21079 0
M  V30 4700 C 449.41 -5.41985 4.15621 0
M  V30 4701 O 449.098 -5.99475 5.35616 0
M  V30 4702 H 448.83 -0.658168 0.154243 0
M  V30 4703 H 451.384 -1.7498 1.0757 0
M  V30 4704 H 449.614 -3.84814 -0.381444 0
M  V30 4705 H 451.303 -4.05895 -0.0194894 0
M  V30 4706 H 452.069 -4.17921 2.46103 0
M  V30 4707 H 447.948 -4.43402 1.26158 0
M  V30 4708 H 451.492 -5.22524 4.62185 0
M  V30 4709 H 447.389 -5.47862 3.41347 0
M  V30 4710 H 448.157 -6.17937 5.36745 0
M  V30 4711 N 450.82 -0.546701 -1.47814 0
M  V30 4712 C 451.75 0.195317 -2.32682 0
M  V30 4713 C 452.731 0.918981 -1.43139 0
M  V30 4714 O 453.916 0.901501 -1.72008 0
M  V30 4715 C 451.046 1.23237 -3.247 0
M  V30 4716 C 450 0.625818 -4.234 0
M  V30 4717 C 449.326 1.76674 -5.04669 0
M  V30 4718 C 450.626 -0.413515 -5.2066 0
M  V30 4719 H 452.32 -0.513184 -2.94969 0
M  V30 4720 H 449.866 -0.248241 -1.41844 0
M  V30 4721 H 451.819 1.75955 -3.82907 0
M  V30 4722 H 450.543 1.97067 -2.60446 0
M  V30 4723 H 449.202 0.120023 -3.66403 0
M  V30 4724 H 448.85 2.49383 -4.36826 0
M  V30 4725 H 448.55 1.36673 -5.71484 0
M  V30 4726 H 450.074 2.29738 -5.65732 0
M  V30 4727 H 451.488 0.0272042 -5.73294 0
M  V30 4728 H 449.885 -0.731825 -5.95621 0
M  V30 4729 H 450.955 -1.31325 -4.66778 0
M  V30 4730 N 452.299 1.55045 -0.282633 0
M  V30 4731 C 453.249 2.19514 0.616249 0
M  V30 4732 C 454.233 1.16216 1.11277 0
M  V30 4733 O 455.425 1.42004 1.05659 0
M  V30 4734 C 452.554 2.92548 1.7964 0
M  V30 4735 C 451.64 4.03142 1.31671 0
M  V30 4736 N 452.031 5.0276 0.553695 0
M  V30 4737 C 450.329 4.1635 1.59903 0
M  V30 4738 C 451.03 5.80923 0.30054 0
M  V30 4739 N 450.006 5.3651 0.875116 0
M  V30 4740 H 453.808 2.93889 0.0255363 0
M  V30 4741 H 451.322 1.62169 -0.0865362 0
M  V30 4742 H 453.319 3.37188 2.45173 0
M  V30 4743 H 451.979 2.19685 2.39099 0
M  V30 4744 H 452.99 5.17512 0.20032 0
M  V30 4745 H 449.667 3.54682 2.20243 0
M  V30 4746 H 451.057 6.7118 -0.311053 0
M  V30 4747 N 453.777 0.010035 1.57597 0
M  V30 4748 C 455.023 -0.673697 1.91283 0
M  V30 4749 C 455.356 -1.72863 0.884979 0
M  V30 4750 O 454.631 -1.94268 -0.0949487 0
M  V30 4751 C 454.914 -1.30766 3.35518 0
M  V30 4752 C 454.767 -0.263578 4.49027 0
M  V30 4753 C 456.086 -2.23105 3.79358 0
M  V30 4754 H 453.205 -0.243439 0.695634 0
M  V30 4755 H 455.847 0.0633864 1.89894 0
M  V30 4756 H 453.997 -1.93588 3.36832 0
M  V30 4757 H 455.669 0.365738 4.59848 0
M  V30 4758 H 453.912 0.413077 4.31829 0
M  V30 4759 H 454.583 -0.746398 5.4693 0
M  V30 4760 H 457.059 -1.70289 3.79659 0
M  V30 4761 H 455.935 -2.64424 4.81011 0
M  V30 4762 H 456.196 -3.11433 3.13787 0
M  V30 4763 N 455.255 -1.55392 -0.262866 0
M  V30 4764 C 456.671 -1.47459 -0.610582 0
M  V30 4765 C 456.871 -0.697031 -1.8906 0
M  V30 4766 O 455.927 -0.219952 -2.5154 0
M  V30 4767 C 457.24 -2.91751 -0.728131 0
M  V30 4768 C 458.788 -3.02027 -0.821517 0
M  V30 4769 C 459.263 -4.47594 -0.97076 0
M  V30 4770 N 460.754 -4.51465 -1.03603 0
M  V30 4771 C 461.489 -5.61326 -1.17049 0
M  V30 4772 N 460.985 -6.81032 -1.2715 0
M  V30 4773 N 462.778 -5.49089 -1.20239 0
M  V30 4774 H 454.929 -2.04395 0.577632 0
M  V30 4775 H 457.192 -0.927287 0.197086 0
M  V30 4776 H 456.898 -3.51413 0.142132 0
M  V30 4777 H 456.772 -3.4134 -1.6052 0
M  V30 4778 H 459.159 -2.42456 -1.68224 0
M  V30 4779 H 459.24 -2.55674 0.0803688 0
M  V30 4780 H 458.884 -5.07771 -0.114655 0
M  V30 4781 H 458.814 -4.91613 -1.88745 0
M  V30 4782 H 461.305 -3.6524 -0.96996 0
M  V30 4783 H 461.618 -7.60511 -1.37271 0
M  V30 4784 H 459.963 -6.83824 -1.24136 0
M  V30 4785 H 463.154 -4.54507 -1.11985 0
M  V30 4786 H 463.327 -6.34749 -1.30373 0
M  V30 4787 N 456.733 0.527833 -1.48498 0
M  V30 4788 C 457.643 1.65907 -1.65867 0
M  V30 4789 C 458.659 1.6537 -0.541192 0
M  V30 4790 O 459.835 1.84282 -0.812534 0
M  V30 4791 C 456.9 3.02364 -1.69637 0
M  V30 4792 C 455.961 3.1374 -2.93028 0
M  V30 4793 C 455.194 4.43688 -2.96609 0
M  V30 4794 O 455.417 5.30913 -2.08538 0
M  V30 4795 O 454.351 4.59475 -3.88802 0
M  V30 4796 H 458.177 1.5419 -2.61647 0
M  V30 4797 H 455.762 0.701163 -1.31924 0
M  V30 4798 H 457.644 3.83515 -1.74625 0
M  V30 4799 H 456.319 3.14401 -0.770312 0
M  V30 4800 H 455.226 2.31877 -2.93571 0
M  V30 4801 H 456.559 3.06621 -3.85026 0
M  V30 4802 N 458.211 1.37122 0.776871 0
M  V30 4803 C 459.174 1.32301 1.8716 0
M  V30 4804 C 460.174 0.228099 1.59174 0
M  V30 4805 O 461.364 0.483642 1.67352 0
M  V30 4806 C 458.496 1.054 3.24197 0
M  V30 4807 H 459.689 2.29673 1.92848 0
M  V30 4808 H 457.242 1.22077 0.97606 0
M  V30 4809 H 457.977 0.0853872 3.24188 0
M  V30 4810 H 457.762 1.84648 3.45901 0
M  V30 4811 H 459.252 1.04664 4.04271 0
M  V30 4812 N 459.689 -1.00246 1.21608 0
M  V30 4813 C 460.936 -1.74061 1.03485 0
M  V30 4814 C 461.264 -1.89658 -0.431308 0
M  V30 4815 O 460.519 -1.42976 -1.33627 0
M  V30 4816 C 460.818 -3.15448 1.68009 0
M  V30 4817 C 460.484 -3.19792 3.17874 0
M  V30 4818 C 459.146 -3.20685 3.58768 0
M  V30 4819 C 461.498 -3.16835 4.13842 0
M  V30 4820 C 458.826 -3.16309 4.94131 0
M  V30 4821 C 461.178 -3.14001 5.49169 0
M  V30 4822 C 459.842 -3.13204 5.89457 0
M  V30 4823 H 459.112 -0.636934 0.378677 0
M  V30 4824 H 461.759 -1.17473 1.51236 0
M  V30 4825 H 460.064 -3.75284 1.12557 0
M  V30 4826 H 461.761 -3.71285 1.51487 0
M  V30 4827 H 458.351 -3.19842 2.85305 0
M  V30 4828 H 462.535 -3.15303 3.83272 0
M  V30 4829 H 457.791 -3.14032 5.24589 0
M  V30 4830 H 461.965 -3.10667 6.23265 0
M  V30 4831 H 459.592 -3.09568 6.94314 0
M  V30 4832 N 461.167 -1.02423 -1.1978 0
M  V30 4833 C 462.415 -0.716569 -1.8897 0
M  V30 4834 C 462.736 0.756769 -1.79716 0
M  V30 4835 O 462.006 1.5449 -1.20456 0
M  V30 4836 H 460.586 -0.262062 -0.699523 0
M  V30 4837 H 463.248 -1.29747 -1.45436 0
M  V30 4838 H 462.344 -1.00675 -2.95417 0
M  V30 4839 N 462.645 1.35699 -0.801477 0
M  V30 4840 C 463.577 2.28598 -0.166028 0
M  V30 4841 C 464.59 1.50044 0.631721 0
M  V30 4842 O 465.779 1.72339 0.464921 0
M  V30 4843 C 462.879 3.29625 0.787451 0
M  V30 4844 C 462.052 4.37384 0.037171 0
M  V30 4845 C 461.111 5.183 0.908375 0
M  V30 4846 O 460.137 5.68053 0.361189 0
M  V30 4847 N 461.339 5.35912 2.23112 0
M  V30 4848 H 464.104 2.83771 -0.964071 0
M  V30 4849 H 461.665 1.47994 -0.656469 0
M  V30 4850 H 463.657 3.80648 1.37439 0
M  V30 4851 H 462.227 2.75004 1.48632 0
M  V30 4852 H 461.447 3.87364 -0.730935 0
M  V30 4853 H 462.735 5.0653 -0.480109 0
M  V30 4854 H 462.133 4.97125 2.69968 0
M  V30 4855 H 460.69 5.90133 2.76741 0
M  V30 4856 N 464.123 0.554532 1.47522 0
M  V30 4857 C 465.07 -0.19466 2.29978 0
M  V30 4858 C 466.04 -0.910882 1.38896 0
M  V30 4859 O 467.225 -0.907102 1.67858 0
M  V30 4860 C 464.365 -1.22035 3.22802 0
M  V30 4861 C 463.478 -0.510474 4.28973 0
M  V30 4862 C 462.613 -1.52123 5.08952 0
M  V30 4863 C 461.652 -0.796173 6.069 0
M  V30 4864 N 460.789 -1.75363 6.79847 0
M  V30 4865 H 465.629 0.51461 2.93523 0
M  V30 4866 H 463.166 0.265607 1.44682 0
M  V30 4867 H 465.124 -1.8276 3.7504 0
M  V30 4868 H 463.754 -1.89769 2.61127 0
M  V30 4869 H 462.806 0.211234 3.79813 0
M  V30 4870 H 464.118 0.0576503 4.98767 0
M  V30 4871 H 463.272 -2.20207 5.65326 0
M  V30 4872 H 462.011 -2.12327 4.39054 0
M  V30 4873 H 461.016 -0.101388 5.49707 0
M  V30 4874 H 462.241 -0.199911 6.78806 0
M  V30 4875 H 460.187 -2.3443 6.12682 0
M  V30 4876 H 460.104 -1.23759 7.45801 0
M  V30 4877 H 461.372 -2.4257 7.40797 0
M  V30 4878 N 465.601 -1.54893 0.290851 0
M  V30 4879 C 466.85 -1.99111 -0.322113 0
M  V30 4880 C 467.163 -1.18283 -1.55784 0
M  V30 4881 O 468.369 -1.5272 -2.24475 0
M  V30 4882 C 466.825 -3.54442 -0.624438 0
M  V30 4883 C 466.433 -4.44066 0.592373 0
M  V30 4884 C 468.177 -4.07211 -1.19916 0
M  V30 4885 C 466.084 -5.90812 0.263762 0
M  V30 4886 H 465.014 -0.743712 -0.124133 0
M  V30 4887 H 467.665 -1.79132 0.39797 0
M  V30 4888 H 466.047 -3.70281 -1.40384 0
M  V30 4889 H 467.221 -4.39999 1.36886 0
M  V30 4890 H 465.536 -4.02015 1.08502 0
M  V30 4891 H 468.133 -5.14407 -1.45909 0
M  V30 4892 H 468.476 -3.57196 -2.13815 0
M  V30 4893 H 469.009 -3.94873 -0.481687 0
M  V30 4894 H 465.748 -6.44955 1.17105 0
M  V30 4895 H 465.268 -5.97911 -0.475655 0
M  V30 4896 H 466.947 -6.46852 -0.138354 0
M  V30 4897 N 467.08 -0.0183926 -1.57589 0
M  V30 4898 C 468.328 0.661253 -1.90976 0
M  V30 4899 C 468.649 1.73281 -0.894353 0
M  V30 4900 O 467.919 1.9579 0.0656788 0
M  V30 4901 H 466.499 0.247233 -0.704901 0
M  V30 4902 H 469.161 -0.0636639 -1.94796 0
M  V30 4903 H 468.257 1.12083 -2.9128 0
M  V30 4904 N 468.558 1.5553 0.254621 0
M  V30 4905 C 469.508 1.86057 1.31783 0
M  V30 4906 C 470.492 0.720827 1.4385 0
M  V30 4907 O 471.684 0.982586 1.47222 0
M  V30 4908 C 468.813 2.15203 2.67475 0
M  V30 4909 C 467.899 3.35484 2.59444 0
M  V30 4910 N 468.29 4.54945 2.2104 0
M  V30 4911 C 466.588 3.38441 2.90472 0
M  V30 4912 C 467.289 5.3707 2.23453 0
M  V30 4913 N 466.265 4.75936 2.62652 0
M  V30 4914 H 470.067 2.75953 1.01129 0
M  V30 4915 H 467.581 1.55653 0.463255 0
M  V30 4916 H 469.578 2.35235 3.44195 0
M  V30 4917 H 468.238 1.26601 2.99002 0
M  V30 4918 H 469.249 4.8071 1.92712 0
M  V30 4919 H 465.926 2.60087 3.2659 0
M  V30 4920 H 467.316 6.42626 1.96166 0
M  V30 4921 N 470.036 -0.519951 1.48776 0
M  V30 4922 C 471.283 -1.27522 1.57303 0
M  V30 4923 C 471.611 -1.92869 0.251328 0
M  V30 4924 O 470.866 -1.80372 -0.759243 0
M  V30 4925 C 471.165 -2.37864 2.6675 0
M  V30 4926 C 470.831 -1.90103 4.08867 0
M  V30 4927 C 469.493 -1.76795 4.47546 0
M  V30 4928 C 471.845 -1.54133 4.97888 0
M  V30 4929 C 469.173 -1.25868 5.73039 0
M  V30 4930 C 471.525 -1.04665 6.23881 0
M  V30 4931 C 470.189 -0.899823 6.61407 0
M  V30 4932 H 469.459 -0.466636 0.575614 0
M  V30 4933 H 472.106 -0.579109 1.82534 0
M  V30 4934 H 470.411 -3.13186 2.35418 0
M  V30 4935 H 472.108 -2.95969 2.70561 0
M  V30 4936 H 468.698 -2.01414 3.78326 0
M  V30 4937 H 472.882 -1.6327 4.68675 0
M  V30 4938 H 468.138 -1.13196 6.0083 0
M  V30 4939 H 472.312 -0.759074 6.92251 0
M  V30 4940 H 469.939 -0.503011 7.58534 0
M  V30 4941 N 471.514 -1.37532 -0.769588 0
M  V30 4942 C 472.446 -1.29347 -1.89214 0
M  V30 4943 C 473.459 -0.208842 -1.61455 0
M  V30 4944 O 474.648 -0.465158 -1.72333 0
M  V30 4945 C 471.748 -0.977649 -3.24492 0
M  V30 4946 C 470.921 -2.16817 -3.7988 0
M  V30 4947 C 469.98 -1.82229 -4.93639 0
M  V30 4948 O 469.006 -2.54548 -5.09111 0
M  V30 4949 N 470.208 -0.767696 -5.75401 0
M  V30 4950 H 472.973 -2.26073 -1.96751 0
M  V30 4951 H 470.534 -1.31185 -0.948795 0
M  V30 4952 H 472.526 -0.727065 -3.98115 0
M  V30 4953 H 471.096 -0.0988777 -3.12444 0
M  V30 4954 H 470.316 -2.58038 -2.9801 0
M  V30 4955 H 471.604 -2.96308 -4.13617 0
M  V30 4956 H 471.002 -0.167626 -5.65452 0
M  V30 4957 H 469.559 -0.576973 -6.49241 0
M  V30 4958 N 472.992 0.995999 -1.22138 0
M  V30 4959 C 473.922 2.10387 -1.01289 0
M  V30 4960 C 474.903 1.69975 0.0651454 0
M  V30 4961 O 476.088 1.9396 -0.0964628 0
M  V30 4962 C 473.218 3.42312 -0.586517 0
M  V30 4963 C 472.172 3.96558 -1.61014 0
M  V30 4964 C 471.498 5.24494 -1.0397 0
M  V30 4965 C 472.798 4.27595 -2.99933 0
M  V30 4966 H 474.492 2.28086 -1.93951 0
M  V30 4967 H 472.038 1.09607 -0.933928 0
M  V30 4968 H 473.991 4.19223 -0.427793 0
M  V30 4969 H 472.715 3.24431 0.375761 0
M  V30 4970 H 471.374 3.21776 -1.75658 0
M  V30 4971 H 471.022 5.02953 -0.0688703 0
M  V30 4972 H 470.722 5.61755 -1.72352 0
M  V30 4973 H 472.246 6.04042 -0.892494 0
M  V30 4974 H 473.66 4.95315 -2.8868 0
M  V30 4975 H 472.057 4.76021 -3.6541 0
M  V30 4976 H 473.127 3.35498 -3.50099 0
M  V30 4977 N 474.47 1.03057 1.19235 0
M  V30 4978 C 475.403 0.557384 2.21288 0
M  V30 4979 C 476.381 -0.402675 1.57535 0
M  V30 4980 O 477.565 -0.319376 1.85775 0
M  V30 4981 C 474.692 -0.187041 3.38183 0
M  V30 4982 C 473.738 0.72471 4.20298 0
M  V30 4983 S 474.571 2.20187 4.88137 0
M  V30 4984 C 475.727 1.46801 6.08441 0
M  V30 4985 H 475.96 1.42207 2.61083 0
M  V30 4986 H 473.493 0.840651 1.29508 0
M  V30 4987 H 475.451 -0.610405 4.05936 0
M  V30 4988 H 474.112 -1.02748 2.96819 0
M  V30 4989 H 473.305 0.149911 5.03777 0
M  V30 4990 H 472.907 1.08647 3.57871 0
M  V30 4991 H 475.199 0.755522 6.73274 0
M  V30 4992 H 476.142 2.27946 6.70407 0
M  V30 4993 H 476.55 0.964762 5.56195 0
M  V30 4994 N 475.948 -1.35272 0.808662 0
M  V30 4995 C 476.88 -2.28507 0.178149 0
M  V30 4996 C 477.893 -1.50377 -0.623754 0
M  V30 4997 O 479.082 -1.72583 -0.455774 0
M  V30 4998 C 476.182 -3.30038 -0.769959 0
M  V30 4999 C 475.355 -4.37398 -0.0139749 0
M  V30 5000 C 474.414 -5.18775 -0.880875 0
M  V30 5001 O 473.44 -5.68236 -0.331059 0
M  V30 5002 N 474.642 -5.37087 -2.20267 0
M  V30 5003 H 477.407 -2.83255 0.979106 0
M  V30 5004 H 474.968 -1.47643 0.664308 0
M  V30 5005 H 476.96 -3.81371 -1.35418 0
M  V30 5006 H 475.53 -2.75789 -1.47171 0
M  V30 5007 H 474.75 -3.86971 0.751468 0
M  V30 5008 H 476.038 -5.06268 0.506965 0
M  V30 5009 H 475.436 -4.9855 -2.67328 0
M  V30 5010 H 473.993 -5.91593 -2.73608 0
M  V30 5011 N 477.426 -0.562348 -1.47226 0
M  V30 5012 C 478.674 -0.0401371 -2.0206 0
M  V30 5013 C 478.995 1.3165 -1.43852 0
M  V30 5014 O 478.265 1.85976 -0.615599 0
M  V30 5015 H 476.845 -0.0118479 -0.746906 0
M  V30 5016 H 479.507 -0.73352 -1.8057 0
M  V30 5017 H 478.603 0.0441254 -3.12069 0
M  V30 5018 N 478.904 1.54736 -0.299062 0
M  V30 5019 C 479.851 2.23448 0.577899 0
M  V30 5020 C 480.821 1.21637 1.13109 0
M  V30 5021 O 482.006 1.50252 1.17597 0
M  V30 5022 C 479.146 2.9774 1.74484 0
M  V30 5023 C 478.259 4.1432 1.22323 0
M  V30 5024 C 477.394 4.76199 2.35388 0
M  V30 5025 C 476.433 5.84927 1.80351 0
M  V30 5026 N 475.57 6.4077 2.86982 0
M  V30 5027 H 480.41 2.97996 -0.0146545 0
M  V30 5028 H 477.947 1.47088 -0.0190013 0
M  V30 5029 H 479.905 3.39045 2.43114 0
M  V30 5030 H 478.535 2.25572 2.30905 0
M  V30 5031 H 477.587 3.7797 0.429249 0
M  V30 5032 H 478.899 4.92659 0.780309 0
M  V30 5033 H 478.053 5.20346 3.11969 0
M  V30 5034 H 476.792 3.97188 2.83006 0
M  V30 5035 H 475.797 5.40207 1.02259 0
M  V30 5036 H 477.022 6.65821 1.3364 0
M  V30 5037 H 474.968 5.64643 3.33938 0
M  V30 5038 H 474.885 7.1445 2.4718 0
M  V30 5039 H 476.153 6.89574 3.63466 0
M  V30 5040 N 480.382 0.0267497 1.57577 0
M  V30 5041 C 481.315 -0.99059 2.05579 0
M  V30 5042 C 482.293 -1.31884 0.951065 0
M  V30 5043 O 483.477 -1.43592 1.22121 0
M  V30 5044 C 480.604 -2.31125 2.47586 0
M  V30 5045 C 479.65 -2.13777 3.69055 0
M  V30 5046 S 480.483 -1.4388 5.15809 0
M  V30 5047 C 481.639 -2.77321 5.6111 0
M  V30 5048 H 481.872 -0.581976 2.91548 0
M  V30 5049 H 479.405 -0.184876 1.53289 0
M  V30 5050 H 481.363 -3.07049 2.72454 0
M  V30 5051 H 480.024 -2.6912 1.61967 0
M  V30 5052 H 479.217 -3.11405 3.96287 0
M  V30 5053 H 478.819 -1.45996 3.44327 0
M  V30 5054 H 481.111 -3.73565 5.65204 0
M  V30 5055 H 482.054 -2.54756 6.60685 0
M  V30 5056 H 482.462 -2.82459 4.88751 0
M  V30 5057 N 481.861 -1.55662 -0.24637 0
M  V30 5058 C 482.824 -1.89558 -1.28842 0
M  V30 5059 C 483.824 -0.772082 -1.41052 0
M  V30 5060 O 485.014 -1.04007 -1.39743 0
M  V30 5061 C 482.146 -2.12449 -2.66605 0
M  V30 5062 H 483.339 -2.82735 -1.00004 0
M  V30 5063 H 480.892 -1.48562 -0.485684 0
M  V30 5064 H 481.627 -1.21742 -3.00582 0
M  V30 5065 H 481.412 -2.94273 -2.59125 0
M  V30 5066 H 482.902 -2.39854 -3.41847 0
M  V30 5067 N 483.339 0.512053 -1.4905 0
M  V30 5068 C 484.616 1.27337 -1.48474 0
M  V30 5069 C 484.996 2.1009 -0.206301 0
M  V30 5070 O 484.344 2.136 0.811609 0
M  V30 5071 C 484.554 2.13954 -2.75726 0
M  V30 5072 C 485.902 2.73507 -3.24776 0
M  V30 5073 O 486.926 2.24229 -2.76767 0
M  V30 5074 O 485.785 3.63186 -4.08361 0
M  V30 5075 H 482.879 0.575652 -0.593762 0
M  V30 5076 H 485.425 0.527232 -1.61302 0
M  V30 5077 H 484.197 1.52709 -3.60272 0
M  V30 5078 H 483.82 2.95782 -2.65705 0
M  V30 5079 N 484.817 1.37938 0.762283 0
M  V30 5080 C 485.75 1.2884 1.88349 0
M  V30 5081 C 486.728 0.167084 1.61739 0
M  V30 5082 O 487.912 0.34292 1.85355 0
M  V30 5083 C 485.039 0.994257 3.23778 0
M  V30 5084 C 484.085 2.13376 3.69287 0
M  V30 5085 S 484.918 3.75439 3.81845 0
M  V30 5086 C 486.074 3.48195 5.20107 0
M  V30 5087 H 486.307 2.23736 1.95779 0
M  V30 5088 H 483.84 1.23672 0.924368 0
M  V30 5089 H 485.798 0.83138 4.01993 0
M  V30 5090 H 484.459 0.0626251 3.14038 0
M  V30 5091 H 483.652 1.88319 4.67495 0
M  V30 5092 H 483.254 2.25726 2.98201 0
M  V30 5093 H 485.546 3.0377 6.05583 0
M  V30 5094 H 486.489 4.45765 5.50181 0
M  V30 5095 H 486.897 2.82905 4.88493 0
M  V30 5096 N 486.295 -0.989507 1.22664 0
M  V30 5097 C 487.525 -1.7624 1.0781 0
M  V30 5098 C 487.933 -1.85466 -0.374036 0
M  V30 5099 O 487.276 -1.32645 -1.27087 0
M  V30 5100 C 487.338 -3.21007 1.61849 0
M  V30 5101 C 487.002 -3.35316 3.10503 0
M  V30 5102 C 487.999 -3.22362 4.07896 0
M  V30 5103 C 485.684 -3.60258 3.50028 0
M  V30 5104 C 487.678 -3.34139 5.42798 0
M  V30 5105 C 485.365 -3.71676 4.85078 0
M  V30 5106 C 486.363 -3.58625 5.81272 0
M  V30 5107 O 486.051 -3.69655 7.1387 0
M  V30 5108 H 485.783 -0.560209 0.378341 0
M  V30 5109 H 488.337 -1.25252 1.62792 0
M  V30 5110 H 486.567 -3.73202 1.01279 0
M  V30 5111 H 488.256 -3.80024 1.42606 0
M  V30 5112 H 489.022 -3.03 3.78703 0
M  V30 5113 H 484.901 -3.69492 2.75675 0
M  V30 5114 H 488.445 -3.23869 6.17863 0
M  V30 5115 H 484.342 -3.90545 5.1395 0
M  V30 5116 H 485.11 -3.86507 7.21495 0
M  V30 5117 N 487.773 -1.03688 -1.18687 0
M  V30 5118 C 489.001 -0.757918 -1.92518 0
M  V30 5119 C 489.416 0.684398 -1.75959 0
M  V30 5120 O 488.773 1.46617 -1.08673 0
M  V30 5121 C 488.824 -1.10985 -3.44042 0
M  V30 5122 O 488.545 -2.49554 -3.60076 0
M  V30 5123 C 490.046 -0.854844 -4.3498 0
M  V30 5124 H 487.266 -0.276699 -0.611293 0
M  V30 5125 H 489.81 -1.38352 -1.50595 0
M  V30 5126 H 487.965 -0.529279 -3.83767 0
M  V30 5127 H 488.379 -2.6291 -4.53849 0
M  V30 5128 H 489.853 -1.15098 -5.39867 0
M  V30 5129 H 490.33 0.210507 -4.38695 0
M  V30 5130 H 490.936 -1.41853 -4.00946 0
M  V30 5131 N 489.251 1.34841 -0.815825 0
M  V30 5132 C 490.667 1.51543 -0.500697 0
M  V30 5133 C 490.867 1.76261 0.976444 0
M  V30 5134 O 489.923 1.8094 1.76117 0
M  V30 5135 C 491.236 2.68487 -1.35407 0
M  V30 5136 C 492.784 2.82368 -1.35046 0
M  V30 5137 C 493.259 4.02347 -2.18816 0
M  V30 5138 N 494.75 4.09542 -2.16402 0
M  V30 5139 C 495.485 5.01517 -2.77971 0
M  V30 5140 N 494.981 5.98763 -3.48503 0
M  V30 5141 N 496.774 4.94334 -2.67563 0
M  V30 5142 H 488.925 1.17055 -1.77234 0
M  V30 5143 H 491.188 0.573481 -0.754866 0
M  V30 5144 H 490.894 2.56829 -2.40274 0
M  V30 5145 H 490.768 3.63321 -1.01377 0
M  V30 5146 H 493.155 2.93471 -0.309604 0
M  V30 5147 H 493.236 1.88363 -1.73069 0
M  V30 5148 H 492.88 3.92004 -3.22948 0
M  V30 5149 H 492.81 4.95551 -1.78148 0
M  V30 5150 H 495.301 3.39932 -1.65091 0
M  V30 5151 H 495.614 6.6556 -3.92747 0
M  V30 5152 H 493.959 5.98909 -3.52609 0
M  V30 5153 H 497.15 4.1732 -2.12041 0
M  V30 5154 H 497.323 5.6582 -3.15834 0
M  V30 5155 N 490.729 0.570148 1.46925 0
M  V30 5156 C 491.659 -0.158274 2.32963 0
M  V30 5157 C 492.64 -0.896093 1.44583 0
M  V30 5158 O 493.825 -0.874022 1.7342 0
M  V30 5159 C 490.955 -1.18055 3.26619 0
M  V30 5160 C 489.909 -0.558379 4.24342 0
M  V30 5161 C 489.235 -1.68623 5.07415 0
M  V30 5162 C 490.535 0.496295 5.19937 0
M  V30 5163 H 492.229 0.560046 2.94115 0
M  V30 5164 H 489.775 0.270775 1.41431 0
M  V30 5165 H 491.728 -1.69841 3.85658 0
M  V30 5166 H 490.452 -1.92899 2.63548 0
M  V30 5167 H 489.111 -0.0617157 3.66548 0
M  V30 5168 H 488.759 -2.42402 4.40738 0
M  V30 5169 H 488.459 -1.27564 5.73586 0
M  V30 5170 H 489.983 -2.20709 5.69315 0
M  V30 5171 H 491.397 0.0640052 5.73264 0
M  V30 5172 H 489.794 0.82649 5.94381 0
M  V30 5173 H 490.864 1.38735 4.6463 0
M  V30 5174 N 492.207 -1.54576 0.307264 0
M  V30 5175 C 493.14 -2.19946 -0.608195 0
M  V30 5176 C 494.118 -1.17096 -1.12815 0
M  V30 5177 O 495.302 -1.45766 -1.19518 0
M  V30 5178 C 492.429 -2.84826 -1.8328 0
M  V30 5179 C 491.475 -4.01256 -1.44554 0
M  V30 5180 S 492.308 -5.33197 -0.49612 0
M  V30 5181 C 493.464 -6.01563 -1.72838 0
M  V30 5182 H 493.697 -2.97253 -0.0528544 0
M  V30 5183 H 491.23 -1.54129 0.0913837 0
M  V30 5184 H 493.188 -3.22832 -2.53554 0
M  V30 5185 H 491.849 -2.07353 -2.35931 0
M  V30 5186 H 491.042 -4.45457 -2.35762 0
M  V30 5187 H 490.644 -3.6484 -0.822671 0
M  V30 5188 H 492.936 -6.22751 -2.6681 0
M  V30 5189 H 493.879 -6.9552 -1.32882 0
M  V30 5190 H 494.287 -5.31279 -1.90795 0
M  V30 5191 N 493.685 -0.035106 -1.57561 0
M  V30 5192 C 494.648 0.929819 -2.09492 0
M  V30 5193 C 495.648 1.25026 -1.01119 0
M  V30 5194 O 496.838 1.18961 -1.27255 0
M  V30 5195 C 493.97 2.24457 -2.56577 0
M  V30 5196 H 495.163 0.479935 -2.96035 0
M  V30 5197 H 492.716 0.213033 -1.54841 0
M  V30 5198 H 493.451 2.74061 -1.73382 0
M  V30 5199 H 493.236 2.02508 -3.35757 0
M  V30 5200 H 494.726 2.93607 -2.96959 0
M  V30 5201 N 495.163 1.55791 0.238111 0
M  V30 5202 C 496.403 1.79801 0.972163 0
M  V30 5203 C 496.767 0.606027 1.82185 0
M  V30 5204 O 497.968 0.725079 2.58836 0
M  V30 5205 C 496.239 3.08608 1.80266 0
M  V30 5206 S 497.798 3.53872 2.59461 0
M  V30 5207 H 494.616 0.631418 0.326852 0
M  V30 5208 H 497.218 1.94031 0.239212 0
M  V30 5209 H 495.922 3.93419 1.1683 0
M  V30 5210 H 495.453 2.9714 2.57821 0
M  V30 5211 H 497.468 3.15899 3.82651 0
M  V30 5212 N 496.642 -0.504142 1.49319 0
M  V30 5213 C 498.058 -0.835039 1.36012 0
M  V30 5214 C 498.258 -1.97674 0.390808 0
M  V30 5215 O 497.314 -2.51867 -0.178655 0
M  V30 5216 C 498.627 -1.17821 2.76656 0
M  V30 5217 C 500.175 -1.2866 2.85334 0
M  V30 5218 C 500.65 -1.66307 4.26739 0
M  V30 5219 N 502.141 -1.73362 4.29534 0
M  V30 5220 C 502.876 -2.0393 5.35911 0
M  V30 5221 N 502.372 -2.32744 6.52535 0
M  V30 5222 N 504.165 -2.05155 5.23324 0
M  V30 5223 H 496.316 0.248764 2.10938 0
M  V30 5224 H 498.579 0.0486962 0.946748 0
M  V30 5225 H 498.285 -0.412682 3.4927 0
M  V30 5226 H 498.159 -2.12239 3.11825 0
M  V30 5227 H 500.546 -2.04285 2.1296 0
M  V30 5228 H 500.627 -0.323004 2.53752 0
M  V30 5229 H 500.271 -0.91234 4.99639 0
M  V30 5230 H 500.201 -2.63761 4.55782 0
M  V30 5231 H 502.692 -1.53268 3.45424 0
M  V30 5232 H 503.005 -2.55248 7.2943 0
M  V30 5233 H 501.35 -2.30207 6.55767 0
M  V30 5234 H 504.541 -1.82119 4.3122 0
M  V30 5235 H 504.714 -2.28644 6.06322 0
M  V30 5236 N 498.12 -1.38341 -0.754957 0
M  V30 5237 C 499.052 -1.31347 -1.87831 0
M  V30 5238 C 500.065 -0.225955 -1.61224 0
M  V30 5239 O 501.254 -0.48341 -1.7183 0
M  V30 5240 C 498.354 -1.01201 -3.23437 0
M  V30 5241 C 497.527 -2.20834 -3.77559 0
M  V30 5242 C 496.586 -1.87454 -4.91678 0
M  V30 5243 O 495.612 -2.59934 -5.06382 0
M  V30 5244 N 496.814 -0.828682 -5.74555 0
M  V30 5245 H 499.579 -2.28147 -1.94342 0
M  V30 5246 H 497.14 -1.32184 -0.934828 0
M  V30 5247 H 499.132 -0.769249 -3.97322 0
M  V30 5248 H 497.702 -0.132011 -3.12321 0
M  V30 5249 H 496.922 -2.61184 -2.95256 0
M  V30 5250 H 498.21 -3.00678 -4.10451 0
M  V30 5251 H 497.608 -0.227591 -5.65242 0
M  V30 5252 H 496.165 -0.645802 -6.48593 0
M  V30 5253 N 499.598 0.982988 -1.23187 0
M  V30 5254 C 500.828 1.75666 -1.08743 0
M  V30 5255 C 501.236 1.85662 0.364195 0
M  V30 5256 O 500.579 1.33317 1.26382 0
M  V30 5257 C 500.641 3.20144 -1.63549 0
M  V30 5258 C 500.305 3.33665 -3.12277 0
M  V30 5259 C 501.302 3.20194 -4.096 0
M  V30 5260 C 498.987 3.58397 -3.51933 0
M  V30 5261 C 500.981 3.31256 -5.44563 0
M  V30 5262 C 498.668 3.69098 -4.87042 0
M  V30 5263 C 499.666 3.55537 -5.83166 0
M  V30 5264 O 499.354 3.65864 -7.1582 0
M  V30 5265 H 499.086 0.558194 -0.381307 0
M  V30 5266 H 501.64 1.24387 -1.63454 0
M  V30 5267 H 499.87 3.72659 -1.03256 0
M  V30 5268 H 501.559 3.79262 -1.4462 0
M  V30 5269 H 502.325 3.00987 -3.80305 0
M  V30 5270 H 498.204 3.68025 -2.77631 0
M  V30 5271 H 501.748 3.20588 -6.19572 0
M  V30 5272 H 497.645 3.87814 -5.16014 0
M  V30 5273 H 498.413 3.82675 -7.23534 0
M  V30 5274 N 501.076 1.04316 1.18135 0
M  V30 5275 C 502.322 0.749128 1.88457 0
M  V30 5276 C 502.655 -0.72149 1.803 0
M  V30 5277 O 501.93 -1.52676 1.205 0
M  V30 5278 C 502.213 1.21905 3.38838 0
M  V30 5279 C 502.066 2.75195 3.55792 0
M  V30 5280 C 503.385 0.811085 4.32561 0
M  V30 5281 H 500.504 0.273611 0.684329 0
M  V30 5282 H 503.146 1.29561 1.38975 0
M  V30 5283 H 501.296 0.754137 3.8111 0
M  V30 5284 H 502.968 3.29743 3.22595 0
M  V30 5285 H 501.211 3.14899 2.98364 0
M  V30 5286 H 501.882 3.03135 4.61317 0
M  V30 5287 H 504.358 1.21118 3.98082 0
M  V30 5288 H 503.234 1.16761 5.36338 0
M  V30 5289 H 503.495 -0.285596 4.41177 0
M  V30 5290 N 502.554 -1.34406 0.822964 0
M  V30 5291 C 503.784 -2.02214 0.423424 0
M  V30 5292 C 504.192 -1.62124 -0.975322 0
M  V30 5293 O 503.535 -0.822452 -1.6426 0
M  V30 5294 C 503.597 -3.56721 0.446107 0
M  V30 5295 C 503.261 -4.20136 1.79819 0
M  V30 5296 C 504.258 -4.4065 2.75904 0
M  V30 5297 C 501.943 -4.56906 2.08669 0
M  V30 5298 C 503.937 -4.9706 3.99012 0
M  V30 5299 C 501.624 -5.13026 3.32036 0
M  V30 5300 C 502.622 -5.33047 4.27024 0
M  V30 5301 O 502.31 -5.87979 5.48211 0
M  V30 5302 H 502.042 -0.654748 0.168169 0
M  V30 5303 H 504.596 -1.72659 1.11257 0
M  V30 5304 H 502.826 -3.85537 -0.299734 0
M  V30 5305 H 504.515 -4.05845 0.0666114 0
M  V30 5306 H 505.281 -4.12607 2.54912 0
M  V30 5307 H 501.16 -4.40626 1.35535 0
M  V30 5308 H 504.704 -5.12603 4.73164 0
M  V30 5309 H 500.601 -5.40498 3.52891 0
M  V30 5310 H 501.369 -6.06413 5.49732 0
M  V30 5311 N 504.032 -0.577932 -1.46621 0
M  V30 5312 C 504.98 0.170882 -2.31971 0
M  V30 5313 C 505.974 0.889086 -1.44193 0
M  V30 5314 O 507.18 0.808017 -1.60845 0
M  V30 5315 H 503.555 0.0739763 -0.748353 0
M  V30 5316 H 505.526 -0.567856 -2.92947 0
M  V30 5317 C 504.275 1.17438 -3.27267 0
M  V30 5318 H 503.598 0.63116 -3.94787 0
M  V30 5319 H 505.038 1.66882 -3.89778 0
M  V30 5320 C 503.497 2.23292 -2.52274 0
M  V30 5321 O 504.027 3.30567 -2.28229 0
M  V30 5322 N 502.233 1.97772 -2.12919 0
M  V30 5323 H 501.78 1.10545 -2.32675 0
M  V30 5324 H 501.738 2.68809 -1.63062 0
M  V30 5325 N 505.51 1.54411 -0.315457 0
M  V30 5326 C 506.756 2.00716 0.289972 0
M  V30 5327 C 507.089 1.2034 1.5242 0
M  V30 5328 O 506.364 0.283579 1.92422 0
M  V30 5329 C 506.647 3.54507 0.632196 0
M  V30 5330 C 506.5 4.45615 -0.61218 0
M  V30 5331 C 507.819 4.15421 1.45305 0
M  V30 5332 H 504.938 0.729637 0.10392 0
M  V30 5333 H 507.58 1.8506 -0.430427 0
M  V30 5334 H 505.73 3.67979 1.24595 0
M  V30 5335 H 507.402 4.44026 -1.25053 0
M  V30 5336 H 505.645 4.15621 -1.24264 0
M  V30 5337 H 506.316 5.51022 -0.328379 0
M  V30 5338 H 508.792 4.05474 0.934331 0
M  V30 5339 H 507.668 5.23157 1.66127 0
M  V30 5340 H 507.929 3.68223 2.44671 0
M  V30 5341 N 506.988 0.0434614 1.5754 0
M  V30 5342 C 507.951 -0.918696 2.09982 0
M  V30 5343 C 508.951 -1.24488 1.01781 0
M  V30 5344 O 510.141 -1.18284 1.27885 0
M  V30 5345 C 507.273 -2.23093 2.57764 0
M  V30 5346 H 508.466 -0.464229 2.96285 0
M  V30 5347 H 506.019 -0.204818 1.54952 0
M  V30 5348 H 506.754 -2.73137 1.74832 0
M  V30 5349 H 506.539 -2.00724 3.36827 0
M  V30 5350 H 508.029 -2.92028 2.98512 0
M  V30 5351 N 508.466 -1.55915 -0.229846 0
M  V30 5352 C 509.413 -1.91734 -1.28478 0
M  V30 5353 C 510.383 -0.773539 -1.46988 0
M  V30 5354 O 511.568 -1.02871 -1.60693 0
M  V30 5355 C 508.708 -2.23224 -2.63182 0
M  V30 5356 C 507.821 -3.50497 -2.52539 0
M  V30 5357 C 506.956 -3.71474 -3.79711 0
M  V30 5358 C 505.995 -4.92289 -3.63755 0
M  V30 5359 N 505.132 -5.09698 -4.82858 0
M  V30 5360 H 509.972 -2.81692 -0.972308 0
M  V30 5361 H 507.509 -1.39429 -0.468815 0
M  V30 5362 H 509.467 -2.3949 -3.41614 0
M  V30 5363 H 508.097 -1.36451 -2.92542 0
M  V30 5364 H 507.149 -3.4247 -1.65585 0
M  V30 5365 H 508.461 -4.39079 -2.36666 0
M  V30 5366 H 507.615 -3.87791 -4.66586 0
M  V30 5367 H 506.354 -2.81157 -3.985 0
M  V30 5368 H 505.359 -4.7593 -2.75264 0
M  V30 5369 H 506.584 -5.84083 -3.46445 0
M  V30 5370 H 504.53 -4.22322 -5.01976 0
M  V30 5371 H 504.447 -5.92399 -4.69681 0
M  V30 5372 H 505.715 -5.30443 -5.71183 0
M  V30 5373 N 509.944 0.496216 -1.49584 0
M  V30 5374 C 510.907 1.57952 -1.66084 0
M  V30 5375 C 511.907 1.51729 -0.53244 0
M  V30 5376 O 513.097 1.54796 -0.79899 0
M  V30 5377 C 510.229 2.97604 -1.66268 0
M  V30 5378 H 511.422 1.44649 -2.6271 0
M  V30 5379 H 508.975 0.7208 -1.38687 0
M  V30 5380 H 509.71 3.16378 -0.712432 0
M  V30 5381 H 509.495 3.03528 -2.4822 0
M  V30 5382 H 510.985 3.76301 -1.81073 0
M  V30 5383 N 511.423 1.38739 0.74761 0
M  V30 5384 C 512.663 1.36695 1.51966 0
M  V30 5385 C 513.027 -0.0411889 1.91956 0
M  V30 5386 O 514.228 -0.186543 2.68152 0
M  V30 5387 C 512.499 2.30119 2.73459 0
M  V30 5388 S 514.058 2.4615 3.63257 0
M  V30 5389 H 510.876 0.484929 0.519966 0
M  V30 5390 H 513.478 1.7472 0.877104 0
M  V30 5391 H 512.182 3.31312 2.422 0
M  V30 5392 H 511.713 1.93265 3.42655 0
M  V30 5393 H 513.728 1.69001 4.66533 0
M  V30 5394 N 512.901 -0.976442 1.23707 0
M  V30 5395 C 514.178 -1.69296 0.979699 0
M  V30 5396 C 514.558 -2.0508 -0.500555 0
M  V30 5397 O 513.906 -1.74708 -1.47273 0
M  V30 5398 C 514.116 -2.93143 1.89389 0
M  V30 5399 C 515.464 -3.65572 2.15968 0
M  V30 5400 O 516.488 -3.03184 1.86971 0
M  V30 5401 O 515.347 -4.77859 2.65167 0
M  V30 5402 H 512.441 -0.739708 0.369812 0
M  V30 5403 H 514.987 -1.03131 1.34767 0
M  V30 5404 H 513.759 -2.63327 2.89439 0
M  V30 5405 H 513.382 -3.67044 1.52854 0
M  V30 5406 N 514.379 -1.04941 -1.1758 0
M  V30 5407 C 515.289 -0.658826 -2.25159 0
M  V30 5408 C 516.305 0.318941 -1.71052 0
M  V30 5409 O 517.481 0.171669 -2.00667 0
M  V30 5410 C 514.546 -0.0369522 -3.4668 0
M  V30 5411 C 513.607 -1.06484 -4.15884 0
M  V30 5412 C 512.84 -0.472551 -5.31604 0
M  V30 5413 O 513.063 0.718736 -5.65854 0
M  V30 5414 O 511.997 -1.20557 -5.89703 0
M  V30 5415 H 515.823 -1.55533 -2.60851 0
M  V30 5416 H 513.408 -0.820819 -1.24832 0
M  V30 5417 H 515.29 0.308784 -4.20267 0
M  V30 5418 H 513.965 0.833238 -3.12792 0
M  V30 5419 H 512.872 -1.46253 -3.44327 0
M  V30 5420 H 514.205 -1.9061 -4.53794 0
M  V30 5421 N 515.857 1.33968 -0.830081 0
M  V30 5422 C 517.105 1.97672 -0.420734 0
M  V30 5423 C 517.426 1.66111 1.02138 0
M  V30 5424 O 516.696 0.955503 1.71017 0
M  V30 5425 H 515.276 0.73125 -0.152587 0
M  V30 5426 H 517.938 1.63483 -1.0611 0
M  V30 5427 H 517.034 3.07294 -0.545588 0
M  V30 5428 N 517.335 0.585699 1.46312 0
M  V30 5429 C 518.285 -0.166813 2.27389 0
M  V30 5430 C 519.269 -0.859076 1.36047 0
M  V30 5431 O 520.461 -0.752678 1.60199 0
M  V30 5432 C 517.59 -1.17791 3.2246 0
M  V30 5433 C 516.676 -0.487605 4.21288 0
M  V30 5434 N 517.067 0.45849 5.03718 0
M  V30 5435 C 515.365 -0.737971 4.39852 0
M  V30 5436 C 516.066 0.862213 5.75275 0
M  V30 5437 N 515.042 0.210707 5.43191 0
M  V30 5438 H 518.844 0.560167 2.88512 0
M  V30 5439 H 516.358 0.407715 1.57199 0
M  V30 5440 H 518.355 -1.73122 3.79255 0
M  V30 5441 H 517.015 -1.90568 2.62896 0
M  V30 5442 H 518.026 0.834163 5.11138 0
M  V30 5443 H 514.703 -1.45209 3.91434 0
M  V30 5444 H 516.093 1.64128 6.51546 0
M  V30 5445 N 518.813 -1.54241 0.323641 0
M  V30 5446 C 520.053 -2.0248 -0.279502 0
M  V30 5447 C 520.417 -1.20672 -1.49339 0
M  V30 5448 O 521.618 -1.58715 -2.1694 0
M  V30 5449 C 519.889 -3.52238 -0.605266 0
M  V30 5450 S 521.448 -4.22411 -1.18805 0
M  V30 5451 H 518.266 -0.705957 -0.0845313 0
M  V30 5452 H 520.868 -1.90089 0.456781 0
M  V30 5453 H 519.572 -4.094 0.286339 0
M  V30 5454 H 519.103 -3.6871 -1.37174 0
M  V30 5455 H 521.118 -4.30075 -2.47487 0
M  V30 5456 N 520.291 -0.0518155 -1.57515 0
M  V30 5457 C 521.519 0.631395 -1.9703 0
M  V30 5458 C 521.934 1.64341 -0.92938 0
M  V30 5459 O 521.291 1.82296 0.0863266 0
M  V30 5460 C 521.342 1.31774 -3.36627 0
M  V30 5461 O 521.063 0.346247 -4.3673 0
M  V30 5462 C 522.564 2.09065 -3.90905 0
M  V30 5463 H 519.784 0.172576 -0.648428 0
M  V30 5464 H 522.328 -0.118306 -2.04158 0
M  V30 5465 H 520.483 2.01867 -3.30649 0
M  V30 5466 H 520.897 0.836226 -5.17791 0
M  V30 5467 H 522.371 2.52508 -4.9086 0
M  V30 5468 H 522.848 2.93908 -3.26366 0
M  V30 5469 H 523.454 1.43882 -4.00223 0
M  V30 5470 N 521.769 1.56035 0.221574 0
M  V30 5471 C 522.732 1.91584 1.2581 0
M  V30 5472 C 523.732 0.794425 1.39805 0
M  V30 5473 O 524.922 1.06217 1.38071 0
M  V30 5474 C 522.054 2.16663 2.63192 0
M  V30 5475 H 523.247 2.8429 0.954935 0
M  V30 5476 H 520.8 1.49316 0.461988 0
M  V30 5477 H 521.535 1.26508 2.98607 0
M  V30 5478 H 521.32 2.98358 2.5441 0
M  V30 5479 H 522.81 2.45262 3.37988 0
M  V30 5480 N 523.247 -0.488276 1.49845 0
M  V30 5481 C 524.194 -1.58836 1.67451 0
M  V30 5482 C 525.164 -1.57886 0.515857 0
M  V30 5483 O 526.349 -1.75679 0.744403 0
M  V30 5484 C 523.489 -2.96915 1.75885 0
M  V30 5485 C 522.602 -3.07784 3.03138 0
M  V30 5486 C 521.737 -4.36673 3.02473 0
M  V30 5487 C 520.776 -4.41222 4.24252 0
M  V30 5488 N 519.913 -5.61557 4.21424 0
M  V30 5489 H 524.753 -1.43131 2.61376 0
M  V30 5490 H 522.29 -0.696186 1.29583 0
M  V30 5491 H 524.248 -3.76965 1.78755 0
M  V30 5492 H 522.878 -3.11295 0.85414 0
M  V30 5493 H 521.93 -2.20717 3.09819 0
M  V30 5494 H 523.242 -3.07005 3.93128 0
M  V30 5495 H 522.396 -5.25055 3.03977 0
M  V30 5496 H 521.135 -4.40037 2.10283 0
M  V30 5497 H 520.14 -3.5124 4.22978 0
M  V30 5498 H 521.365 -4.39564 5.17649 0
M  V30 5499 H 519.311 -5.65738 3.32078 0
M  V30 5500 H 519.228 -5.62447 5.05163 0
M  V30 5501 H 520.496 -6.52111 4.2705 0
M  V30 5502 N 524.725 -1.39134 -0.740242 0
M  V30 5503 C 526.002 -1.26584 -1.49117 0
M  V30 5504 C 526.382 0.126902 -2.10718 0
M  V30 5505 O 525.73 1.13765 -1.98166 0
M  V30 5506 C 525.94 -2.38619 -2.54681 0
M  V30 5507 C 527.288 -2.77685 -3.21211 0
M  V30 5508 O 528.312 -2.38029 -2.64991 0
M  V30 5509 O 527.171 -3.46115 -4.22926 0
M  V30 5510 H 524.265 -0.495769 -0.661923 0
M  V30 5511 H 526.811 -1.50995 -0.774514 0
M  V30 5512 H 525.583 -3.3175 -2.07504 0
M  V30 5513 H 525.206 -2.15845 -3.33911 0
M  V30 5514 N 526.204 0.969867 -1.24223 0
M  V30 5515 C 527.444 1.72754 -1.0925 0
M  V30 5516 C 527.808 1.88541 0.362787 0
M  V30 5517 O 529.009 2.61217 0.633969 0
M  V30 5518 C 527.28 3.08204 -1.80957 0
M  V30 5519 S 528.839 3.99418 -1.81688 0
M  V30 5520 H 525.657 0.593981 -0.390778 0
M  V30 5521 H 528.259 1.15792 -1.5752 0
M  V30 5522 H 526.963 2.94372 -2.85961 0
M  V30 5523 H 526.494 3.70232 -1.33012 0
M  V30 5524 H 528.509 4.8828 -0.883001 0
M  V30 5525 N 527.682 1.05563 1.17022 0
M  V30 5526 C 528.645 0.664098 2.19368 0
M  V30 5527 C 529.645 -0.286358 1.5823 0
M  V30 5528 O 530.835 -0.069728 1.7406 0
M  V30 5529 C 527.967 -0.0239932 3.40892 0
M  V30 5530 H 529.16 1.57 2.55521 0
M  V30 5531 H 526.713 0.849964 1.31169 0
M  V30 5532 H 527.448 -0.942988 3.10287 0
M  V30 5533 H 527.233 0.659351 3.86516 0
M  V30 5534 H 528.723 -0.283909 4.16634 0
M  V30 5535 N 529.16 -1.33526 0.837174 0
M  V30 5536 C 530.408 -1.97446 0.431211 0
M  V30 5537 C 530.729 -1.6665 -1.01255 0
M  V30 5538 O 529.999 -0.964559 -1.70508 0
M  V30 5539 H 528.579 -0.73043 0.156463 0
M  V30 5540 H 531.241 -1.62918 1.06976 0
M  V30 5541 H 530.337 -3.07001 0.561877 0
M  V30 5542 N 530.638 -0.59345 -1.46 0
M  V30 5543 C 531.884 -0.0832754 -2.02629 0
M  V30 5544 C 532.217 1.27749 -1.46266 0
M  V30 5545 O 531.492 1.8395 -0.631866 0
M  V30 5546 C 531.775 -0.0290756 -3.60088 0
M  V30 5547 C 531.628 -1.41951 -4.26814 0
M  V30 5548 C 532.947 0.666055 -4.35031 0
M  V30 5549 H 530.066 -0.031736 -0.736316 0
M  V30 5550 H 532.708 -0.762711 -1.74019 0
M  V30 5551 H 530.858 0.549532 -3.84594 0
M  V30 5552 H 532.53 -2.04411 -4.13538 0
M  V30 5553 H 530.773 -1.98422 -3.8576 0
M  V30 5554 H 531.444 -1.33395 -5.3564 0
M  V30 5555 H 533.92 0.174401 -4.15734 0
M  V30 5556 H 532.796 0.673041 -5.44758 0
M  V30 5557 H 533.057 1.72946 -4.06869 0
M  V30 5558 N 532.116 1.54067 -0.331816 0
M  V30 5559 C 533.365 1.99895 0.269209 0
M  V30 5560 C 533.678 1.22371 1.52593 0
M  V30 5561 O 534.884 1.58618 2.20347 0
M  V30 5562 C 533.34 3.55972 0.530244 0
M  V30 5563 C 532.948 4.4234 -0.709901 0
M  V30 5564 C 534.692 4.10247 1.09077 0
M  V30 5565 C 532.599 5.89905 -0.420312 0
M  V30 5566 H 531.529 0.746741 0.104371 0
M  V30 5567 H 534.18 1.78014 -0.445324 0
M  V30 5568 H 532.562 3.73873 1.30518 0
M  V30 5569 H 533.736 4.36215 -1.48504 0
M  V30 5570 H 532.051 3.98997 -1.19123 0
M  V30 5571 H 534.648 5.18095 1.32219 0
M  V30 5572 H 534.991 3.62739 2.0427 0
M  V30 5573 H 535.524 3.96011 0.376824 0
M  V30 5574 H 532.263 6.41623 -1.34164 0
M  V30 5575 H 531.783 5.98962 0.316962 0
M  V30 5576 H 533.462 6.46991 -0.0331956 0
M  V30 5577 N 533.594 0.0601682 1.57485 0
M  V30 5578 C 534.524 -0.90889 2.15085 0
M  V30 5579 C 535.505 -1.31838 1.07484 0
M  V30 5580 O 536.69 -1.3915 1.35466 0
M  V30 5581 C 533.82 -2.18059 2.7031 0
M  V30 5582 C 532.774 -1.91088 3.82974 0
M  V30 5583 C 532.1 -3.24789 4.24754 0
M  V30 5584 C 533.4 -1.22535 5.07723 0
M  V30 5585 H 535.094 -0.429093 2.96309 0
M  V30 5586 H 532.64 -0.204952 1.42534 0
M  V30 5587 H 534.593 -2.86258 3.09248 0
M  V30 5588 H 533.317 -2.6826 1.8629 0
M  V30 5589 H 531.976 -1.25297 3.44523 0
M  V30 5590 H 531.624 -3.72809 3.37672 0
M  V30 5591 H 531.324 -3.07538 5.00694 0
M  V30 5592 H 532.848 -3.94205 4.66299 0
M  V30 5593 H 534.262 -1.80783 5.4405 0
M  V30 5594 H 532.659 -1.1558 5.88864 0
M  V30 5595 H 533.729 -0.202692 4.84476 0
M  V30 5596 N 535.072 -1.5615 -0.213296 0
M  V30 5597 C 536.302 -1.83372 -0.951757 0
M  V30 5598 C 536.71 -0.638158 -1.78113 0
M  V30 5599 O 536.053 0.402609 -1.79234 0
M  V30 5600 C 536.115 -3.04444 -1.91192 0
M  V30 5601 C 535.779 -4.39107 -1.26627 0
M  V30 5602 C 536.776 -5.15794 -0.652087 0
M  V30 5603 C 534.461 -4.85834 -1.27556 0
M  V30 5604 C 536.455 -6.37376 -0.055814 0
M  V30 5605 C 534.142 -6.07356 -0.675451 0
M  V30 5606 C 535.14 -6.82967 -0.0666367 0
M  V30 5607 O 534.828 -8.0219 0.524119 0
M  V30 5608 H 534.56 -0.613398 -0.284111 0
M  V30 5609 H 537.114 -2.04096 -0.231112 0
M  V30 5610 H 535.344 -2.79559 -2.67178 0
M  V30 5611 H 537.033 -3.18466 -2.51662 0
M  V30 5612 H 537.799 -4.80796 -0.637172 0
M  V30 5613 H 533.678 -4.26949 -1.73883 0
M  V30 5614 H 537.222 -6.96334 0.420004 0
M  V30 5615 H 533.119 -6.41825 -0.687806 0
M  V30 5616 H 533.887 -8.17426 0.419243 0
M  V30 5617 N 536.55 0.480323 -1.50102 0
M  V30 5618 C 537.775 1.26126 -1.64642 0
M  V30 5619 C 538.2 1.85257 -0.325823 0
M  V30 5620 O 537.558 1.66854 0.709194 0
M  V30 5621 C 537.606 2.35243 -2.73301 0
M  V30 5622 O 536.71 3.39646 -2.33911 0
M  V30 5623 H 536.051 0.371463 -0.550374 0
M  V30 5624 H 538.581 0.572696 -1.96421 0
M  V30 5625 H 538.591 2.80695 -2.96098 0
M  V30 5626 H 537.266 1.91574 -3.6915 0
M  V30 5627 H 535.843 2.99969 -2.21525 0
M  V30 5628 N 538.028 1.39524 0.732853 0
M  V30 5629 C 538.991 1.38189 1.82857 0
M  V30 5630 C 539.991 0.278624 1.58368 0
M  V30 5631 O 541.181 0.536639 1.65728 0
M  V30 5632 C 538.313 1.15661 3.2068 0
M  V30 5633 H 539.506 2.35692 1.85444 0
M  V30 5634 H 537.059 1.2512 0.936728 0
M  V30 5635 H 537.794 0.188482 3.23752 0
M  V30 5636 H 537.579 1.95559 3.39852 0
M  V30 5637 H 539.069 1.17472 4.00737 0
M  V30 5638 N 539.506 -0.963266 1.24736 0
M  V30 5639 C 540.416 -2.09246 1.06082 0
M  V30 5640 C 541.432 -1.74 0.000363101 0
M  V30 5641 O 542.608 -2.0041 0.199479 0
M  V30 5642 C 539.673 -3.40115 0.672498 0
M  V30 5643 C 538.734 -3.89282 1.80993 0
M  V30 5644 C 537.967 -5.13905 1.44004 0
M  V30 5645 O 538.19 -5.69434 0.331835 0
M  V30 5646 O 537.124 -5.57566 2.26723 0
M  V30 5647 H 540.95 -2.27881 2.00759 0
M  V30 5648 H 538.535 -1.07649 1.03595 0
M  V30 5649 H 540.417 -4.18797 0.467668 0
M  V30 5650 H 539.092 -3.22771 -0.245102 0
M  V30 5651 H 537.999 -3.11642 2.06955 0
M  V30 5652 H 539.332 -4.1111 2.70646 0
M  V30 5653 N 540.985 -1.06182 -1.16461 0
M  V30 5654 C 542.225 -0.787048 -1.8864 0
M  V30 5655 C 542.589 0.674093 -1.79778 0
M  V30 5656 O 543.79 1.06341 -2.46871 0
M  V30 5657 C 542.061 -1.2666 -3.34203 0
M  V30 5658 S 543.62 -1.12071 -4.24247 0
M  V30 5659 H 540.438 -0.285539 -0.651144 0
M  V30 5660 H 543.04 -1.35851 -1.40587 0
M  V30 5661 H 541.744 -2.32496 -3.38192 0
M  V30 5662 H 541.275 -0.689841 -3.87304 0
M  V30 5663 H 543.29 -0.0509341 -4.96174 0
M  V30 5664 N 542.463 1.3308 -0.844243 0
M  V30 5665 C 543.426 2.27403 -0.286485 0
M  V30 5666 C 544.426 1.51179 0.547872 0
M  V30 5667 O 545.616 1.70421 0.360886 0
M  V30 5668 C 542.748 3.35653 0.595813 0
M  V30 5669 H 543.941 2.78248 -1.11885 0
M  V30 5670 H 541.494 1.43574 -0.617749 0
M  V30 5671 H 542.229 2.90058 1.4504 0
M  V30 5672 H 542.014 3.921 -0.00125994 0
M  V30 5673 H 543.504 4.05958 0.979168 0
M  V30 5674 N 543.941 0.601185 1.45683 0
M  V30 5675 C 545.169 0.100054 2.06658 0
M  V30 5676 C 545.584 -1.21285 1.44691 0
M  V30 5677 O 544.941 -1.73735 0.558772 0
M  V30 5678 C 544.992 -0.0528579 3.61461 0
M  V30 5679 O 544.713 1.20809 4.21114 0
M  V30 5680 C 546.214 -0.586193 4.39407 0
M  V30 5681 H 543.434 0.065905 0.667756 0
M  V30 5682 H 545.978 0.827101 1.87028 0
M  V30 5683 H 544.133 -0.730203 3.80456 0
M  V30 5684 H 544.547 1.03368 5.14213 0
M  V30 5685 H 546.021 -0.642297 5.4825 0
M  V30 5686 H 546.498 -1.60713 4.0874 0
M  V30 5687 H 547.104 0.0568935 4.25262 0
M  V30 5688 N 545.419 -1.53889 0.339982 0
M  V30 5689 C 546.351 -2.22435 -0.55275 0
M  V30 5690 C 547.364 -1.22975 -1.06681 0
M  V30 5691 O 548.553 -1.49351 -0.977575 0
M  V30 5692 C 545.653 -2.8882 -1.77302 0
M  V30 5693 C 544.826 -4.14563 -1.39486 0
M  V30 5694 C 543.885 -4.64391 -2.47442 0
M  V30 5695 O 542.911 -5.28687 -2.10899 0
M  V30 5696 N 544.113 -4.40015 -3.78639 0
M  V30 5697 H 546.878 -2.9968 0.0342669 0
M  V30 5698 H 544.439 -1.61068 0.16394 0
M  V30 5699 H 546.431 -3.19072 -2.48948 0
M  V30 5700 H 545.001 -2.15182 -2.26749 0
M  V30 5701 H 544.221 -3.90896 -0.509321 0
M  V30 5702 H 545.509 -4.96362 -1.11813 0
M  V30 5703 H 544.907 -3.88586 -4.11118 0
M  V30 5704 H 543.464 -4.74881 -4.46465 0
M  V30 5705 N 546.897 -0.0685191 -1.57451 0
M  V30 5706 C 548.143 0.602239 -1.93652 0
M  V30 5707 C 548.476 1.6946 -0.948526 0
M  V30 5708 O 547.751 1.94487 0.022782 0
M  V30 5709 C 548.034 1.18223 -3.4014 0
M  V30 5710 C 547.887 0.0967431 -4.49696 0
M  V30 5711 C 549.206 2.08872 -3.87377 0
M  V30 5712 H 546.325 0.217453 -0.70419 0
M  V30 5713 H 548.967 -0.133821 -1.89528 0
M  V30 5714 H 547.117 1.80953 -3.43785 0
M  V30 5715 H 548.789 -0.536155 -4.58174 0
M  V30 5716 H 547.032 -0.573063 -4.29998 0
M  V30 5717 H 547.703 0.542894 -5.49324 0
M  V30 5718 H 550.179 1.56081 -3.85717 0
M  V30 5719 H 549.055 2.46389 -4.90493 0
M  V30 5720 H 549.316 2.99572 -3.25129 0
M  V30 5721 N 548.375 1.56261 0.205012 0
M  V30 5722 C 549.338 1.92908 1.23771 0
M  V30 5723 C 550.338 0.809208 1.38955 0
M  V30 5724 O 551.528 1.07676 1.36936 0
M  V30 5725 C 548.66 2.19442 2.60879 0
M  V30 5726 H 549.853 2.85287 0.924728 0
M  V30 5727 H 547.406 1.49798 0.446125 0
M  V30 5728 H 548.141 1.29668 2.97248 0
M  V30 5729 H 547.926 3.0104 2.51232 0
M  V30 5730 H 549.416 2.48833 3.35368 0
M  V30 5731 N 549.853 -0.472356 1.50355 0
M  V30 5732 C 550.783 -1.57859 1.72055 0
M  V30 5733 C 551.764 -1.60283 0.569505 0
M  V30 5734 O 552.949 -1.7657 0.808503 0
M  V30 5735 C 550.079 -2.96191 1.81351 0
M  V30 5736 C 549.033 -3.08633 2.96529 0
M  V30 5737 C 548.359 -4.486 2.90968 0
M  V30 5738 C 549.659 -2.85969 4.37057 0
M  V30 5739 H 551.353 -1.39953 2.64676 0
M  V30 5740 H 548.899 -0.671846 1.27367 0
M  V30 5741 H 550.852 -3.73507 1.95117 0
M  V30 5742 H 549.576 -3.15251 0.853502 0
M  V30 5743 H 548.235 -2.33749 2.82413 0
M  V30 5744 H 547.883 -4.64577 1.92815 0
M  V30 5745 H 547.583 -4.57861 3.68289 0
M  V30 5746 H 549.107 -5.27938 3.0678 0
M  V30 5747 H 550.521 -3.53036 4.51706 0
M  V30 5748 H 548.918 -3.06677 5.15819 0
M  V30 5749 H 549.988 -1.81838 4.49514 0
M  V30 5750 N 551.331 -1.39911 -0.725443 0
M  V30 5751 C 552.608 -1.28158 -1.47766 0
M  V30 5752 C 552.988 0.104545 -2.10841 0
M  V30 5753 O 552.336 1.11657 -1.99361 0
M  V30 5754 C 552.546 -2.41306 -2.52135 0
M  V30 5755 C 553.894 -2.81076 -3.18247 0
M  V30 5756 O 554.918 -2.40827 -2.62452 0
M  V30 5757 O 553.777 -3.50581 -4.19231 0
M  V30 5758 H 550.871 -0.502761 -0.656628 0
M  V30 5759 H 553.417 -1.51808 -0.758456 0
M  V30 5760 H 552.189 -3.33932 -2.03974 0
M  V30 5761 H 551.812 -2.19374 -3.31603 0
M  V30 5762 N 552.809 0.956637 -1.25245 0
M  V30 5763 C 554.057 1.69764 -1.09657 0
M  V30 5764 C 554.378 1.91583 0.363464 0
M  V30 5765 O 553.648 1.50149 1.25825 0
M  V30 5766 H 552.228 0.629097 -0.402798 0
M  V30 5767 H 554.89 1.15026 -1.57337 0
M  V30 5768 H 553.986 2.67769 -1.60331 0
M  V30 5769 N 554.287 1.06798 1.15896 0
M  V30 5770 C 555.536 0.782796 1.8589 0
M  V30 5771 C 555.849 -0.693498 1.82893 0
M  V30 5772 O 557.055 -1.09325 2.48516 0
M  V30 5773 C 555.511 1.3502 3.33613 0
M  V30 5774 C 555.119 2.8571 3.45071 0
M  V30 5775 C 556.863 1.14278 4.08829 0
M  V30 5776 C 554.77 3.35669 4.86909 0
M  V30 5777 H 553.7 0.289149 0.696354 0
M  V30 5778 H 556.351 1.28734 1.30766 0
M  V30 5779 H 554.733 0.773407 3.88374 0
M  V30 5780 H 555.907 3.49385 3.00445 0
M  V30 5781 H 554.222 3.05178 2.83294 0
M  V30 5782 H 556.819 1.49087 5.13495 0
M  V30 5783 H 557.162 0.0814575 4.1622 0
M  V30 5784 H 557.695 1.68563 3.60321 0
M  V30 5785 H 554.434 4.41302 4.84698 0
M  V30 5786 H 553.954 2.76745 5.32139 0
M  V30 5787 H 555.633 3.31296 5.55745 0
M  V30 5788 N 555.766 -1.3263 0.851289 0
M  V30 5789 C 556.698 -2.27824 0.250757 0
M  V30 5790 C 557.711 -1.52285 -0.575598 0
M  V30 5791 O 558.9 -1.73946 -0.400638 0
M  V30 5792 C 556 -3.3232 -0.664571 0
M  V30 5793 C 555.173 -4.37221 0.125187 0
M  V30 5794 C 554.232 -5.21314 -0.715385 0
M  V30 5795 O 553.258 -5.69002 -0.150111 0
M  V30 5796 N 554.46 -5.43823 -2.03069 0
M  V30 5797 H 557.225 -2.79997 1.06873 0
M  V30 5798 H 554.786 -1.45455 0.710943 0
M  V30 5799 H 556.778 -3.85486 -1.23216 0
M  V30 5800 H 555.348 -2.80331 -1.38323 0
M  V30 5801 H 554.568 -3.84384 0.874199 0
M  V30 5802 H 555.856 -5.04399 0.667774 0
M  V30 5803 H 555.254 -5.06803 -2.51332 0
M  V30 5804 H 553.811 -5.99998 -2.54648 0
M  V30 5805 N 557.244 -0.608902 -1.45362 0
M  V30 5806 C 558.484 -0.10763 -2.04116 0
M  V30 5807 C 558.848 1.23883 -1.46686 0
M  V30 5808 O 560.049 1.83091 -1.96803 0
M  V30 5809 C 558.32 -0.0703351 -3.57331 0
M  V30 5810 S 559.879 0.369554 -4.37241 0
M  V30 5811 H 556.697 -0.0502123 -0.709225 0
M  V30 5812 H 559.299 -0.8073 -1.78053 0
M  V30 5813 H 558.003 -1.05379 -3.9664 0
M  V30 5814 H 557.534 0.651287 -3.87971 0
M  V30 5815 H 559.549 1.61878 -4.69052 0
M  V30 5816 N 558.722 1.53707 -0.348139 0
M  V30 5817 C 559.969 2.00988 0.246966 0
M  V30 5818 C 560.297 1.23586 1.50189 0
M  V30 5819 O 559.552 0.312817 1.93184 0
M  V30 5820 C 559.851 3.52292 0.602061 0
M  V30 5821 C 559.517 4.47453 -0.556509 0
M  V30 5822 C 558.179 4.73188 -0.874446 0
M  V30 5823 C 560.531 5.03851 -1.33354 0
M  V30 5824 C 557.859 5.52577 -1.9717 0
M  V30 5825 C 560.211 5.84437 -2.42108 0
M  V30 5826 C 558.875 6.08465 -2.74456 0
M  V30 5827 H 558.145 0.735469 0.0903712 0
M  V30 5828 H 560.792 1.85464 -0.477001 0
M  V30 5829 H 559.097 3.65672 1.40681 0
M  V30 5830 H 560.794 3.86337 1.07447 0
M  V30 5831 H 557.384 4.27558 -0.298652 0
M  V30 5832 H 561.568 4.8393 -1.10117 0
M  V30 5833 H 556.824 5.69418 -2.22651 0
M  V30 5834 H 560.998 6.27151 -3.02745 0
M  V30 5835 H 558.625 6.69768 -3.59604 0
M  V30 5836 N 560.2 0.0768682 1.57412 0
M  V30 5837 C 561.448 -0.589918 1.93299 0
M  V30 5838 C 561.769 -1.69842 0.958049 0
M  V30 5839 O 561.039 -1.95899 0.00703261 0
M  V30 5840 H 559.619 -0.220901 0.713591 0
M  V30 5841 H 562.281 0.135917 1.94425 0
M  V30 5842 H 561.377 -1.01195 2.95239 0
M  V30 5843 N 561.678 -1.56367 -0.196722 0
M  V30 5844 C 562.926 -1.80172 -0.915554 0
M  V30 5845 C 563.247 -0.649649 -1.8386 0
M  V30 5846 O 562.517 0.332111 -1.93064 0
M  V30 5847 H 561.097 -0.664592 -0.341067 0
M  V30 5848 H 563.759 -1.93844 -0.202622 0
M  V30 5849 H 562.855 -2.7327 -1.50764 0
M  V30 5850 N 563.156 0.464375 -1.50603 0
M  V30 5851 C 564.104 1.58224 -1.70493 0
M  V30 5852 C 565.098 1.59492 -0.570836 0
M  V30 5853 O 566.304 1.63561 -0.751517 0
M  V30 5854 H 562.679 0.525161 -0.538247 0
M  V30 5855 H 564.65 1.38613 -2.64252 0
M  V30 5856 C 563.399 2.96113 -1.82243 0
M  V30 5857 H 562.722 2.95858 -2.68901 0
M  V30 5858 H 564.162 3.73769 -2.00182 0
M  V30 5859 C 562.621 3.31946 -0.575628 0
M  V30 5860 O 563.151 4.00708 0.282152 0
M  V30 5861 N 561.357 2.87436 -0.427665 0
M  V30 5862 H 560.904 2.31652 -1.12674 0
M  V30 5863 H 560.862 3.11776 0.405379 0
M  V30 5864 N 564.634 1.40294 0.718013 0
M  V30 5865 C 565.882 1.38167 1.47494 0
M  V30 5866 C 566.203 -0.01607 1.94993 0
M  V30 5867 O 565.473 -0.970396 1.70177 0
M  V30 5868 H 564.053 0.508505 0.547203 0
M  V30 5869 H 566.715 1.75324 0.851322 0
M  V30 5870 H 565.811 2.05503 2.34894 0
M  V30 5871 N 566.112 -0.949982 1.2575 0
M  V30 5872 C 567.342 -1.72721 1.13363 0
M  V30 5873 C 567.75 -1.86562 -0.314842 0
M  V30 5874 O 567.093 -1.36621 -1.22803 0
M  V30 5875 C 567.155 -3.15695 1.7198 0
M  V30 5876 C 566.819 -3.25268 3.21014 0
M  V30 5877 C 567.816 -3.09222 4.17945 0
M  V30 5878 C 565.501 -3.4894 3.61312 0
M  V30 5879 C 567.495 -3.16701 5.53154 0
M  V30 5880 C 565.182 -3.56055 4.96657 0
M  V30 5881 C 566.18 -3.3995 5.92387 0
M  V30 5882 O 565.868 -3.46757 7.25269 0
M  V30 5883 H 565.6 -0.547888 0.395973 0
M  V30 5884 H 568.154 -1.20009 1.66694 0
M  V30 5885 H 566.384 -3.69791 1.13101 0
M  V30 5886 H 568.073 -3.75295 1.54624 0
M  V30 5887 H 568.839 -2.90798 3.88151 0
M  V30 5888 H 564.718 -3.60534 2.87291 0
M  V30 5889 H 568.262 -3.04048 6.27854 0
M  V30 5890 H 564.159 -3.73997 5.26115 0
M  V30 5891 H 564.927 -3.63358 7.33426 0
M  V30 5892 N 567.59 -1.07411 -1.15328 0
M  V30 5893 C 568.839 -0.792643 -1.85473 0
M  V30 5894 C 569.152 0.683789 -1.83259 0
M  V30 5895 O 570.358 1.08005 -2.49093 0
M  V30 5896 C 568.814 -1.36787 -3.32892 0
M  V30 5897 C 568.422 -2.87536 -3.43551 0
M  V30 5898 C 570.166 -1.16444 -4.08217 0
M  V30 5899 C 568.073 -3.38247 -4.85122 0
M  V30 5900 H 567.003 -0.292838 -0.694811 0
M  V30 5901 H 569.654 -1.29426 -1.30082 0
M  V30 5902 H 568.036 -0.793993 -3.87958 0
M  V30 5903 H 569.21 -3.50973 -2.98588 0
M  V30 5904 H 567.525 -3.06676 -2.81672 0
M  V30 5905 H 570.122 -1.51808 -5.12697 0
M  V30 5906 H 570.465 -0.10353 -4.16171 0
M  V30 5907 H 570.998 -1.70472 -3.59422 0
M  V30 5908 H 567.737 -4.43866 -4.82351 0
M  V30 5909 H 567.257 -2.79564 -5.30664 0
M  V30 5910 H 568.936 -3.34238 -5.5398 0
M  V30 5911 N 569.068 1.32177 -0.85831 0
M  V30 5912 C 570.016 2.30729 -0.294442 0
M  V30 5913 C 571.01 1.59009 0.584165 0
M  V30 5914 O 572.216 1.73713 0.471562 0
M  V30 5915 H 568.591 0.748097 -0.0765171 0
M  V30 5916 H 570.562 2.75774 -1.1398 0
M  V30 5917 C 569.311 3.44098 0.499208 0
M  V30 5918 H 568.634 3.99449 -0.167579 0
M  V30 5919 H 570.074 4.15202 0.859273 0
M  V30 5920 C 568.533 2.91684 1.68588 0
M  V30 5921 O 569.063 2.89481 2.78503 0
M  V30 5922 N 567.269 2.48036 1.51415 0
M  V30 5923 H 566.816 2.50027 0.620006 0
M  V30 5924 H 566.774 2.13322 2.30957 0
M  V30 5925 N 570.547 0.616602 1.45037 0
M  V30 5926 C 571.824 0.0469086 1.95544 0
M  V30 5927 C 572.204 -1.42345 1.55888 0
M  V30 5928 O 571.552 -2.13055 0.825824 0
M  V30 5929 C 571.762 0.254489 3.48071 0
M  V30 5930 C 573.11 0.140025 4.24369 0
M  V30 5931 O 574.134 0.185084 3.55719 0
M  V30 5932 O 572.993 0.0327034 5.4649 0
M  V30 5933 H 570.087 -0.0306051 0.826433 0
M  V30 5934 H 572.633 0.687293 1.55159 0
M  V30 5935 H 571.405 1.27532 3.69934 0
M  V30 5936 H 571.028 -0.42073 3.95368 0
M  V30 5937 N 572.025 -1.5352 0.356285 0
M  V30 5938 C 573.272 -2.01117 -0.236303 0
M  V30 5939 C 573.6 -1.24381 -1.49531 0
M  V30 5940 O 572.855 -0.323057 -1.93015 0
M  V30 5941 C 573.154 -3.52607 -0.583369 0
M  V30 5942 C 572.82 -4.47151 0.58023 0
M  V30 5943 C 571.482 -4.72718 0.899528 0
M  V30 5944 C 573.834 -5.03137 1.36024 0
M  V30 5945 C 571.162 -5.51523 2.00098 0
M  V30 5946 C 573.514 -5.83145 2.45204 0
M  V30 5947 C 572.178 -6.07001 2.77679 0
M  V30 5948 H 571.448 -0.735938 -0.0864695 0
M  V30 5949 H 574.095 -1.85209 0.48683 0
M  V30 5950 H 572.4 -3.66413 -1.38739 0
M  V30 5951 H 574.097 -3.86901 -1.05397 0
M  V30 5952 H 570.687 -4.27394 0.321322 0
M  V30 5953 H 574.871 -4.83339 1.12682 0
M  V30 5954 H 570.127 -5.68229 2.25668 0
M  V30 5955 H 574.301 -6.25537 3.06067 0
M  V30 5956 H 571.928 -6.67851 3.63151 0
M  V30 5957 N 573.503 -0.0852151 -1.57369 0
M  V30 5958 C 574.914 0.445428 -1.81309 0
M  V30 5959 C 575.265 1.68795 -1.00013 0
M  V30 5960 O 574.39 2.15211 -0.226573 0
M  V30 5961 C 574.985 0.814887 -3.28854 0
M  V30 5962 C 573.544 1.29032 -3.53592 0
M  V30 5963 C 572.691 0.282089 -2.75861 0
M  V30 5964 H 575.642 -0.310771 -1.55627 0
M  V30 5965 H 575.663 1.67524 -3.41637 0
M  V30 5966 H 575.175 -0.0896309 -3.87996 0
M  V30 5967 H 573.276 2.21289 -2.9977 0
M  V30 5968 H 573.389 1.25898 -4.62262 0
M  V30 5969 H 571.753 0.762182 -2.43029 0
M  V30 5970 H 572.536 -0.614936 -3.37748 0
M  V30 5971 N 574.981 1.5647 0.188427 0
M  V30 5972 C 575.914 1.90146 1.26173 0
M  V30 5973 C 576.892 0.762294 1.43624 0
M  V30 5974 O 578.076 1.01395 1.58907 0
M  V30 5975 C 575.203 2.13748 2.62735 0
M  V30 5976 C 574.249 3.36448 2.62116 0
M  V30 5977 S 575.082 4.91364 2.12889 0
M  V30 5978 C 576.238 5.18041 3.51261 0
M  V30 5979 H 576.471 2.80886 0.974192 0
M  V30 5980 H 574.004 1.49335 0.392226 0
M  V30 5981 H 575.962 2.28028 3.41341 0
M  V30 5982 H 574.623 1.23747 2.88696 0
M  V30 5983 H 573.816 3.50109 3.62546 0
M  V30 5984 H 573.418 3.21196 1.91596 0
M  V30 5985 H 575.71 5.0897 4.47164 0
M  V30 5986 H 576.653 6.19764 3.42489 0
M  V30 5987 H 577.061 4.45657 3.46482 0
M  V30 5988 N 576.459 -0.456382 1.50847 0
M  V30 5989 C 577.707 -1.20497 1.62249 0
M  V30 5990 C 578.028 -1.92156 0.331839 0
M  V30 5991 O 577.298 -1.84751 -0.651443 0
M  V30 5992 H 575.878 -0.447775 0.597918 0
M  V30 5993 H 578.54 -0.525099 1.87693 0
M  V30 5994 H 577.636 -1.94492 2.44089 0
M  V30 5995 N 577.937 -1.40673 -0.710563 0
M  V30 5996 C 579.353 -1.22813 -1.01928 0
M  V30 5997 C 579.553 -0.10687 -2.01216 0
M  V30 5998 O 578.609 0.533614 -2.46797 0
M  V30 5999 C 579.922 -2.57178 -1.5582 0
M  V30 6000 C 581.47 -2.64233 -1.67779 0
M  V30 6001 C 581.945 -3.98879 -2.25076 0
M  V30 6002 N 583.436 -4.00647 -2.32456 0
M  V30 6003 C 584.171 -5.01621 -2.77784 0
M  V30 6004 N 583.667 -6.12989 -3.22826 0
M  V30 6005 N 585.46 -4.88988 -2.77213 0
M  V30 6006 H 577.611 -2.12335 -0.05253 0
M  V30 6007 H 579.874 -0.9441 -0.085898 0
M  V30 6008 H 579.58 -3.39903 -0.903249 0
M  V30 6009 H 579.454 -2.78618 -2.54267 0
M  V30 6010 H 581.841 -1.81876 -2.3239 0
M  V30 6011 H 581.922 -2.46619 -0.679178 0
M  V30 6012 H 581.566 -4.81678 -1.61086 0
M  V30 6013 H 581.496 -4.13826 -3.25661 0
M  V30 6014 H 583.987 -3.20231 -2.0065 0
M  V30 6015 H 584.3 -6.85921 -3.55995 0
M  V30 6016 H 582.645 -6.16547 -3.20773 0
M  V30 6017 H 585.836 -4.01075 -2.41363 0
M  V30 6018 H 586.009 -5.67822 -3.12221 0
M  V30 6019 N 579.415 0.9433 -1.26252 0
M  V30 6020 C 580.662 1.68925 -1.11672 0
M  V30 6021 C 580.99 1.91499 0.340329 0
M  V30 6022 O 580.245 1.49189 1.26653 0
M  V30 6023 C 580.544 3.07073 -1.82868 0
M  V30 6024 C 580.21 3.04262 -3.32769 0
M  V30 6025 C 578.872 3.03203 -3.7366 0
M  V30 6026 C 581.224 2.96729 -4.28487 0
M  V30 6027 C 578.552 2.92373 -5.0866 0
M  V30 6028 C 580.904 2.87442 -5.63525 0
M  V30 6029 C 579.568 2.84724 -6.03729 0
M  V30 6030 H 578.838 0.618141 -0.408635 0
M  V30 6031 H 581.485 1.10124 -1.56668 0
M  V30 6032 H 579.79 3.69486 -1.30335 0
M  V30 6033 H 581.487 3.63635 -1.69029 0
M  V30 6034 H 578.077 3.05865 -3.00241 0
M  V30 6035 H 582.261 2.96658 -3.97879 0
M  V30 6036 H 577.517 2.88645 -5.38975 0
M  V30 6037 H 581.691 2.80576 -6.37377 0
M  V30 6038 H 579.318 2.76089 -7.08293 0
M  V30 6039 N 580.893 1.08022 1.14757 0
M  V30 6040 C 581.823 0.728248 2.21853 0
M  V30 6041 C 582.804 -0.287486 1.67653 0
M  V30 6042 O 583.989 -0.158727 1.9355 0
M  V30 6043 C 581.119 0.132549 3.47047 0
M  V30 6044 C 580.073 1.07619 4.14249 0
M  V30 6045 C 579.399 0.342907 5.33599 0
M  V30 6046 C 580.699 2.41268 4.63235 0
M  V30 6047 H 582.393 1.62365 2.51551 0
M  V30 6048 H 579.939 0.782125 1.20908 0
M  V30 6049 H 581.892 -0.125665 4.21213 0
M  V30 6050 H 580.616 -0.797971 3.16702 0
M  V30 6051 H 579.275 1.31944 3.42033 0
M  V30 6052 H 578.923 -0.59129 4.99513 0
M  V30 6053 H 578.623 0.971955 5.79506 0
M  V30 6054 H 580.147 0.0926538 6.1053 0
M  V30 6055 H 581.561 2.21232 5.28894 0
M  V30 6056 H 579.958 2.9983 5.19829 0
M  V30 6057 H 581.028 3.03079 3.78512 0
M  V30 6058 N 582.371 -1.3172 0.865308 0
M  V30 6059 C 583.787 -1.4958 0.556596 0
M  V30 6060 C 583.987 -1.79763 -0.910353 0
M  V30 6061 O 583.043 -1.87351 -1.6928 0
M  V30 6062 C 584.356 -2.63277 1.45279 0
M  V30 6063 C 585.904 -2.77161 1.45433 0
M  V30 6064 C 586.379 -3.93949 2.33598 0
M  V30 6065 N 587.87 -4.01228 2.31453 0
M  V30 6066 C 588.605 -4.90855 2.96393 0
M  V30 6067 N 588.101 -5.85416 3.70486 0
M  V30 6068 N 589.894 -4.84063 2.85726 0
M  V30 6069 H 582.045 -1.10396 1.81456 0
M  V30 6070 H 584.308 -0.54507 0.775631 0
M  V30 6071 H 584.014 -2.47734 2.49641 0
M  V30 6072 H 583.888 -3.59309 1.14792 0
M  V30 6073 H 586.275 -2.9212 0.41831 0
M  V30 6074 H 586.356 -1.8181 1.79941 0
M  V30 6075 H 586 -3.79748 3.37274 0
M  V30 6076 H 585.93 -4.88598 1.96417 0
M  V30 6077 H 588.421 -3.3357 1.77593 0
M  V30 6078 H 588.734 -6.50525 4.17178 0
M  V30 6079 H 587.079 -5.85409 3.74594 0
M  V30 6080 H 590.27 -4.09163 2.27384 0
M  V30 6081 H 590.443 -5.53708 3.36617 0
M  V30 6082 N 583.85 -0.624285 -1.44708 0
M  V30 6083 C 585.127 -0.0572781 -1.95516 0
M  V30 6084 C 585.507 1.41516 -1.56641 0
M  V30 6085 O 584.855 2.12614 -0.837111 0
M  V30 6086 C 585.065 -0.272944 -3.47931 0
M  V30 6087 C 586.413 -0.162529 -4.24289 0
M  V30 6088 O 587.437 -0.203946 -3.55616 0
M  V30 6089 O 586.296 -0.0616847 -5.46465 0
M  V30 6090 H 583.389 0.0262219 -0.826584 0
M  V30 6091 H 585.936 -0.695512 -1.54793 0
M  V30 6092 H 584.707 -1.29492 -3.69253 0
M  V30 6093 H 584.331 0.399756 -3.95585 0
M  V30 6094 N 585.328 1.53329 -0.364422 0
M  V30 6095 C 586.291 2.24323 0.470292 0
M  V30 6096 C 587.291 1.25068 1.01067 0
M  V30 6097 O 588.481 1.49354 0.896605 0
M  V30 6098 C 585.613 2.97908 1.65722 0
M  V30 6099 H 586.806 2.9952 -0.150917 0
M  V30 6100 H 584.359 1.55868 -0.116092 0
M  V30 6101 H 585.094 2.2695 2.31655 0
M  V30 6102 H 584.879 3.70732 1.27671 0
M  V30 6103 H 586.369 3.5188 2.24878 0
M  V30 6104 N 586.806 0.0935595 1.57322 0
M  V30 6105 C 587.753 -0.865935 2.1394 0
M  V30 6106 C 588.723 -1.28083 1.05754 0
M  V30 6107 O 589.908 -1.36285 1.33533 0
M  V30 6108 C 587.048 -2.12023 2.72287 0
M  V30 6109 C 586.161 -1.756 3.94701 0
M  V30 6110 C 585.296 -2.95804 4.41218 0
M  V30 6111 C 584.335 -2.555 5.56225 0
M  V30 6112 N 583.472 -3.68534 5.97601 0
M  V30 6113 H 588.312 -0.376261 2.95615 0
M  V30 6114 H 585.849 -0.174052 1.46067 0
M  V30 6115 H 587.807 -2.85477 3.04235 0
M  V30 6116 H 586.437 -2.58492 1.93343 0
M  V30 6117 H 585.489 -0.921208 3.69077 0
M  V30 6118 H 586.801 -1.41964 4.78171 0
M  V30 6119 H 585.955 -3.77513 4.74941 0
M  V30 6120 H 584.694 -3.32649 3.56645 0
M  V30 6121 H 583.699 -1.72218 5.22131 0
M  V30 6122 H 584.924 -2.19801 6.42545 0
M  V30 6123 H 582.87 -4.051 5.15974 0
M  V30 6124 H 582.787 -3.38737 6.75865 0
M  V30 6125 H 584.055 -4.50757 6.35955 0
M  V30 6126 N 588.284 -1.56567 -0.180126 0
M  V30 6127 C 589.214 -1.98753 -1.22553 0
M  V30 6128 C 590.195 -0.86175 -1.46656 0
M  V30 6129 O 591.38 -1.12719 -1.58139 0
M  V30 6130 C 588.51 -2.33988 -2.56645 0
M  V30 6131 C 587.464 -3.49445 -2.47128 0
M  V30 6132 C 586.79 -3.70397 -3.8563 0
M  V30 6133 C 588.09 -4.83171 -1.98352 0
M  V30 6134 H 589.784 -2.86332 -0.874896 0
M  V30 6135 H 587.33 -1.37757 -0.419414 0
M  V30 6136 H 589.283 -2.62097 -3.29974 0
M  V30 6137 H 588.007 -1.43309 -2.93479 0
M  V30 6138 H 586.666 -3.2145 -1.76254 0
M  V30 6139 H 586.314 -2.77023 -4.19842 0
M  V30 6140 H 586.014 -4.48077 -3.80132 0
M  V30 6141 H 587.538 -4.00897 -4.60558 0
M  V30 6142 H 588.952 -5.10213 -2.61449 0
M  V30 6143 H 587.349 -5.64425 -2.03823 0
M  V30 6144 H 588.419 -4.75753 -0.937402 0
M  V30 6145 N 589.762 0.448376 -1.51087 0
M  V30 6146 C 590.992 1.21965 -1.66757 0
M  V30 6147 C 591.4 1.85748 -0.359753 0
M  V30 6148 O 590.743 1.71022 0.670604 0
M  V30 6149 C 590.805 2.35284 -2.71812 0
M  V30 6150 C 590.469 1.91957 -4.1473 0
M  V30 6151 C 591.466 1.42921 -4.9987 0
M  V30 6152 C 589.151 1.99985 -4.60772 0
M  V30 6153 C 591.145 1.02485 -6.29107 0
M  V30 6154 C 588.832 1.5916 -5.90009 0
M  V30 6155 C 589.83 1.10491 -6.74004 0
M  V30 6156 O 589.518 0.702413 -8.00825 0
M  V30 6157 H 589.25 0.374125 -0.563034 0
M  V30 6158 H 591.804 0.538927 -1.98204 0
M  V30 6159 H 590.034 3.06599 -2.35657 0
M  V30 6160 H 591.723 2.97184 -2.76472 0
M  V30 6161 H 592.489 1.36123 -4.65506 0
M  V30 6162 H 588.368 2.36814 -3.95525 0
M  V30 6163 H 591.912 0.644271 -6.94619 0
M  V30 6164 H 587.809 1.65626 -6.2389 0
M  V30 6165 H 588.577 0.829248 -8.14288 0
M  V30 6166 N 591.24 1.41047 0.703093 0
M  V30 6167 C 592.15 1.44645 1.84703 0
M  V30 6168 C 593.166 0.337778 1.7069 0
M  V30 6169 O 594.342 0.584327 1.92737 0
M  V30 6170 C 591.407 1.31928 3.20618 0
M  V30 6171 C 590.468 2.53047 3.46794 0
M  V30 6172 C 589.701 2.40927 4.76224 0
M  V30 6173 O 589.924 1.42978 5.5219 0
M  V30 6174 O 588.858 3.30543 5.03016 0
M  V30 6175 H 592.684 2.41139 1.84624 0
M  V30 6176 H 590.269 1.22504 0.855167 0
M  V30 6177 H 592.151 1.27092 4.01778 0
M  V30 6178 H 590.826 0.385469 3.21397 0
M  V30 6179 H 589.733 2.6346 2.65593 0
M  V30 6180 H 591.066 3.45231 3.50822 0
M  V30 6181 N 592.718 -0.936591 1.26751 0
M  V30 6182 C 593.967 -1.67778 1.11953 0
M  V30 6183 C 594.28 -1.92694 -0.33589 0
M  V30 6184 O 595.486 -2.64682 -0.604618 0
M  V30 6185 C 593.942 -3.02138 1.95551 0
M  V30 6186 C 593.55 -2.84953 3.45696 0
M  V30 6187 C 595.294 -3.79917 1.89377 0
M  V30 6188 C 593.201 -4.14814 4.21525 0
M  V30 6189 H 592.131 -0.629275 0.415366 0
M  V30 6190 H 594.782 -1.04122 1.51099 0
M  V30 6191 H 593.164 -3.668 1.49243 0
M  V30 6192 H 594.338 -2.29112 3.99805 0
M  V30 6193 H 592.653 -2.20612 3.53156 0
M  V30 6194 H 595.25 -4.76134 2.43312 0
M  V30 6195 H 595.593 -4.07204 0.865464 0
M  V30 6196 H 596.126 -3.22037 2.33532 0
M  V30 6197 H 592.865 -3.92709 5.24843 0
M  V30 6198 H 592.385 -4.70352 3.72195 0
M  V30 6199 H 594.064 -4.83239 4.3022 0
M  V30 6200 N 594.196 -1.08629 -1.14182 0
M  V30 6201 C 595.444 -0.815731 -1.84906 0
M  V30 6202 C 595.765 0.660441 -1.83475 0
M  V30 6203 O 595.035 1.47888 -1.28476 0
M  V30 6204 H 593.615 -0.298773 -0.684648 0
M  V30 6205 H 596.277 -1.37274 -1.38354 0
M  V30 6206 H 595.373 -1.16193 -2.89665 0
M  V30 6207 N 595.674 1.31259 -0.872281 0
M  V30 6208 C 596.637 2.26744 -0.334656 0
M  V30 6209 C 597.637 1.52307 0.515681 0
M  V30 6210 O 598.827 1.71148 0.324656 0
M  V30 6211 C 595.959 3.36841 0.524482 0
M  V30 6212 H 597.152 2.75812 -1.17762 0
M  V30 6213 H 594.705 1.42232 -0.648064 0
M  V30 6214 H 595.44 2.93069 1.38855 0
M  V30 6215 H 595.225 3.92009 -0.0844299 0
M  V30 6216 H 596.715 4.07944 0.892838 0
M  V30 6217 N 597.152 0.631951 1.44375 0
M  V30 6218 C 598.4 0.136497 2.01639 0
M  V30 6219 C 598.721 -1.24637 1.49969 0
M  V30 6220 O 597.991 -1.82827 0.70363 0
M  V30 6221 H 596.571 0.0474703 0.74549 0
M  V30 6222 H 599.233 0.818837 1.76865 0
M  V30 6223 H 598.329 0.104817 3.11924 0
M  V30 6224 N 598.631 -1.53133 0.372548 0
M  V30 6225 C 599.859 -2.05774 -0.215515 0
M  V30 6226 C 600.274 -1.24555 -1.41886 0
M  V30 6227 O 599.631 -0.287951 -1.80214 0
M  V30 6228 C 599.682 -3.5645 -0.602161 0
M  V30 6229 O 599.403 -4.34591 0.553359 0
M  V30 6230 C 600.904 -4.25374 -1.24787 0
M  V30 6231 H 598.124 -0.670009 -0.0364529 0
M  V30 6232 H 600.668 -1.97434 0.532934 0
M  V30 6233 H 598.823 -3.64918 -1.30052 0
M  V30 6234 H 599.237 -5.23954 0.239336 0
M  V30 6235 H 600.711 -5.32097 -1.46891 0
M  V30 6236 H 601.188 -3.79531 -2.21026 0
M  V30 6237 H 601.794 -4.21177 -0.590752 0
M  V30 6238 N 600.109 -0.101901 -1.5727 0
M  V30 6239 C 601.334 0.571759 -1.99363 0
M  V30 6240 C 601.759 1.60507 -0.980768 0
M  V30 6241 O 601.117 1.81231 0.0498517 0
M  V30 6242 C 601.165 1.18996 -3.404 0
M  V30 6243 O 600.269 2.30572 -3.41922 0
M  V30 6244 H 599.61 0.144449 -0.648098 0
M  V30 6245 H 602.14 -0.185325 -2.03759 0
M  V30 6246 H 602.15 1.52962 -3.78241 0
M  V30 6247 H 600.825 0.432984 -4.1364 0
M  V30 6248 H 599.402 1.98173 -3.15883 0
M  V30 6249 N 601.587 1.56661 0.17182 0
M  V30 6250 C 602.497 1.99604 1.2327 0
M  V30 6251 C 603.513 0.907333 1.4847 0
M  V30 6252 O 604.689 1.21492 1.60629 0
M  V30 6253 C 601.754 2.34685 2.55194 0
M  V30 6254 C 600.815 3.57381 2.3786 0
M  V30 6255 C 600.048 3.90779 3.63494 0
M  V30 6256 O 600.271 3.25152 4.6865 0
M  V30 6257 O 599.205 4.84129 3.57634 0
M  V30 6258 H 603.031 2.90114 0.898192 0
M  V30 6259 H 600.616 1.44522 0.378647 0
M  V30 6260 H 602.498 2.5822 3.33017 0
M  V30 6261 H 601.173 1.47336 2.88225 0
M  V30 6262 H 600.08 3.39064 1.5807 0
M  V30 6263 H 601.413 4.45268 2.09754 0
M  V30 6264 N 603.065 -0.440357 1.51323 0
M  V30 6265 C 604.311 -1.19181 1.64085 0
M  V30 6266 C 604.644 -1.90936 0.354575 0
M  V30 6267 O 603.919 -1.8347 -0.645675 0
M  V30 6268 C 604.202 -2.2112 2.84215 0
M  V30 6269 C 604.055 -1.53468 4.22809 0
M  V30 6270 C 605.374 -3.22133 2.99864 0
M  V30 6271 H 602.493 -0.431924 0.597169 0
M  V30 6272 H 605.135 -0.481443 1.83799 0
M  V30 6273 H 603.285 -2.81703 2.67537 0
M  V30 6274 H 604.957 -0.962455 4.51148 0
M  V30 6275 H 603.2 -0.837086 4.25647 0
M  V30 6276 H 603.871 -2.27694 5.02852 0
M  V30 6277 H 606.347 -2.71601 3.15233 0
M  V30 6278 H 605.223 -3.90756 3.85488 0
M  V30 6279 H 605.484 -3.88061 2.11804 0
M  V30 6280 N 604.543 -1.41418 -0.695603 0
M  V30 6281 C 605.959 -1.23887 -1.00619 0
M  V30 6282 C 606.159 -0.128206 -2.01092 0
M  V30 6283 O 605.215 0.507408 -2.47349 0
M  V30 6284 C 606.528 -2.58816 -1.53083 0
M  V30 6285 C 608.076 -2.65998 -1.64967 0
M  V30 6286 C 608.551 -4.01244 -2.20833 0
M  V30 6287 N 610.042 -4.0309 -2.28194 0
M  V30 6288 C 610.777 -5.04539 -2.72448 0
M  V30 6289 N 610.273 -6.16378 -3.16306 0
M  V30 6290 N 612.066 -4.91901 -2.72011 0
M  V30 6291 H 604.217 -2.12379 -0.0300061 0
M  V30 6292 H 606.48 -0.944958 -0.0758797 0
M  V30 6293 H 606.186 -3.40842 -0.867147 0
M  V30 6294 H 606.06 -2.81299 -2.51298 0
M  V30 6295 H 608.447 -1.84331 -2.30448 0
M  V30 6296 H 608.528 -2.47325 -0.652982 0
M  V30 6297 H 608.172 -4.83359 -1.55968 0
M  V30 6298 H 608.102 -4.17257 -3.21254 0
M  V30 6299 H 610.593 -3.22341 -1.97242 0
M  V30 6300 H 610.906 -6.89658 -3.487 0
M  V30 6301 H 609.251 -6.19914 -3.14215 0
M  V30 6302 H 612.442 -4.03613 -2.37095 0
M  V30 6303 H 612.615 -5.71102 -3.06181 0
M  V30 6304 N 606.021 0.929856 -1.27246 0
M  V30 6305 C 607.437 1.20542 -1.04603 0
M  V30 6306 C 607.637 2.00276 0.221754 0
M  V30 6307 O 606.693 2.34835 0.927833 0
M  V30 6308 C 608.006 1.95566 -2.28417 0
M  V30 6309 C 609.554 2.08513 -2.33433 0
M  V30 6310 C 610.029 2.86943 -3.5697 0
M  V30 6311 N 611.52 2.94512 -3.57515 0
M  V30 6312 C 612.255 3.55656 -4.49774 0
M  V30 6313 N 611.751 4.18209 -5.52334 0
M  V30 6314 N 613.544 3.53038 -4.37402 0
M  V30 6315 H 605.695 0.397113 -2.08655 0
M  V30 6316 H 607.958 0.238277 -0.917566 0
M  V30 6317 H 607.664 1.44395 -3.20691 0
M  V30 6318 H 607.538 2.9619 -2.33563 0
M  V30 6319 H 609.925 2.58872 -1.41666 0
M  V30 6320 H 610.006 1.07117 -2.32292 0
M  V30 6321 H 609.65 2.37268 -4.49072 0
M  V30 6322 H 609.58 3.8862 -3.55362 0
M  V30 6323 H 612.071 2.50053 -2.83341 0
M  V30 6324 H 612.384 4.62796 -6.18902 0
M  V30 6325 H 610.729 4.16761 -5.56179 0
M  V30 6326 H 613.92 3.0337 -3.56489 0
M  V30 6327 H 614.093 4.004 -5.09493 0
M  V30 6328 N 607.499 1.09233 1.13605 0
M  V30 6329 C 608.429 0.751738 2.21068 0
M  V30 6330 C 609.41 -0.269688 1.67948 0
M  V30 6331 O 610.595 -0.13819 1.93708 0
M  V30 6332 C 607.725 0.16935 3.46887 0
M  V30 6333 C 606.679 1.12007 4.13084 0
M  V30 6334 C 606.005 0.399483 5.33206 0
M  V30 6335 C 607.305 2.46168 4.6065 0
M  V30 6336 H 608.999 1.65024 2.49815 0
M  V30 6337 H 606.545 0.794905 1.20072 0
M  V30 6338 H 608.498 -0.0809824 4.21322 0
M  V30 6339 H 607.222 -0.764335 3.1753 0
M  V30 6340 H 605.881 1.35564 3.40614 0
M  V30 6341 H 605.529 -0.538277 5.00112 0
M  V30 6342 H 605.229 1.03337 5.78442 0
M  V30 6343 H 606.753 0.157403 6.10397 0
M  V30 6344 H 608.167 2.26829 5.26518 0
M  V30 6345 H 606.564 3.05326 5.1662 0
M  V30 6346 H 607.634 3.07076 3.75276 0
M  V30 6347 N 608.977 -1.30795 0.87923 0
M  V30 6348 C 610.223 -1.96653 0.495519 0
M  V30 6349 C 610.556 -1.69282 -0.951703 0
M  V30 6350 O 609.831 -0.994374 -1.6716 0
M  V30 6351 C 610.114 -3.51898 0.764174 0
M  V30 6352 C 609.967 -3.88808 2.2616 0
M  V30 6353 C 611.286 -4.39462 0.236825 0
M  V30 6354 H 608.405 -0.7143 0.181507 0
M  V30 6355 H 611.047 -1.54765 1.10217 0
M  V30 6356 H 609.197 -3.87709 0.247841 0
M  V30 6357 H 610.869 -3.63051 2.8459 0
M  V30 6358 H 609.112 -3.37082 2.73053 0
M  V30 6359 H 609.783 -4.97086 2.4002 0
M  V30 6360 H 612.259 -4.10528 0.678683 0
M  V30 6361 H 611.135 -5.47018 0.454176 0
M  V30 6362 H 611.396 -4.33621 -0.861683 0
M  V30 6363 N 610.455 -0.639598 -1.44038 0
M  V30 6364 C 611.704 -0.144885 -2.01179 0
M  V30 6365 C 612.017 1.24372 -1.50967 0
M  V30 6366 O 613.223 1.83291 -2.00292 0
M  V30 6367 C 611.679 -0.208244 -3.59297 0
M  V30 6368 C 611.287 -1.59869 -4.18504 0
M  V30 6369 C 613.031 0.229568 -4.23879 0
M  V30 6370 C 610.938 -1.61671 -5.68873 0
M  V30 6371 H 609.868 -0.0504005 -0.752314 0
M  V30 6372 H 612.519 -0.799639 -1.65161 0
M  V30 6373 H 610.901 0.513767 -3.92653 0
M  V30 6374 H 612.075 -2.34496 -3.96671 0
M  V30 6375 H 610.39 -1.98131 -3.66242 0
M  V30 6376 H 612.987 0.235758 -5.3418 0
M  V30 6377 H 613.33 1.25848 -3.96822 0
M  V30 6378 H 613.863 -0.440233 -3.95357 0
M  V30 6379 H 610.602 -2.62427 -6.00677 0
M  V30 6380 H 610.122 -0.913489 -5.92803 0
M  V30 6381 H 611.801 -1.35439 -6.32665 0
M  V30 6382 N 611.933 1.52934 -0.380664 0
M  V30 6383 C 613.181 2.01069 0.203874 0
M  V30 6384 C 613.502 1.26922 1.4804 0
M  V30 6385 O 612.772 0.386787 1.92044 0
M  V30 6386 H 611.352 0.742882 0.0783279 0
M  V30 6387 H 614.014 1.88099 -0.510368 0
M  V30 6388 H 613.11 3.09258 0.42021 0
M  V30 6389 N 613.412 0.11024 1.57214 0
M  V30 6390 C 614.828 -0.24638 1.57687 0
M  V30 6391 C 615.028 -1.67344 1.12241 0
M  V30 6392 O 614.084 -2.39298 0.805783 0
M  V30 6393 C 615.397 -0.0210288 3.00693 0
M  V30 6394 C 616.945 -0.0876077 3.12877 0
M  V30 6395 C 617.42 0.10994 4.57868 0
M  V30 6396 N 618.911 0.0556135 4.63167 0
M  V30 6397 C 619.646 0.183495 5.73106 0
M  V30 6398 N 619.142 0.367058 6.91827 0
M  V30 6399 N 620.935 0.123689 5.61964 0
M  V30 6400 H 613.086 1.04246 1.85058 0
M  V30 6401 H 615.349 0.40979 0.854854 0
M  V30 6402 H 615.055 0.965203 3.38196 0
M  V30 6403 H 614.929 -0.756748 3.69531 0
M  V30 6404 H 617.316 -1.06436 2.75237 0
M  V30 6405 H 617.397 0.67985 2.466 0
M  V30 6406 H 617.041 1.08362 4.96206 0
M  V30 6407 H 616.971 -0.677397 5.22225 0
M  V30 6408 H 619.462 -0.0831062 3.77809 0
M  V30 6409 H 619.775 0.455739 7.71455 0
M  V30 6410 H 618.12 0.40292 6.93831 0
M  V30 6411 H 621.311 -0.0186928 4.68096 0
M  V30 6412 H 621.484 0.226797 6.47603 0
M  V30 6413 N 614.89 -1.56749 -0.16351 0
M  V30 6414 C 615.853 -1.96121 -1.18613 0
M  V30 6415 C 616.853 -0.845765 -1.36761 0
M  V30 6416 O 618.043 -1.11268 -1.34033 0
M  V30 6417 C 615.175 -2.26282 -2.54969 0
M  V30 6418 H 616.368 -2.87639 -0.848764 0
M  V30 6419 H 613.921 -1.50928 -0.406251 0
M  V30 6420 H 614.656 -1.37504 -2.93706 0
M  V30 6421 H 614.441 -3.07595 -2.43162 0
M  V30 6422 H 615.931 -2.57638 -3.28653 0
M  V30 6423 N 616.368 0.432326 -1.51554 0
M  V30 6424 C 617.615 1.18134 -1.64471 0
M  V30 6425 C 617.943 1.91076 -0.363349 0
M  V30 6426 O 617.198 1.84492 0.65279 0
M  V30 6427 C 617.497 2.21907 -2.80164 0
M  V30 6428 C 617.163 1.65941 -4.19255 0
M  V30 6429 C 615.825 1.50401 -4.57092 0
M  V30 6430 C 618.177 1.24843 -5.06027 0
M  V30 6431 C 615.505 0.922443 -5.79403 0
M  V30 6432 C 617.857 0.68113 -6.28922 0
M  V30 6433 C 616.521 0.512673 -6.65528 0
M  V30 6434 H 615.791 0.432283 -0.601841 0
M  V30 6435 H 618.438 0.471701 -1.856 0
M  V30 6436 H 616.743 2.98928 -2.53277 0
M  V30 6437 H 618.44 2.79691 -2.87357 0
M  V30 6438 H 615.03 1.79014 -3.89425 0
M  V30 6439 H 619.214 1.35667 -4.77397 0
M  V30 6440 H 614.47 0.779733 -6.06408 0
M  V30 6441 H 618.644 0.35418 -6.95499 0
M  V30 6442 H 616.271 0.0599084 -7.60176 0
M  V30 6443 N 617.846 1.41785 0.688094 0
M  V30 6444 C 618.794 1.44436 1.82321 0
M  V30 6445 C 619.788 0.321544 1.6632 0
M  V30 6446 O 620.994 0.493931 1.73091 0
M  V30 6447 H 617.369 0.452084 0.600936 0
M  V30 6448 H 619.34 2.40087 1.77202 0
M  V30 6449 C 618.089 1.35071 3.20392 0
M  V30 6450 H 617.412 2.2076 3.33324 0
M  V30 6451 H 618.852 1.40988 3.99873 0
M  V30 6452 C 617.311 0.0639127 3.36839 0
M  V30 6453 O 617.841 -0.888495 3.91751 0
M  V30 6454 N 616.047 -0.0146114 2.90596 0
M  V30 6455 H 615.594 0.761191 2.46097 0
M  V30 6456 H 615.552 -0.874988 3.01979 0
M  V30 6457 N 619.324 -0.923095 1.27737 0
M  V30 6458 C 620.287 -2.00587 1.10894 0
M  V30 6459 C 621.287 -1.60718 0.0514927 0
M  V30 6460 O 622.477 -1.71658 0.296481 0
M  V30 6461 C 619.609 -3.33829 0.690717 0
M  V30 6462 H 620.802 -2.16959 2.07048 0
M  V30 6463 H 618.355 -1.10451 1.1059 0
M  V30 6464 H 619.09 -3.23157 -0.272 0
M  V30 6465 H 618.875 -3.64125 1.45448 0
M  V30 6466 H 620.365 -4.13336 0.595252 0
M  V30 6467 N 620.802 -1.09834 -1.13024 0
M  V30 6468 C 622.079 -0.749225 -1.80682 0
M  V30 6469 C 622.459 0.765171 -1.96744 0
M  V30 6470 O 621.807 1.68912 -1.53886 0
M  V30 6471 C 622.017 -1.49311 -3.15448 0
M  V30 6472 C 623.365 -1.66162 -3.90737 0
M  V30 6473 O 624.389 -1.45597 -3.25085 0
M  V30 6474 O 623.248 -2.00211 -5.08505 0
M  V30 6475 H 620.342 -0.269614 -0.781817 0
M  V30 6476 H 622.888 -1.20078 -1.19914 0
M  V30 6477 H 621.66 -2.52407 -2.99009 0
M  V30 6478 H 621.283 -1.034 -3.8392 0
M  V30 6479 N 622.28 1.30327 -0.886154 0
M  V30 6480 C 623.527 1.96097 -0.505192 0
M  V30 6481 C 623.855 1.69952 0.945868 0
M  V30 6482 O 623.11 0.997653 1.68361 0
M  V30 6483 C 623.409 3.49906 -0.728042 0
M  V30 6484 C 623.075 3.96103 -2.15437 0
M  V30 6485 C 621.737 4.08428 -2.5444 0
M  V30 6486 C 624.089 4.20177 -3.08384 0
M  V30 6487 C 621.417 4.42189 -3.85598 0
M  V30 6488 C 623.769 4.55407 -4.39075 0
M  V30 6489 C 622.433 4.65941 -4.7797 0
M  V30 6490 H 621.703 0.71757 -0.184863 0
M  V30 6491 H 624.35 1.55171 -1.12223 0
M  V30 6492 H 622.655 3.9179 -0.027978 0
M  V30 6493 H 624.352 3.98869 -0.412862 0
M  V30 6494 H 620.942 3.87017 -1.84162 0
M  V30 6495 H 625.126 4.10134 -2.7947 0
M  V30 6496 H 620.382 4.48544 -4.15473 0
M  V30 6497 H 624.556 4.72986 -5.11133 0
M  V30 6498 H 622.183 4.91856 -5.79639 0
M  V30 6499 N 623.758 0.647228 1.43697 0
M  V30 6500 C 624.708 -0.0702191 2.27892 0
M  V30 6501 C 625.692 -0.800601 1.39568 0
M  V30 6502 O 626.884 -0.684055 1.63247 0
M  V30 6503 C 624.013 -1.04008 3.27165 0
M  V30 6504 C 623.099 -0.308484 4.22977 0
M  V30 6505 N 623.49 0.671721 5.0132 0
M  V30 6506 C 621.788 -0.550751 4.42586 0
M  V30 6507 C 622.489 1.10543 5.711 0
M  V30 6508 N 621.465 0.440903 5.41809 0
M  V30 6509 H 625.267 0.682031 2.85877 0
M  V30 6510 H 622.781 0.474022 1.55328 0
M  V30 6511 H 624.778 -1.56881 3.86256 0
M  V30 6512 H 623.438 -1.79246 2.70742 0
M  V30 6513 H 624.449 1.0502 5.0714 0
M  V30 6514 H 621.126 -1.28476 3.97241 0
M  V30 6515 H 622.516 1.91614 6.43998 0
M  V30 6516 O 625.275 -1.52523 0.530952 0
M  V30 6517 H 625.966 -1.93688 0.0212942 0
M  V30 END ATOM
M  V30 BEGIN BOND
M  V30 END BOND
M  V30 END CTAB
M  END
$$$$
