drugbank_target|P26447 Protein S100-A4 (DB00831; DB09130)
 OpenBabel12092120513D

  0  0  0     0  0            999 V3000
M  V30 BEGIN CTAB
M  V30 COUNTS 1631 1646 0 0 0
M  V30 BEGIN ATOM
M  V30 1 H -0.908 1.98254 -0.117106 0
M  V30 2 N 0 1.576 0 0
M  V30 3 C 0.933 2.03868 1.02534 0
M  V30 4 C 1.911 0.928543 1.3348 0
M  V30 5 O 3.095 1.19667 1.45644 0
M  V30 6 C 0.222 2.43627 2.35294 0
M  V30 7 C -0.732 3.65373 2.2001 0
M  V30 8 S 0.101 5.13292 1.52614 0
M  V30 9 C 1.257 5.56322 2.86805 0
M  V30 10 H 1.49 2.90518 0.631377 0
M  V30 11 H -0.977 1.52953 0.210867 0
M  V30 12 H 0.981 2.67203 3.11629 0
M  V30 13 H -0.358 1.57376 2.7183 0
M  V30 14 H -1.165 3.90944 3.18086 0
M  V30 15 H -1.563 3.418 1.51819 0
M  V30 16 H 0.729 5.58782 3.83104 0
M  V30 17 H 1.672 6.56266 2.65933 0
M  V30 18 H 2.08 4.83886 2.90714 0
M  V30 19 N 1.4781 -0.272755 1.55222 0
M  V30 20 C 2.4411 -1.32041 1.87344 0
M  V30 21 C 3.4411 -1.42342 0.74803 0
M  V30 22 O 4.6311 -1.41488 1.0162 0
M  V30 23 C 1.7631 -2.70173 2.07893 0
M  V30 24 H 2.9561 -1.04789 2.80997 0
M  V30 25 H 0.5091 -0.51083 1.47717 0
M  V30 26 H 1.2441 -3.02605 1.16622 0
M  V30 27 H 1.0291 -2.64082 2.89833 0
M  V30 28 H 2.5191 -3.45869 2.34017 0
M  V30 29 N 2.9562 -1.48159 -0.537278 0
M  V30 30 C 4.1962 -1.57397 -1.30405 0
M  V30 31 C 4.5602 -0.239202 -1.90504 0
M  V30 32 O 5.7612 -0.206528 -2.68005 0
M  V30 33 C 4.0322 -2.6754 -2.36974 0
M  V30 34 S 5.5912 -2.96496 -3.23475 0
M  V30 35 H 2.4092 -0.555577 -0.443684 0
M  V30 36 H 5.0112 -1.85644 -0.612912 0
M  V30 37 H 3.7152 -3.63092 -1.91291 0
M  V30 38 H 3.2462 -2.41172 -3.10805 0
M  V30 39 H 5.2612 -2.35234 -4.36897 0
M  V30 40 N 4.4343 0.785586 -1.36625 0
M  V30 41 C 5.8453 1.36101 -1.27803 0
M  V30 42 C 6.1963 1.96035 0.0804875 0
M  V30 43 O 5.3213 1.92834 0.982042 0
M  V30 44 C 5.9163 2.47442 -2.31426 0
M  V30 45 C 4.4753 3.00789 -2.26281 0
M  V30 46 C 3.6223 1.73896 -2.15999 0
M  V30 47 H 6.5733 0.586928 -1.47448 0
M  V30 48 H 6.5943 3.2656 -1.95291 0
M  V30 49 H 6.1063 2.03791 -3.30289 0
M  V30 50 H 4.2073 3.48851 -1.30896 0
M  V30 51 H 4.3203 3.57343 -3.19128 0
M  V30 52 H 2.6843 1.9628 -1.62316 0
M  V30 53 H 3.4673 1.32368 -3.16755 0
M  V30 54 N 5.9124 1.20967 1.01018 0
M  V30 55 C 6.8424 0.988272 2.11555 0
M  V30 56 C 7.8234 -0.0849778 1.69888 0
M  V30 57 O 9.0084 0.0738202 1.9406 0
M  V30 58 C 6.1384 0.546528 3.42973 0
M  V30 59 C 5.0924 1.56375 3.9841 0
M  V30 60 C 4.4184 0.97842 5.25672 0
M  V30 61 C 5.7184 2.94922 4.31066 0
M  V30 62 H 7.4124 1.91276 2.30334 0
M  V30 63 H 4.9584 0.921073 1.1069 0
M  V30 64 H 6.9114 0.378839 4.19694 0
M  V30 65 H 5.6354 -0.413598 3.23971 0
M  V30 66 H 4.2944 1.71891 3.23804 0
M  V30 67 H 3.9424 0.0101688 5.02999 0
M  V30 68 H 3.6424 1.65784 5.63728 0
M  V30 69 H 5.1664 0.821939 6.05043 0
M  V30 70 H 6.5804 2.8288 4.9865 0
M  V30 71 H 4.9774 3.5983 4.80253 0
M  V30 72 H 6.0474 3.4616 3.39561 0
M  V30 73 N 7.3905 -1.2043 1.01659 0
M  V30 74 C 8.3005 -2.2689 0.596484 0
M  V30 75 C 9.3165 -1.70107 -0.36599 0
M  V30 76 O 10.4925 -2.00117 -0.226942 0
M  V30 77 C 7.5575 -3.4665 -0.0586659 0
M  V30 78 C 6.6185 -4.18662 0.949751 0
M  V30 79 C 5.8515 -5.32705 0.32577 0
M  V30 80 O 6.0745 -5.63656 -0.874509 0
M  V30 81 O 5.0085 -5.92803 1.04249 0
M  V30 82 H 8.8345 -2.65041 1.4828 0
M  V30 83 H 6.4195 -1.27048 0.786082 0
M  V30 84 H 8.3015 -4.19256 -0.424564 0
M  V30 85 H 6.9765 -3.10375 -0.91918 0
M  V30 86 H 5.8835 -3.48229 1.36702 0
M  V30 87 H 7.2165 -4.58878 1.78023 0
M  V30 88 N 8.8686 -0.792821 -1.36206 0
M  V30 89 C 9.8156 -0.191653 -2.30003 0
M  V30 90 C 10.7856 0.666453 -1.52143 0
M  V30 91 O 11.9706 0.61442 -1.80636 0
M  V30 92 C 9.1106 0.664848 -3.38635 0
M  V30 93 C 8.2236 -0.212175 -4.31479 0
M  V30 94 C 7.3586 0.651022 -5.27196 0
M  V30 95 C 6.3976 -0.227247 -6.11678 0
M  V30 96 N 5.5346 0.595127 -6.99573 0
M  V30 97 H 10.3746 -0.996978 -2.80828 0
M  V30 98 H 7.9116 -0.503206 -1.38225 0
M  V30 99 H 9.8696 1.17645 -4.00269 0
M  V30 100 H 8.4996 1.43557 -2.89122 0
M  V30 101 H 7.5516 -0.841777 -3.70969 0
M  V30 102 H 8.8636 -0.888751 -4.90818 0
M  V30 103 H 8.0176 1.2283 -5.94136 0
M  V30 104 H 6.7566 1.36121 -4.68319 0
M  V30 105 H 5.7616 -0.816904 -5.43697 0
M  V30 106 H 6.9866 -0.93509 -6.72631 0
M  V30 107 H 4.9326 1.28955 -6.432 0
M  V30 108 H 4.8496 -0.0236952 -7.55996 0
M  V30 109 H 6.1176 1.15613 -7.70879 0
M  V30 110 N 10.3467 1.47872 -0.545128 0
M  V30 111 C 11.3097 2.28337 0.198717 0
M  V30 112 C 12.3097 1.36255 0.853888 0
M  V30 113 O 13.4997 1.59003 0.711606 0
M  V30 114 C 10.6317 3.15585 1.28915 0
M  V30 115 H 11.8247 2.95567 -0.507941 0
M  V30 116 H 9.3777 1.53362 -0.301616 0
M  V30 117 H 10.1127 2.53019 2.02859 0
M  V30 118 H 9.8977 3.83337 0.824309 0
M  V30 119 H 11.3877 3.76243 1.81194 0
M  V30 120 N 11.8248 0.280983 1.55075 0
M  V30 121 C 12.7548 -0.597469 2.25727 0
M  V30 122 C 13.7358 -1.15417 1.24952 0
M  V30 123 O 14.9208 -1.18722 1.53684 0
M  V30 124 C 12.0508 -1.7789 2.98283 0
M  V30 125 C 11.0048 -1.35347 4.06036 0
M  V30 126 C 10.3308 -2.61846 4.66198 0
M  V30 127 C 11.6308 -0.499354 5.19907 0
M  V30 128 H 13.3248 -0.00824265 2.99399 0
M  V30 129 H 10.8708 -0.0025244 1.44 0
M  V30 130 H 12.8238 -2.39937 3.46422 0
M  V30 131 H 11.5478 -2.39405 2.22155 0
M  V30 132 H 10.2068 -0.756156 3.58717 0
M  V30 133 H 9.8548 -3.21632 3.86732 0
M  V30 134 H 9.5548 -2.3409 5.38958 0
M  V30 135 H 11.0788 -3.24732 5.1709 0
M  V30 136 H 12.4928 -1.02498 5.64063 0
M  V30 137 H 10.8898 -0.316424 5.99265 0
M  V30 138 H 11.9598 0.480459 4.82514 0
M  V30 139 N 13.3029 -1.57598 0.00835791 0
M  V30 140 C 14.5799 -1.82172 -0.712235 0
M  V30 141 C 14.9599 -0.887873 -1.9152 0
M  V30 142 O 14.3079 0.06146 -2.28417 0
M  V30 143 C 14.5179 -3.30875 -1.11008 0
M  V30 144 C 15.8659 -3.96826 -1.51044 0
M  V30 145 O 16.8899 -3.35248 -1.20364 0
M  V30 146 O 15.7489 -5.05318 -2.08125 0
M  V30 147 H 12.8429 -0.750435 -0.347529 0
M  V30 148 H 15.3889 -1.69665 0.0344523 0
M  V30 149 H 14.1609 -3.90481 -0.252982 0
M  V30 150 H 13.7839 -3.48412 -1.9156 0
M  V30 151 N 14.781 0.264519 -1.55364 0
M  V30 152 C 16.027 0.99646 -1.76631 0
M  V30 153 C 16.36 1.85632 -0.570478 0
M  V30 154 O 15.635 1.89647 0.43175 0
M  V30 155 C 15.918 1.87187 -3.07625 0
M  V30 156 C 15.771 1.04138 -4.37579 0
M  V30 157 C 17.09 2.85749 -3.34717 0
M  V30 158 H 14.209 0.360841 -0.642622 0
M  V30 159 H 16.851 0.268218 -1.88097 0
M  V30 160 H 15.001 2.49279 -2.9798 0
M  V30 161 H 16.673 0.440517 -4.59192 0
M  V30 162 H 14.916 0.345115 -4.32425 0
M  V30 163 H 15.587 1.68729 -5.2558 0
M  V30 164 H 18.063 2.33793 -3.4421 0
M  V30 165 H 16.939 3.44136 -4.27623 0
M  V30 166 H 17.2 3.61311 -2.54768 0
M  V30 167 N 16.2591 1.48442 0.529413 0
M  V30 168 C 17.1921 1.57577 1.65059 0
M  V30 169 C 18.1701 0.426198 1.56915 0
M  V30 170 O 19.3541 0.637877 1.77379 0
M  V30 171 C 16.4811 1.5043 3.03461 0
M  V30 172 C 15.5271 2.70235 3.29962 0
M  V30 173 S 16.3601 4.32198 3.16172 0
M  V30 174 C 17.5161 4.2765 4.57019 0
M  V30 175 H 17.7491 2.52427 1.5706 0
M  V30 176 H 15.2821 1.36982 0.712417 0
M  V30 177 H 17.2401 1.46992 3.8328 0
M  V30 178 H 15.9011 0.569167 3.089 0
M  V30 179 H 15.0941 2.61374 4.30929 0
M  V30 180 H 14.6961 2.70938 2.57815 0
M  V30 181 H 16.9881 3.97618 5.48549 0
M  V30 182 H 17.9311 5.28797 4.70934 0
M  V30 183 H 18.3391 3.5811 4.36368 0
M  V30 184 N 17.7372 -0.778329 1.37039 0
M  V30 185 C 18.9832 -1.53892 1.32079 0
M  V30 186 C 19.3162 -1.9396 -0.0965386 0
M  V30 187 O 18.5912 -1.63568 -1.05242 0
M  V30 188 C 18.8742 -2.80847 2.25382 0
M  V30 189 C 18.7272 -2.47076 3.75864 0
M  V30 190 C 20.0462 -3.82741 2.1725 0
M  V30 191 H 17.1652 -0.558303 0.48111 0
M  V30 192 H 19.8072 -0.893397 1.67685 0
M  V30 193 H 17.9572 -3.35931 1.95148 0
M  V30 194 H 19.6292 -1.97957 4.16666 0
M  V30 195 H 17.8722 -1.79863 3.94755 0
M  V30 196 H 18.5432 -3.37798 4.36574 0
M  V30 197 H 21.0192 -3.37133 2.43887 0
M  V30 198 H 19.8952 -4.69303 2.84686 0
M  V30 199 H 20.1562 -4.2652 1.16331 0
M  V30 200 N 19.2153 -1.21501 -1.00376 0
M  V30 201 C 20.4403 -1.05977 -1.78279 0
M  V30 202 C 20.8653 0.385994 -1.84097 0
M  V30 203 O 20.2233 1.27849 -1.28547 0
M  V30 204 C 20.2713 -1.66302 -3.19963 0
M  V30 205 O 19.3753 -0.909333 -4.0225 0
M  V30 206 H 18.7163 -0.372906 -0.549397 0
M  V30 207 H 21.2463 -1.6107 -1.26165 0
M  V30 208 H 21.2563 -1.70574 -3.70632 0
M  V30 209 H 19.9313 -2.71515 -3.15043 0
M  V30 210 H 18.5083 -0.941795 -3.60811 0
M  V30 211 N 20.6934 1.19889 -1.02296 0
M  V30 212 C 21.9214 1.9339 -0.735399 0
M  V30 213 C 22.3364 1.75148 0.704887 0
M  V30 214 O 21.6934 1.06954 1.47875 0
M  V30 215 C 21.7444 3.45313 -1.06962 0
M  V30 216 O 21.4654 3.62964 -2.45334 0
M  V30 217 C 22.9664 4.35948 -0.804021 0
M  V30 218 H 20.1864 0.61448 -0.269546 0
M  V30 219 H 22.7304 1.522 -1.36585 0
M  V30 220 H 20.8854 3.84359 -0.484455 0
M  V30 221 H 21.2994 4.56886 -2.57595 0
M  V30 222 H 22.7734 5.41174 -1.0879 0
M  V30 223 H 23.2504 4.3842 0.261691 0
M  V30 224 H 23.8564 4.02574 -1.37164 0
M  V30 225 N 22.1715 0.800033 1.35784 0
M  V30 226 C 23.4185 0.377342 1.98953 0
M  V30 227 C 23.7465 -1.05378 1.6348 0
M  V30 228 O 23.0015 -1.74459 0.886707 0
M  V30 229 C 23.3005 0.500276 3.53881 0
M  V30 230 C 22.9665 1.89375 4.09204 0
M  V30 231 C 21.6285 2.27499 4.24025 0
M  V30 232 C 23.9805 2.8057 4.39238 0
M  V30 233 C 21.3085 3.562 4.66195 0
M  V30 234 C 23.6605 4.0871 4.82844 0
M  V30 235 C 22.3245 4.46843 4.95871 0
M  V30 236 H 21.5945 0.138079 0.728021 0
M  V30 237 H 24.2415 1.01955 1.62103 0
M  V30 238 H 22.5465 -0.225405 3.91151 0
M  V30 239 H 24.2435 0.154097 4.00704 0
M  V30 240 H 20.8335 1.58753 3.98115 0
M  V30 241 H 25.0175 2.52367 4.27346 0
M  V30 242 H 20.2735 3.85602 4.74469 0
M  V30 243 H 24.4475 4.79481 5.05046 0
M  V30 244 H 22.0745 5.46623 5.28306 0
M  V30 245 N 23.6496 -1.47581 0.552962 0
M  V30 246 C 24.5996 -2.26961 -0.217423 0
M  V30 247 C 25.5836 -1.34099 -0.889168 0
M  V30 248 O 26.7756 -1.58483 -0.788176 0
M  V30 249 C 23.9046 -3.19756 -1.24944 0
M  V30 250 C 22.9906 -4.20097 -0.581327 0
M  V30 251 N 23.3816 -5.04614 0.346171 0
M  V30 252 C 21.6796 -4.38099 -0.835767 0
M  V30 253 C 22.3806 -5.77052 0.733854 0
M  V30 254 N 21.3566 -5.43526 0.0896567 0
M  V30 255 H 25.1586 -2.89688 0.495761 0
M  V30 256 H 22.6726 -1.58068 0.372597 0
M  V30 257 H 24.6696 -3.75305 -1.81527 0
M  V30 258 H 23.3296 -2.58585 -1.96376 0
M  V30 259 H 24.3406 -5.12869 0.720098 0
M  V30 260 H 21.0176 -3.88102 -1.53892 0
M  V30 261 H 22.4076 -6.5504 1.49574 0
M  V30 262 N 25.1277 -0.289203 -1.54924 0
M  V30 263 C 26.0747 0.592115 -2.23075 0
M  V30 264 C 27.0447 1.13881 -1.20915 0
M  V30 265 O 28.2297 1.18551 -1.495 0
M  V30 266 C 25.3697 1.76376 -2.96623 0
M  V30 267 C 24.4827 1.24959 -4.13533 0
M  V30 268 C 23.6177 2.38416 -4.74691 0
M  V30 269 C 22.6567 1.84072 -5.83767 0
M  V30 270 N 21.7937 2.91057 -6.38929 0
M  V30 271 H 26.6337 0.00432038 -2.98 0
M  V30 272 H 24.1707 -0.00963529 -1.47097 0
M  V30 273 H 26.1287 2.45268 -3.3749 0
M  V30 274 H 24.7587 2.32337 -2.24097 0
M  V30 275 H 23.8107 0.453307 -3.77689 0
M  V30 276 H 25.1227 0.811662 -4.92152 0
M  V30 277 H 24.2767 3.15276 -5.18349 0
M  V30 278 H 23.0157 2.8553 -3.95378 0
M  V30 279 H 22.0207 1.05697 -5.39545 0
M  V30 280 H 23.2457 1.37877 -6.64956 0
M  V30 281 H 21.1917 3.37526 -5.62505 0
M  V30 282 H 21.1087 2.51724 -7.12861 0
M  V30 283 H 22.3767 3.6785 -6.87246 0
M  V30 284 N 26.6058 1.57591 -0.0167156 0
M  V30 285 C 27.8358 1.95292 0.674149 0
M  V30 286 C 28.2438 0.891097 1.66901 0
M  V30 287 O 27.5868 -0.136908 1.83189 0
M  V30 288 C 27.6488 3.29072 1.44747 0
M  V30 289 C 27.3128 4.52879 0.612331 0
M  V30 290 C 28.3098 5.1979 -0.107126 0
M  V30 291 C 25.9948 4.99242 0.553381 0
M  V30 292 C 27.9888 6.31375 -0.874339 0
M  V30 293 C 25.6758 6.10713 -0.217546 0
M  V30 294 C 26.6738 6.76637 -0.930123 0
M  V30 295 O 26.3618 7.85969 -1.68844 0
M  V30 296 H 26.0938 0.648275 0.191615 0
M  V30 297 H 28.6478 2.05284 -0.0690148 0
M  V30 298 H 26.8778 3.15535 2.2355 0
M  V30 299 H 28.5668 3.51764 2.02526 0
M  V30 300 H 29.3328 4.84948 -0.0708392 0
M  V30 301 H 25.2118 4.47744 1.09757 0
M  V30 302 H 28.7558 6.82764 -1.43106 0
M  V30 303 H 24.6528 6.44994 -0.255593 0
M  V30 304 H 25.4208 8.02571 -1.6069 0
M  V30 305 N 28.0839 -0.256276 1.55502 0
M  V30 306 C 29.3089 -1.00766 1.81276 0
M  V30 307 C 29.7339 -1.78524 0.59252 0
M  V30 308 O 29.0919 -1.75413 -0.45827 0
M  V30 309 C 29.1399 -1.92869 3.04687 0
M  V30 310 O 28.2439 -3.019 2.80945 0
M  V30 311 H 27.5849 -0.287224 0.598664 0
M  V30 312 H 30.1149 -0.280109 2.02674 0
M  V30 313 H 30.1249 -2.34511 3.33869 0
M  V30 314 H 28.7999 -1.35689 3.93143 0
M  V30 315 H 27.3769 -2.64454 2.62904 0
M  V30 316 N 29.562 -1.4872 -0.521534 0
M  V30 317 C 30.81 -1.56857 -1.27437 0
M  V30 318 C 31.131 -0.247982 -1.93417 0
M  V30 319 O 30.401 0.731151 -1.81744 0
M  V30 320 H 28.981 -0.577885 -0.473347 0
M  V30 321 H 31.643 -1.85233 -0.606205 0
M  V30 322 H 30.739 -2.35402 -2.0492 0
M  V30 323 N 31.0401 0.771051 -1.3745 0
M  V30 324 C 31.9871 1.88435 -1.3327 0
M  V30 325 C 32.9571 1.64914 -0.198136 0
M  V30 326 O 34.1421 1.86821 -0.387606 0
M  V30 327 C 31.2821 3.25509 -1.14622 0
M  V30 328 C 30.3951 3.60979 -2.37314 0
M  V30 329 C 29.5301 4.87265 -2.11533 0
M  V30 330 C 28.5691 5.15469 -3.30088 0
M  V30 331 N 27.7061 6.32944 -3.03853 0
M  V30 332 H 32.5461 1.91344 -2.28455 0
M  V30 333 H 30.0831 0.935466 -1.13523 0
M  V30 334 H 32.0411 4.04582 -1.01831 0
M  V30 335 H 30.6711 3.21974 -0.230837 0
M  V30 336 H 29.7231 2.76885 -2.60842 0
M  V30 337 H 31.0351 3.77759 -3.25729 0
M  V30 338 H 30.1891 5.74244 -1.95777 0
M  V30 339 H 28.9281 4.7259 -1.20457 0
M  V30 340 H 27.9331 4.26966 -3.46382 0
M  V30 341 H 29.1581 5.32052 -4.22016 0
M  V30 342 H 27.1041 6.19625 -2.15407 0
M  V30 343 H 27.0211 6.50143 -3.85812 0
M  V30 344 H 28.2891 7.22857 -2.91716 0
M  V30 345 N 32.5182 1.22032 0.997298 0
M  V30 346 C 33.4282 1.00271 2.12092 0
M  V30 347 C 34.4442 -0.047621 1.73935 0
M  V30 348 O 35.6202 0.144136 2.00884 0
M  V30 349 C 32.6852 0.578449 3.4184 0
M  V30 350 C 31.7462 1.70189 3.94125 0
M  V30 351 C 30.9792 1.29778 5.17681 0
M  V30 352 O 31.2022 0.174676 5.70132 0
M  V30 353 O 30.1362 2.11261 5.63607 0
M  V30 354 H 33.9622 1.94398 2.3333 0
M  V30 355 H 31.5472 1.00587 1.10465 0
M  V30 356 H 33.4292 0.351998 4.19927 0
M  V30 357 H 32.1042 -0.334019 3.21972 0
M  V30 358 H 31.0112 1.98282 3.1723 0
M  V30 359 H 32.3442 2.59206 4.18417 0
M  V30 360 N 33.9963 -1.19345 1.0293 0
M  V30 361 C 35.2443 -1.88665 0.724574 0
M  V30 362 C 35.5653 -1.80036 -0.749144 0
M  V30 363 O 34.8353 -1.2111 -1.53978 0
M  V30 364 H 33.4153 -0.698406 0.265025 0
M  V30 365 H 36.0773 -1.44885 1.30362 0
M  V30 366 H 35.1733 -2.94987 1.01926 0
M  V30 367 N 35.4744 -0.807222 -1.35358 0
M  V30 368 C 36.7514 -0.311126 -1.9311 0
M  V30 369 C 37.1314 1.19937 -1.73719 0
M  V30 370 O 36.4794 1.99918 -1.10657 0
M  V30 371 C 36.6894 -0.723226 -3.41424 0
M  V30 372 C 38.0374 -0.713078 -4.18569 0
M  V30 373 O 39.0614 -0.664811 -3.49941 0
M  V30 374 O 37.9204 -0.772022 -5.41019 0
M  V30 375 H 35.0144 -0.081526 -0.822972 0
M  V30 376 H 37.5604 -0.890962 -1.4443 0
M  V30 377 H 36.3324 -1.76426 -3.4927 0
M  V30 378 H 35.9554 -0.118232 -3.97424 0
M  V30 379 N 36.9525 1.47285 -0.560781 0
M  V30 380 C 37.8995 2.30058 0.18491 0
M  V30 381 C 38.8695 1.39281 0.904986 0
M  V30 382 O 40.0545 1.68241 0.899979 0
M  V30 383 C 37.1945 3.23317 1.20666 0
M  V30 384 C 36.3075 4.29186 0.492285 0
M  V30 385 C 35.4425 5.09592 1.49964 0
M  V30 386 C 34.4815 6.07232 0.770439 0
M  V30 387 N 33.6185 6.80584 1.72479 0
M  V30 388 H 38.4585 2.93302 -0.527048 0
M  V30 389 H 35.9955 1.44568 -0.271738 0
M  V30 390 H 37.9535 3.75811 1.81168 0
M  V30 391 H 36.5835 2.61929 1.88661 0
M  V30 392 H 35.6355 3.7972 -0.227333 0
M  V30 393 H 36.9475 4.98738 -0.0787929 0
M  V30 394 H 36.1015 5.66254 2.17809 0
M  V30 395 H 34.8405 4.3995 2.10464 0
M  V30 396 H 33.8455 5.49745 0.0780846 0
M  V30 397 H 35.0705 6.78884 0.171134 0
M  V30 398 H 33.0165 6.1367 2.3183 0
M  V30 399 H 32.9335 7.46319 1.20596 0
M  V30 400 H 34.2015 7.41818 2.39428 0
M  V30 401 N 38.4306 0.297415 1.54768 0
M  V30 402 C 39.6776 -0.312913 2.00068 0
M  V30 403 C 40.0056 -1.54171 1.18582 0
M  V30 404 O 39.2606 -1.94108 0.249133 0
M  V30 405 C 39.5596 -0.717561 3.50123 0
M  V30 406 C 39.2256 0.409095 4.4904 0
M  V30 407 C 37.8876 0.718399 4.75807 0
M  V30 408 C 40.2396 1.16717 5.07963 0
M  V30 409 C 37.5676 1.78896 5.5876 0
M  V30 410 C 39.9196 2.22762 5.92081 0
M  V30 411 C 38.5836 2.54303 6.1716 0
M  V30 412 H 37.8536 -0.114503 0.7321 0
M  V30 413 H 40.5006 0.415767 1.86932 0
M  V30 414 H 38.8056 -1.52627 3.60849 0
M  V30 415 H 40.5026 -1.20091 3.82595 0
M  V30 416 H 37.0926 0.157918 4.28309 0
M  V30 417 H 41.2766 0.941466 4.87289 0
M  V30 418 H 36.5326 2.0381 5.7643 0
M  V30 419 H 40.7066 2.81962 6.36765 0
M  V30 420 H 38.3336 3.3739 6.81229 0
M  V30 421 N 39.9087 -1.5758 0.0250728 0
M  V30 422 C 40.8557 -2.09973 -0.958129 0
M  V30 423 C 41.8257 -1.00085 -1.3256 0
M  V30 424 O 43.0107 -1.27481 -1.41962 0
M  V30 425 C 40.1507 -2.62812 -2.2366 0
M  V30 426 C 39.2637 -3.86693 -1.92594 0
M  V30 427 C 38.3987 -4.27941 -3.14707 0
M  V30 428 C 37.4377 -5.44591 -2.79442 0
M  V30 429 N 36.5747 -5.81014 -3.94167 0
M  V30 430 H 41.4147 -2.937 -0.504428 0
M  V30 431 H 38.9517 -1.45172 -0.237392 0
M  V30 432 H 40.9097 -2.91536 -2.98434 0
M  V30 433 H 39.5397 -1.81922 -2.66654 0
M  V30 434 H 38.5917 -3.64723 -1.0808 0
M  V30 435 H 39.9037 -4.71547 -1.62619 0
M  V30 436 H 39.0577 -4.58079 -3.97804 0
M  V30 437 H 37.7967 -3.41845 -3.4784 0
M  V30 438 H 36.8017 -5.1415 -1.94755 0
M  V30 439 H 38.0267 -6.32382 -2.47528 0
M  V30 440 H 35.9727 -4.97874 -4.2715 0
M  V30 441 H 35.8897 -6.60498 -3.67801 0
M  V30 442 H 37.1577 -6.15756 -4.7798 0
M  V30 443 N 41.3868 0.248026 -1.55636 0
M  V30 444 C 42.3168 1.31079 -1.93237 0
M  V30 445 C 43.2978 1.50264 -0.797174 0
M  V30 446 O 44.4828 1.62891 -1.05737 0
M  V30 447 C 41.6128 2.66575 -2.22609 0
M  V30 448 C 40.5668 2.62087 -3.3837 0
M  V30 449 C 39.8928 4.01369 -3.53281 0
M  V30 450 C 41.1928 2.19171 -4.7409 0
M  V30 451 H 42.8868 0.998556 -2.82257 0
M  V30 452 H 40.4328 0.47891 -1.35803 0
M  V30 453 H 42.3858 3.41057 -2.47503 0
M  V30 454 H 41.1098 2.99432 -1.30414 0
M  V30 455 H 39.7688 1.90063 -3.13483 0
M  V30 456 H 39.4168 4.31489 -2.58508 0
M  V30 457 H 39.1168 3.99254 -4.31127 0
M  V30 458 H 40.6408 4.77552 -3.80495 0
M  V30 459 H 42.0548 2.83384 -4.98363 0
M  V30 460 H 40.4518 2.2817 -5.5503 0
M  V30 461 H 41.5218 1.14336 -4.71227 0
M  V30 462 N 42.8649 1.48995 0.513639 0
M  V30 463 C 43.8129 1.65199 1.63744 0
M  V30 464 C 44.8069 0.51809 1.61283 0
M  V30 465 O 46.0129 0.697335 1.65943 0
M  V30 466 H 42.3879 0.52069 0.542574 0
M  V30 467 H 44.3589 2.59552 1.47226 0
M  V30 468 C 43.1079 1.72409 3.01945 0
M  V30 469 H 42.4309 2.59029 3.04539 0
M  V30 470 H 43.8709 1.87785 3.80148 0
M  V30 471 C 42.3299 0.46618 3.33659 0
M  V30 472 O 42.8599 -0.413744 3.99564 0
M  V30 473 N 41.0659 0.332931 2.88687 0
M  V30 474 H 40.6129 1.04996 2.35231 0
M  V30 475 H 40.5709 -0.507665 3.10274 0
M  V30 476 N 44.343 -0.763751 1.37857 0
M  V30 477 C 45.29 -1.87726 1.34267 0
M  V30 478 C 46.26 -1.64807 0.206879 0
M  V30 479 O 47.445 -1.86613 0.397508 0
M  V30 480 C 44.585 -3.24896 1.16346 0
M  V30 481 C 43.698 -3.59716 2.39225 0
M  V30 482 C 42.833 -4.86137 2.14114 0
M  V30 483 C 41.872 -5.13711 3.32817 0
M  V30 484 N 41.009 -6.31323 3.07206 0
M  V30 485 H 45.849 -1.90129 2.29466 0
M  V30 486 H 43.386 -0.929433 1.14017 0
M  V30 487 H 45.344 -4.04036 1.03975 0
M  V30 488 H 43.974 -3.21847 0.247909 0
M  V30 489 H 43.026 -2.75498 2.62307 0
M  V30 490 H 44.338 -3.76027 3.27728 0
M  V30 491 H 43.492 -5.73198 1.9882 0
M  V30 492 H 42.231 -4.71945 1.22961 0
M  V30 493 H 41.236 -4.25123 3.48641 0
M  V30 494 H 42.461 -5.29807 4.24832 0
M  V30 495 H 40.407 -6.18474 2.1869 0
M  V30 496 H 40.324 -6.48087 3.89254 0
M  V30 497 H 41.592 -7.213 2.95546 0
M  V30 498 N 45.8211 -1.22559 -0.990812 0
M  V30 499 C 47.0461 -1.07862 -1.77145 0
M  V30 500 C 47.4711 0.366447 -1.84496 0
M  V30 501 O 46.8291 1.26478 -1.29896 0
M  V30 502 C 46.8771 -1.69686 -3.18181 0
M  V30 503 O 45.9811 -0.951946 -4.01263 0
M  V30 504 H 45.3221 -0.378712 -0.545411 0
M  V30 505 H 47.8521 -1.62399 -1.2445 0
M  V30 506 H 47.8621 -1.74496 -3.68802 0
M  V30 507 H 46.5371 -2.74841 -3.12146 0
M  V30 508 H 45.1141 -0.980011 -3.59792 0
M  V30 509 N 47.2992 1.18797 -1.03562 0
M  V30 510 C 48.2092 2.25913 -0.632505 0
M  V30 511 C 49.2252 1.70668 0.338882 0
M  V30 512 O 50.4012 2.00453 0.195076 0
M  V30 513 C 47.4662 3.467 0.00350942 0
M  V30 514 C 46.5272 4.17098 -1.01624 0
M  V30 515 C 45.7602 5.32119 -0.410478 0
M  V30 516 O 45.9832 5.64976 0.784725 0
M  V30 517 O 44.9172 5.9107 -1.13667 0
M  V30 518 H 48.7432 2.62648 -1.52478 0
M  V30 519 H 46.3282 1.25781 -0.806195 0
M  V30 520 H 48.2102 4.19878 0.35781 0
M  V30 521 H 46.8852 3.11798 0.869686 0
M  V30 522 H 45.7922 3.4601 -1.42224 0
M  V30 523 H 47.1252 4.55987 -1.85301 0
M  V30 524 N 48.7773 0.814389 1.34928 0
M  V30 525 C 49.7073 0.244827 2.32213 0
M  V30 526 C 50.6883 -0.634024 1.57842 0
M  V30 527 O 51.8733 -0.562676 1.8587 0
M  V30 528 C 49.0033 -0.601106 3.42058 0
M  V30 529 C 47.9573 0.179896 4.27622 0
M  V30 530 C 47.2833 -0.788237 5.28858 0
M  V30 531 C 48.5833 1.38329 5.03649 0
M  V30 532 H 50.2773 1.05763 2.80097 0
M  V30 533 H 47.8233 0.510029 1.34665 0
M  V30 534 H 49.7763 -1.00968 4.09125 0
M  V30 535 H 48.5003 -1.44688 2.92802 0
M  V30 536 H 47.1593 0.569739 3.62146 0
M  V30 537 H 46.8073 -1.62973 4.75866 0
M  V30 538 H 46.5073 -0.269942 5.8698 0
M  V30 539 H 48.0313 -1.19485 5.98795 0
M  V30 540 H 49.4453 1.04918 5.63618 0
M  V30 541 H 47.8423 1.83662 5.71304 0
M  V30 542 H 48.9123 2.16592 4.33839 0
M  V30 543 N 50.2554 -1.46986 0.568584 0
M  V30 544 C 51.2024 -2.30153 -0.172707 0
M  V30 545 C 52.1724 -1.39759 -0.897586 0
M  V30 546 O 53.3574 -1.68716 -0.891044 0
M  V30 547 C 50.4974 -3.23952 -1.1895 0
M  V30 548 C 49.6104 -4.29441 -0.469517 0
M  V30 549 C 48.7454 -5.1038 -1.47259 0
M  V30 550 C 47.7844 -6.07632 -0.738225 0
M  V30 551 N 46.9214 -6.8149 -1.68868 0
M  V30 552 H 51.7614 -2.93019 0.542596 0
M  V30 553 H 49.2984 -1.44422 0.279401 0
M  V30 554 H 51.2564 -3.76767 -1.79173 0
M  V30 555 H 49.8864 -2.62926 -1.87269 0
M  V30 556 H 48.9384 -3.79594 0.247467 0
M  V30 557 H 50.2504 -4.98689 0.105241 0
M  V30 558 H 49.4044 -5.67402 -2.14803 0
M  V30 559 H 48.1434 -4.4106 -2.08128 0
M  V30 560 H 47.1484 -5.49778 -0.0489293 0
M  V30 561 H 48.3734 -6.78966 -0.135129 0
M  V30 562 H 46.3194 -6.14891 -2.28573 0
M  V30 563 H 46.2364 -7.46948 -1.16636 0
M  V30 564 H 47.5044 -7.43078 -2.3549 0
M  V30 565 N 51.7335 -0.305618 -1.54608 0
M  V30 566 C 52.6435 0.57778 -2.27374 0
M  V30 567 C 53.6595 1.14451 -1.31061 0
M  V30 568 O 54.8355 1.16831 -1.6405 0
M  V30 569 C 51.9005 1.73123 -3.00382 0
M  V30 570 C 50.9615 1.19812 -4.12242 0
M  V30 571 C 50.1945 2.2966 -4.81759 0
M  V30 572 O 50.4175 3.49651 -4.50666 0
M  V30 573 O 49.3515 1.96091 -5.69062 0
M  V30 574 H 53.1775 -0.012624 -3.03697 0
M  V30 575 H 50.7625 -0.0719184 -1.49227 0
M  V30 576 H 52.6445 2.40315 -3.4616 0
M  V30 577 H 51.3195 2.30815 -2.26949 0
M  V30 578 H 50.2265 0.491798 -3.70853 0
M  V30 579 H 51.5595 0.666566 -4.87666 0
M  V30 580 N 53.2116 1.57565 -0.0334293 0
M  V30 581 C 54.1416 2.13511 0.945265 0
M  V30 582 C 55.1226 1.05231 1.33643 0
M  V30 583 O 56.3076 1.33084 1.41429 0
M  V30 584 C 53.4376 2.6657 2.22616 0
M  V30 585 C 52.3916 3.79676 1.97561 0
M  V30 586 C 51.7176 4.1918 3.31952 0
M  V30 587 C 53.0176 5.0557 1.31135 0
M  V30 588 H 54.7116 2.95538 0.479325 0
M  V30 589 H 52.2576 1.42166 0.229115 0
M  V30 590 H 54.2106 3.04344 2.91466 0
M  V30 591 H 52.9346 1.8171 2.71384 0
M  V30 592 H 51.5936 3.42347 1.31127 0
M  V30 593 H 51.2416 3.31296 3.78487 0
M  V30 594 H 50.9416 4.95402 3.15992 0
M  V30 595 H 52.4656 4.59541 4.02063 0
M  V30 596 H 53.8796 5.40903 1.89992 0
M  V30 597 H 52.2766 5.86818 1.25559 0
M  V30 598 H 53.3466 4.84062 0.284894 0
M  V30 599 N 54.6897 -0.239769 1.55765 0
M  V30 600 C 55.6197 -1.30052 1.9393 0
M  V30 601 C 56.6007 -1.49839 0.805132 0
M  V30 602 O 57.7857 -1.62328 1.06599 0
M  V30 603 C 54.9157 -2.65391 2.2402 0
M  V30 604 C 53.8697 -2.60289 3.39755 0
M  V30 605 C 53.1957 -3.99489 3.55405 0
M  V30 606 C 54.4957 -2.16654 4.75246 0
M  V30 607 H 56.1897 -0.983573 2.82783 0
M  V30 608 H 53.7357 -0.471701 1.36055 0
M  V30 609 H 55.6887 -3.3974 2.49308 0
M  V30 610 H 54.4127 -2.98736 1.32 0
M  V30 611 H 53.0717 -1.88398 3.14487 0
M  V30 612 H 52.7197 -4.30112 2.60793 0
M  V30 613 H 52.4197 -3.96962 4.33238 0
M  V30 614 H 53.9437 -4.75528 3.83022 0
M  V30 615 H 55.3577 -2.80737 4.99859 0
M  V30 616 H 53.7547 -2.25223 5.56232 0
M  V30 617 H 54.8247 -1.11835 4.71827 0
M  V30 618 N 56.1678 -1.49265 -0.50573 0
M  V30 619 C 57.3958 -1.62215 -1.28429 0
M  V30 620 C 57.8108 -0.291697 -1.86533 0
M  V30 621 O 57.1678 0.722233 -1.67601 0
M  V30 622 C 57.2188 -2.68735 -2.41793 0
M  V30 623 O 56.9398 -3.96619 -1.86078 0
M  V30 624 C 58.4408 -2.92346 -3.3324 0
M  V30 625 H 55.6608 -0.546239 -0.389697 0
M  V30 626 H 58.2048 -1.95265 -0.607609 0
M  V30 627 H 56.3598 -2.38476 -3.053 0
M  V30 628 H 56.7738 -4.55256 -2.60465 0
M  V30 629 H 58.2478 -3.70623 -4.09075 0
M  V30 630 H 58.7248 -2.02081 -3.89948 0
M  V30 631 H 59.3308 -3.24003 -2.75503 0
M  V30 632 N 57.6459 0.756429 -1.3826 0
M  V30 633 C 59.0619 1.0591 -1.19395 0
M  V30 634 C 59.2619 2.01459 -0.0406567 0
M  V30 635 O 58.3179 2.44909 0.614467 0
M  V30 636 C 59.6309 1.64191 -2.51916 0
M  V30 637 C 61.1789 1.76376 -2.58574 0
M  V30 638 C 61.6539 2.38069 -3.91264 0
M  V30 639 N 63.1449 2.45503 -3.92788 0
M  V30 640 C 63.8799 2.94126 -4.92217 0
M  V30 641 N 63.3759 3.42805 -6.02043 0
M  V30 642 N 65.1689 2.9314 -4.7961 0
M  V30 643 H 57.3199 0.122313 -2.12048 0
M  V30 644 H 59.5829 0.116892 -0.940766 0
M  V30 645 H 59.2889 1.01451 -3.3675 0
M  V30 646 H 59.1629 2.6329 -2.70108 0
M  V30 647 H 61.5499 2.38244 -1.74137 0
M  V30 648 H 61.6309 0.759894 -2.44252 0
M  V30 649 H 61.2749 1.76835 -4.76121 0
M  V30 650 H 61.2049 3.39091 -4.02895 0
M  V30 651 H 63.6959 2.1107 -3.13461 0
M  V30 652 H 64.0089 3.78354 -6.73846 0
M  V30 653 H 62.3539 3.4087 -6.05667 0
M  V30 654 H 65.5449 2.54419 -3.92923 0
M  V30 655 H 65.7179 3.30721 -5.5725 0
M  V30 656 N 59.124 1.23083 0.984299 0
M  V30 657 C 60.034 1.02515 2.11016 0
M  V30 658 C 61.05 -0.0291702 1.73976 0
M  V30 659 O 62.226 0.165434 2.00719 0
M  V30 660 C 59.291 0.614673 3.41208 0
M  V30 661 C 58.352 1.74359 3.92297 0
M  V30 662 C 57.585 1.35261 5.16275 0
M  V30 663 O 57.808 0.235136 5.69915 0
M  V30 664 O 56.742 2.17227 5.61334 0
M  V30 665 H 60.568 1.96862 2.31255 0
M  V30 666 H 58.153 1.01753 1.09392 0
M  V30 667 H 60.035 0.396518 4.1953 0
M  V30 668 H 58.71 -0.299851 3.22308 0
M  V30 669 H 57.617 2.01635 3.1511 0
M  V30 670 H 58.95 2.63629 4.15645 0
M  V30 671 N 60.6021 -1.18246 1.0419 0
M  V30 672 C 61.5321 -2.24127 0.654914 0
M  V30 673 C 62.5131 -1.66617 -0.342451 0
M  V30 674 O 63.6981 -1.92924 -0.222277 0
M  V30 675 C 60.8281 -3.47295 0.0183757 0
M  V30 676 C 59.7821 -4.17563 0.939414 0
M  V30 677 C 59.1081 -5.34438 0.167286 0
M  V30 678 C 60.4081 -4.70917 2.25908 0
M  V30 679 H 62.1021 -2.56753 1.54007 0
M  V30 680 H 59.6481 -1.23414 0.74195 0
M  V30 681 H 61.6011 -4.20572 -0.264082 0
M  V30 682 H 60.3251 -3.13907 -0.901664 0
M  V30 683 H 58.9841 -3.46186 1.20628 0
M  V30 684 H 58.6321 -4.97298 -0.7552 0
M  V30 685 H 58.3321 -5.82388 0.780901 0
M  V30 686 H 59.8561 -6.10504 -0.108125 0
M  V30 687 H 61.2701 -5.35882 2.03724 0
M  V30 688 H 59.6671 -5.29406 2.82577 0
M  V30 689 H 60.7371 -3.88272 2.9047 0
M  V30 690 N 62.0802 -0.821533 -1.34494 0
M  V30 691 C 63.4912 -0.467956 -1.8074 0
M  V30 692 C 63.8422 1.01151 -1.68116 0
M  V30 693 O 62.9672 1.78707 -1.22036 0
M  V30 694 C 63.5622 -0.842627 -3.28154 0
M  V30 695 C 62.1212 -0.541439 -3.72485 0
M  V30 696 C 61.2682 -1.06028 -2.56229 0
M  V30 697 H 64.2192 -1.01183 -1.22261 0
M  V30 698 H 64.2402 -0.145876 -3.8022 0
M  V30 699 H 63.7522 -1.91945 -3.37311 0
M  V30 700 H 61.8532 0.526034 -3.68868 0
M  V30 701 H 61.9662 -1.08453 -4.66663 0
M  V30 702 H 60.3302 -0.481892 -2.501 0
M  V30 703 H 61.1132 -2.14352 -2.68157 0
M  V30 704 N 63.5583 1.46682 -0.576371 0
M  V30 705 C 64.7833 2.07304 -0.0630475 0
M  V30 706 C 65.2083 1.42329 1.2298 0
M  V30 707 O 64.5663 0.504865 1.74129 0
M  V30 708 C 64.6143 3.60472 0.095895 0
M  V30 709 O 63.7183 3.95927 1.15394 0
M  V30 710 H 63.0593 0.661288 -0.0599463 0
M  V30 711 H 65.5893 1.88417 -0.797511 0
M  V30 712 H 65.5993 4.06865 0.304071 0
M  V30 713 H 64.2743 4.07157 -0.84828 0
M  V30 714 H 62.8513 3.61252 0.924724 0
M  V30 715 N 65.0364 0.313813 1.54444 0
M  V30 716 C 66.2834 -0.291675 2.00388 0
M  V30 717 C 66.6114 -1.52904 1.2021 0
M  V30 718 O 65.8664 -1.93833 0.269707 0
M  V30 719 C 66.1654 -0.680386 3.50864 0
M  V30 720 C 65.8314 0.456699 4.48581 0
M  V30 721 C 64.4934 0.768824 4.75018 0
M  V30 722 C 66.8454 1.22098 5.06697 0
M  V30 723 C 64.1734 1.84812 5.56831 0
M  V30 724 C 66.5254 2.29029 5.89685 0
M  V30 725 C 65.1894 2.60834 6.14428 0
M  V30 726 H 64.4594 -0.106732 0.733273 0
M  V30 727 H 67.1064 0.43557 1.86481 0
M  V30 728 H 65.4114 -1.48791 3.62448 0
M  V30 729 H 67.1084 -1.16026 3.83847 0
M  V30 730 H 63.6984 0.203337 4.28117 0
M  V30 731 H 67.8824 0.993096 4.86263 0
M  V30 732 H 63.1384 2.09912 5.74236 0
M  V30 733 H 67.3124 2.887 6.33739 0
M  V30 734 H 64.9394 3.44596 6.77612 0
M  V30 735 N 66.5145 -1.57545 0.0417849 0
M  V30 736 C 67.4445 -2.14009 -0.933929 0
M  V30 737 C 68.4255 -1.05938 -1.33083 0
M  V30 738 O 69.6105 -1.33833 -1.40721 0
M  V30 739 C 66.7405 -2.67747 -2.21199 0
M  V30 740 C 65.6945 -3.80718 -1.95544 0
M  V30 741 C 65.0205 -4.20935 -3.29724 0
M  V30 742 C 66.3205 -5.06258 -1.28452 0
M  V30 743 H 68.0145 -2.95788 -0.463645 0
M  V30 744 H 65.5605 -1.42285 -0.221573 0
M  V30 745 H 67.5135 -3.05886 -2.89848 0
M  V30 746 H 66.2375 -1.83147 -2.70416 0
M  V30 747 H 64.8965 -3.43037 -1.2931 0
M  V30 748 H 64.5445 -3.33298 -3.76724 0
M  V30 749 H 64.2445 -4.9707 -3.13361 0
M  V30 750 H 65.7685 -4.61666 -3.9962 0
M  V30 751 H 67.1825 -5.41903 -1.8712 0
M  V30 752 H 65.5795 -5.87475 -1.22445 0
M  V30 753 H 66.6495 -4.84207 -0.259219 0
M  V30 754 N 67.9926 0.231505 -1.5589 0
M  V30 755 C 69.2406 0.955461 -1.78088 0
M  V30 756 C 69.5616 1.85262 -0.608533 0
M  V30 757 O 68.8316 1.92277 0.375035 0
M  V30 758 H 67.4116 0.355787 -0.656829 0
M  V30 759 H 70.0736 0.245751 -1.93344 0
M  V30 760 H 69.1696 1.56814 -2.69844 0
M  V30 761 N 69.4707 1.49531 0.497807 0
M  V30 762 C 70.4177 1.66436 1.59899 0
M  V30 763 C 71.3877 0.505793 1.58212 0
M  V30 764 O 72.5727 0.733202 1.7615 0
M  V30 765 C 69.7127 1.7399 2.98029 0
M  V30 766 C 68.8257 3.01172 3.09708 0
M  V30 767 C 67.9607 2.99686 4.38591 0
M  V30 768 C 66.9997 4.21434 4.43914 0
M  V30 769 N 66.1367 4.1784 5.64229 0
M  V30 770 H 70.9767 2.60459 1.44793 0
M  V30 771 H 68.5137 1.29137 0.704423 0
M  V30 772 H 70.4717 1.76352 3.78095 0
M  V30 773 H 69.1017 0.834301 3.11832 0
M  V30 774 H 68.1537 3.08408 2.22685 0
M  V30 775 H 69.4657 3.91165 3.09502 0
M  V30 776 H 68.6197 3.00628 5.2698 0
M  V30 777 H 67.3587 2.07477 4.41367 0
M  V30 778 H 66.3637 4.20733 3.53926 0
M  V30 779 H 67.5887 5.14839 4.42851 0
M  V30 780 H 65.5347 3.28469 5.67841 0
M  V30 781 H 65.4517 5.01571 5.65652 0
M  V30 782 H 66.7197 4.22889 6.54817 0
M  V30 783 N 70.9488 -0.749086 1.3866 0
M  V30 784 C 72.3648 -1.05276 1.19955 0
M  V30 785 C 72.5648 -2.01435 0.05134 0
M  V30 786 O 71.6208 -2.45232 -0.60147 0
M  V30 787 C 72.9338 -1.62853 2.52783 0
M  V30 788 C 74.4818 -1.75002 2.59506 0
M  V30 789 C 74.9568 -2.35991 3.92521 0
M  V30 790 N 76.4478 -2.43416 3.94085 0
M  V30 791 C 77.1828 -2.91511 4.9377 0
M  V30 792 N 76.6788 -3.39608 6.03853 0
M  V30 793 N 78.4718 -2.90592 4.81157 0
M  V30 794 H 70.6228 -0.111066 2.12109 0
M  V30 795 H 72.8858 -0.111901 0.941373 0
M  V30 796 H 72.5918 -0.99664 3.37283 0
M  V30 797 H 72.4658 -2.61854 2.715 0
M  V30 798 H 74.8528 -2.37317 1.75398 0
M  V30 799 H 74.9338 -0.74693 2.44652 0
M  V30 800 H 74.5778 -1.74308 4.77053 0
M  V30 801 H 74.5078 -3.3695 4.04688 0
M  V30 802 H 76.9988 -2.09405 3.14576 0
M  V30 803 H 77.3118 -3.74775 6.75843 0
M  V30 804 H 75.6568 -3.37653 6.07466 0
M  V30 805 H 78.8478 -2.52332 3.94267 0
M  V30 806 H 79.0208 -3.27762 5.58996 0
M  V30 807 N 72.4269 -1.23603 -0.977757 0
M  V30 808 C 73.6549 -1.09646 -1.75458 0
M  V30 809 C 74.0699 0.351859 -1.85492 0
M  V30 810 O 73.4269 1.24327 -1.336 0
M  V30 811 C 73.4779 -1.71895 -3.18016 0
M  V30 812 O 73.1989 -3.11063 -3.08498 0
M  V30 813 C 74.6999 -1.63415 -4.12081 0
M  V30 814 H 71.9199 -0.38359 -0.550545 0
M  V30 815 H 74.4639 -1.63507 -1.22824 0
M  V30 816 H 72.6189 -1.22061 -3.67668 0
M  V30 817 H 73.0329 -3.41305 -3.9826 0
M  V30 818 H 74.5069 -2.11669 -5.09804 0
M  V30 819 H 74.9839 -0.593462 -4.35172 0
M  V30 820 H 75.5899 -2.12628 -3.68334 0
M  V30 821 N 73.905 1.17692 -1.04816 0
M  V30 822 C 75.182 1.83768 -0.669963 0
M  V30 823 C 75.562 1.93232 0.849986 0
M  V30 824 O 74.91 1.46397 1.75443 0
M  V30 825 C 75.12 3.21641 -1.35455 0
M  V30 826 C 76.468 3.97592 -1.49017 0
M  V30 827 O 77.492 3.31107 -1.31326 0
M  V30 828 O 76.351 5.16729 -1.77914 0
M  V30 829 H 73.445 0.792799 -0.235368 0
M  V30 830 H 75.991 1.25021 -1.14751 0
M  V30 831 H 74.763 3.097 -2.39168 0
M  V30 832 H 74.386 3.88052 -0.866107 0
M  V30 833 N 75.3831 0.828654 1.34056 0
M  V30 834 C 76.2931 0.256725 2.33191 0
M  V30 835 C 77.3091 -0.611898 1.62886 0
M  V30 836 O 78.4851 -0.51844 1.94613 0
M  V30 837 C 75.5501 -0.567238 3.42028 0
M  V30 838 C 74.6111 0.324458 4.28072 0
M  V30 839 C 73.8441 -0.460274 5.31712 0
M  V30 840 O 74.0671 -1.693 5.44696 0
M  V30 841 O 73.0011 0.160391 6.01686 0
M  V30 842 H 76.8271 1.07739 2.83947 0
M  V30 843 H 74.4121 0.59093 1.37217 0
M  V30 844 H 76.2941 -1.03582 4.08471 0
M  V30 845 H 74.9691 -1.36513 2.93506 0
M  V30 846 H 73.8761 0.840659 3.64532 0
M  V30 847 H 75.2091 1.08685 4.8005 0
M  V30 848 N 76.8612 -1.46375 0.584142 0
M  V30 849 C 77.8242 -2.28784 -0.138108 0
M  V30 850 C 78.8242 -1.38471 -0.817462 0
M  V30 851 O 80.0142 -1.60833 -0.669199 0
M  V30 852 C 77.1462 -3.18892 -1.20503 0
M  V30 853 H 78.3392 -2.94117 0.586127 0
M  V30 854 H 75.8922 -1.52509 0.342171 0
M  V30 855 H 76.6272 -2.58309 -1.96079 0
M  V30 856 H 76.4122 -3.85388 -0.722384 0
M  V30 857 H 77.9022 -3.80914 -1.71155 0
M  V30 858 N 78.3393 -0.321999 -1.54275 0
M  V30 859 C 79.3023 0.531975 -2.22941 0
M  V30 860 C 80.3023 1.04478 -1.22234 0
M  V30 861 O 81.4923 0.937452 -1.46825 0
M  V30 862 C 78.6243 1.73874 -2.93224 0
M  V30 863 H 79.8173 -0.0682612 -2.99822 0
M  V30 864 H 77.3703 -0.0730644 -1.56129 0
M  V30 865 H 78.1053 2.37825 -2.20476 0
M  V30 866 H 77.8903 1.37847 -3.6707 0
M  V30 867 H 79.3803 2.34496 -3.45545 0
M  V30 868 N 79.8174 1.5752 -0.0501392 0
M  V30 869 C 81.0644 1.9265 0.623874 0
M  V30 870 C 81.3924 0.928411 1.70912 0
M  V30 871 O 80.6474 -0.0594525 1.9561 0
M  V30 872 C 80.9464 3.34467 1.25963 0
M  V30 873 C 80.6124 4.49883 0.302689 0
M  V30 874 C 79.2744 4.81184 0.0393636 0
M  V30 875 C 81.6264 5.20002 -0.353205 0
M  V30 876 C 78.9544 5.79951 -0.887308 0
M  V30 877 C 81.3064 6.1976 -1.26806 0
M  V30 878 C 79.9704 6.49491 -1.54007 0
M  V30 879 H 79.2404 0.704957 0.228292 0
M  V30 880 H 81.8874 1.91146 -0.116398 0
M  V30 881 H 80.1924 3.32333 2.07514 0
M  V30 882 H 81.8894 3.58928 1.78806 0
M  V30 883 H 78.4794 4.25457 0.518109 0
M  V30 884 H 82.6634 4.96033 -0.162854 0
M  V30 885 H 77.9194 6.01322 -1.10553 0
M  V30 886 H 82.0934 6.73205 -1.78236 0
M  V30 887 H 79.7204 7.25837 -2.25976 0
M  V30 888 N 81.2955 -0.223234 1.56011 0
M  V30 889 C 82.2275 -1.30006 1.88762 0
M  V30 890 C 83.2405 -1.43129 0.775746 0
M  V30 891 O 84.4295 -1.44057 1.05403 0
M  V30 892 C 81.5295 -2.67589 2.07965 0
M  V30 893 C 80.7025 -2.76434 3.38973 0
M  V30 894 C 79.7615 -3.95019 3.47629 0
M  V30 895 O 78.7875 -3.83436 4.20672 0
M  V30 896 N 79.9895 -5.09249 2.78649 0
M  V30 897 H 82.7545 -1.02238 2.81722 0
M  V30 898 H 80.3155 -0.413278 1.56536 0
M  V30 899 H 82.3075 -3.45297 2.11073 0
M  V30 900 H 80.8775 -2.87964 1.21638 0
M  V30 901 H 80.0975 -1.85216 3.47978 0
M  V30 902 H 81.3855 -2.79313 4.25278 0
M  V30 903 H 80.7835 -5.21556 2.19081 0
M  V30 904 H 79.3405 -5.85007 2.8742 0
M  V30 905 N 82.7736 -1.49793 -0.48987 0
M  V30 906 C 83.7206 -1.67281 -1.59014 0
M  V30 907 C 84.6906 -0.514177 -1.57941 0
M  V30 908 O 85.8756 -0.742533 -1.75759 0
M  V30 909 C 83.0156 -1.75569 -2.97102 0
M  V30 910 C 82.1286 -3.0281 -3.08107 0
M  V30 911 C 81.2636 -3.02008 -4.36995 0
M  V30 912 C 80.3026 -4.23782 -4.41673 0
M  V30 913 N 79.4396 -4.20826 -5.62005 0
M  V30 914 H 84.2796 -2.61224 -1.43409 0
M  V30 915 H 81.8166 -1.29508 -0.697565 0
M  V30 916 H 83.7746 -1.78354 -3.77155 0
M  V30 917 H 82.4046 -0.850827 -3.11385 0
M  V30 918 H 81.4566 -3.09584 -2.21047 0
M  V30 919 H 82.7686 -3.92801 -3.07423 0
M  V30 920 H 81.9226 -3.03418 -5.25378 0
M  V30 921 H 80.6616 -2.09815 -4.4026 0
M  V30 922 H 79.6666 -4.22604 -3.5169 0
M  V30 923 H 80.8916 -5.17181 -4.40115 0
M  V30 924 H 78.8376 -3.31476 -5.66091 0
M  V30 925 H 78.7546 -5.04564 -5.62984 0
M  V30 926 H 80.0226 -4.26355 -6.52565 0
M  V30 927 N 84.2517 0.741722 -1.39055 0
M  V30 928 C 85.1817 1.869 -1.39966 0
M  V30 929 C 86.1627 1.6804 -0.26392 0
M  V30 930 O 87.3477 1.88458 -0.468755 0
M  V30 931 C 84.4777 3.24572 -1.23574 0
M  V30 932 C 83.4317 3.58056 -2.34477 0
M  V30 933 C 82.7577 4.94593 -2.0318 0
M  V30 934 C 84.0577 3.61716 -3.76774 0
M  V30 935 H 85.7517 1.86395 -2.34302 0
M  V30 936 H 83.2977 0.895361 -1.1278 0
M  V30 937 H 85.2507 4.031 -1.22834 0
M  V30 938 H 83.9747 3.25587 -0.257045 0
M  V30 939 H 82.6337 2.81854 -2.34423 0
M  V30 940 H 82.2817 4.92181 -1.03765 0
M  V30 941 H 81.9817 5.17964 -2.77465 0
M  V30 942 H 83.5057 5.75486 -2.04079 0
M  V30 943 H 84.9197 4.30335 -3.78794 0
M  V30 944 H 83.3167 3.96603 -4.50362 0
M  V30 945 H 84.3867 2.61672 -4.08235 0
M  V30 946 N 85.7298 1.2412 0.971189 0
M  V30 947 C 86.6628 0.97373 2.06382 0
M  V30 948 C 87.6408 -0.0912662 1.62344 0
M  V30 949 O 88.8248 0.0449365 1.88446 0
M  V30 950 C 85.9518 0.468746 3.35441 0
M  V30 951 C 84.9978 1.52176 3.98428 0
M  V30 952 S 85.8308 3.10203 4.36503 0
M  V30 953 C 86.9868 2.61398 5.68702 0
M  V30 954 H 87.2198 1.89893 2.28753 0
M  V30 955 H 84.7528 1.07466 1.10862 0
M  V30 956 H 86.7108 0.184012 4.10087 0
M  V30 957 H 85.3718 -0.435688 3.11064 0
M  V30 958 H 84.5648 1.11876 4.91426 0
M  V30 959 H 84.1668 1.75632 3.30196 0
M  V30 960 H 86.4588 2.03992 6.4606 0
M  V30 961 H 87.4018 3.52972 6.13854 0
M  V30 962 H 87.8098 2.01941 5.27143 0
M  V30 963 N 87.2079 -1.17134 1.05439 0
M  V30 964 C 88.4329 -1.91913 0.786396 0
M  V30 965 C 88.8579 -1.7643 -0.652234 0
M  V30 966 O 88.2159 -1.08372 -1.45345 0
M  V30 967 C 88.2639 -3.40921 1.17497 0
M  V30 968 O 87.3679 -4.11244 0.308589 0
M  V30 969 H 86.7089 -0.598215 0.288158 0
M  V30 970 H 89.2389 -1.48457 1.4079 0
M  V30 971 H 89.2489 -3.91668 1.14281 0
M  V30 972 H 87.9239 -3.5151 2.22292 0
M  V30 973 H 86.5009 -3.70731 0.40157 0
M  V30 974 N 88.686 -0.835752 -1.33615 0
M  V30 975 C 89.634 -0.255238 -2.31195 0
M  V30 976 C 90.628 0.61107 -1.57995 0
M  V30 977 O 91.834 0.500979 -1.72888 0
M  V30 978 H 88.209 -0.0638085 -0.749288 0
M  V30 979 H 90.18 -1.09283 -2.77669 0
M  V30 980 C 88.929 0.55754 -3.43201 0
M  V30 981 H 88.252 -0.0997553 -3.99676 0
M  V30 982 H 89.692 0.929622 -4.13683 0
M  V30 983 C 88.151 1.73515 -2.88781 0
M  V30 984 O 88.681 2.83376 -2.84712 0
M  V30 985 N 86.887 1.55603 -2.4543 0
M  V30 986 H 86.434 0.662354 -2.48939 0
M  V30 987 H 86.392 2.34545 -2.09371 0
M  V30 988 N 90.1641 1.46063 -0.591896 0
M  V30 989 C 91.0941 2.33172 0.123673 0
M  V30 990 C 92.0751 1.45897 0.87453 0
M  V30 991 O 93.2601 1.74698 0.848181 0
M  V30 992 C 90.3901 3.28336 1.13194 0
M  V30 993 C 89.3441 4.25124 0.495324 0
M  V30 994 C 88.6701 5.09863 1.61071 0
M  V30 995 C 89.9701 5.19143 -0.573425 0
M  V30 996 H 91.6641 2.93252 -0.603646 0
M  V30 997 H 89.2101 1.41014 -0.291741 0
M  V30 998 H 91.1631 3.88137 1.64097 0
M  V30 999 H 89.8871 2.66383 1.88965 0
M  V30 1000 H 88.5461 3.66599 0.00729452 0
M  V30 1001 H 88.1941 4.44288 2.35832 0
M  V30 1002 H 87.8941 5.75417 1.19035 0
M  V30 1003 H 89.4181 5.72529 2.12233 0
M  V30 1004 H 90.8321 5.73106 -0.1491 0
M  V30 1005 H 89.2291 5.93089 -0.914636 0
M  V30 1006 H 90.2991 4.62519 -1.45617 0
M  V30 1007 N 91.6422 0.330177 1.54103 0
M  V30 1008 C 92.9192 -0.325007 1.92881 0
M  V30 1009 C 93.2992 -1.6934 1.26045 0
M  V30 1010 O 92.6472 -2.24855 0.406526 0
M  V30 1011 C 92.8572 -0.410634 3.46576 0
M  V30 1012 C 94.2052 -0.667801 4.19316 0
M  V30 1013 O 95.2292 -0.49329 3.52768 0
M  V30 1014 O 94.0882 -1.00491 5.37181 0
M  V30 1015 H 91.1822 -0.186873 0.80561 0
M  V30 1016 H 93.7282 0.380376 1.65382 0
M  V30 1017 H 92.5002 0.550164 3.87413 0
M  V30 1018 H 92.1232 -1.16333 3.802 0
M  V30 1019 N 93.1203 -1.57491 0.0584922 0
M  V30 1020 C 94.3453 -1.97711 -0.62652 0
M  V30 1021 C 94.7703 -0.936132 -1.63151 0
M  V30 1022 O 94.1283 0.099811 -1.81025 0
M  V30 1023 C 94.1763 -3.36989 -1.28338 0
M  V30 1024 O 93.2803 -3.35433 -2.39913 0
M  V30 1025 H 92.6213 -0.643868 -0.162266 0
M  V30 1026 H 95.1513 -2.04193 0.129064 0
M  V30 1027 H 95.1613 -3.73879 -1.63335 0
M  V30 1028 H 93.8363 -4.12289 -0.546889 0
M  V30 1029 H 92.4133 -3.10298 -2.06809 0
M  V30 1030 N 94.5984 0.214957 -1.56127 0
M  V30 1031 C 95.5464 1.28601 -1.93816 0
M  V30 1032 C 96.5404 1.48175 -0.821016 0
M  V30 1033 O 97.7464 1.49271 -1.0059 0
M  V30 1034 H 94.1214 0.431302 -0.616022 0
M  V30 1035 H 96.0924 0.940991 -2.83175 0
M  V30 1036 C 94.8414 2.62779 -2.27689 0
M  V30 1037 H 94.1644 2.48527 -3.13168 0
M  V30 1038 H 95.6044 3.36517 -2.57939 0
M  V30 1039 C 94.0634 3.18285 -1.10436 0
M  V30 1040 O 94.5934 4.00002 -0.368945 0
M  V30 1041 N 92.7994 2.7675 -0.886433 0
M  V30 1042 H 92.3464 2.10404 -1.48619 0
M  V30 1043 H 92.3044 3.14229 -0.103656 0
M  V30 1044 N 96.0765 1.50051 0.48192 0
M  V30 1045 C 97.4925 1.37237 0.814756 0
M  V30 1046 C 97.6925 0.420109 1.97072 0
M  V30 1047 O 96.7485 -0.141246 2.52105 0
M  V30 1048 C 98.0615 2.78375 1.13701 0
M  V30 1049 C 99.6095 2.87213 1.2441 0
M  V30 1050 C 100.084 4.29161 1.59954 0
M  V30 1051 N 101.575 4.32061 1.66967 0
M  V30 1052 C 102.31 5.38879 1.95952 0
M  V30 1053 N 101.806 6.55918 2.23031 0
M  V30 1054 N 103.599 5.26312 1.97363 0
M  V30 1055 H 95.7505 2.10546 -0.28005 0
M  V30 1056 H 98.0135 0.945921 -0.0627454 0
M  V30 1057 H 97.7195 3.49845 0.360787 0
M  V30 1058 H 97.5935 3.14941 2.07586 0
M  V30 1059 H 99.9805 2.15969 2.01101 0
M  V30 1060 H 100.061 2.54204 0.285299 0
M  V30 1061 H 99.7055 5.00938 0.838067 0
M  V30 1062 H 99.6355 4.59648 2.56966 0
M  V30 1063 H 102.126 3.47661 1.48123 0
M  V30 1064 H 102.439 7.33139 2.44391 0
M  V30 1065 H 100.784 6.59112 2.20447 0
M  V30 1066 H 103.975 4.33876 1.75697 0
M  V30 1067 H 104.148 6.09649 2.19618 0
M  V30 1068 N 97.5546 -0.734337 1.39446 0
M  V30 1069 C 98.8316 -1.48579 1.27215 0
M  V30 1070 C 99.2116 -2.1077 -0.117968 0
M  V30 1071 O 98.5596 -1.98646 -1.12924 0
M  V30 1072 C 98.7696 -2.53667 2.39696 0
M  V30 1073 C 100.118 -3.20031 2.79044 0
M  V30 1074 O 101.142 -2.6398 2.39151 0
M  V30 1075 O 100.001 -4.21455 3.47905 0
M  V30 1076 H 97.0946 -0.659816 0.49857 0
M  V30 1077 H 99.6406 -0.768106 1.51322 0
M  V30 1078 H 98.4126 -2.06096 3.32626 0
M  V30 1079 H 98.0356 -3.32994 2.17258 0
M  V30 1080 N 99.0327 -1.24633 -0.964593 0
M  V30 1081 C 99.9807 -1.03917 -2.08096 0
M  V30 1082 C 100.975 0.0268581 -1.69379 0
M  V30 1083 O 102.181 -0.127952 -1.79545 0
M  V30 1084 H 98.5557 -0.319044 -0.680966 0
M  V30 1085 H 100.527 -1.98581 -2.22729 0
M  V30 1086 C 99.2757 -0.663983 -3.41301 0
M  V30 1087 H 98.5987 -1.47605 -3.71555 0
M  V30 1088 H 100.039 -0.558663 -4.20303 0
M  V30 1089 C 98.4977 0.629169 -3.30973 0
M  V30 1090 O 99.0277 1.67404 -3.65156 0
M  V30 1091 N 97.2337 0.611057 -2.84103 0
M  V30 1092 H 96.7807 -0.239593 -2.56483 0
M  V30 1093 H 96.7387 1.47647 -2.77575 0
M  V30 1094 N 100.511 1.16574 -1.06058 0
M  V30 1095 C 101.421 2.2452 -0.680282 0
M  V30 1096 C 102.437 1.71348 0.302604 0
M  V30 1097 O 103.613 2.00822 0.152513 0
M  V30 1098 C 100.678 3.46629 -0.0700315 0
M  V30 1099 C 99.7388 4.14849 -1.10448 0
M  V30 1100 C 98.9718 5.31129 -0.523256 0
M  V30 1101 O 99.1948 5.66514 0.664709 0
M  V30 1102 O 98.1288 5.88526 -1.26179 0
M  V30 1103 H 101.955 2.59355 -1.58015 0
M  V30 1104 H 99.5398 1.24043 -0.832694 0
M  V30 1105 H 101.422 4.20543 0.268667 0
M  V30 1106 H 100.097 3.13573 0.803353 0
M  V30 1107 H 99.0038 3.42916 -1.49532 0
M  V30 1108 H 100.337 4.51954 -1.94931 0
M  V30 1109 N 101.989 0.842826 1.3317 0
M  V30 1110 C 103.235 0.441099 1.97945 0
M  V30 1111 C 103.568 -0.998024 1.66593 0
M  V30 1112 O 102.843 -1.69839 0.947898 0
M  V30 1113 C 103.126 0.666841 3.53872 0
M  V30 1114 C 102.979 2.15352 3.94897 0
M  V30 1115 C 104.298 0.115544 4.39948 0
M  V30 1116 H 101.417 0.161739 0.719034 0
M  V30 1117 H 104.059 1.05907 1.57746 0
M  V30 1118 H 102.209 0.140828 3.88245 0
M  V30 1119 H 103.881 2.7447 3.70761 0
M  V30 1120 H 102.124 2.63653 3.44484 0
M  V30 1121 H 102.795 2.26221 5.03516 0
M  V30 1122 H 105.271 0.565213 4.12243 0
M  V30 1123 H 104.147 0.303152 5.48062 0
M  V30 1124 H 104.408 -0.980935 4.3108 0
M  V30 1125 N 103.467 -1.45747 0.599634 0
M  V30 1126 C 104.744 -1.95585 0.0240846 0
M  V30 1127 C 105.124 -1.54217 -1.44154 0
M  V30 1128 O 104.472 -0.800903 -2.14004 0
M  V30 1129 C 104.682 -3.48344 0.21385 0
M  V30 1130 C 106.03 -4.24504 0.0904902 0
M  V30 1131 O 107.054 -3.55911 0.143558 0
M  V30 1132 O 105.913 -5.46491 -0.0310766 0
M  V30 1133 H 103.007 -0.82602 -0.0402478 0
M  V30 1134 H 105.553 -1.55951 0.669139 0
M  V30 1135 H 104.325 -3.71397 1.23206 0
M  V30 1136 H 103.948 -3.9485 -0.466842 0
M  V30 1137 N 104.945 -0.338344 -1.53925 0
M  V30 1138 C 106.192 0.259758 -2.00827 0
M  V30 1139 C 106.52 1.50973 -1.22628 0
M  V30 1140 O 105.775 1.93379 -0.300509 0
M  V30 1141 C 106.074 0.62448 -3.51902 0
M  V30 1142 C 105.74 -0.528006 -4.47798 0
M  V30 1143 C 104.402 -0.844298 -4.73735 0
M  V30 1144 C 106.754 -1.30143 -5.0469 0
M  V30 1145 C 104.082 -1.93648 -5.53821 0
M  V30 1146 C 106.434 -2.38382 -5.85967 0
M  V30 1147 C 105.098 -2.70576 -6.10201 0
M  V30 1148 H 104.368 0.0950523 -0.734878 0
M  V30 1149 H 107.015 -0.465182 -1.85764 0
M  V30 1150 H 105.32 1.43006 -3.64769 0
M  V30 1151 H 107.017 1.09905 -3.85645 0
M  V30 1152 H 103.607 -0.271421 -4.2774 0
M  V30 1153 H 107.791 -1.07033 -4.84621 0
M  V30 1154 H 103.047 -2.19021 -5.70824 0
M  V30 1155 H 107.221 -2.98746 -6.29066 0
M  V30 1156 H 104.848 -3.55333 -6.72044 0
M  V30 1157 N 106.423 1.57458 -0.0668435 0
M  V30 1158 C 107.355 2.09413 0.931601 0
M  V30 1159 C 108.368 1.02522 1.26464 0
M  V30 1160 O 109.557 1.30049 1.22269 0
M  V30 1161 C 106.657 2.53537 2.24882 0
M  V30 1162 C 105.83 3.83944 2.09537 0
M  V30 1163 C 104.889 4.14214 3.2452 0
M  V30 1164 O 103.915 4.83891 2.9973 0
M  V30 1165 N 105.117 3.67367 4.49469 0
M  V30 1166 H 107.882 2.95699 0.488048 0
M  V30 1167 H 105.443 1.61462 0.119009 0
M  V30 1168 H 107.435 2.70853 3.00701 0
M  V30 1169 H 106.005 1.72415 2.60753 0
M  V30 1170 H 105.225 3.76057 1.18215 0
M  V30 1171 H 106.513 4.69312 1.96529 0
M  V30 1172 H 105.911 3.11068 4.72497 0
M  V30 1173 H 104.468 3.89891 5.2233 0
M  V30 1174 N 107.901 -0.206675 1.56239 0
M  V30 1175 C 108.811 -1.27686 1.96808 0
M  V30 1176 C 109.827 -1.50455 0.874035 0
M  V30 1177 O 111.003 -1.63295 1.17884 0
M  V30 1178 C 108.068 -2.60358 2.28942 0
M  V30 1179 C 107.129 -2.45762 3.51994 0
M  V30 1180 C 106.362 -3.72108 3.82585 0
M  V30 1181 O 106.585 -4.75776 3.14631 0
M  V30 1182 O 105.519 -3.6833 4.76043 0
M  V30 1183 H 109.345 -0.962593 2.88041 0
M  V30 1184 H 106.93 -0.410746 1.43643 0
M  V30 1185 H 108.812 -3.38687 2.50737 0
M  V30 1186 H 107.487 -2.91435 1.4088 0
M  V30 1187 H 106.394 -1.65584 3.35459 0
M  V30 1188 H 107.727 -2.19621 4.40486 0
M  V30 1189 N 109.379 -1.50304 -0.473955 0
M  V30 1190 C 110.609 -1.64663 -1.24778 0
M  V30 1191 C 111.017 -0.328174 -1.86332 0
M  V30 1192 O 110.36 0.699536 -1.69859 0
M  V30 1193 C 110.422 -2.6778 -2.39863 0
M  V30 1194 C 110.086 -4.11413 -1.98969 0
M  V30 1195 C 111.083 -4.97372 -1.51385 0
M  V30 1196 C 108.768 -4.57312 -2.07777 0
M  V30 1197 C 110.762 -6.27277 -1.13148 0
M  V30 1198 C 108.449 -5.87223 -1.69152 0
M  V30 1199 C 109.447 -6.72031 -1.21915 0
M  V30 1200 O 109.135 -7.99518 -0.838237 0
M  V30 1201 H 108.867 -0.556602 -0.383627 0
M  V30 1202 H 111.421 -1.9726 -0.572491 0
M  V30 1203 H 109.651 -2.30419 -3.10554 0
M  V30 1204 H 111.34 -2.71388 -3.01833 0
M  V30 1205 H 112.106 -4.63128 -1.44004 0
M  V30 1206 H 107.985 -3.91449 -2.43493 0
M  V30 1207 H 111.529 -6.93425 -0.762077 0
M  V30 1208 H 107.426 -6.20989 -1.76191 0
M  V30 1209 H 108.194 -8.12764 -0.967339 0
M  V30 1210 N 110.857 0.726932 -1.39834 0
M  V30 1211 C 112.097 1.4992 -1.38936 0
M  V30 1212 C 112.461 1.91996 0.0126883 0
M  V30 1213 O 113.662 2.68399 0.146715 0
M  V30 1214 C 111.933 2.70013 -2.34153 0
M  V30 1215 S 113.492 3.59563 -2.51515 0
M  V30 1216 H 110.31 0.51271 -0.492595 0
M  V30 1217 H 112.912 0.85107 -1.76003 0
M  V30 1218 H 111.616 2.37254 -3.34871 0
M  V30 1219 H 111.147 3.39748 -1.98331 0
M  V30 1220 H 113.162 4.63973 -1.75909 0
M  V30 1221 N 112.336 1.25143 0.95797 0
M  V30 1222 C 113.582 1.09855 1.70469 0
M  V30 1223 C 113.915 -0.360187 1.90831 0
M  V30 1224 O 113.19 -1.26568 1.47685 0
M  V30 1225 C 113.473 1.8497 3.08963 0
M  V30 1226 C 113.326 3.38652 2.96032 0
M  V30 1227 C 114.645 1.63016 4.08795 0
M  V30 1228 H 111.764 0.400465 0.618706 0
M  V30 1229 H 114.406 1.53933 1.11376 0
M  V30 1230 H 112.556 1.47505 3.59409 0
M  V30 1231 H 114.228 3.85772 2.52938 0
M  V30 1232 H 112.471 3.66534 2.32025 0
M  V30 1233 H 113.142 3.8642 3.94187 0
M  V30 1234 H 115.618 1.95625 3.67247 0
M  V30 1235 H 114.494 2.18015 5.03747 0
M  V30 1236 H 114.755 0.570692 4.38401 0
M  V30 1237 N 113.814 -1.1601 1.06675 0
M  V30 1238 C 115.061 -1.86633 0.785781 0
M  V30 1239 C 115.389 -1.81929 -0.687896 0
M  V30 1240 O 114.644 -1.23253 -1.52011 0
M  V30 1241 C 114.943 -3.35547 1.23057 0
M  V30 1242 C 114.609 -3.60448 2.70902 0
M  V30 1243 C 113.271 -3.66954 3.11285 0
M  V30 1244 C 115.623 -3.7071 3.66365 0
M  V30 1245 C 112.951 -3.81225 4.45965 0
M  V30 1246 C 115.303 -3.86503 5.00797 0
M  V30 1247 C 113.967 -3.91252 5.40813 0
M  V30 1248 H 113.237 -0.682937 0.287538 0
M  V30 1249 H 115.884 -1.37146 1.33654 0
M  V30 1250 H 114.189 -3.87193 0.59907 0
M  V30 1251 H 115.886 -3.88583 0.990163 0
M  V30 1252 H 112.476 -3.56021 2.38636 0
M  V30 1253 H 116.66 -3.64991 3.36296 0
M  V30 1254 H 111.916 -3.83155 4.76447 0
M  V30 1255 H 116.09 -3.93385 5.74649 0
M  V30 1256 H 113.717 -4.02062 6.45174 0
M  V30 1257 N 115.292 -0.849877 -1.32721 0
M  V30 1258 C 116.222 -0.306308 -2.31482 0
M  V30 1259 C 117.203 0.591952 -1.59468 0
M  V30 1260 O 118.388 0.513199 -1.87296 0
M  V30 1261 C 115.518 0.510204 -3.43532 0
M  V30 1262 C 114.472 -0.293209 -4.26994 0
M  V30 1263 C 113.798 0.647743 -5.30762 0
M  V30 1264 C 115.098 -1.51634 -4.99804 0
M  V30 1265 H 116.792 -1.13153 -2.77195 0
M  V30 1266 H 114.338 -0.545553 -1.33266 0
M  V30 1267 H 116.291 0.900856 -4.11658 0
M  V30 1268 H 115.015 1.36874 -2.96535 0
M  V30 1269 H 113.674 -0.665555 -3.60508 0
M  V30 1270 H 113.322 1.50299 -4.8002 0
M  V30 1271 H 113.022 0.11422 -5.87489 0
M  V30 1272 H 114.546 1.03567 -6.01753 0
M  V30 1273 H 115.96 -1.19824 -5.60638 0
M  V30 1274 H 114.357 -1.98745 -5.66234 0
M  V30 1275 H 115.427 -2.28018 -4.27943 0
M  V30 1276 N 116.77 1.45427 -0.607355 0
M  V30 1277 C 117.995 2.07124 -0.107006 0
M  V30 1278 C 118.42 1.44906 1.19933 0
M  V30 1279 O 117.778 0.541687 1.73019 0
M  V30 1280 C 117.826 3.60595 0.0194119 0
M  V30 1281 O 116.93 3.98285 1.0697 0
M  V30 1282 H 116.271 0.659868 -0.0739597 0
M  V30 1283 H 118.801 1.86683 -0.837297 0
M  V30 1284 H 118.811 4.07419 0.2177 0
M  V30 1285 H 117.486 4.05266 -0.934453 0
M  V30 1286 H 116.063 3.63133 0.847889 0
M  V30 1287 N 118.248 0.346503 1.53744 0
M  V30 1288 C 119.488 -0.249413 2.02873 0
M  V30 1289 C 119.852 -1.47532 1.22876 0
M  V30 1290 O 121.053 -2.1456 1.61918 0
M  V30 1291 C 119.324 -0.552909 3.53097 0
M  V30 1292 S 120.883 -1.12521 4.24128 0
M  V30 1293 H 117.701 -0.074042 0.707134 0
M  V30 1294 H 120.303 0.48495 1.8939 0
M  V30 1295 H 119.007 0.347083 4.0893 0
M  V30 1296 H 118.538 -1.31686 3.70705 0
M  V30 1297 H 120.553 -2.41075 4.33702 0
M  V30 1298 N 119.726 -1.57421 0.075193 0
M  V30 1299 C 120.975 -1.92794 -0.592731 0
M  V30 1300 C 121.288 -0.957478 -1.70563 0
M  V30 1301 O 122.494 -1.20417 -2.43335 0
M  V30 1302 C 120.95 -3.42495 -1.10569 0
M  V30 1303 C 120.558 -4.47994 -0.0236121 0
M  V30 1304 C 122.302 -3.86864 -1.74748 0
M  V30 1305 C 120.209 -5.88829 -0.550803 0
M  V30 1306 H 119.139 -0.719591 -0.225177 0
M  V30 1307 H 121.79 -1.82902 0.147978 0
M  V30 1308 H 120.172 -3.47471 -1.89947 0
M  V30 1309 H 121.346 -4.54637 0.751099 0
M  V30 1310 H 119.661 -4.13113 0.522159 0
M  V30 1311 H 122.258 -4.8947 -2.15229 0
M  V30 1312 H 122.601 -3.24417 -2.60882 0
M  V30 1313 H 123.134 -3.84504 -1.01986 0
M  V30 1314 H 119.873 -6.54929 0.273457 0
M  V30 1315 H 119.393 -5.85698 -1.29296 0
M  V30 1316 H 121.072 -6.38811 -1.02613 0
M  V30 1317 N 121.204 0.198386 -1.56346 0
M  V30 1318 C 122.167 1.22952 -1.93431 0
M  V30 1319 C 123.167 1.38611 -0.815092 0
M  V30 1320 O 124.357 1.36479 -1.08255 0
M  V30 1321 C 121.489 2.59946 -2.20546 0
M  V30 1322 H 122.682 0.912626 -2.85677 0
M  V30 1323 H 120.235 0.43977 -1.49986 0
M  V30 1324 H 120.97 2.96696 -1.30927 0
M  V30 1325 H 120.755 2.49953 -3.02102 0
M  V30 1326 H 122.245 3.3431 -2.50253 0
M  V30 1327 N 122.682 1.50554 0.465978 0
M  V30 1328 C 123.615 1.64436 1.58227 0
M  V30 1329 C 124.593 0.492367 1.54966 0
M  V30 1330 O 125.777 0.712536 1.74514 0
M  V30 1331 C 122.904 1.63165 2.96808 0
M  V30 1332 C 121.95 2.83987 3.18204 0
M  V30 1333 S 122.783 4.45219 2.97557 0
M  V30 1334 C 123.939 4.46649 4.3847 0
M  V30 1335 H 124.172 2.58861 1.46213 0
M  V30 1336 H 121.705 1.3988 0.653678 0
M  V30 1337 H 123.663 1.63116 3.76701 0
M  V30 1338 H 122.324 0.69967 3.06208 0
M  V30 1339 H 121.517 2.79416 4.19455 0
M  V30 1340 H 121.119 2.81629 2.46092 0
M  V30 1341 H 123.411 4.20526 5.31191 0
M  V30 1342 H 124.354 5.48295 4.48082 0
M  V30 1343 H 124.762 3.76296 4.20787 0
M  V30 1344 N 124.16 -0.719506 1.40217 0
M  V30 1345 C 125.093 -1.84298 1.34571 0
M  V30 1346 C 126.071 -1.61149 0.216741 0
M  V30 1347 O 127.255 -1.84212 0.399756 0
M  V30 1348 C 124.382 -3.20568 1.09335 0
M  V30 1349 C 123.428 -3.62551 2.24631 0
M  V30 1350 S 124.261 -3.7012 3.87004 0
M  V30 1351 C 125.417 -5.09154 3.64024 0
M  V30 1352 H 125.65 -1.88807 2.2965 0
M  V30 1353 H 123.183 -0.885901 1.26456 0
M  V30 1354 H 125.141 -3.99246 0.954602 0
M  V30 1355 H 123.802 -3.13696 0.159164 0
M  V30 1356 H 122.995 -4.61483 2.02606 0
M  V30 1357 H 122.597 -2.91119 2.34789 0
M  V30 1358 H 124.889 -5.95955 3.22248 0
M  V30 1359 H 125.832 -5.36213 4.62473 0
M  V30 1360 H 126.24 -4.79562 2.97793 0
M  V30 1361 N 125.638 -1.25649 -0.95132 0
M  V30 1362 C 126.878 -1.11802 -1.71113 0
M  V30 1363 C 127.242 0.334758 -1.89059 0
M  V30 1364 O 128.443 0.595121 -2.62129 0
M  V30 1365 C 126.714 -1.85512 -3.05483 0
M  V30 1366 S 128.273 -1.87597 -3.96677 0
M  V30 1367 H 125.091 -0.399552 -0.588115 0
M  V30 1368 H 127.693 -1.59222 -1.1344 0
M  V30 1369 H 126.397 -2.90299 -2.90094 0
M  V30 1370 H 125.928 -1.38493 -3.68216 0
M  V30 1371 H 127.943 -0.955389 -4.86916 0
M  V30 1372 N 127.117 1.15442 -1.07289 0
M  V30 1373 C 128.065 2.22225 -0.686952 0
M  V30 1374 C 129.059 1.66688 0.30193 0
M  V30 1375 O 130.265 1.79236 0.165712 0
M  V30 1376 H 126.64 0.723783 -0.204064 0
M  V30 1377 H 128.611 2.52056 -1.5972 0
M  V30 1378 C 127.36 3.47556 -0.100149 0
M  V30 1379 H 126.683 3.90612 -0.852211 0
M  V30 1380 H 128.123 4.23794 0.132235 0
M  V30 1381 C 126.582 3.16337 1.159 0
M  V30 1382 O 127.112 3.33074 2.24555 0
M  V30 1383 N 125.318 2.70385 1.06491 0
M  V30 1384 H 124.865 2.56966 0.180668 0
M  V30 1385 H 124.823 2.49871 1.90819 0
M  V30 1386 N 128.595 0.856903 1.32268 0
M  V30 1387 C 129.505 0.306131 2.32594 0
M  V30 1388 C 130.521 -0.577209 1.64147 0
M  V30 1389 O 131.697 -0.477043 1.95669 0
M  V30 1390 C 128.762 -0.494561 3.43154 0
M  V30 1391 C 127.823 0.415186 4.27288 0
M  V30 1392 C 127.056 -0.347387 5.32568 0
M  V30 1393 O 127.279 -1.57708 5.48165 0
M  V30 1394 O 126.213 0.287982 6.01211 0
M  V30 1395 H 130.039 1.13737 2.81598 0
M  V30 1396 H 127.624 0.619902 1.35932 0
M  V30 1397 H 129.506 -0.948944 4.10576 0
M  V30 1398 H 128.181 -1.30257 2.96336 0
M  V30 1399 H 127.088 0.917793 3.62667 0
M  V30 1400 H 128.421 1.18844 4.77637 0
M  V30 1401 N 130.073 -1.45103 0.615059 0
M  V30 1402 C 131.32 -2.02183 0.113179 0
M  V30 1403 C 131.648 -1.48249 -1.25906 0
M  V30 1404 O 130.903 -0.650265 -1.84581 0
M  V30 1405 C 131.202 -3.57386 0.0318797 0
M  V30 1406 C 130.868 -4.30505 1.34077 0
M  V30 1407 C 129.53 -4.50197 1.69929 0
M  V30 1408 C 131.882 -4.72238 2.20546 0
M  V30 1409 C 129.21 -5.08881 2.91988 0
M  V30 1410 C 131.562 -5.32272 3.41861 0
M  V30 1411 C 130.226 -5.50187 3.77956 0
M  V30 1412 H 129.496 -0.739842 0.0414151 0
M  V30 1413 H 132.143 -1.74073 0.798168 0
M  V30 1414 H 130.448 -3.84817 -0.736409 0
M  V30 1415 H 132.145 -3.99264 -0.372712 0
M  V30 1416 H 128.735 -4.15496 1.05173 0
M  V30 1417 H 132.919 -4.56751 1.94146 0
M  V30 1418 H 128.175 -5.20939 3.2005 0
M  V30 1419 H 132.349 -5.63563 4.09109 0
M  V30 1420 H 129.976 -5.95427 4.72622 0
M  V30 1421 N 131.551 -0.354651 -1.53558 0
M  V30 1422 C 132.798 0.238443 -2.01091 0
M  V30 1423 C 133.126 1.49663 -1.24222 0
M  V30 1424 O 132.381 1.93049 -0.321003 0
M  V30 1425 C 132.68 0.587121 -3.52545 0
M  V30 1426 C 132.346 -0.575472 -4.47213 0
M  V30 1427 C 131.008 -0.894497 -4.72813 0
M  V30 1428 C 133.36 -1.35489 -5.03281 0
M  V30 1429 C 130.688 -1.99511 -5.51736 0
M  V30 1430 C 133.04 -2.44583 -5.83405 0
M  V30 1431 C 131.704 -2.77033 -6.07296 0
M  V30 1432 H 130.974 0.0872526 -0.735845 0
M  V30 1433 H 133.621 -0.484859 -1.8526 0
M  V30 1434 H 131.926 1.39129 -3.66265 0
M  V30 1435 H 133.623 1.05809 -3.86789 0
M  V30 1436 H 130.213 -0.316774 -4.27428 0
M  V30 1437 H 134.397 -1.12167 -4.83459 0
M  V30 1438 H 129.653 -2.25063 -5.68469 0
M  V30 1439 H 133.827 -3.05401 -6.25862 0
M  V30 1440 H 131.454 -3.6244 -6.68237 0
M  V30 1441 N 133.029 1.57378 -0.0835403 0
M  V30 1442 C 133.939 2.16897 0.894021 0
M  V30 1443 C 134.955 1.13528 1.31861 0
M  V30 1444 O 136.131 1.45848 1.3889 0
M  V30 1445 C 133.196 2.72831 2.13925 0
M  V30 1446 C 132.257 3.91115 1.76997 0
M  V30 1447 C 131.49 4.44371 2.95584 0
M  V30 1448 O 131.713 3.96596 4.09961 0
M  V30 1449 O 130.647 5.35549 2.74719 0
M  V30 1450 H 134.473 3.00814 0.417679 0
M  V30 1451 H 132.058 1.48741 0.140181 0
M  V30 1452 H 133.94 3.0863 2.86924 0
M  V30 1453 H 132.615 1.91967 2.60635 0
M  V30 1454 H 131.522 3.60148 1.01214 0
M  V30 1455 H 132.855 4.73307 1.3506 0
M  V30 1456 N 134.507 -0.190092 1.56449 0
M  V30 1457 C 135.755 -0.907908 1.80559 0
M  V30 1458 C 136.076 -1.83583 0.657438 0
M  V30 1459 O 135.346 -1.93203 -0.323924 0
M  V30 1460 H 133.926 -0.338247 0.666032 0
M  V30 1461 H 136.588 -0.194403 1.93928 0
M  V30 1462 H 135.684 -1.49604 2.73907 0
M  V30 1463 N 135.985 -1.50799 -0.457987 0
M  V30 1464 C 137.232 -1.62442 -1.20908 0
M  V30 1465 C 137.56 -0.330865 -1.91665 0
M  V30 1466 O 136.815 0.68401 -1.83357 0
M  V30 1467 C 137.114 -2.76358 -2.2663 0
M  V30 1468 C 136.78 -4.16378 -1.73033 0
M  V30 1469 C 135.442 -4.54473 -1.58138 0
M  V30 1470 C 137.794 -5.03836 -1.33413 0
M  V30 1471 C 135.122 -5.77754 -1.02065 0
M  V30 1472 C 137.474 -6.27676 -0.78778 0
M  V30 1473 C 136.138 -6.64562 -0.625561 0
M  V30 1474 H 135.408 -0.594417 -0.442435 0
M  V30 1475 H 138.055 -1.84772 -0.503136 0
M  V30 1476 H 136.36 -2.48167 -3.03184 0
M  V30 1477 H 138.057 -2.82568 -2.84528 0
M  V30 1478 H 134.647 -3.86331 -1.85598 0
M  V30 1479 H 138.831 -4.75026 -1.4375 0
M  V30 1480 H 134.087 -6.04997 -0.882547 0
M  V30 1481 H 138.261 -6.94797 -0.472177 0
M  V30 1482 H 135.888 -7.59965 -0.188926 0
M  V30 1483 N 137.463 0.71206 -1.40597 0
M  V30 1484 C 138.874 1.29135 -1.34837 0
M  V30 1485 C 139.225 1.96186 -0.0235395 0
M  V30 1486 O 138.35 1.97768 0.878444 0
M  V30 1487 C 138.945 2.34827 -2.44217 0
M  V30 1488 C 137.504 2.88371 -2.41907 0
M  V30 1489 C 136.651 1.62202 -2.24913 0
M  V30 1490 H 139.602 0.507944 -1.50352 0
M  V30 1491 H 139.623 3.15749 -2.12327 0
M  V30 1492 H 139.135 1.85996 -3.40627 0
M  V30 1493 H 137.236 3.41422 -1.49204 0
M  V30 1494 H 137.349 3.39925 -3.37621 0
M  V30 1495 H 135.713 1.874 -1.72492 0
M  V30 1496 H 136.496 1.15391 -3.23326 0
M  V30 1497 N 138.941 1.26152 0.944643 0
M  V30 1498 C 140.218 1.02247 1.66748 0
M  V30 1499 C 140.598 -0.448202 2.06287 0
M  V30 1500 O 139.946 -1.42779 1.78399 0
M  V30 1501 C 140.156 1.96788 2.88228 0
M  V30 1502 C 141.504 2.25201 3.59958 0
M  V30 1503 O 142.528 1.94626 2.98327 0
M  V30 1504 O 141.387 2.77242 4.70956 0
M  V30 1505 H 138.481 0.388517 0.730057 0
M  V30 1506 H 141.027 1.37348 0.99668 0
M  V30 1507 H 139.799 2.96047 2.55875 0
M  V30 1508 H 139.422 1.62145 3.63035 0
M  V30 1509 N 140.419 -1.14872 1.07899 0
M  V30 1510 C 141.366 -2.19791 0.704319 0
M  V30 1511 C 142.336 -1.63238 -0.306987 0
M  V30 1512 O 143.521 -1.8983 -0.192171 0
M  V30 1513 C 140.661 -3.44911 0.114244 0
M  V30 1514 C 139.774 -4.15637 1.1777 0
M  V30 1515 C 138.909 -5.28324 0.552037 0
M  V30 1516 C 137.948 -5.90875 1.59789 0
M  V30 1517 N 137.085 -6.95022 0.994404 0
M  V30 1518 H 141.925 -2.5119 1.60336 0
M  V30 1519 H 139.462 -1.23356 0.801352 0
M  V30 1520 H 141.42 -4.16477 -0.245544 0
M  V30 1521 H 140.05 -3.14011 -0.74813 0
M  V30 1522 H 139.102 -3.42512 1.65499 0
M  V30 1523 H 140.414 -4.5823 1.97046 0
M  V30 1524 H 139.568 -6.06538 0.1402 0
M  V30 1525 H 138.307 -4.86939 -0.272431 0
M  V30 1526 H 137.312 -5.11369 2.01945 0
M  V30 1527 H 138.537 -6.34337 2.42474 0
M  V30 1528 H 136.483 -6.55722 0.190939 0
M  V30 1529 H 136.4 -7.36073 1.72432 0
M  V30 1530 H 137.668 -7.77123 0.608253 0
M  V30 1531 N 141.898 -0.863906 -1.31812 0
M  V30 1532 C 142.83 -0.272485 -2.27575 0
M  V30 1533 C 143.843 0.56104 -1.52827 0
M  V30 1534 O 145.032 0.384021 -1.7432 0
M  V30 1535 C 142.132 0.63283 -3.32939 0
M  V30 1536 C 141.305 -0.166902 -4.37081 0
M  V30 1537 C 140.364 0.665608 -5.21973 0
M  V30 1538 O 139.39 0.0958091 -5.69119 0
M  V30 1539 N 140.592 1.9787 -5.45736 0
M  V30 1540 H 143.357 -1.0954 -2.78964 0
M  V30 1541 H 140.918 -0.724791 -1.4477 0
M  V30 1542 H 142.91 1.19532 -3.86645 0
M  V30 1543 H 141.48 1.35642 -2.81638 0
M  V30 1544 H 140.7 -0.910838 -3.83533 0
M  V30 1545 H 141.988 -0.715874 -5.03739 0
M  V30 1546 H 141.386 2.46484 -5.09178 0
M  V30 1547 H 139.943 2.48911 -6.024 0
M  V30 1548 N 143.376 1.44774 -0.622745 0
M  V30 1549 C 144.787 1.85546 -0.207226 0
M  V30 1550 C 145.138 1.52093 1.23944 0
M  V30 1551 O 144.263 0.95492 1.94191 0
M  V30 1552 C 144.858 3.36781 -0.369313 0
M  V30 1553 C 143.417 3.76399 -0.00836847 0
M  V30 1554 C 142.564 2.68664 -0.686651 0
M  V30 1555 H 145.515 1.3536 -0.828454 0
M  V30 1556 H 145.536 3.78453 0.394162 0
M  V30 1557 H 145.048 3.61098 -1.42231 0
M  V30 1558 H 143.149 3.57698 1.04322 0
M  V30 1559 H 143.262 4.7732 -0.412584 0
M  V30 1560 H 141.626 2.54404 -0.122777 0
M  V30 1561 H 142.409 2.95815 -1.74208 0
M  V30 1562 N 144.854 0.36279 1.53368 0
M  V30 1563 C 146.27 0.0116182 1.59596 0
M  V30 1564 C 146.47 -1.47012 1.37803 0
M  V30 1565 O 145.526 -2.23136 1.18181 0
M  V30 1566 C 146.839 0.465052 2.97082 0
M  V30 1567 C 148.387 0.419033 3.10182 0
M  V30 1568 C 148.862 0.848235 4.50077 0
M  V30 1569 N 150.353 0.803183 4.56183 0
M  V30 1570 C 151.088 1.107 5.62613 0
M  V30 1571 N 150.584 1.47996 6.76808 0
M  V30 1572 N 152.377 1.02998 5.52583 0
M  V30 1573 H 144.528 1.32775 1.65785 0
M  V30 1574 H 146.791 0.542518 0.777417 0
M  V30 1575 H 146.497 1.49892 3.18159 0
M  V30 1576 H 146.371 -0.149786 3.76902 0
M  V30 1577 H 148.758 -0.605696 2.88817 0
M  V30 1578 H 148.839 1.06933 2.32377 0
M  V30 1579 H 148.483 1.87107 4.7218 0
M  V30 1580 H 148.413 0.175218 5.26308 0
M  V30 1581 H 150.904 0.52838 3.74188 0
M  V30 1582 H 151.217 1.69613 7.53957 0
M  V30 1583 H 149.562 1.51859 6.78206 0
M  V30 1584 H 152.753 0.737817 4.62249 0
M  V30 1585 H 152.926 1.2701 6.35431 0
M  V30 1586 N 146.332 -1.57332 0.0918853 0
M  V30 1587 C 147.279 -2.13847 -0.868211 0
M  V30 1588 C 148.249 -1.05618 -1.28196 0
M  V30 1589 O 149.434 -1.33387 -1.36427 0
M  V30 1590 C 146.574 -2.72062 -2.12312 0
M  V30 1591 C 145.687 -3.94514 -1.7602 0
M  V30 1592 C 144.822 -4.40903 -2.96273 0
M  V30 1593 C 143.861 -5.55953 -2.56092 0
M  V30 1594 N 142.998 -5.97209 -3.69169 0
M  V30 1595 H 147.838 -2.95575 -0.379406 0
M  V30 1596 H 145.375 -1.46048 -0.175606 0
M  V30 1597 H 147.333 -3.03931 -2.858 0
M  V30 1598 H 145.963 -1.93068 -2.58698 0
M  V30 1599 H 145.015 -3.68979 -0.925135 0
M  V30 1600 H 146.327 -4.7802 -1.42472 0
M  V30 1601 H 145.481 -4.74539 -3.78018 0
M  V30 1602 H 144.22 -3.56291 -3.33029 0
M  V30 1603 H 143.225 -5.21948 -1.72773 0
M  V30 1604 H 144.45 -6.42311 -2.20484 0
M  V30 1605 H 142.396 -5.15543 -4.05649 0
M  V30 1606 H 142.313 -6.75504 -3.39456 0
M  V30 1607 H 143.581 -6.35475 -4.51434 0
M  V30 1608 N 147.81 0.181792 -1.56548 0
M  V30 1609 C 148.757 1.22521 -1.95595 0
M  V30 1610 C 149.727 1.4454 -0.818373 0
M  V30 1611 O 150.912 1.57454 -1.07763 0
M  V30 1612 C 148.052 2.56193 -2.31212 0
M  V30 1613 C 147.165 2.41641 -3.58097 0
M  V30 1614 C 146.3 3.68108 -3.82975 0
M  V30 1615 C 145.339 3.48445 -5.03242 0
M  V30 1616 N 144.476 4.66956 -5.24306 0
M  V30 1617 H 149.316 0.885226 -2.84548 0
M  V30 1618 H 146.853 0.425718 -1.40805 0
M  V30 1619 H 148.811 3.34088 -2.49882 0
M  V30 1620 H 147.441 2.88208 -1.45382 0
M  V30 1621 H 146.493 1.54976 -3.474 0
M  V30 1622 H 147.805 2.23052 -4.46149 0
M  V30 1623 H 146.959 4.54441 -4.01956 0
M  V30 1624 H 145.698 3.89666 -2.93278 0
M  V30 1625 H 144.703 2.60499 -4.8417 0
M  V30 1626 H 145.928 3.2832 -5.9446 0
M  V30 1627 H 143.874 4.88752 -4.37559 0
M  V30 1628 H 143.791 4.51242 -6.06561 0
M  V30 1629 H 145.059 5.54602 -5.47756 0
M  V30 1630 O 149.327 1.58157 0.326881 0
M  V30 1631 H 150.018 1.6734 0.975558 0
M  V30 END ATOM
M  V30 BEGIN BOND
M  V30 END BOND
M  V30 END CTAB
M  END
$$$$
