drugbank_target|P26466 Maltoporin (DB02379)
 OpenBabel12092120283D

  0  0  0     0  0            999 V3000
M  V30 BEGIN CTAB
M  V30 COUNTS 6911 7001 0 0 0
M  V30 BEGIN ATOM
M  V30 1 H -0.908 1.98254 -0.117106 0
M  V30 2 N 0 1.576 0 0
M  V30 3 C 0.933 2.03868 1.02534 0
M  V30 4 C 1.911 0.928543 1.3348 0
M  V30 5 O 3.095 1.19667 1.45644 0
M  V30 6 C 0.222 2.43627 2.35294 0
M  V30 7 C -0.732 3.65373 2.2001 0
M  V30 8 S 0.101 5.13292 1.52614 0
M  V30 9 C 1.257 5.56322 2.86805 0
M  V30 10 H 1.49 2.90518 0.631377 0
M  V30 11 H -0.977 1.52953 0.210867 0
M  V30 12 H 0.981 2.67203 3.11629 0
M  V30 13 H -0.358 1.57376 2.7183 0
M  V30 14 H -1.165 3.90944 3.18086 0
M  V30 15 H -1.563 3.418 1.51819 0
M  V30 16 H 0.729 5.58782 3.83104 0
M  V30 17 H 1.672 6.56266 2.65933 0
M  V30 18 H 2.08 4.83886 2.90714 0
M  V30 19 N 1.4781 -0.272755 1.55222 0
M  V30 20 C 2.4111 -1.3627 1.83046 0
M  V30 21 C 3.3891 -1.47536 0.683521 0
M  V30 22 O 4.5731 -1.64157 0.926545 0
M  V30 23 C 1.7001 -2.73908 1.99229 0
M  V30 24 C 0.7461 -2.79925 3.21783 0
M  V30 25 S 1.5791 -2.39146 4.79134 0
M  V30 26 C 2.7351 -3.78758 4.9829 0
M  V30 27 H 2.9681 -1.12464 2.75207 0
M  V30 28 H 0.5011 -0.472398 1.46996 0
M  V30 29 H 2.4591 -3.53171 2.09238 0
M  V30 30 H 1.1201 -2.94965 1.07956 0
M  V30 31 H 0.3131 -3.80946 3.29994 0
M  V30 32 H -0.0849 -2.08683 3.10367 0
M  V30 33 H 2.2071 -4.7403 4.84047 0
M  V30 34 H 3.1501 -3.75499 6.00338 0
M  V30 35 H 3.5581 -3.70072 4.26271 0
M  V30 36 N 2.9562 -1.48159 -0.537278 0
M  V30 37 C 4.2052 -1.5506 -1.28993 0
M  V30 38 C 4.5182 -0.226211 -1.94288 0
M  V30 39 O 5.7242 -0.173395 -2.70946 0
M  V30 40 C 4.1802 -2.73429 -2.34018 0
M  V30 41 C 3.7882 -4.1248 -1.74825 0
M  V30 42 C 5.5322 -2.89638 -3.10339 0
M  V30 43 C 3.4392 -5.22121 -2.77747 0
M  V30 44 H 2.3692 -0.577231 -0.485098 0
M  V30 45 H 5.0202 -1.74478 -0.568317 0
M  V30 46 H 3.4022 -2.47431 -3.09182 0
M  V30 47 H 4.5762 -4.48466 -1.05899 0
M  V30 48 H 2.8912 -4.01327 -1.11022 0
M  V30 49 H 5.4882 -3.68718 -3.87235 0
M  V30 50 H 5.8312 -1.9882 -3.65754 0
M  V30 51 H 6.3642 -3.15502 -2.42288 0
M  V30 52 H 3.1032 -6.1488 -2.27161 0
M  V30 53 H 2.6232 -4.90631 -3.45024 0
M  V30 54 H 4.3022 -5.49924 -3.4087 0
M  V30 55 N 4.4343 0.785586 -1.36625 0
M  V30 56 C 5.6623 1.57448 -1.3423 0
M  V30 57 C 6.0773 1.88649 0.0755653 0
M  V30 58 O 5.4343 1.50414 1.03354 0
M  V30 59 C 5.4853 2.89316 -2.16745 0
M  V30 60 O 5.2063 2.59459 -3.53005 0
M  V30 61 C 6.7073 3.83606 -2.22174 0
M  V30 62 H 3.9273 0.488226 -0.4603 0
M  V30 63 H 6.4713 0.974733 -1.79775 0
M  V30 64 H 4.6263 3.4575 -1.74745 0
M  V30 65 H 5.0403 3.43804 -3.96105 0
M  V30 66 H 6.5143 4.73181 -2.8426 0
M  V30 67 H 6.9913 4.21734 -1.22627 0
M  V30 68 H 7.5973 3.33104 -2.64427 0
M  V30 69 N 5.9124 1.20967 1.01018 0
M  V30 70 C 6.8424 0.988272 2.11555 0
M  V30 71 C 7.8234 -0.0849778 1.69888 0
M  V30 72 O 9.0084 0.0738202 1.9406 0
M  V30 73 C 6.1384 0.546528 3.42973 0
M  V30 74 C 5.0924 1.56375 3.9841 0
M  V30 75 C 4.4184 0.97842 5.25672 0
M  V30 76 C 5.7184 2.94922 4.31066 0
M  V30 77 H 7.4124 1.91276 2.30334 0
M  V30 78 H 4.9584 0.921073 1.1069 0
M  V30 79 H 6.9114 0.378839 4.19694 0
M  V30 80 H 5.6354 -0.413598 3.23971 0
M  V30 81 H 4.2944 1.71891 3.23804 0
M  V30 82 H 3.9424 0.0101688 5.02999 0
M  V30 83 H 3.6424 1.65784 5.63728 0
M  V30 84 H 5.1664 0.821939 6.05043 0
M  V30 85 H 6.5804 2.8288 4.9865 0
M  V30 86 H 4.9774 3.5983 4.80253 0
M  V30 87 H 6.0474 3.4616 3.39561 0
M  V30 88 N 7.3905 -1.2043 1.01659 0
M  V30 89 C 8.8065 -1.41852 0.731442 0
M  V30 90 C 9.0065 -1.89358 -0.688898 0
M  V30 91 O 8.0625 -2.06247 -1.45666 0
M  V30 92 C 9.3755 -2.44019 1.75714 0
M  V30 93 C 10.9235 -2.57785 1.77527 0
M  V30 94 C 11.3985 -3.63194 2.79023 0
M  V30 95 N 12.8895 -3.70678 2.77763 0
M  V30 96 C 13.6245 -4.51897 3.52954 0
M  V30 97 N 13.1205 -5.36921 4.37821 0
M  V30 98 N 14.9135 -4.4643 3.41551 0
M  V30 99 H 7.0645 -0.879093 1.93354 0
M  V30 100 H 9.3275 -0.448425 0.835236 0
M  V30 101 H 9.0335 -2.1611 2.77469 0
M  V30 102 H 8.9075 -3.43007 1.56927 0
M  V30 103 H 11.2945 -2.85023 0.764569 0
M  V30 104 H 11.3755 -1.58992 2.00387 0
M  V30 105 H 11.0195 -3.36699 3.80258 0
M  V30 106 H 10.9495 -4.61609 2.53425 0
M  V30 107 H 13.4405 -3.09944 2.16201 0
M  V30 108 H 13.7535 -5.95981 4.91962 0
M  V30 109 H 12.0985 -5.36424 4.41899 0
M  V30 110 H 15.2895 -3.79042 2.74672 0
M  V30 111 H 15.4625 -5.09491 4.00404 0
M  V30 112 N 8.8686 -0.792821 -1.36206 0
M  V30 113 C 9.8156 -0.191653 -2.30003 0
M  V30 114 C 10.7856 0.666453 -1.52143 0
M  V30 115 O 11.9706 0.61442 -1.80636 0
M  V30 116 C 9.1106 0.664848 -3.38635 0
M  V30 117 C 8.2236 -0.212175 -4.31479 0
M  V30 118 C 7.3586 0.651022 -5.27196 0
M  V30 119 C 6.3976 -0.227247 -6.11678 0
M  V30 120 N 5.5346 0.595127 -6.99573 0
M  V30 121 H 10.3746 -0.996978 -2.80828 0
M  V30 122 H 7.9116 -0.503206 -1.38225 0
M  V30 123 H 9.8696 1.17645 -4.00269 0
M  V30 124 H 8.4996 1.43557 -2.89122 0
M  V30 125 H 7.5516 -0.841777 -3.70969 0
M  V30 126 H 8.8636 -0.888751 -4.90818 0
M  V30 127 H 8.0176 1.2283 -5.94136 0
M  V30 128 H 6.7566 1.36121 -4.68319 0
M  V30 129 H 5.7616 -0.816904 -5.43697 0
M  V30 130 H 6.9866 -0.93509 -6.72631 0
M  V30 131 H 4.9326 1.28955 -6.432 0
M  V30 132 H 4.8496 -0.0236952 -7.55996 0
M  V30 133 H 6.1176 1.15613 -7.70879 0
M  V30 134 N 10.3467 1.47872 -0.545128 0
M  V30 135 C 11.2767 2.32661 0.197793 0
M  V30 136 C 12.2577 1.43041 0.920504 0
M  V30 137 O 13.4427 1.71912 0.90333 0
M  V30 138 C 10.5727 3.24569 1.23582 0
M  V30 139 C 9.5267 4.23333 0.630323 0
M  V30 140 C 8.8527 5.0448 1.77211 0
M  V30 141 C 10.1527 5.20704 -0.407974 0
M  V30 142 H 11.8467 2.95024 -0.510045 0
M  V30 143 H 9.3927 1.4187 -0.246731 0
M  V30 144 H 11.3457 3.8272 1.76362 0
M  V30 145 H 10.0697 2.60236 1.97344 0
M  V30 146 H 8.7287 3.6639 0.123922 0
M  V30 147 H 8.3767 4.36561 2.49847 0
M  V30 148 H 8.0767 5.71339 1.37281 0
M  V30 149 H 9.6007 5.65487 2.3034 0
M  V30 150 H 11.0147 5.7329 0.033305 0
M  V30 151 H 9.4117 5.95699 -0.725486 0
M  V30 152 H 10.4817 4.66917 -1.30828 0
M  V30 153 N 11.8248 0.280983 1.55075 0
M  V30 154 C 13.2358 -0.215629 1.85451 0
M  V30 155 C 13.5868 -1.54991 1.203 0
M  V30 156 O 12.7118 -2.10699 0.493435 0
M  V30 157 C 13.3068 -0.398026 3.36454 0
M  V30 158 C 11.8658 -0.838866 3.66933 0
M  V30 159 C 11.0128 0.064458 2.77225 0
M  V30 160 H 13.9638 0.502601 1.50531 0
M  V30 161 H 13.9848 -1.23569 3.59876 0
M  V30 162 H 13.4968 0.573241 3.83843 0
M  V30 163 H 11.5978 -1.8214 3.25048 0
M  V30 164 H 11.7108 -0.672123 4.74362 0
M  V30 165 H 10.0748 -0.452863 2.50642 0
M  V30 166 H 10.8578 1.03172 3.2743 0
M  V30 167 N 13.3029 -1.57598 0.00835791 0
M  V30 168 C 14.2329 -2.1198 -0.979113 0
M  V30 169 C 15.2139 -1.03091 -1.35301 0
M  V30 170 O 16.3989 -1.30818 -1.43528 0
M  V30 171 C 13.5289 -2.62995 -2.26828 0
M  V30 172 C 12.4829 -3.76485 -2.03576 0
M  V30 173 C 11.8089 -4.13846 -3.38579 0
M  V30 174 C 13.1089 -5.0342 -1.39161 0
M  V30 175 H 14.8029 -2.94738 -0.526281 0
M  V30 176 H 12.3489 -1.41783 -0.251704 0
M  V30 177 H 14.3019 -2.99669 -2.96271 0
M  V30 178 H 13.0259 -1.7737 -2.7424 0
M  V30 179 H 11.6849 -3.40217 -1.36557 0
M  V30 180 H 11.3329 -3.25232 -3.83709 0
M  V30 181 H 11.0329 -4.90312 -3.23834 0
M  V30 182 H 12.5569 -4.53086 -4.09323 0
M  V30 183 H 13.9709 -5.37812 -1.98573 0
M  V30 184 H 12.3679 -5.84746 -1.34878 0
M  V30 185 H 13.4379 -4.83548 -0.361868 0
M  V30 186 N 14.781 0.264519 -1.55364 0
M  V30 187 C 15.744 1.31046 -1.88042 0
M  V30 188 C 16.744 1.41943 -0.755569 0
M  V30 189 O 17.934 1.40947 -1.02369 0
M  V30 190 C 15.066 2.69067 -2.09323 0
M  V30 191 H 16.259 1.03297 -2.81549 0
M  V30 192 H 13.812 0.502989 -1.47986 0
M  V30 193 H 14.547 3.01982 -1.18226 0
M  V30 194 H 14.332 2.62542 -2.91229 0
M  V30 195 H 15.822 3.44623 -2.35848 0
M  V30 196 N 16.2591 1.48442 0.529413 0
M  V30 197 C 17.5051 1.5672 1.28711 0
M  V30 198 C 17.8381 0.2406 1.92704 0
M  V30 199 O 17.1131 -0.753454 1.79313 0
M  V30 200 C 17.3961 2.70587 2.37603 0
M  V30 201 C 17.2491 4.12953 1.78297 0
M  V30 202 C 18.5681 2.80212 3.39366 0
M  V30 203 H 15.6871 0.570474 0.466613 0
M  V30 204 H 18.3291 1.80617 0.589706 0
M  V30 205 H 16.4791 2.50342 2.97088 0
M  V30 206 H 18.1511 4.44639 1.22858 0
M  V30 207 H 16.3941 4.19927 1.0883 0
M  V30 208 H 17.0651 4.88448 2.57144 0
M  V30 209 H 19.5411 2.98553 2.89836 0
M  V30 210 H 18.4171 3.61611 4.12951 0
M  V30 211 H 18.6781 1.88393 3.99951 0
M  V30 212 N 17.7372 -0.778329 1.37039 0
M  V30 213 C 18.7002 -1.87301 1.32102 0
M  V30 214 C 19.7002 -1.59198 0.226405 0
M  V30 215 O 20.8902 -1.67403 0.481861 0
M  V30 216 C 18.0222 -3.24309 1.05055 0
M  V30 217 H 19.2152 -1.93093 2.29467 0
M  V30 218 H 16.7682 -0.977358 1.21973 0
M  V30 219 H 17.5032 -3.24196 0.0819373 0
M  V30 220 H 17.2882 -3.46098 1.84279 0
M  V30 221 H 18.7782 -4.04382 1.04234 0
M  V30 222 N 19.2153 -1.21501 -1.00376 0
M  V30 223 C 20.4613 -1.03452 -1.74429 0
M  V30 224 C 20.7943 0.430764 -1.89362 0
M  V30 225 O 20.0693 1.31962 -1.42886 0
M  V30 226 C 20.3523 -1.73375 -3.15615 0
M  V30 227 C 20.2053 -3.27431 -3.08397 0
M  V30 228 C 21.5243 -1.47732 -4.14564 0
M  V30 229 H 18.6433 -0.377226 -0.633143 0
M  V30 230 H 21.2853 -1.49693 -1.17013 0
M  V30 231 H 19.4353 -1.34064 -3.64636 0
M  V30 232 H 21.1073 -3.76119 -2.67081 0
M  V30 233 H 19.3503 -3.5767 -2.45468 0
M  V30 234 H 20.0213 -3.71524 -4.08258 0
M  V30 235 H 22.4973 -1.8186 -3.74254 0
M  V30 236 H 21.3733 -1.99169 -5.11491 0
M  V30 237 H 21.6343 -0.407589 -4.40217 0
M  V30 238 N 20.6934 1.19889 -1.02296 0
M  V30 239 C 21.6564 2.21116 -0.603351 0
M  V30 240 C 22.6564 1.5738 0.329884 0
M  V30 241 O 23.8464 1.73802 0.117702 0
M  V30 242 C 20.9784 3.40696 0.117992 0
M  V30 243 H 22.1714 2.59754 -1.49893 0
M  V30 244 H 19.7244 1.33463 -0.813468 0
M  V30 245 H 20.4594 3.07569 1.0282 0
M  V30 246 H 20.2444 3.88188 -0.552511 0
M  V30 247 H 21.7344 4.15692 0.398696 0
M  V30 248 N 22.1715 0.800033 1.35784 0
M  V30 249 C 23.1345 0.211565 2.28221 0
M  V30 250 C 24.1345 -0.59728 1.49296 0
M  V30 251 O 25.3245 -0.416721 1.69142 0
M  V30 252 C 22.4565 -0.705846 3.33513 0
M  V30 253 H 23.6495 1.02677 2.81776 0
M  V30 254 H 21.2025 0.570211 1.45528 0
M  V30 255 H 21.9375 -1.54498 2.85133 0
M  V30 256 H 21.7225 -0.127655 3.91892 0
M  V30 257 H 23.2125 -1.11211 4.02519 0
M  V30 258 N 23.6496 -1.47581 0.552962 0
M  V30 259 C 24.8976 -2.02082 0.0272703 0
M  V30 260 C 25.2186 -1.4301 -1.32563 0
M  V30 261 O 24.4886 -0.603745 -1.86365 0
M  V30 262 H 23.0686 -0.746966 0.00709182 0
M  V30 263 H 25.7306 -1.81033 0.722008 0
M  V30 264 H 24.8266 -3.12034 -0.0639951 0
M  V30 265 N 25.1277 -0.289203 -1.54924 0
M  V30 266 C 26.3737 0.323998 -2.00195 0
M  V30 267 C 26.7067 1.54441 -1.17735 0
M  V30 268 O 25.9817 1.92875 -0.250878 0
M  V30 269 C 26.2647 0.692276 -3.53383 0
M  V30 270 C 26.1177 -0.536457 -4.46589 0
M  V30 271 C 27.4367 1.52335 -4.12895 0
M  V30 272 H 24.5557 0.116289 -0.727768 0
M  V30 273 H 27.1977 -0.398954 -1.85764 0
M  V30 274 H 25.3477 1.30822 -3.65811 0
M  V30 275 H 27.0197 -1.17499 -4.46085 0
M  V30 276 H 25.2627 -1.17192 -4.1767 0
M  V30 277 H 25.9337 -0.234806 -5.515 0
M  V30 278 H 28.4097 1.00302 -4.0383 0
M  V30 279 H 27.2857 1.74982 -5.20262 0
M  V30 280 H 27.5467 2.50886 -3.64018 0
M  V30 281 N 26.6058 1.57591 -0.0167156 0
M  V30 282 C 27.5388 2.04944 1.00366 0
M  V30 283 C 28.5168 0.942648 1.32487 0
M  V30 284 O 29.7008 1.21205 1.44367 0
M  V30 285 C 26.8278 2.46109 2.32697 0
M  V30 286 C 25.8738 3.67686 2.16123 0
M  V30 287 S 26.7068 5.14882 1.47161 0
M  V30 288 C 27.8628 5.59332 2.80888 0
M  V30 289 H 28.0958 2.91172 0.600528 0
M  V30 290 H 25.6288 1.53168 0.194632 0
M  V30 291 H 27.5868 2.70493 3.08778 0
M  V30 292 H 26.2478 1.6025 2.70146 0
M  V30 293 H 25.4408 3.94296 3.13922 0
M  V30 294 H 25.0428 3.43391 1.48185 0
M  V30 295 H 27.3348 5.62814 3.77156 0
M  V30 296 H 28.2778 6.5905 2.58958 0
M  V30 297 H 28.6858 4.86942 2.85565 0
M  V30 298 N 28.0839 -0.256276 1.55502 0
M  V30 299 C 29.3089 -1.00766 1.81276 0
M  V30 300 C 29.7339 -1.78524 0.59252 0
M  V30 301 O 29.0919 -1.75413 -0.45827 0
M  V30 302 C 29.1399 -1.92869 3.04687 0
M  V30 303 O 28.2439 -3.019 2.80945 0
M  V30 304 H 27.5849 -0.287224 0.598664 0
M  V30 305 H 30.1149 -0.280109 2.02674 0
M  V30 306 H 30.1249 -2.34511 3.33869 0
M  V30 307 H 28.7999 -1.35689 3.93143 0
M  V30 308 H 27.3769 -2.64454 2.62904 0
M  V30 309 N 29.562 -1.4872 -0.521534 0
M  V30 310 C 30.525 -1.63379 -1.60748 0
M  V30 311 C 31.525 -0.50661 -1.52611 0
M  V30 312 O 32.715 -0.772601 -1.5613 0
M  V30 313 C 29.847 -1.61192 -3.00383 0
M  V30 314 H 31.04 -2.60217 -1.49087 0
M  V30 315 H 28.593 -1.37444 -0.744235 0
M  V30 316 H 29.328 -0.65863 -3.17541 0
M  V30 317 H 29.113 -2.43032 -3.07698 0
M  V30 318 H 30.603 -1.7466 -3.7932 0
M  V30 319 N 31.0401 0.771051 -1.3745 0
M  V30 320 C 31.9721 1.89352 -1.29146 0
M  V30 321 C 32.9851 1.61477 -0.207124 0
M  V30 322 O 34.1741 1.72382 -0.463324 0
M  V30 323 C 31.2741 3.24596 -0.974195 0
M  V30 324 C 30.4471 3.80111 -2.16413 0
M  V30 325 C 29.5061 4.93832 -1.81703 0
M  V30 326 O 28.5321 5.09382 -2.54006 0
M  V30 327 N 29.7341 5.75483 -0.761573 0
M  V30 328 H 32.4991 1.96991 -2.25864 0
M  V30 329 H 30.0601 0.950191 -1.31084 0
M  V30 330 H 32.0521 3.98193 -0.722828 0
M  V30 331 H 30.6221 3.12454 -0.0955527 0
M  V30 332 H 29.8421 2.98284 -2.57721 0
M  V30 333 H 31.1301 4.13932 -2.95867 0
M  V30 334 H 30.5281 5.65469 -0.161609 0
M  V30 335 H 29.0851 6.49302 -0.570064 0
M  V30 336 N 32.5182 1.22032 0.997298 0
M  V30 337 C 33.4812 0.987909 2.06816 0
M  V30 338 C 34.4812 -0.0440084 1.6074 0
M  V30 339 O 35.6712 0.194053 1.73116 0
M  V30 340 C 32.8032 0.49132 3.37341 0
M  V30 341 H 33.9962 1.93803 2.28868 0
M  V30 342 H 31.5492 1.03838 1.16822 0
M  V30 343 H 32.2842 -0.463364 3.20973 0
M  V30 344 H 32.0692 1.23575 3.72118 0
M  V30 345 H 33.5592 0.348824 4.16141 0
M  V30 346 N 33.9963 -1.19345 1.0293 0
M  V30 347 C 34.9293 -2.21347 0.555029 0
M  V30 348 C 35.9073 -1.57492 -0.404351 0
M  V30 349 O 37.0913 -1.85741 -0.321352 0
M  V30 350 C 34.2183 -3.38163 -0.19064 0
M  V30 351 C 33.2643 -4.20375 0.720236 0
M  V30 352 S 34.0973 -4.88371 2.19668 0
M  V30 353 C 35.2533 -6.08597 1.46153 0
M  V30 354 H 35.4863 -2.61235 1.41929 0
M  V30 355 H 33.0193 -1.29598 0.839272 0
M  V30 356 H 34.9773 -4.05871 -0.614724 0
M  V30 357 H 33.6383 -2.9671 -1.03063 0
M  V30 358 H 32.8313 -5.03793 0.14455 0
M  V30 359 H 32.4333 -3.57987 1.08266 0
M  V30 360 H 34.7253 -6.73354 0.748357 0
M  V30 361 H 35.6683 -6.7065 2.27233 0
M  V30 362 H 36.0763 -5.56297 0.958842 0
M  V30 363 N 35.4744 -0.807222 -1.35358 0
M  V30 364 C 36.4374 -0.223665 -2.28106 0
M  V30 365 C 37.4374 0.589354 -1.4961 0
M  V30 366 O 38.6274 0.407745 -1.69361 0
M  V30 367 C 35.7594 0.688149 -3.33882 0
M  V30 368 H 36.9524 -1.04169 -2.81227 0
M  V30 369 H 34.5054 -0.577921 -1.45223 0
M  V30 370 H 35.2404 1.52984 -2.85948 0
M  V30 371 H 35.0254 0.10687 -3.91954 0
M  V30 372 H 36.5154 1.09075 -4.03104 0
M  V30 373 N 36.9525 1.47285 -0.560781 0
M  V30 374 C 38.1985 2.02764 -0.0381184 0
M  V30 375 C 38.5315 1.43384 1.30976 0
M  V30 376 O 37.8065 0.590733 1.85312 0
M  V30 377 C 38.0895 3.60064 0.0511427 0
M  V30 378 C 37.9425 4.2987 -1.32408 0
M  V30 379 C 39.2615 4.33439 0.762795 0
M  V30 380 H 36.3805 0.736841 -0.0153264 0
M  V30 381 H 39.0225 1.75675 -0.723759 0
M  V30 382 H 37.1725 3.83274 0.635065 0
M  V30 383 H 38.8445 4.17989 -1.95148 0
M  V30 384 H 37.0875 3.90085 -1.8978 0
M  V30 385 H 37.7585 5.38478 -1.21431 0
M  V30 386 H 40.2345 4.15243 0.266965 0
M  V30 387 H 39.1105 5.43124 0.794221 0
M  V30 388 H 39.3715 4.02915 1.81966 0
M  V30 389 N 38.4306 0.297415 1.54768 0
M  V30 390 C 39.7076 -0.365847 1.92148 0
M  V30 391 C 40.0876 -1.71975 1.22424 0
M  V30 392 O 39.4356 -2.25666 0.358739 0
M  V30 393 C 39.6456 -0.484056 3.45627 0
M  V30 394 C 40.9936 -0.756594 4.17805 0
M  V30 395 O 42.0176 -0.568007 3.51642 0
M  V30 396 O 40.8766 -1.11863 5.34929 0
M  V30 397 H 37.9706 -0.203919 0.801465 0
M  V30 398 H 40.5166 0.34521 1.66152 0
M  V30 399 H 39.2886 0.467865 3.88493 0
M  V30 400 H 38.9116 -1.24372 3.77647 0
M  V30 401 N 39.9087 -1.5758 0.0250728 0
M  V30 402 C 41.1557 -1.91633 -0.654444 0
M  V30 403 C 41.4837 -0.901103 -1.72367 0
M  V30 404 O 40.7387 0.0905647 -1.9549 0
M  V30 405 C 41.0377 -3.32421 -1.31268 0
M  V30 406 C 40.7037 -4.49344 -0.374223 0
M  V30 407 C 39.3657 -4.8106 -0.115911 0
M  V30 408 C 41.7177 -5.20498 0.270432 0
M  V30 409 C 39.0457 -5.8129 0.79493 0
M  V30 410 C 41.3977 -6.21699 1.1693 0
M  V30 411 C 40.0617 -6.51859 1.43655 0
M  V30 412 H 39.3317 -0.701236 -0.239478 0
M  V30 413 H 41.9787 -1.91307 0.0859734 0
M  V30 414 H 40.2837 -3.28989 -2.12775 0
M  V30 415 H 41.9807 -3.56038 -1.84494 0
M  V30 416 H 38.5707 -4.24579 -0.58573 0
M  V30 417 H 42.7547 -4.96229 0.0839194 0
M  V30 418 H 38.0107 -6.03005 1.00973 0
M  V30 419 H 42.1847 -6.75955 1.67504 0
M  V30 420 H 39.8117 -7.2934 2.144 0
M  V30 421 N 41.3868 0.248026 -1.55636 0
M  V30 422 C 42.3368 1.30994 -1.86614 0
M  V30 423 C 43.3208 1.43543 -0.726918 0
M  V30 424 O 44.5128 1.46804 -0.988818 0
M  V30 425 C 41.6418 2.6656 -2.16335 0
M  V30 426 C 40.7278 2.58019 -3.36581 0
M  V30 427 N 41.1188 2.1911 -4.55878 0
M  V30 428 C 39.4168 2.89035 -3.39669 0
M  V30 429 C 40.1178 2.21174 -5.38012 0
M  V30 430 N 39.0938 2.60632 -4.77045 0
M  V30 431 H 42.8958 0.999583 -2.76379 0
M  V30 432 H 40.4098 0.456652 -1.55848 0
M  V30 433 H 42.4068 3.43194 -2.36692 0
M  V30 434 H 41.0668 2.98463 -1.27867 0
M  V30 435 H 42.0778 1.90672 -4.81523 0
M  V30 436 H 38.7548 3.25485 -2.61469 0
M  V30 437 H 40.1448 1.9344 -6.43452 0
M  V30 438 N 42.8649 1.48995 0.513639 0
M  V30 439 C 44.1129 1.57531 1.26604 0
M  V30 440 C 44.4339 0.258236 1.93283 0
M  V30 441 O 43.7039 -0.721502 1.8213 0
M  V30 442 H 42.2839 0.580387 0.470276 0
M  V30 443 H 44.9459 1.85552 0.596373 0
M  V30 444 H 44.0419 2.36486 2.03669 0
M  V30 445 N 44.343 -0.763751 1.37857 0
M  V30 446 C 45.573 -1.55067 1.3652 0
M  V30 447 C 45.981 -1.89135 -0.0494227 0
M  V30 448 O 45.324 -1.52529 -1.02375 0
M  V30 449 C 45.386 -2.8838 2.14656 0
M  V30 450 C 45.05 -2.76905 3.63555 0
M  V30 451 C 46.047 -2.4739 4.57268 0
M  V30 452 C 43.732 -2.94676 4.06781 0
M  V30 453 C 45.726 -2.35786 5.92186 0
M  V30 454 C 43.413 -2.82692 5.41782 0
M  V30 455 C 44.411 -2.53289 6.34298 0
M  V30 456 O 44.099 -2.41345 7.66817 0
M  V30 457 H 43.831 -0.486776 0.469069 0
M  V30 458 H 46.385 -0.953812 1.81911 0
M  V30 459 H 44.615 -3.50217 1.63967 0
M  V30 460 H 46.304 -3.49828 2.05852 0
M  V30 461 H 47.07 -2.33339 4.2518 0
M  V30 462 H 42.949 -3.16563 3.35126 0
M  V30 463 H 46.493 -2.12757 6.64365 0
M  V30 464 H 42.39 -2.96314 5.7347 0
M  V30 465 H 43.158 -2.56634 7.77226 0
M  V30 466 N 45.8211 -1.22559 -0.990812 0
M  V30 467 C 46.7841 -0.998863 -2.0629 0
M  V30 468 C 47.7841 0.0354834 -1.60761 0
M  V30 469 O 48.9741 -0.203231 -1.7301 0
M  V30 470 C 46.1061 -0.509203 -3.37076 0
M  V30 471 H 47.2991 -1.95014 -2.27837 0
M  V30 472 H 44.8521 -1.04456 -1.16269 0
M  V30 473 H 45.5871 0.446335 -3.21214 0
M  V30 474 H 45.3721 -1.25547 -3.71457 0
M  V30 475 H 46.8621 -0.370888 -4.1595 0
M  V30 476 N 47.2992 1.18797 -1.03562 0
M  V30 477 C 48.7152 1.40671 -0.753917 0
M  V30 478 C 48.9152 1.9043 0.658686 0
M  V30 479 O 47.9712 2.08538 1.42366 0
M  V30 480 C 49.2842 2.41192 -1.79574 0
M  V30 481 C 50.8322 2.54928 -1.81606 0
M  V30 482 C 51.3072 3.58709 -2.84766 0
M  V30 483 N 52.7982 3.66212 -2.83625 0
M  V30 484 C 53.5332 4.46225 -3.60098 0
M  V30 485 N 53.0292 5.29888 -4.46308 0
M  V30 486 N 54.8222 4.40939 -3.4861 0
M  V30 487 H 46.9732 0.848221 -1.94728 0
M  V30 488 H 49.2362 0.435081 -0.842264 0
M  V30 489 H 48.9422 2.11669 -2.80872 0
M  V30 490 H 48.8162 3.40467 -1.62365 0
M  V30 491 H 51.2032 2.83771 -0.809817 0
M  V30 492 H 51.2842 1.55784 -2.02891 0
M  V30 493 H 50.9282 3.30607 -3.85566 0
M  V30 494 H 50.8582 4.57519 -2.60737 0
M  V30 495 H 53.3492 3.06466 -2.21105 0
M  V30 496 H 53.6622 5.88078 -5.01382 0
M  V30 497 H 52.0072 5.29326 -4.50377 0
M  V30 498 H 55.1982 3.74624 -2.80668 0
M  V30 499 H 55.3712 5.03056 -4.08459 0
M  V30 500 N 48.7773 0.814389 1.34928 0
M  V30 501 C 50.0023 0.410097 2.03305 0
M  V30 502 C 50.4273 -0.973464 1.60951 0
M  V30 503 O 49.7853 -1.63185 0.789964 0
M  V30 504 C 49.8333 0.51049 3.56968 0
M  V30 505 O 48.9373 -0.473035 4.09678 0
M  V30 506 H 48.2783 0.170088 0.641846 0
M  V30 507 H 50.8083 1.10244 1.72358 0
M  V30 508 H 50.8183 0.383135 4.06197 0
M  V30 509 H 49.4933 1.51963 3.87144 0
M  V30 510 H 48.0703 -0.305272 3.71648 0
M  V30 511 N 50.2554 -1.46986 0.568584 0
M  V30 512 C 51.5034 -2.02041 0.0487022 0
M  V30 513 C 51.8244 -1.44408 -1.31039 0
M  V30 514 O 51.0944 -0.623477 -1.85714 0
M  V30 515 H 49.6744 -0.746849 0.015014 0
M  V30 516 H 52.3364 -1.80257 0.741168 0
M  V30 517 H 51.4324 -3.12085 -0.0308961 0
M  V30 518 N 51.7335 -0.305618 -1.54608 0
M  V30 519 C 52.9825 0.303098 -1.9941 0
M  V30 520 C 53.2955 1.54648 -1.19764 0
M  V30 521 O 54.5015 2.23007 -1.54855 0
M  V30 522 C 52.9575 0.590588 -3.55021 0
M  V30 523 C 52.5655 -0.634719 -4.43481 0
M  V30 524 C 54.3095 1.16025 -4.08336 0
M  V30 525 C 52.2165 -0.320126 -5.90533 0
M  V30 526 H 51.1465 0.117031 -0.744862 0
M  V30 527 H 53.7975 -0.415045 -1.78745 0
M  V30 528 H 52.1795 1.36845 -3.71604 0
M  V30 529 H 53.3535 -1.41079 -4.38672 0
M  V30 530 H 51.6685 -1.12333 -4.00962 0
M  V30 531 H 54.2655 1.40994 -5.15776 0
M  V30 532 H 54.6085 2.10397 -3.5922 0
M  V30 533 H 55.1415 0.443985 -3.95315 0
M  V30 534 H 51.8805 -1.23254 -6.43808 0
M  V30 535 H 51.4005 0.418579 -5.98338 0
M  V30 536 H 53.0795 0.0766241 -6.46955 0
M  V30 537 N 53.2116 1.57565 -0.0334293 0
M  V30 538 C 54.4596 1.91598 0.642999 0
M  V30 539 C 54.7806 0.910847 1.7242 0
M  V30 540 O 54.0506 -0.0469931 1.95844 0
M  V30 541 H 52.6306 0.707228 0.240496 0
M  V30 542 H 55.2926 1.94726 -0.0822488 0
M  V30 543 H 54.3886 2.92336 1.09298 0
M  V30 544 N 54.6897 -0.239769 1.55765 0
M  V30 545 C 55.9357 -0.963942 1.79108 0
M  V30 546 C 56.2907 -1.82689 0.60352 0
M  V30 547 O 55.5837 -1.87313 -0.403033 0
M  V30 548 C 55.7777 -1.852 3.05672 0
M  V30 549 C 55.6067 -1.07651 4.36625 0
M  V30 550 C 54.3767 -0.778738 4.99263 0
M  V30 551 C 56.5747 -0.45062 5.12322 0
M  V30 552 N 54.5567 0.0200708 6.13897 0
M  V30 553 C 55.9277 0.212429 6.19636 0
M  V30 554 C 57.9827 -0.361806 4.96584 0
M  V30 555 C 56.6857 0.955772 7.12922 0
M  V30 556 C 58.7117 0.368023 5.90254 0
M  V30 557 C 58.0737 1.01968 6.96981 0
M  V30 558 H 54.1727 -0.333601 0.707272 0
M  V30 559 H 56.7567 -0.236425 1.93259 0
M  V30 560 H 54.9277 -2.55149 2.92837 0
M  V30 561 H 56.6597 -2.51228 3.1728 0
M  V30 562 H 53.4147 -1.09229 4.60832 0
M  V30 563 H 53.8387 0.407777 6.75771 0
M  V30 564 H 58.4807 -0.851286 4.14141 0
M  V30 565 H 56.1987 1.45683 7.9486 0
M  V30 566 H 59.7847 0.437504 5.80153 0
M  V30 567 H 58.6647 1.5754 7.68213 0
M  V30 568 N 56.1678 -1.49265 -0.50573 0
M  V30 569 C 57.3958 -1.62215 -1.28429 0
M  V30 570 C 57.8108 -0.291697 -1.86533 0
M  V30 571 O 57.1678 0.722233 -1.67601 0
M  V30 572 C 57.2188 -2.68735 -2.41793 0
M  V30 573 O 56.9398 -3.96619 -1.86078 0
M  V30 574 C 58.4408 -2.92346 -3.3324 0
M  V30 575 H 55.6608 -0.546239 -0.389697 0
M  V30 576 H 58.2048 -1.95265 -0.607609 0
M  V30 577 H 56.3598 -2.38476 -3.053 0
M  V30 578 H 56.7738 -4.55256 -2.60465 0
M  V30 579 H 58.2478 -3.70623 -4.09075 0
M  V30 580 H 58.7248 -2.02081 -3.89948 0
M  V30 581 H 59.3308 -3.24003 -2.75503 0
M  V30 582 N 57.6459 0.756429 -1.3826 0
M  V30 583 C 58.8939 1.51248 -1.34047 0
M  V30 584 C 59.2149 1.94875 0.0698372 0
M  V30 585 O 58.4849 1.67436 1.01696 0
M  V30 586 H 57.0649 0.561018 -0.493222 0
M  V30 587 H 59.7269 0.899347 -1.7291 0
M  V30 588 H 58.8229 2.40472 -1.98947 0
M  V30 589 N 59.124 1.23083 0.984299 0
M  V30 590 C 60.349 1.088 1.76571 0
M  V30 591 C 60.774 -0.356657 1.84688 0
M  V30 592 O 60.132 -1.25788 1.30565 0
M  V30 593 C 60.18 1.71371 3.17277 0
M  V30 594 O 59.284 0.973213 4.00752 0
M  V30 595 H 58.625 0.381599 0.543395 0
M  V30 596 H 61.155 1.63057 1.23587 0
M  V30 597 H 61.165 1.76449 3.67872 0
M  V30 598 H 59.84 2.76493 3.10684 0
M  V30 599 H 58.417 0.999078 3.59267 0
M  V30 600 N 60.6021 -1.18246 1.0419 0
M  V30 601 C 61.8501 -1.87886 0.744543 0
M  V30 602 C 62.1711 -1.8082 -0.730006 0
M  V30 603 O 61.4411 -1.22736 -1.52685 0
M  V30 604 H 60.0211 -0.695556 0.272417 0
M  V30 605 H 62.6831 -1.43494 1.31892 0
M  V30 606 H 61.7791 -2.9389 1.05049 0
M  V30 607 N 62.0802 -0.821533 -1.34494 0
M  V30 608 C 63.3282 -0.408139 -1.97936 0
M  V30 609 C 63.6492 1.03193 -1.65457 0
M  V30 610 O 62.9192 1.71622 -0.944595 0
M  V30 611 H 61.4992 -0.147928 -0.732206 0
M  V30 612 H 64.1612 -1.05067 -1.64155 0
M  V30 613 H 63.2572 -0.52601 -3.07635 0
M  V30 614 N 63.5583 1.46682 -0.576371 0
M  V30 615 C 64.4683 2.34032 0.163141 0
M  V30 616 C 65.4843 1.49367 0.892501 0
M  V30 617 O 66.6603 1.82252 0.857106 0
M  V30 618 C 63.7253 3.26435 1.16795 0
M  V30 619 C 62.7863 4.26998 0.443944 0
M  V30 620 C 62.0193 5.14986 1.40088 0
M  V30 621 O 62.2423 5.05785 2.637 0
M  V30 622 O 61.1763 5.94906 0.914917 0
M  V30 623 H 65.0023 2.98607 -0.55388 0
M  V30 624 H 62.5873 1.45554 -0.336821 0
M  V30 625 H 64.4693 3.83459 1.74748 0
M  V30 626 H 63.1443 2.64465 1.86655 0
M  V30 627 H 62.0513 3.7368 -0.177271 0
M  V30 628 H 63.3843 4.91736 -0.213566 0
M  V30 629 N 65.0364 0.313813 1.54444 0
M  V30 630 C 65.9684 -0.590425 2.21465 0
M  V30 631 C 66.9814 -1.08753 1.21147 0
M  V30 632 O 68.1704 -1.00278 1.4767 0
M  V30 633 C 65.2704 -1.82179 2.85769 0
M  V30 634 C 64.4434 -1.46502 4.12136 0
M  V30 635 C 63.5024 -2.55288 4.60124 0
M  V30 636 O 62.5284 -2.19842 5.25032 0
M  V30 637 N 63.7304 -3.86053 4.33525 0
M  V30 638 H 66.4954 -0.0166033 2.99695 0
M  V30 639 H 64.0564 0.136578 1.61323 0
M  V30 640 H 66.0484 -2.54328 3.14801 0
M  V30 641 H 64.6184 -2.30369 2.11303 0
M  V30 642 H 63.8384 -0.575595 3.89975 0
M  V30 643 H 65.1264 -1.20221 4.94393 0
M  V30 644 H 64.5244 -4.17654 3.81552 0
M  V30 645 H 63.0814 -4.54461 4.67235 0
M  V30 646 N 66.5145 -1.57545 0.0417849 0
M  V30 647 C 67.4465 -2.07904 -0.964799 0
M  V30 648 C 68.4595 -1.00497 -1.28079 0
M  V30 649 O 69.6485 -1.28087 -1.24322 0
M  V30 650 C 66.7485 -2.49928 -2.28887 0
M  V30 651 C 65.9215 -3.80562 -2.15619 0
M  V30 652 C 64.9805 -4.08999 -3.31069 0
M  V30 653 O 64.0065 -4.79061 -3.0739 0
M  V30 654 N 65.2085 -3.6017 -4.55256 0
M  V30 655 H 67.9735 -2.94886 -0.535029 0
M  V30 656 H 65.5345 -1.61252 -0.144681 0
M  V30 657 H 67.5265 -2.66034 -3.04972 0
M  V30 658 H 66.0965 -1.68245 -2.63463 0
M  V30 659 H 65.3165 -3.74129 -1.24183 0
M  V30 660 H 66.6045 -4.66126 -2.03971 0
M  V30 661 H 66.0025 -3.03512 -4.77386 0
M  V30 662 H 64.5595 -3.81532 -5.28466 0
M  V30 663 N 67.9926 0.231505 -1.5589 0
M  V30 664 C 69.2326 0.964533 -1.80211 0
M  V30 665 C 69.5966 1.81926 -0.613744 0
M  V30 666 O 70.7976 2.58526 -0.736045 0
M  V30 667 C 69.0686 1.78956 -3.09369 0
M  V30 668 S 70.6276 2.57959 -3.54969 0
M  V30 669 H 67.4456 0.324173 -0.632798 0
M  V30 670 H 70.0476 0.230985 -1.94131 0
M  V30 671 H 68.7516 1.15161 -3.93911 0
M  V30 672 H 68.2826 2.56559 -2.9823 0
M  V30 673 H 70.2976 3.81309 -3.17519 0
M  V30 674 N 69.4707 1.49531 0.497807 0
M  V30 675 C 70.7177 1.59179 1.25173 0
M  V30 676 C 71.0457 0.279932 1.92475 0
M  V30 677 O 70.3007 -0.732383 1.81479 0
M  V30 678 C 70.5997 2.70252 2.33878 0
M  V30 679 C 70.2657 4.11644 1.84012 0
M  V30 680 C 68.9277 4.50121 1.70132 0
M  V30 681 C 71.2797 5.00121 1.46725 0
M  V30 682 C 68.6077 5.74845 1.17348 0
M  V30 683 C 70.9597 6.25366 0.95392 0
M  V30 684 C 69.6237 6.6267 0.801538 0
M  V30 685 H 68.8937 0.582478 0.45804 0
M  V30 686 H 71.5407 1.83373 0.551948 0
M  V30 687 H 69.8457 2.40041 3.09657 0
M  V30 688 H 71.5427 2.74925 2.9192 0
M  V30 689 H 68.1327 3.81274 1.95775 0
M  V30 690 H 72.3167 4.71048 1.56294 0
M  V30 691 H 67.5727 6.02444 1.04264 0
M  V30 692 H 71.7467 6.93301 0.656225 0
M  V30 693 H 69.3737 7.59197 0.390351 0
M  V30 694 N 70.9488 -0.749086 1.3866 0
M  V30 695 C 71.8808 -1.87273 1.32142 0
M  V30 696 C 72.8938 -1.61127 0.232787 0
M  V30 697 O 74.0828 -1.71623 0.49069 0
M  V30 698 C 71.1828 -3.23005 1.02571 0
M  V30 699 C 70.3558 -3.7662 2.22433 0
M  V30 700 C 69.4148 -4.90879 1.89537 0
M  V30 701 O 68.4408 -5.05276 2.62078 0
M  V30 702 N 69.6428 -5.74198 0.853031 0
M  V30 703 H 72.4078 -1.93373 2.28969 0
M  V30 704 H 69.9688 -0.929216 1.32579 0
M  V30 705 H 71.9608 -3.96992 0.786085 0
M  V30 706 H 70.5308 -3.12262 0.145249 0
M  V30 707 H 69.7508 -2.94147 2.62434 0
M  V30 708 H 71.0388 -4.09173 3.02415 0
M  V30 709 H 70.4368 -5.6514 0.25155 0
M  V30 710 H 68.9938 -6.48313 0.67329 0
M  V30 711 N 72.4269 -1.23603 -0.977757 0
M  V30 712 C 73.3899 -1.02069 -2.05218 0
M  V30 713 C 74.3899 0.0184305 -1.60789 0
M  V30 714 O 75.5799 -0.221569 -1.72785 0
M  V30 715 C 72.7119 -0.544926 -3.36517 0
M  V30 716 H 73.9049 -1.9742 -2.25755 0
M  V30 717 H 71.4579 -1.05684 -1.15155 0
M  V30 718 H 72.1929 0.412241 -3.21669 0
M  V30 719 H 71.9779 -1.2948 -3.70105 0
M  V30 720 H 73.4679 -0.414985 -4.15533 0
M  V30 721 N 73.905 1.17692 -1.04816 0
M  V30 722 C 75.133 1.91786 -0.776254 0
M  V30 723 C 75.548 1.76604 0.667577 0
M  V30 724 O 74.905 1.10067 1.45573 0
M  V30 725 C 74.956 3.42967 -1.14263 0
M  V30 726 O 74.677 3.57678 -2.52978 0
M  V30 727 C 76.178 4.34144 -0.896311 0
M  V30 728 H 73.398 0.608624 -0.282519 0
M  V30 729 H 75.942 1.49268 -1.39783 0
M  V30 730 H 74.097 3.83245 -0.565874 0
M  V30 731 H 74.511 4.51319 -2.67229 0
M  V30 732 H 75.985 5.38744 -1.20244 0
M  V30 733 H 76.462 4.38876 0.168636 0
M  V30 734 H 77.068 3.99574 -1.45672 0
M  V30 735 N 75.3831 0.828654 1.34056 0
M  V30 736 C 76.6311 0.41863 1.97717 0
M  V30 737 C 76.9521 -1.02314 1.66002 0
M  V30 738 O 76.2221 -1.71119 0.953683 0
M  V30 739 H 74.8021 0.151809 0.731412 0
M  V30 740 H 77.4641 1.05936 1.63596 0
M  V30 741 H 76.5601 0.542318 3.07352 0
M  V30 742 N 76.8612 -1.46375 0.584142 0
M  V30 743 C 77.8242 -2.28784 -0.138108 0
M  V30 744 C 78.8242 -1.38471 -0.817462 0
M  V30 745 O 80.0142 -1.60833 -0.669199 0
M  V30 746 C 77.1462 -3.18892 -1.20503 0
M  V30 747 H 78.3392 -2.94117 0.586127 0
M  V30 748 H 75.8922 -1.52509 0.342171 0
M  V30 749 H 76.6272 -2.58309 -1.96079 0
M  V30 750 H 76.4122 -3.85388 -0.722384 0
M  V30 751 H 77.9022 -3.80914 -1.71155 0
M  V30 752 N 78.3393 -0.321999 -1.54275 0
M  V30 753 C 79.2713 0.578671 -2.21775 0
M  V30 754 C 80.2843 1.08109 -1.21722 0
M  V30 755 O 81.4733 0.994938 -1.482 0
M  V30 756 C 78.5733 1.80661 -2.86731 0
M  V30 757 C 77.7463 1.44314 -4.12907 0
M  V30 758 C 76.8053 2.52845 -4.61472 0
M  V30 759 O 75.8313 2.17054 -5.2619 0
M  V30 760 N 77.0333 3.83748 -4.35566 0
M  V30 761 H 79.7983 0.000709447 -2.997 0
M  V30 762 H 77.3593 -0.145132 -1.61248 0
M  V30 763 H 79.3513 2.52655 -3.16145 0
M  V30 764 H 77.9213 2.29245 -2.12521 0
M  V30 765 H 77.1413 0.554906 -3.90275 0
M  V30 766 H 78.4293 1.17598 -4.95023 0
M  V30 767 H 77.8273 4.15625 -3.83761 0
M  V30 768 H 76.3843 4.51977 -4.69638 0
M  V30 769 N 79.8174 1.5752 -0.0501392 0
M  V30 770 C 81.0424 1.97376 0.636997 0
M  V30 771 C 81.4674 0.927466 1.63645 0
M  V30 772 O 80.8254 -0.10941 1.8097 0
M  V30 773 C 80.8734 3.36304 1.30123 0
M  V30 774 O 79.9774 3.34156 2.41689 0
M  V30 775 H 79.3184 0.642998 0.165679 0
M  V30 776 H 81.8484 2.04258 -0.118233 0
M  V30 777 H 81.8584 3.73008 1.65315 0
M  V30 778 H 80.5334 4.11993 0.568746 0
M  V30 779 H 79.1104 3.09196 2.08451 0
M  V30 780 N 81.2955 -0.223234 1.56011 0
M  V30 781 C 82.2425 -1.27664 1.92277 0
M  V30 782 C 83.2125 -1.46659 0.779763 0
M  V30 783 O 84.3975 -1.60256 1.03551 0
M  V30 784 C 81.5375 -2.62234 2.24338 0
M  V30 785 C 80.6505 -2.51051 3.51564 0
M  V30 786 C 79.7855 -3.78133 3.7308 0
M  V30 787 C 78.8245 -3.61665 4.93827 0
M  V30 788 N 77.9615 -4.80693 5.11741 0
M  V30 789 H 82.8015 -0.960358 2.82101 0
M  V30 790 H 80.3385 -0.462901 1.39627 0
M  V30 791 H 82.2965 -3.40596 2.40936 0
M  V30 792 H 80.9265 -2.91961 1.3769 0
M  V30 793 H 79.9785 -1.64132 3.43169 0
M  V30 794 H 81.2905 -2.34803 4.40079 0
M  V30 795 H 80.4445 -4.64938 3.89766 0
M  V30 796 H 79.1835 -3.97304 2.82844 0
M  V30 797 H 78.1885 -2.73244 4.77093 0
M  V30 798 H 79.4135 -3.43966 5.85546 0
M  V30 799 H 77.3595 -5.00181 4.24446 0
M  V30 800 H 77.2765 -4.67165 5.94384 0
M  V30 801 H 78.5445 -5.6893 5.3286 0
M  V30 802 N 82.7736 -1.49793 -0.48987 0
M  V30 803 C 84.0036 -1.6333 -1.26518 0
M  V30 804 C 84.4116 -0.308392 -1.8667 0
M  V30 805 O 83.7546 0.717512 -1.69108 0
M  V30 806 C 83.8166 -2.6522 -2.4269 0
M  V30 807 C 83.4806 -4.09279 -2.03321 0
M  V30 808 C 84.4776 -4.95738 -1.56652 0
M  V30 809 C 82.1626 -4.55082 -2.12616 0
M  V30 810 C 84.1566 -6.26041 -1.19795 0
M  V30 811 C 81.8436 -5.85396 -1.75371 0
M  V30 812 C 82.8416 -6.707 -1.29036 0
M  V30 813 O 82.5296 -7.98584 -0.92299 0
M  V30 814 H 82.2616 -0.552502 -0.389509 0
M  V30 815 H 84.8156 -1.96642 -0.593381 0
M  V30 816 H 83.0456 -2.27112 -3.12981 0
M  V30 817 H 84.7346 -2.68171 -3.04695 0
M  V30 818 H 85.5006 -4.61575 -1.48908 0
M  V30 819 H 81.3796 -3.88844 -2.47631 0
M  V30 820 H 84.9236 -6.92578 -0.835582 0
M  V30 821 H 80.8206 -6.19085 -1.82768 0
M  V30 822 H 81.5886 -8.11692 -1.05349 0
M  V30 823 N 84.2517 0.741722 -1.39055 0
M  V30 824 C 85.6677 1.04638 -1.20512 0
M  V30 825 C 85.8677 2.01405 -0.0620218 0
M  V30 826 O 84.9237 2.45547 0.588457 0
M  V30 827 C 86.2367 1.6151 -2.53643 0
M  V30 828 C 87.7847 1.73623 -2.6043 0
M  V30 829 C 88.2597 2.33906 -3.93767 0
M  V30 830 N 89.7507 2.41323 -3.9537 0
M  V30 831 C 90.4857 2.88888 -4.95309 0
M  V30 832 N 89.9817 3.36401 -6.05645 0
M  V30 833 N 91.7747 2.88037 -4.82692 0
M  V30 834 H 83.9257 0.0998155 -2.12165 0
M  V30 835 H 86.1887 0.106907 -0.941953 0
M  V30 836 H 85.8947 0.978739 -3.37807 0
M  V30 837 H 85.7687 2.60411 -2.72885 0
M  V30 838 H 88.1557 2.36384 -1.76655 0
M  V30 839 H 88.2367 0.733945 -2.45045 0
M  V30 840 H 87.8807 1.71776 -4.7797 0
M  V30 841 H 87.8107 3.34799 -4.06469 0
M  V30 842 H 90.3017 2.07734 -3.15682 0
M  V30 843 H 90.6147 3.71186 -6.77821 0
M  V30 844 H 88.9597 3.34427 -6.09248 0
M  V30 845 H 92.1507 2.50237 -3.95599 0
M  V30 846 H 92.3237 3.24792 -5.60726 0
M  V30 847 N 85.7298 1.2412 0.971189 0
M  V30 848 C 86.6598 1.05508 2.08304 0
M  V30 849 C 87.6408 -0.0308864 1.70072 0
M  V30 850 O 88.8258 0.135521 1.93727 0
M  V30 851 C 85.9558 0.655365 3.4106 0
M  V30 852 C 84.9098 1.68971 3.93234 0
M  V30 853 C 84.2358 1.14516 5.22293 0
M  V30 854 C 85.5358 3.08487 4.21465 0
M  V30 855 H 87.2298 1.98507 2.24132 0
M  V30 856 H 84.7758 0.955821 1.07704 0
M  V30 857 H 86.7288 0.51217 4.18276 0
M  V30 858 H 85.4528 -0.31032 3.25122 0
M  V30 859 H 84.1118 1.82106 3.18171 0
M  V30 860 H 83.7598 0.170189 5.02712 0
M  V30 861 H 83.4598 1.83635 5.58168 0
M  V30 862 H 84.9838 1.01401 6.02121 0
M  V30 863 H 86.3978 2.98601 4.89398 0
M  V30 864 H 84.7948 3.74926 4.68562 0
M  V30 865 H 85.8648 3.56787 3.28376 0
M  V30 866 N 87.2079 -1.17134 1.05439 0
M  V30 867 C 88.4559 -1.87085 0.764429 0
M  V30 868 C 88.7769 -1.81584 -0.710787 0
M  V30 869 O 88.0469 -1.24349 -1.51374 0
M  V30 870 H 86.6269 -0.692627 0.279779 0
M  V30 871 H 89.2889 -1.42087 1.33406 0
M  V30 872 H 88.3849 -2.92759 1.0816 0
M  V30 873 N 88.686 -0.835752 -1.33615 0
M  V30 874 C 89.634 -0.255238 -2.31195 0
M  V30 875 C 90.628 0.61107 -1.57995 0
M  V30 876 O 91.834 0.500979 -1.72888 0
M  V30 877 H 88.209 -0.0638085 -0.749288 0
M  V30 878 H 90.18 -1.09283 -2.77669 0
M  V30 879 C 88.929 0.55754 -3.43201 0
M  V30 880 H 88.252 -0.0997553 -3.99676 0
M  V30 881 H 89.692 0.929622 -4.13683 0
M  V30 882 C 88.151 1.73515 -2.88781 0
M  V30 883 O 88.681 2.83376 -2.84712 0
M  V30 884 N 86.887 1.55603 -2.4543 0
M  V30 885 H 86.434 0.662354 -2.48939 0
M  V30 886 H 86.392 2.34545 -2.09371 0
M  V30 887 N 90.1641 1.46063 -0.591896 0
M  V30 888 C 91.0741 2.34192 0.13831 0
M  V30 889 C 92.0901 1.50305 0.876608 0
M  V30 890 O 93.2661 1.8315 0.837728 0
M  V30 891 C 90.3311 3.27656 1.13326 0
M  V30 892 C 89.3921 4.27445 0.39863 0
M  V30 893 C 88.6251 5.16443 1.34618 0
M  V30 894 O 88.8481 5.08553 2.58321 0
M  V30 895 O 87.7821 5.95843 0.851768 0
M  V30 896 H 91.6081 2.98002 -0.58552 0
M  V30 897 H 89.1931 1.45188 -0.352239 0
M  V30 898 H 91.0751 3.85291 1.70671 0
M  V30 899 H 89.7501 2.6643 1.83839 0
M  V30 900 H 88.6571 3.73471 -0.216895 0
M  V30 901 H 89.9901 4.91482 -0.265709 0
M  V30 902 N 91.6422 0.330177 1.54103 0
M  V30 903 C 92.8822 -0.270916 2.02597 0
M  V30 904 C 93.2462 -1.48826 1.21304 0
M  V30 905 O 94.4472 -2.16266 1.59633 0
M  V30 906 C 92.7182 -0.590328 3.52491 0
M  V30 907 S 94.2772 -1.17014 4.2291 0
M  V30 908 H 91.0952 -0.0815379 0.706309 0
M  V30 909 H 93.6972 0.464835 1.89893 0
M  V30 910 H 92.4012 0.303691 4.09275 0
M  V30 911 H 91.9322 -1.3561 3.69288 0
M  V30 912 H 93.9472 -2.45662 4.3112 0
M  V30 913 N 93.1203 -1.57491 0.0584922 0
M  V30 914 C 94.0303 -2.15448 -0.928414 0
M  V30 915 C 95.0463 -1.11416 -1.3365 0
M  V30 916 O 96.2223 -1.4362 -1.41193 0
M  V30 917 C 93.2873 -2.69393 -2.18239 0
M  V30 918 C 92.3483 -3.88249 -1.83196 0
M  V30 919 C 91.5813 -4.39613 -3.02616 0
M  V30 920 O 91.8043 -3.90023 -4.16219 0
M  V30 921 O 90.7383 -5.31111 -2.83204 0
M  V30 922 H 94.5643 -3.00112 -0.465483 0
M  V30 923 H 92.1493 -1.48499 -0.163826 0
M  V30 924 H 94.0313 -3.04026 -2.91798 0
M  V30 925 H 92.7063 -1.87796 -2.63656 0
M  V30 926 H 91.6133 -3.58492 -1.06931 0
M  V30 927 H 92.9463 -4.71098 -1.42573 0
M  V30 928 N 94.5984 0.214957 -1.56127 0
M  V30 929 C 95.8264 0.955092 -1.83536 0
M  V30 930 C 96.2414 1.77677 -0.638472 0
M  V30 931 O 95.5984 1.78219 0.392968 0
M  V30 932 C 95.6494 1.86734 -3.09536 0
M  V30 933 O 95.3704 1.07887 -4.24608 0
M  V30 934 C 96.8714 2.72082 -3.4998 0
M  V30 935 H 94.0914 0.279611 -0.609966 0
M  V30 936 H 96.6354 0.228197 -2.03223 0
M  V30 937 H 94.7904 2.5481 -2.91806 0
M  V30 938 H 95.2044 1.69872 -4.9623 0
M  V30 939 H 96.6784 3.31782 -4.41163 0
M  V30 940 H 97.1554 3.44806 -2.7204 0
M  V30 941 H 97.7614 2.09409 -3.70173 0
M  V30 942 N 96.0765 1.50051 0.48192 0
M  V30 943 C 97.3065 1.63999 1.2565 0
M  V30 944 C 97.7145 0.318288 1.86504 0
M  V30 945 O 97.0575 -0.708534 1.69486 0
M  V30 946 C 97.1195 2.66504 2.4128 0
M  V30 947 C 96.7835 4.10352 2.01148 0
M  V30 948 C 97.7805 4.96562 1.54021 0
M  V30 949 C 95.4655 4.56203 2.10199 0
M  V30 950 C 97.4595 6.26668 1.16473 0
M  V30 951 C 95.1465 5.86318 1.72264 0
M  V30 952 C 96.1445 6.71375 1.25477 0
M  V30 953 O 95.8325 7.99062 0.880626 0
M  V30 954 H 95.5645 0.55456 0.386574 0
M  V30 955 H 98.1185 1.96954 0.582944 0
M  V30 956 H 96.3485 2.28769 3.11772 0
M  V30 957 H 98.0375 2.69783 3.03268 0
M  V30 958 H 98.8035 4.62358 1.46458 0
M  V30 959 H 94.6825 3.90152 2.45566 0
M  V30 960 H 98.2265 6.93011 0.798841 0
M  V30 961 H 94.1235 6.20046 1.79482 0
M  V30 962 H 94.8915 8.12239 1.01043 0
M  V30 963 N 97.5546 -0.734337 1.39446 0
M  V30 964 C 98.5176 -1.83004 1.37994 0
M  V30 965 C 99.5176 -1.58397 0.276938 0
M  V30 966 O 100.708 -1.65785 0.534875 0
M  V30 967 C 97.8396 -3.20802 1.1532 0
M  V30 968 H 99.0326 -1.85694 2.35494 0
M  V30 969 H 96.5856 -0.938059 1.25021 0
M  V30 970 H 97.3206 -3.23772 0.185036 0
M  V30 971 H 97.1056 -3.4006 1.95197 0
M  V30 972 H 98.5956 -4.00862 1.17046 0
M  V30 973 N 99.0327 -1.24633 -0.964593 0
M  V30 974 C 99.9427 -1.05859 -2.09359 0
M  V30 975 C 100.959 0.00148855 -1.74 0
M  V30 976 O 102.135 -0.197346 -2.00431 0
M  V30 977 C 99.1997 -0.668879 -3.40187 0
M  V30 978 C 98.2607 -1.80578 -3.89474 0
M  V30 979 C 97.4937 -1.43457 -5.14058 0
M  V30 980 O 97.7167 -0.325775 -5.69469 0
M  V30 981 O 96.6507 -2.2613 -5.57807 0
M  V30 982 H 100.477 -2.00516 -2.28094 0
M  V30 983 H 98.0617 -1.03481 -1.0776 0
M  V30 984 H 99.9437 -0.463211 -4.18846 0
M  V30 985 H 98.6187 0.248536 -3.22744 0
M  V30 986 H 97.5257 -2.06623 -3.11862 0
M  V30 987 H 98.8587 -2.70208 -4.11398 0
M  V30 988 N 100.511 1.16574 -1.06058 0
M  V30 989 C 101.441 2.23057 -0.690488 0
M  V30 990 C 102.422 1.67141 0.315901 0
M  V30 991 O 103.607 1.93253 0.191556 0
M  V30 992 C 100.737 3.47222 -0.073625 0
M  V30 993 C 99.6908 4.16016 -1.00573 0
M  V30 994 C 99.0168 5.34104 -0.252289 0
M  V30 995 C 100.317 4.67264 -2.33371 0
M  V30 996 H 102.011 2.54271 -1.58072 0
M  V30 997 H 99.5568 1.22218 -0.76149 0
M  V30 998 H 101.51 4.20939 0.19714 0
M  V30 999 H 100.234 3.15302 0.85161 0
M  V30 1000 H 98.8928 3.44223 -1.2612 0
M  V30 1001 H 98.5408 4.98437 0.675988 0
M  V30 1002 H 98.2408 5.81072 -0.873455 0
M  V30 1003 H 99.7648 6.10599 0.0109857 0
M  V30 1004 H 101.179 5.32573 -2.12223 0
M  V30 1005 H 99.5758 5.24843 -2.90963 0
M  V30 1006 H 100.646 3.83602 -2.96611 0
M  V30 1007 N 101.989 0.842826 1.3317 0
M  V30 1008 C 102.936 0.276885 2.29133 0
M  V30 1009 C 103.906 -0.609527 1.54512 0
M  V30 1010 O 105.091 -0.546955 1.82792 0
M  V30 1011 C 102.231 -0.538707 3.40869 0
M  V30 1012 C 101.344 0.372169 4.30394 0
M  V30 1013 C 100.479 -0.454908 5.29249 0
M  V30 1014 C 99.5179 0.45411 6.10413 0
M  V30 1015 N 98.6549 -0.335075 7.013 0
M  V30 1016 H 103.495 1.10052 2.76934 0
M  V30 1017 H 101.032 0.554161 1.36262 0
M  V30 1018 H 102.99 -1.02709 4.0436 0
M  V30 1019 H 101.62 -1.32727 2.9425 0
M  V30 1020 H 100.672 0.97888 3.6759 0
M  V30 1021 H 101.984 1.0703 4.87182 0
M  V30 1022 H 101.138 -1.00695 5.98285 0
M  V30 1023 H 99.8769 -1.18646 4.73048 0
M  V30 1024 H 98.8819 1.01813 5.40291 0
M  V30 1025 H 100.107 1.18409 6.68697 0
M  V30 1026 H 98.0529 -1.04994 6.47543 0
M  V30 1027 H 97.9699 0.304262 7.55387 0
M  V30 1028 H 99.2379 -0.869224 7.74638 0
M  V30 1029 N 103.467 -1.45747 0.599634 0
M  V30 1030 C 104.397 -2.33235 -0.111306 0
M  V30 1031 C 105.378 -1.46359 -0.866781 0
M  V30 1032 O 106.563 -1.75146 -0.838904 0
M  V30 1033 C 103.693 -3.28932 -1.11451 0
M  V30 1034 C 102.647 -4.25381 -0.472772 0
M  V30 1035 C 101.973 -5.1071 -1.58365 0
M  V30 1036 C 103.273 -5.18831 0.600948 0
M  V30 1037 H 104.967 -2.92927 0.61919 0
M  V30 1038 H 102.513 -1.40857 0.299215 0
M  V30 1039 H 104.466 -3.89002 -1.62036 0
M  V30 1040 H 103.19 -2.67381 -1.8755 0
M  V30 1041 H 101.849 -3.66598 0.0121472 0
M  V30 1042 H 101.497 -4.45533 -2.33473 0
M  V30 1043 H 101.197 -5.7604 -1.15982 0
M  V30 1044 H 102.721 -5.73647 -2.09194 0
M  V30 1045 H 104.135 -5.73019 0.179491 0
M  V30 1046 H 102.532 -5.92595 0.946076 0
M  V30 1047 H 103.602 -4.6174 1.48068 0
M  V30 1048 N 104.945 -0.338344 -1.53925 0
M  V30 1049 C 106.193 0.259245 -2.0043 0
M  V30 1050 C 106.514 1.51484 -1.22791 0
M  V30 1051 O 105.784 1.93037 -0.33368 0
M  V30 1052 H 104.364 0.0987845 -0.740439 0
M  V30 1053 H 107.026 -0.458302 -1.89435 0
M  V30 1054 H 106.122 0.505334 -3.07982 0
M  V30 1055 N 106.423 1.57458 -0.0668435 0
M  V30 1056 C 107.355 2.09413 0.931601 0
M  V30 1057 C 108.368 1.02522 1.26464 0
M  V30 1058 O 109.557 1.30049 1.22269 0
M  V30 1059 C 106.657 2.53537 2.24882 0
M  V30 1060 C 105.83 3.83944 2.09537 0
M  V30 1061 C 104.889 4.14214 3.2452 0
M  V30 1062 O 103.915 4.83891 2.9973 0
M  V30 1063 N 105.117 3.67367 4.49469 0
M  V30 1064 H 107.882 2.95699 0.488048 0
M  V30 1065 H 105.443 1.61462 0.119009 0
M  V30 1066 H 107.435 2.70853 3.00701 0
M  V30 1067 H 106.005 1.72415 2.60753 0
M  V30 1068 H 105.225 3.76057 1.18215 0
M  V30 1069 H 106.513 4.69312 1.96529 0
M  V30 1070 H 105.911 3.11068 4.72497 0
M  V30 1071 H 104.468 3.89891 5.2233 0
M  V30 1072 N 107.901 -0.206675 1.56239 0
M  V30 1073 C 108.811 -1.27686 1.96808 0
M  V30 1074 C 109.827 -1.50455 0.874035 0
M  V30 1075 O 111.003 -1.63295 1.17884 0
M  V30 1076 C 108.068 -2.60358 2.28942 0
M  V30 1077 C 107.129 -2.45762 3.51994 0
M  V30 1078 C 106.362 -3.72108 3.82585 0
M  V30 1079 O 106.585 -4.75776 3.14631 0
M  V30 1080 O 105.519 -3.6833 4.76043 0
M  V30 1081 H 109.345 -0.962593 2.88041 0
M  V30 1082 H 106.93 -0.410746 1.43643 0
M  V30 1083 H 108.812 -3.38687 2.50737 0
M  V30 1084 H 107.487 -2.91435 1.4088 0
M  V30 1085 H 106.394 -1.65584 3.35459 0
M  V30 1086 H 107.727 -2.19621 4.40486 0
M  V30 1087 N 109.379 -1.50304 -0.473955 0
M  V30 1088 C 110.625 -1.61389 -1.22806 0
M  V30 1089 C 110.958 -0.311955 -1.91678 0
M  V30 1090 O 110.233 0.686384 -1.81986 0
M  V30 1091 C 110.516 -2.79219 -2.27396 0
M  V30 1092 C 110.369 -4.19286 -1.62848 0
M  V30 1093 C 111.688 -2.92614 -3.28732 0
M  V30 1094 H 108.807 -0.587399 -0.445119 0
M  V30 1095 H 111.449 -1.82681 -0.522265 0
M  V30 1096 H 109.599 -2.61195 -2.87592 0
M  V30 1097 H 111.271 -4.48892 -1.06271 0
M  V30 1098 H 109.514 -4.23677 -0.931693 0
M  V30 1099 H 110.185 -4.97655 -2.38838 0
M  V30 1100 H 112.661 -3.09105 -2.78556 0
M  V30 1101 H 111.537 -3.76688 -3.99246 0
M  V30 1102 H 111.798 -2.03107 -3.92683 0
M  V30 1103 N 110.857 0.726932 -1.39834 0
M  V30 1104 C 112.103 1.48771 -1.38704 0
M  V30 1105 C 112.458 1.92394 0.0146387 0
M  V30 1106 O 111.751 1.64474 0.982797 0
M  V30 1107 C 111.945 2.73495 -2.30077 0
M  V30 1108 C 111.774 2.42068 -3.78989 0
M  V30 1109 C 110.544 2.33966 -4.4787 0
M  V30 1110 C 112.742 2.0708 -4.70768 0
M  V30 1111 N 110.724 1.95095 -5.82075 0
M  V30 1112 C 112.095 1.78719 -5.93683 0
M  V30 1113 C 114.15 1.93618 -4.58712 0
M  V30 1114 C 112.853 1.3825 -7.05889 0
M  V30 1115 C 114.879 1.54553 -5.70848 0
M  V30 1116 C 114.241 1.27082 -6.92842 0
M  V30 1117 H 110.34 0.542919 -0.562817 0
M  V30 1118 H 112.924 0.84408 -1.75452 0
M  V30 1119 H 111.095 3.35625 -1.95474 0
M  V30 1120 H 112.827 3.39755 -2.19883 0
M  V30 1121 H 109.582 2.51331 -4.0141 0
M  V30 1122 H 110.006 1.7823 -6.53118 0
M  V30 1123 H 114.648 2.13522 -3.64922 0
M  V30 1124 H 112.366 1.17088 -7.99572 0
M  V30 1125 H 115.952 1.44731 -5.6351 0
M  V30 1126 H 114.832 0.973069 -7.78139 0
M  V30 1127 N 112.336 1.25143 0.95797 0
M  V30 1128 C 113.283 1.05235 2.05412 0
M  V30 1129 C 114.253 -0.0374561 1.66058 0
M  V30 1130 O 115.438 0.119073 1.90428 0
M  V30 1131 C 112.578 0.673589 3.38462 0
M  V30 1132 C 111.691 1.8379 3.90954 0
M  V30 1133 C 110.826 1.40381 5.12315 0
M  V30 1134 C 109.865 2.53746 5.57027 0
M  V30 1135 N 109.002 2.11136 6.69601 0
M  V30 1136 H 113.842 1.99048 2.21774 0
M  V30 1137 H 111.379 0.991277 1.08683 0
M  V30 1138 H 113.337 0.434964 4.14926 0
M  V30 1139 H 111.967 -0.227554 3.21997 0
M  V30 1140 H 111.019 2.18992 3.11041 0
M  V30 1141 H 112.331 2.68937 4.20089 0
M  V30 1142 H 111.485 1.12464 5.96185 0
M  V30 1143 H 110.224 0.523015 4.84887 0
M  V30 1144 H 109.229 2.82412 4.71724 0
M  V30 1145 H 110.454 3.42398 5.86464 0
M  V30 1146 H 108.4 1.25468 6.4389 0
M  V30 1147 H 108.317 2.89832 6.98236 0
M  V30 1148 H 109.585 1.86385 7.56889 0
M  V30 1149 N 113.814 -1.1601 1.06675 0
M  V30 1150 C 114.724 -2.24156 0.692179 0
M  V30 1151 C 115.74 -1.71507 -0.293513 0
M  V30 1152 O 116.916 -2.009 -0.141861 0
M  V30 1153 C 113.981 -3.46587 0.0884131 0
M  V30 1154 C 113.042 -4.14257 1.12646 0
M  V30 1155 C 112.275 -5.30844 0.551416 0
M  V30 1156 O 112.498 -5.66858 -0.634656 0
M  V30 1157 O 111.432 -5.87848 1.29298 0
M  V30 1158 H 115.258 -2.58513 1.59388 0
M  V30 1159 H 112.843 -1.23599 0.83926 0
M  V30 1160 H 114.725 -4.20679 -0.246361 0
M  V30 1161 H 113.4 -3.13994 -0.786712 0
M  V30 1162 H 112.307 -3.42118 1.51348 0
M  V30 1163 H 113.64 -4.50914 1.97325 0
M  V30 1164 N 115.292 -0.849877 -1.32721 0
M  V30 1165 C 116.54 -0.450032 -1.97026 0
M  V30 1166 C 116.861 0.996604 -1.67609 0
M  V30 1167 O 116.131 1.6958 -0.980786 0
M  V30 1168 H 114.711 -0.163426 -0.728904 0
M  V30 1169 H 117.373 -1.08526 -1.6189 0
M  V30 1170 H 116.469 -0.591146 -3.0645 0
M  V30 1171 N 116.77 1.45427 -0.607355 0
M  V30 1172 C 118.047 1.9557 -0.0344566 0
M  V30 1173 C 118.427 1.54979 1.43334 0
M  V30 1174 O 117.775 0.812241 2.13576 0
M  V30 1175 C 117.985 3.48226 -0.232321 0
M  V30 1176 C 119.333 4.2445 -0.113001 0
M  V30 1177 O 120.357 3.55829 -0.162431 0
M  V30 1178 O 119.216 5.465 0.00209442 0
M  V30 1179 H 116.31 0.826222 0.0358667 0
M  V30 1180 H 118.856 1.55594 -0.6774 0
M  V30 1181 H 117.628 3.70739 -1.25174 0
M  V30 1182 H 117.251 3.95092 0.445896 0
M  V30 1183 N 118.248 0.346503 1.53744 0
M  V30 1184 C 119.195 -0.508914 2.25119 0
M  V30 1185 C 120.165 -1.09315 1.25058 0
M  V30 1186 O 121.35 -1.12921 1.53797 0
M  V30 1187 C 118.49 -1.65246 3.02965 0
M  V30 1188 C 117.603 -1.09525 4.17886 0
M  V30 1189 C 116.738 -2.20634 4.83212 0
M  V30 1190 C 115.777 -1.62279 5.90196 0
M  V30 1191 N 114.914 -2.67143 6.49291 0
M  V30 1192 H 119.754 0.106283 2.9781 0
M  V30 1193 H 117.291 0.0642227 1.4696 0
M  V30 1194 H 119.249 -2.32574 3.4636 0
M  V30 1195 H 117.879 -2.2386 2.32565 0
M  V30 1196 H 116.931 -0.312818 3.79112 0
M  V30 1197 H 118.243 -0.628444 4.94825 0
M  V30 1198 H 117.397 -2.95821 5.29693 0
M  V30 1199 H 116.136 -2.70659 4.05703 0
M  V30 1200 H 115.141 -0.855989 5.43096 0
M  V30 1201 H 116.366 -1.13102 6.69615 0
M  V30 1202 H 114.312 -3.16417 5.74645 0
M  V30 1203 H 114.229 -2.25093 7.21713 0
M  V30 1204 H 115.497 -3.4209 7.00425 0
M  V30 1205 N 119.726 -1.57421 0.075193 0
M  V30 1206 C 120.951 -1.98364 -0.605515 0
M  V30 1207 C 121.376 -0.953383 -1.62149 0
M  V30 1208 O 120.734 0.0806053 -1.81121 0
M  V30 1209 C 120.782 -3.38332 -1.24756 0
M  V30 1210 O 119.886 -3.37959 -2.36342 0
M  V30 1211 H 119.227 -0.645553 -0.155428 0
M  V30 1212 H 121.757 -2.04044 0.150714 0
M  V30 1213 H 121.767 -3.75591 -1.5936 0
M  V30 1214 H 120.442 -4.12846 -0.503129 0
M  V30 1215 H 119.019 -3.12474 -2.03506 0
M  V30 1216 N 121.204 0.198386 -1.56346 0
M  V30 1217 C 122.451 0.919286 -1.80431 0
M  V30 1218 C 122.779 1.83393 -0.647866 0
M  V30 1219 O 122.034 1.92236 0.366556 0
M  V30 1220 C 122.333 1.77031 -3.10475 0
M  V30 1221 C 121.999 1.00693 -4.39513 0
M  V30 1222 C 120.661 0.796145 -4.74568 0
M  V30 1223 C 123.013 0.469559 -5.19081 0
M  V30 1224 C 120.341 0.0364588 -5.86689 0
M  V30 1225 C 122.693 -0.2769 -6.31994 0
M  V30 1226 C 121.357 -0.49873 -6.65634 0
M  V30 1227 H 120.627 0.336391 -0.660244 0
M  V30 1228 H 123.274 0.185872 -1.90596 0
M  V30 1229 H 121.579 2.5723 -2.95533 0
M  V30 1230 H 123.276 2.33065 -3.26315 0
M  V30 1231 H 119.866 1.18122 -4.12001 0
M  V30 1232 H 124.05 0.619816 -4.92414 0
M  V30 1233 H 119.306 -0.145412 -6.11227 0
M  V30 1234 H 123.48 -0.700684 -6.92866 0
M  V30 1235 H 121.107 -1.0893 -7.52355 0
M  V30 1236 N 122.682 1.50554 0.465978 0
M  V30 1237 C 123.912 1.65323 1.23903 0
M  V30 1238 C 124.32 0.338051 1.86155 0
M  V30 1239 O 123.663 -0.690518 1.70228 0
M  V30 1240 C 123.725 2.69048 2.3844 0
M  V30 1241 C 123.389 4.12462 1.96784 0
M  V30 1242 C 124.386 4.98168 1.48745 0
M  V30 1243 C 122.071 4.58407 2.05349 0
M  V30 1244 C 124.065 6.27868 1.0982 0
M  V30 1245 C 121.752 5.88112 1.66035 0
M  V30 1246 C 122.75 6.72668 1.18349 0
M  V30 1247 O 122.438 7.99951 0.795825 0
M  V30 1248 H 122.17 0.558629 0.38067 0
M  V30 1249 H 124.724 1.97561 0.562022 0
M  V30 1250 H 122.954 2.32062 3.09328 0
M  V30 1251 H 124.643 2.72985 3.0039 0
M  V30 1252 H 125.409 4.63885 1.41546 0
M  V30 1253 H 121.288 3.92735 2.41414 0
M  V30 1254 H 124.832 6.93819 0.725293 0
M  V30 1255 H 120.729 6.21914 1.72895 0
M  V30 1256 H 121.497 8.13265 0.924222 0
M  V30 1257 N 124.16 -0.719506 1.40217 0
M  V30 1258 C 125.407 -1.47933 1.38283 0
M  V30 1259 C 125.735 -1.94493 -0.0161536 0
M  V30 1260 O 124.99 -1.68224 -0.999956 0
M  V30 1261 C 125.289 -2.72271 2.31524 0
M  V30 1262 C 124.955 -2.44496 3.78857 0
M  V30 1263 C 123.617 -2.36631 4.18998 0
M  V30 1264 C 125.969 -2.21104 4.71977 0
M  V30 1265 C 123.297 -2.03437 5.503 0
M  V30 1266 C 125.649 -1.89423 6.03574 0
M  V30 1267 C 124.313 -1.80038 6.42762 0
M  V30 1268 H 123.583 -0.541325 0.506012 0
M  V30 1269 H 126.23 -0.824502 1.72842 0
M  V30 1270 H 124.535 -3.42572 1.90137 0
M  V30 1271 H 126.232 -3.30348 2.27313 0
M  V30 1272 H 122.822 -2.51503 3.47051 0
M  V30 1273 H 127.006 -2.26139 4.41786 0
M  V30 1274 H 122.262 -1.94705 5.79569 0
M  V30 1275 H 126.436 -1.70336 6.75247 0
M  V30 1276 H 124.063 -1.54083 7.44421 0
M  V30 1277 N 125.638 -1.25649 -0.95132 0
M  V30 1278 C 126.915 -1.01361 -1.67288 0
M  V30 1279 C 127.295 0.459135 -2.06046 0
M  V30 1280 O 126.643 1.43723 -1.7764 0
M  V30 1281 C 126.853 -1.95256 -2.89268 0
M  V30 1282 C 128.201 -2.23289 -3.61147 0
M  V30 1283 O 129.225 -1.93041 -2.99355 0
M  V30 1284 O 128.084 -2.74741 -4.72419 0
M  V30 1285 H 125.178 -0.38464 -0.732107 0
M  V30 1286 H 127.724 -1.36817 -1.00395 0
M  V30 1287 H 126.496 -2.94685 -2.57442 0
M  V30 1288 H 126.119 -1.60218 -3.6389 0
M  V30 1289 N 127.117 1.15442 -1.07289 0
M  V30 1290 C 128.345 1.90096 -0.81676 0
M  V30 1291 C 128.76 1.7798 0.629966 0
M  V30 1292 O 128.117 1.1313 1.43206 0
M  V30 1293 C 128.168 3.40466 -1.21512 0
M  V30 1294 O 127.889 3.52232 -2.60508 0
M  V30 1295 C 129.39 4.32145 -0.988198 0
M  V30 1296 H 126.61 0.602495 -0.295366 0
M  V30 1297 H 129.154 1.4627 -1.42918 0
M  V30 1298 H 127.309 3.81958 -0.647039 0
M  V30 1299 H 127.723 4.45549 -2.76742 0
M  V30 1300 H 129.197 5.36072 -1.31645 0
M  V30 1301 H 129.674 4.39135 0.0755063 0
M  V30 1302 H 130.28 3.96395 -1.54115 0
M  V30 1303 N 128.595 0.856903 1.32268 0
M  V30 1304 C 129.543 0.291987 2.3076 0
M  V30 1305 C 130.537 -0.585857 1.58947 0
M  V30 1306 O 131.743 -0.47341 1.73663 0
M  V30 1307 H 128.118 0.075721 0.748178 0
M  V30 1308 H 130.089 1.13687 2.75895 0
M  V30 1309 C 128.838 -0.502869 3.44044 0
M  V30 1310 H 128.161 0.163328 3.99466 0
M  V30 1311 H 129.601 -0.863691 4.1511 0
M  V30 1312 C 128.06 -1.68898 2.91505 0
M  V30 1313 O 128.59 -2.78811 2.89184 0
M  V30 1314 N 126.796 -1.51679 2.47875 0
M  V30 1315 H 126.343 -0.622666 2.49961 0
M  V30 1316 H 126.301 -2.31184 2.13076 0
M  V30 1317 N 130.073 -1.45103 0.615059 0
M  V30 1318 C 131.319 -2.02483 0.113347 0
M  V30 1319 C 131.652 -1.48146 -1.25564 0
M  V30 1320 O 130.927 -0.659104 -1.82992 0
M  V30 1321 C 131.21 -3.60005 0.0825278 0
M  V30 1322 C 131.063 -4.2466 1.48271 0
M  V30 1323 C 132.382 -4.35972 -0.601401 0
M  V30 1324 H 129.501 -0.735764 0.0426632 0
M  V30 1325 H 132.143 -1.72868 0.788461 0
M  V30 1326 H 130.293 -3.85367 -0.492378 0
M  V30 1327 H 131.965 -4.10458 2.10527 0
M  V30 1328 H 130.208 -3.82772 2.04127 0
M  V30 1329 H 130.879 -5.336 1.41332 0
M  V30 1330 H 133.355 -4.15947 -0.112666 0
M  V30 1331 H 132.231 -5.45697 -0.592097 0
M  V30 1332 H 132.492 -4.09391 -1.66887 0
M  V30 1333 N 131.551 -0.354651 -1.53558 0
M  V30 1334 C 132.514 0.484566 -2.24019 0
M  V30 1335 C 133.514 1.01861 -1.24422 0
M  V30 1336 O 134.704 0.906097 -1.4878 0
M  V30 1337 C 131.836 1.67615 -2.96847 0
M  V30 1338 H 133.029 -0.131843 -2.9961 0
M  V30 1339 H 130.582 -0.106165 -1.55939 0
M  V30 1340 H 131.317 2.33095 -2.25471 0
M  V30 1341 H 131.102 1.30029 -3.69912 0
M  V30 1342 H 132.592 2.27114 -3.50441 0
M  V30 1343 N 133.029 1.57378 -0.0835403 0
M  V30 1344 C 134.259 1.97975 0.590713 0
M  V30 1345 C 134.667 0.961083 1.62972 0
M  V30 1346 O 134.01 -0.0590879 1.83605 0
M  V30 1347 C 134.072 3.34915 1.3066 0
M  V30 1348 C 133.736 4.55069 0.419698 0
M  V30 1349 C 134.733 5.18868 -0.32749 0
M  V30 1350 C 132.418 5.0114 0.341137 0
M  V30 1351 C 134.412 6.27098 -1.14134 0
M  V30 1352 C 132.099 6.0924 -0.476374 0
M  V30 1353 C 133.097 6.72083 -1.21627 0
M  V30 1354 O 132.785 7.781 -2.02028 0
M  V30 1355 H 132.517 0.655818 0.163947 0
M  V30 1356 H 135.071 2.04807 -0.156021 0
M  V30 1357 H 133.301 3.24733 2.09966 0
M  V30 1358 H 134.99 3.60037 1.87424 0
M  V30 1359 H 135.756 4.84211 -0.276459 0
M  V30 1360 H 131.635 4.51996 0.90668 0
M  V30 1361 H 135.179 6.7608 -1.71935 0
M  V30 1362 H 131.076 6.43329 -0.528927 0
M  V30 1363 H 131.844 7.95034 -1.94586 0
M  V30 1364 N 134.507 -0.190092 1.56449 0
M  V30 1365 C 135.732 -0.929864 1.85387 0
M  V30 1366 C 136.157 -1.7585 0.667704 0
M  V30 1367 O 135.515 -1.77198 -0.383459 0
M  V30 1368 C 135.563 -1.79773 3.12593 0
M  V30 1369 O 134.667 -2.89713 2.93496 0
M  V30 1370 H 134.008 -0.261574 0.610307 0
M  V30 1371 H 136.538 -0.193896 2.03679 0
M  V30 1372 H 136.548 -2.20139 3.43515 0
M  V30 1373 H 135.223 -1.18892 3.98544 0
M  V30 1374 H 133.8 -2.53065 2.73884 0
M  V30 1375 N 135.985 -1.50799 -0.457987 0
M  V30 1376 C 137.231 -1.62683 -1.21088 0
M  V30 1377 C 137.564 -0.332268 -1.91336 0
M  V30 1378 O 136.839 0.667043 -1.82704 0
M  V30 1379 C 137.122 -2.81615 -2.24422 0
M  V30 1380 C 136.975 -4.20989 -1.58392 0
M  V30 1381 C 138.294 -2.96085 -3.2561 0
M  V30 1382 H 135.413 -0.592087 -0.438864 0
M  V30 1383 H 138.055 -1.83225 -0.50286 0
M  V30 1384 H 136.205 -2.64231 -2.84806 0
M  V30 1385 H 137.877 -4.49994 -1.01504 0
M  V30 1386 H 136.12 -4.24641 -0.886704 0
M  V30 1387 H 136.791 -5.0016 -2.33547 0
M  V30 1388 H 139.267 -3.12042 -2.75262 0
M  V30 1389 H 138.143 -3.80902 -3.95228 0
M  V30 1390 H 138.404 -2.0726 -3.90507 0
M  V30 1391 N 137.463 0.71206 -1.40597 0
M  V30 1392 C 138.411 1.84746 -1.41321 0
M  V30 1393 C 139.405 1.66842 -0.293268 0
M  V30 1394 O 140.611 1.73904 -0.464481 0
M  V30 1395 H 136.986 0.608522 -0.441819 0
M  V30 1396 H 138.957 1.81252 -2.37045 0
M  V30 1397 C 137.706 3.22638 -1.29614 0
M  V30 1398 H 137.029 3.37023 -2.15071 0
M  V30 1399 H 138.469 4.02209 -1.3418 0
M  V30 1400 C 136.928 3.36899 -0.00673121 0
M  V30 1401 O 137.458 3.90186 0.954859 0
M  V30 1402 N 135.664 2.9053 0.0639327 0
M  V30 1403 H 135.211 2.47353 -0.719311 0
M  V30 1404 H 135.169 3.0045 0.926118 0
M  V30 1405 N 138.941 1.26152 0.944643 0
M  V30 1406 C 139.873 1.03199 2.04652 0
M  V30 1407 C 140.886 -0.00642356 1.62799 0
M  V30 1408 O 142.075 0.233263 1.76969 0
M  V30 1409 C 139.175 0.540111 3.34568 0
M  V30 1410 C 138.348 1.64697 4.05208 0
M  V30 1411 C 137.407 1.15374 5.13396 0
M  V30 1412 O 136.433 1.85013 5.38293 0
M  V30 1413 N 137.635 0.00031529 5.805 0
M  V30 1414 H 140.4 1.9808 2.2491 0
M  V30 1415 H 137.961 1.17491 1.11389 0
M  V30 1416 H 139.953 0.194401 4.04233 0
M  V30 1417 H 138.523 -0.315021 3.11009 0
M  V30 1418 H 137.743 2.16379 3.29506 0
M  V30 1419 H 139.031 2.3903 4.49157 0
M  V30 1420 H 138.429 -0.581336 5.62705 0
M  V30 1421 H 136.986 -0.286346 6.51171 0
M  V30 1422 N 140.419 -1.14872 1.07899 0
M  V30 1423 C 141.351 -2.19425 0.662231 0
M  V30 1424 C 142.364 -1.60231 -0.288079 0
M  V30 1425 O 143.553 -1.78336 -0.076534 0
M  V30 1426 C 140.653 -3.38867 -0.0470695 0
M  V30 1427 C 139.826 -4.27597 0.920831 0
M  V30 1428 C 138.885 -5.25616 0.247805 0
M  V30 1429 O 137.911 -5.62189 0.890599 0
M  V30 1430 N 139.113 -5.71746 -1.00435 0
M  V30 1431 H 141.878 -2.55797 1.56166 0
M  V30 1432 H 139.439 -1.30042 0.964404 0
M  V30 1433 H 141.431 -4.01497 -0.50813 0
M  V30 1434 H 140.001 -3.00864 -0.848523 0
M  V30 1435 H 139.221 -3.61982 1.56087 0
M  V30 1436 H 140.509 -4.83748 1.57688 0
M  V30 1437 H 139.907 -5.44153 -1.54642 0
M  V30 1438 H 138.464 -6.36389 -1.40899 0
M  V30 1439 N 141.898 -0.863906 -1.31812 0
M  V30 1440 C 142.846 -0.30422 -2.30602 0
M  V30 1441 C 143.84 0.577419 -1.59255 0
M  V30 1442 O 145.046 0.464194 -1.73912 0
M  V30 1443 H 141.421 -0.0796877 -0.747766 0
M  V30 1444 H 143.392 -1.15148 -2.75288 0
M  V30 1445 C 142.141 0.484617 -3.44306 0
M  V30 1446 H 141.464 -0.18451 -3.99374 0
M  V30 1447 H 142.904 0.841664 -4.15562 0
M  V30 1448 C 141.363 1.6735 -2.92396 0
M  V30 1449 O 141.893 2.77273 -2.90659 0
M  V30 1450 N 140.099 1.50362 -2.48676 0
M  V30 1451 H 139.646 0.609402 -2.50288 0
M  V30 1452 H 139.604 2.30051 -2.14299 0
M  V30 1453 N 143.376 1.44774 -0.622745 0
M  V30 1454 C 144.653 1.95522 -0.0551974 0
M  V30 1455 C 145.033 1.5649 1.41683 0
M  V30 1456 O 144.381 0.834848 2.12703 0
M  V30 1457 C 144.591 3.4796 -0.269242 0
M  V30 1458 C 145.939 4.24306 -0.158014 0
M  V30 1459 O 146.963 3.55637 -0.200162 0
M  V30 1460 O 145.822 5.46471 -0.0558693 0
M  V30 1461 H 142.916 0.826556 0.0271015 0
M  V30 1462 H 145.462 1.54866 -0.693864 0
M  V30 1463 H 144.234 3.6939 -1.29099 0
M  V30 1464 H 143.857 3.95543 0.403966 0
M  V30 1465 N 144.854 0.36279 1.53368 0
M  V30 1466 C 146.1 -0.220702 2.02199 0
M  V30 1467 C 146.455 -1.46649 1.24546 0
M  V30 1468 O 145.748 -1.88737 0.32996 0
M  V30 1469 C 145.942 -0.568417 3.52851 0
M  V30 1470 C 145.771 0.642126 4.45092 0
M  V30 1471 C 144.541 1.15335 4.91961 0
M  V30 1472 C 146.739 1.50649 4.91741 0
M  V30 1473 N 144.721 2.3242 5.68202 0
M  V30 1474 C 146.092 2.52404 5.66297 0
M  V30 1475 C 148.147 1.52969 4.73819 0
M  V30 1476 C 146.85 3.56331 6.24836 0
M  V30 1477 C 148.876 2.55789 5.33222 0
M  V30 1478 C 148.238 3.56268 6.07662 0
M  V30 1479 H 144.337 -0.0435508 0.780786 0
M  V30 1480 H 146.921 0.506704 1.87991 0
M  V30 1481 H 145.092 -1.2649 3.67226 0
M  V30 1482 H 146.824 -1.13676 3.88407 0
M  V30 1483 H 143.579 0.718412 4.68119 0
M  V30 1484 H 144.003 2.91591 6.10986 0
M  V30 1485 H 148.645 0.766418 4.15795 0
M  V30 1486 H 146.363 4.33543 6.81958 0
M  V30 1487 H 149.949 2.58435 5.21251 0
M  V30 1488 H 148.829 4.34524 6.52808 0
M  V30 1489 N 146.332 -1.57332 0.0918853 0
M  V30 1490 C 147.242 -2.17368 -0.882505 0
M  V30 1491 C 148.258 -1.14226 -1.31257 0
M  V30 1492 O 149.434 -1.46582 -1.38115 0
M  V30 1493 C 146.499 -2.73962 -2.12476 0
M  V30 1494 C 145.56 -3.92048 -1.7492 0
M  V30 1495 C 144.793 -4.45933 -2.93223 0
M  V30 1496 O 145.016 -3.98764 -4.07852 0
M  V30 1497 O 143.95 -5.36999 -2.71875 0
M  V30 1498 H 147.776 -3.01031 -0.40172 0
M  V30 1499 H 145.361 -1.48813 -0.132291 0
M  V30 1500 H 147.243 -3.10147 -2.85283 0
M  V30 1501 H 145.918 -1.93347 -2.59613 0
M  V30 1502 H 144.825 -3.6068 -0.993025 0
M  V30 1503 H 146.158 -4.74017 -1.32548 0
M  V30 1504 N 147.81 0.181792 -1.56548 0
M  V30 1505 C 149.035 0.920019 -1.85877 0
M  V30 1506 C 149.46 1.75494 -0.677021 0
M  V30 1507 O 148.818 1.77399 0.374056 0
M  V30 1508 C 148.866 1.78112 -3.13542 0
M  V30 1509 O 147.97 2.88152 -2.95029 0
M  V30 1510 H 147.311 0.258334 -0.611686 0
M  V30 1511 H 149.841 0.183092 -2.03779 0
M  V30 1512 H 149.851 2.18314 -3.44678 0
M  V30 1513 H 148.526 1.16777 -3.99169 0
M  V30 1514 H 147.103 2.51609 -2.75222 0
M  V30 1515 N 149.288 1.51039 0.449983 0
M  V30 1516 C 150.516 1.66869 1.2232 0
M  V30 1517 C 150.931 0.360727 1.85322 0
M  V30 1518 O 150.288 -0.659531 1.70166 0
M  V30 1519 C 150.339 2.77524 2.31652 0
M  V30 1520 O 150.06 4.03252 1.7123 0
M  V30 1521 C 151.561 3.04512 3.2216 0
M  V30 1522 H 148.781 0.560326 0.369155 0
M  V30 1523 H 151.325 1.97385 0.534719 0
M  V30 1524 H 149.48 2.49642 2.96239 0
M  V30 1525 H 149.894 4.64609 2.43389 0
M  V30 1526 H 151.368 3.85551 3.95038 0
M  V30 1527 H 151.845 2.16415 3.8218 0
M  V30 1528 H 152.451 3.34005 2.63288 0
M  V30 1529 N 150.766 -0.704594 1.40972 0
M  V30 1530 C 152.043 -1.45847 1.30338 0
M  V30 1531 C 152.423 -2.10973 -0.0732344 0
M  V30 1532 O 151.771 -2.00997 -1.08685 0
M  V30 1533 C 151.981 -2.48525 2.45023 0
M  V30 1534 C 153.329 -3.1404 2.8577 0
M  V30 1535 O 154.353 -2.58848 2.44696 0
M  V30 1536 O 153.212 -4.13981 3.56766 0
M  V30 1537 H 150.306 -0.649092 0.512454 0
M  V30 1538 H 152.852 -0.735836 1.52917 0
M  V30 1539 H 151.624 -1.98994 3.36923 0
M  V30 1540 H 151.247 -3.2831 2.24272 0
M  V30 1541 N 152.244 -1.26651 -0.937939 0
M  V30 1542 C 153.655 -1.1125 -1.49934 0
M  V30 1543 C 154.006 0.306077 -1.93798 0
M  V30 1544 O 153.131 1.19792 -1.80219 0
M  V30 1545 C 153.726 -2.01339 -2.72485 0
M  V30 1546 C 152.285 -1.90074 -3.24883 0
M  V30 1547 C 151.432 -1.94498 -1.97651 0
M  V30 1548 H 154.383 -1.39693 -0.753091 0
M  V30 1549 H 154.404 -1.56319 -3.46907 0
M  V30 1550 H 153.916 -3.04577 -2.40529 0
M  V30 1551 H 152.017 -0.897827 -3.61621 0
M  V30 1552 H 152.13 -2.75778 -3.9177 0
M  V30 1553 H 150.494 -1.38591 -2.13693 0
M  V30 1554 H 151.277 -2.99372 -1.68022 0
M  V30 1555 N 153.722 1.14298 -1.08507 0
M  V30 1556 C 154.685 2.17607 -0.719711 0
M  V30 1557 C 155.685 1.58907 0.245997 0
M  V30 1558 O 156.875 1.74181 0.0254081 0
M  V30 1559 C 154.007 3.40842 -0.0627695 0
M  V30 1560 H 155.2 2.51443 -1.63452 0
M  V30 1561 H 152.753 1.28963 -0.88307 0
M  V30 1562 H 153.488 3.12587 0.863716 0
M  V30 1563 H 153.273 3.84713 -0.757504 0
M  V30 1564 H 154.763 4.17221 0.177786 0
M  V30 1565 N 155.201 0.870884 1.31352 0
M  V30 1566 C 156.448 0.482273 1.96673 0
M  V30 1567 C 156.776 -0.965638 1.68836 0
M  V30 1568 O 156.031 -1.69514 0.977937 0
M  V30 1569 C 156.33 0.687157 3.50732 0
M  V30 1570 C 155.996 2.108 3.9859 0
M  V30 1571 C 154.658 2.49656 4.1137 0
M  V30 1572 C 157.01 3.03459 4.23748 0
M  V30 1573 C 154.338 3.80412 4.46659 0
M  V30 1574 C 156.69 4.3373 4.60501 0
M  V30 1575 C 155.354 4.725 4.71487 0
M  V30 1576 H 154.624 0.176476 0.719679 0
M  V30 1577 H 157.271 1.10405 1.56471 0
M  V30 1578 H 155.576 -0.0177476 3.91796 0
M  V30 1579 H 157.273 0.366284 3.99324 0
M  V30 1580 H 153.863 1.79633 3.8914 0
M  V30 1581 H 158.047 2.74665 4.13368 0
M  V30 1582 H 153.303 4.1021 4.53362 0
M  V30 1583 H 157.477 5.05578 4.78919 0
M  V30 1584 H 155.104 5.73859 4.98588 0
M  V30 1585 N 156.679 -1.44442 0.630414 0
M  V30 1586 C 158.095 -1.56832 0.295973 0
M  V30 1587 C 158.295 -1.61806 -1.20088 0
M  V30 1588 O 157.351 -1.5607 -1.9849 0
M  V30 1589 C 158.664 -2.84031 0.987264 0
M  V30 1590 C 160.212 -2.97742 0.96534 0
M  V30 1591 C 160.687 -4.27743 1.63708 0
M  V30 1592 N 162.178 -4.34555 1.60364 0
M  V30 1593 C 162.913 -5.33862 2.09234 0
M  V30 1594 N 162.409 -6.39578 2.66292 0
M  V30 1595 N 164.202 -5.25366 1.99867 0
M  V30 1596 H 156.353 -1.39457 1.60205 0
M  V30 1597 H 158.616 -0.668237 0.672431 0
M  V30 1598 H 158.322 -2.86338 2.04215 0
M  V30 1599 H 158.196 -3.73534 0.524588 0
M  V30 1600 H 160.583 -2.94989 -0.0810639 0
M  V30 1601 H 160.664 -2.09589 1.4665 0
M  V30 1602 H 160.308 -4.31255 2.68293 0
M  V30 1603 H 160.238 -5.14752 1.11076 0
M  V30 1604 H 162.729 -3.58772 1.18705 0
M  V30 1605 H 163.042 -7.11637 3.01317 0
M  V30 1606 H 161.387 -6.40265 2.70343 0
M  V30 1607 H 164.578 -4.41688 1.55013 0
M  V30 1608 H 164.751 -6.02606 2.38265 0
M  V30 1609 N 158.157 -0.370918 -1.53173 0
M  V30 1610 C 159.067 0.480823 -2.2962 0
M  V30 1611 C 160.083 1.08789 -1.35798 0
M  V30 1612 O 161.259 1.09768 -1.68858 0
M  V30 1613 C 158.324 1.60227 -3.07454 0
M  V30 1614 C 157.385 1.0222 -4.16953 0
M  V30 1615 C 156.618 2.0902 -4.91066 0
M  V30 1616 O 156.841 3.30222 -4.65091 0
M  V30 1617 O 155.775 1.71778 -5.76867 0
M  V30 1618 H 159.601 -0.141421 -3.03371 0
M  V30 1619 H 157.186 -0.135146 -1.48787 0
M  V30 1620 H 159.068 2.25417 -3.56041 0
M  V30 1621 H 157.743 2.20982 -2.36535 0
M  V30 1622 H 156.65 0.334064 -3.72605 0
M  V30 1623 H 157.983 0.459131 -4.90054 0
M  V30 1624 N 159.635 1.57281 -0.100228 0
M  V30 1625 C 160.598 2.13158 0.842398 0
M  V30 1626 C 161.598 1.06202 1.20738 0
M  V30 1627 O 162.788 1.32066 1.13597 0
M  V30 1628 C 159.92 2.65639 2.13655 0
M  V30 1629 H 161.113 2.97766 0.357114 0
M  V30 1630 H 158.666 1.5559 0.148823 0
M  V30 1631 H 159.401 1.84566 2.66657 0
M  V30 1632 H 159.186 3.43844 1.88451 0
M  V30 1633 H 160.676 3.08846 2.81077 0
M  V30 1634 N 161.113 -0.173488 1.56642 0
M  V30 1635 C 162.061 -1.23417 1.97157 0
M  V30 1636 C 163.055 -1.45946 0.860013 0
M  V30 1637 O 164.261 -1.46551 1.04512 0
M  V30 1638 H 160.636 -0.414818 0.62724 0
M  V30 1639 H 162.607 -0.865582 2.8557 0
M  V30 1640 C 161.356 -2.5665 2.34576 0
M  V30 1641 H 160.679 -2.40137 3.19647 0
M  V30 1642 H 162.119 -3.2956 2.6677 0
M  V30 1643 C 160.578 -3.15245 1.18836 0
M  V30 1644 O 161.108 -3.98883 0.474869 0
M  V30 1645 N 159.314 -2.74303 0.959497 0
M  V30 1646 H 158.861 -2.0639 1.54146 0
M  V30 1647 H 158.819 -3.13844 0.186932 0
M  V30 1648 N 162.591 -1.51276 -0.441967 0
M  V30 1649 C 163.837 -1.63958 -1.19355 0
M  V30 1650 C 164.17 -0.352543 -1.90973 0
M  V30 1651 O 163.445 0.647627 -1.83401 0
M  V30 1652 C 163.728 -2.83979 -2.21422 0
M  V30 1653 C 163.581 -4.22646 -1.53918 0
M  V30 1654 C 164.9 -2.99521 -3.22451 0
M  V30 1655 H 162.019 -0.596709 -0.432559 0
M  V30 1656 H 164.661 -1.83748 -0.483398 0
M  V30 1657 H 162.811 -2.67237 -2.81987 0
M  V30 1658 H 164.483 -4.51045 -0.967256 0
M  V30 1659 H 162.726 -4.25558 -0.841615 0
M  V30 1660 H 163.397 -5.02609 -2.28229 0
M  V30 1661 H 165.873 -3.14944 -2.71937 0
M  V30 1662 H 164.749 -3.85072 -3.91166 0
M  V30 1663 H 165.01 -2.11391 -3.88287 0
M  V30 1664 N 164.069 0.697108 -1.41344 0
M  V30 1665 C 165.001 1.8224 -1.39001 0
M  V30 1666 C 166.014 1.60152 -0.292428 0
M  V30 1667 O 167.203 1.69684 -0.554048 0
M  V30 1668 C 164.303 3.18976 -1.14489 0
M  V30 1669 C 163.476 3.68105 -2.36258 0
M  V30 1670 C 162.535 4.83506 -2.07625 0
M  V30 1671 O 161.561 4.95201 -2.8065 0
M  V30 1672 N 162.763 5.70637 -1.06555 0
M  V30 1673 H 165.528 1.84742 -2.35988 0
M  V30 1674 H 163.089 0.87937 -1.35936 0
M  V30 1675 H 165.081 3.93801 -0.932885 0
M  V30 1676 H 163.651 3.11508 -0.261043 0
M  V30 1677 H 162.871 2.84204 -2.7317 0
M  V30 1678 H 164.159 3.97667 -3.17393 0
M  V30 1679 H 163.557 5.63817 -0.461125 0
M  V30 1680 H 162.114 6.45368 -0.913444 0
M  V30 1681 N 165.547 1.27147 0.931209 0
M  V30 1682 C 166.795 1.13055 1.6752 0
M  V30 1683 C 167.116 -0.324791 1.92276 0
M  V30 1684 O 166.386 -1.22775 1.52654 0
M  V30 1685 H 164.966 0.415391 0.620854 0
M  V30 1686 H 167.628 1.59623 1.11833 0
M  V30 1687 H 166.724 1.65694 2.64485 0
M  V30 1688 N 167.025 -1.13721 1.09112 0
M  V30 1689 C 167.972 -2.19031 0.727591 0
M  V30 1690 C 168.942 -1.63555 -0.289656 0
M  V30 1691 O 170.127 -1.90023 -0.172026 0
M  V30 1692 C 167.267 -3.4477 0.15082 0
M  V30 1693 C 166.38 -4.14365 1.22172 0
M  V30 1694 C 165.515 -5.27709 0.608042 0
M  V30 1695 C 164.554 -5.89147 1.66047 0
M  V30 1696 N 163.691 -6.93929 1.06806 0
M  V30 1697 H 168.531 -2.49475 1.62991 0
M  V30 1698 H 166.068 -1.22499 0.81439 0
M  V30 1699 H 168.026 -4.16714 -0.201358 0
M  V30 1700 H 166.656 -3.14787 -0.714783 0
M  V30 1701 H 165.708 -3.40737 1.69122 0
M  V30 1702 H 167.02 -4.56114 2.01895 0
M  V30 1703 H 166.174 -6.06355 0.204523 0
M  V30 1704 H 164.913 -4.872 -0.220769 0
M  V30 1705 H 163.918 -5.09198 2.07357 0
M  V30 1706 H 165.143 -6.31729 2.49189 0
M  V30 1707 H 163.089 -6.55483 0.260476 0
M  V30 1708 H 163.006 -7.34202 1.8023 0
M  V30 1709 H 164.274 -7.76434 0.690644 0
M  V30 1710 N 168.503 -0.877838 -1.30888 0
M  V30 1711 C 169.451 -0.328662 -2.30266 0
M  V30 1712 C 170.445 0.560496 -1.59859 0
M  V30 1713 O 171.651 0.445722 -1.74394 0
M  V30 1714 H 168.026 -0.0876142 -0.746879 0
M  V30 1715 H 169.997 -1.18061 -2.74051 0
M  V30 1716 C 168.746 0.448071 -3.44801 0
M  V30 1717 H 168.069 -0.226859 -3.99156 0
M  V30 1718 H 169.509 0.797541 -4.16432 0
M  V30 1719 C 167.968 1.64239 -2.94155 0
M  V30 1720 O 168.498 2.74175 -2.93583 0
M  V30 1721 N 166.704 1.47716 -2.50256 0
M  V30 1722 H 166.251 0.582821 -2.5092 0
M  V30 1723 H 166.209 2.27765 -2.16727 0
M  V30 1724 N 169.982 1.44106 -0.638065 0
M  V30 1725 C 170.912 2.33448 0.0494287 0
M  V30 1726 C 171.893 1.48606 0.827672 0
M  V30 1727 O 173.078 1.77308 0.792173 0
M  V30 1728 C 170.208 3.31771 1.02691 0
M  V30 1729 C 169.162 4.26485 0.359823 0
M  V30 1730 C 168.488 5.14729 1.44769 0
M  V30 1731 C 169.788 5.17056 -0.738296 0
M  V30 1732 H 171.482 2.91183 -0.696636 0
M  V30 1733 H 169.028 1.40014 -0.336456 0
M  V30 1734 H 170.981 3.93161 1.51666 0
M  V30 1735 H 169.705 2.7226 1.80395 0
M  V30 1736 H 168.364 3.66437 -0.10934 0
M  V30 1737 H 168.012 4.51566 2.21578 0
M  V30 1738 H 167.712 5.78913 1.00668 0
M  V30 1739 H 169.236 5.78991 1.93911 0
M  V30 1740 H 170.65 5.72342 -0.331354 0
M  V30 1741 H 169.047 5.89879 -1.10286 0
M  V30 1742 H 170.117 4.57652 -1.60258 0
M  V30 1743 N 171.46 0.379036 1.52974 0
M  V30 1744 C 172.709 -0.207612 2.00629 0
M  V30 1745 C 173.022 -1.48758 1.27006 0
M  V30 1746 O 174.228 -2.15365 1.65318 0
M  V30 1747 C 172.684 -0.42053 3.57435 0
M  V30 1748 C 172.292 0.845587 4.39948 0
M  V30 1749 C 174.036 -0.964102 4.13407 0
M  V30 1750 C 171.943 0.601513 5.88333 0
M  V30 1751 H 170.873 -0.0813591 0.749598 0
M  V30 1752 H 173.524 0.499853 1.76561 0
M  V30 1753 H 171.906 -1.18959 3.7771 0
M  V30 1754 H 173.08 1.61848 4.31442 0
M  V30 1755 H 171.395 1.31336 3.95145 0
M  V30 1756 H 173.992 -1.16225 5.21916 0
M  V30 1757 H 174.335 -1.93019 3.68849 0
M  V30 1758 H 174.868 -0.25487 3.96983 0
M  V30 1759 H 171.607 1.53831 6.37194 0
M  V30 1760 H 171.127 -0.132628 5.99653 0
M  V30 1761 H 172.806 0.232134 6.46583 0
M  V30 1762 N 172.938 -1.57226 0.108567 0
M  V30 1763 C 173.848 -2.18292 -0.859401 0
M  V30 1764 C 174.864 -1.15612 -1.30038 0
M  V30 1765 O 176.04 -1.48039 -1.36552 0
M  V30 1766 C 173.105 -2.762 -2.09558 0
M  V30 1767 C 172.166 -3.93881 -1.70752 0
M  V30 1768 C 171.399 -4.49018 -2.88477 0
M  V30 1769 O 171.622 -4.03068 -4.036 0
M  V30 1770 O 170.556 -5.39852 -2.66164 0
M  V30 1771 H 174.382 -3.01441 -0.369769 0
M  V30 1772 H 171.967 -1.48945 -0.1165 0
M  V30 1773 H 173.849 -3.13156 -2.81978 0
M  V30 1774 H 172.524 -1.96089 -2.57548 0
M  V30 1775 H 171.431 -3.61713 -0.954714 0
M  V30 1776 H 172.764 -4.75396 -1.27513 0
M  V30 1777 N 174.416 0.165178 -1.56732 0
M  V30 1778 C 175.662 0.877389 -1.83503 0
M  V30 1779 C 176.017 1.79602 -0.689996 0
M  V30 1780 O 175.31 1.89023 0.313205 0
M  V30 1781 C 175.504 1.70405 -3.1416 0
M  V30 1782 C 175.333 0.866961 -4.41264 0
M  V30 1783 C 174.103 0.539646 -5.0241 0
M  V30 1784 C 176.301 0.205671 -5.13889 0
M  V30 1785 N 174.283 -0.312946 -6.13102 0
M  V30 1786 C 175.654 -0.507823 -6.17917 0
M  V30 1787 C 177.709 0.124468 -4.97744 0
M  V30 1788 C 176.412 -1.29483 -7.0755 0
M  V30 1789 C 178.438 -0.649222 -5.87826 0
M  V30 1790 C 177.8 -1.35106 -6.91322 0
M  V30 1791 H 173.899 0.299477 -0.722383 0
M  V30 1792 H 176.483 0.143949 -1.94167 0
M  V30 1793 H 174.654 2.40887 -3.04677 0
M  V30 1794 H 176.386 2.35804 -3.28905 0
M  V30 1795 H 173.141 0.871176 -4.65519 0
M  V30 1796 H 173.565 -0.729731 -6.73056 0
M  V30 1797 H 178.207 0.652724 -4.17731 0
M  V30 1798 H 175.925 -1.83441 -7.87004 0
M  V30 1799 H 179.511 -0.713804 -5.77405 0
M  V30 1800 H 178.391 -1.94013 -7.59821 0
M  V30 1801 N 175.894 1.51508 0.433938 0
M  V30 1802 C 176.824 1.76016 1.53429 0
M  V30 1803 C 177.805 0.610112 1.58782 0
M  V30 1804 O 178.99 0.853177 1.74455 0
M  V30 1805 C 176.12 1.88831 2.9148 0
M  V30 1806 C 175.074 3.04288 3.00987 0
M  V30 1807 C 174.4 3.0229 4.4105 0
M  V30 1808 C 175.7 4.44193 2.74754 0
M  V30 1809 H 177.394 2.68152 1.33171 0
M  V30 1810 H 174.94 1.29035 0.639214 0
M  V30 1811 H 176.893 2.04559 3.6842 0
M  V30 1812 H 175.617 0.933455 3.12976 0
M  V30 1813 H 174.276 2.8827 2.26486 0
M  V30 1814 H 173.924 2.04576 4.59519 0
M  V30 1815 H 173.624 3.79822 4.4834 0
M  V30 1816 H 175.148 3.20116 5.1996 0
M  V30 1817 H 176.562 4.60544 3.41426 0
M  V30 1818 H 174.959 5.23457 2.9345 0
M  V30 1819 H 176.029 4.53996 1.70339 0
M  V30 1820 N 177.372 -0.689602 1.41712 0
M  V30 1821 C 178.783 -1.26973 1.36875 0
M  V30 1822 C 179.134 -1.96124 0.054748 0
M  V30 1823 O 178.259 -1.99141 -0.84687 0
M  V30 1824 C 178.854 -2.30912 2.47922 0
M  V30 1825 C 177.413 -2.84486 2.46464 0
M  V30 1826 C 176.56 -1.58603 2.27465 0
M  V30 1827 H 179.511 -0.48396 1.51141 0
M  V30 1828 H 179.532 -3.12331 2.17323 0
M  V30 1829 H 179.044 -1.80554 3.43543 0
M  V30 1830 H 177.145 -3.39005 1.54617 0
M  V30 1831 H 177.258 -3.34511 3.42986 0
M  V30 1832 H 175.622 -1.84632 1.75451 0
M  V30 1833 H 176.405 -1.10233 3.25121 0
M  V30 1834 N 178.85 -1.27639 -0.924453 0
M  V30 1835 C 180.098 -1.13941 -1.66918 0
M  V30 1836 C 180.419 0.314589 -1.92446 0
M  V30 1837 O 179.689 1.21964 -1.53303 0
M  V30 1838 H 178.269 -0.418678 -0.618642 0
M  V30 1839 H 180.931 -1.60213 -1.10985 0
M  V30 1840 H 180.027 -1.67094 -2.63602 0
M  V30 1841 N 180.328 1.1314 -1.09713 0
M  V30 1842 C 181.553 1.88862 -0.857081 0
M  V30 1843 C 181.978 1.78729 0.586304 0
M  V30 1844 O 181.336 1.13692 1.41222 0
M  V30 1845 C 181.384 3.36325 -1.30069 0
M  V30 1846 O 180.488 4.09815 -0.461007 0
M  V30 1847 H 179.829 0.587108 -0.310162 0
M  V30 1848 H 182.359 1.43129 -1.46203 0
M  V30 1849 H 182.369 3.87157 -1.28738 0
M  V30 1850 H 181.044 3.43017 -2.35185 0
M  V30 1851 H 179.621 3.68986 -0.538888 0
M  V30 1852 N 181.806 0.884767 1.30421 0
M  V30 1853 C 183.034 0.518044 2.0031 0
M  V30 1854 C 183.449 -0.893408 1.66324 0
M  V30 1855 O 182.806 -1.5875 0.900262 0
M  V30 1856 C 182.857 0.682997 3.54989 0
M  V30 1857 O 182.578 2.03888 3.87764 0
M  V30 1858 C 184.079 0.31924 4.42149 0
M  V30 1859 H 181.299 0.200265 0.640418 0
M  V30 1860 H 183.843 1.19001 1.6631 0
M  V30 1861 H 181.998 0.0584052 3.87356 0
M  V30 1862 H 182.412 2.05735 4.82466 0
M  V30 1863 H 183.886 0.485555 5.4986 0
M  V30 1864 H 184.363 -0.742717 4.32875 0
M  V30 1865 H 184.969 0.920147 4.15227 0
M  V30 1866 N 183.284 -1.43765 0.645699 0
M  V30 1867 C 184.533 -2.01116 0.153412 0
M  V30 1868 C 184.846 -1.51493 -1.23731 0
M  V30 1869 O 186.052 -2.01067 -1.8244 0
M  V30 1870 C 184.508 -3.59206 0.223473 0
M  V30 1871 C 184.116 -4.17823 1.61642 0
M  V30 1872 C 185.86 -4.23972 -0.211597 0
M  V30 1873 C 183.767 -5.68183 1.64081 0
M  V30 1874 H 182.697 -0.752093 0.0535891 0
M  V30 1875 H 185.348 -1.6482 0.806633 0
M  V30 1876 H 183.73 -3.92867 -0.497118 0
M  V30 1877 H 184.904 -3.95674 2.36176 0
M  V30 1878 H 183.219 -3.65399 1.99681 0
M  V30 1879 H 185.816 -5.34275 -0.213112 0
M  V30 1880 H 186.159 -3.97352 -1.24165 0
M  V30 1881 H 186.692 -3.95166 0.456988 0
M  V30 1882 H 183.431 -5.99559 2.64971 0
M  V30 1883 H 182.951 -5.9241 0.938611 0
M  V30 1884 H 184.63 -6.32085 1.3812 0
M  V30 1885 N 184.763 -0.387143 -1.52771 0
M  V30 1886 C 186.009 0.188506 -2.02525 0
M  V30 1887 C 186.364 1.44649 -1.26864 0
M  V30 1888 O 185.657 1.88189 -0.359945 0
M  V30 1889 C 185.851 0.512209 -3.53711 0
M  V30 1890 C 185.68 -0.712855 -4.44014 0
M  V30 1891 C 184.45 -1.23147 -4.90064 0
M  V30 1892 C 186.648 -1.58453 -4.89282 0
M  V30 1893 N 184.63 -2.41431 -5.64433 0
M  V30 1894 C 186.001 -2.61381 -5.6221 0
M  V30 1895 C 188.056 -1.60488 -4.71326 0
M  V30 1896 C 186.759 -3.66227 -6.19088 0
M  V30 1897 C 188.785 -2.6424 -5.29085 0
M  V30 1898 C 188.147 -3.6589 -6.01917 0
M  V30 1899 H 184.246 0.0311236 -0.78138 0
M  V30 1900 H 186.83 -0.536548 -1.87161 0
M  V30 1901 H 185.001 1.20632 -3.69192 0
M  V30 1902 H 186.733 1.07482 -3.90166 0
M  V30 1903 H 183.488 -0.792795 -4.66917 0
M  V30 1904 H 183.912 -3.01274 -6.0627 0
M  V30 1905 H 188.554 -0.83247 -4.14524 0
M  V30 1906 H 186.272 -4.44337 -6.74974 0
M  V30 1907 H 189.858 -2.66695 -5.17074 0
M  V30 1908 H 188.738 -4.44855 -6.45813 0
M  V30 1909 N 186.241 1.57166 -0.116904 0
M  V30 1910 C 187.204 2.14039 0.819742 0
M  V30 1911 C 188.204 1.07477 1.19605 0
M  V30 1912 O 189.394 1.33263 1.1219 0
M  V30 1913 C 186.526 2.67891 2.10826 0
M  V30 1914 H 187.719 2.98128 0.325511 0
M  V30 1915 H 185.272 1.55739 0.132312 0
M  V30 1916 H 186.007 1.87384 2.64685 0
M  V30 1917 H 185.792 3.45823 1.84793 0
M  V30 1918 H 187.282 3.11809 2.77785 0
M  V30 1919 N 187.719 -0.156864 1.56817 0
M  V30 1920 C 188.967 -0.869404 1.82444 0
M  V30 1921 C 189.288 -1.82147 0.69623 0
M  V30 1922 O 188.558 -1.93847 -0.28287 0
M  V30 1923 H 187.138 -0.324043 0.673056 0
M  V30 1924 H 189.8 -0.153224 1.94297 0
M  V30 1925 H 188.896 -1.43761 2.77019 0
M  V30 1926 N 189.197 -1.51736 -0.425897 0
M  V30 1927 C 190.144 -1.73875 -1.51776 0
M  V30 1928 C 191.114 -0.580702 -1.55618 0
M  V30 1929 O 192.299 -0.81641 -1.72451 0
M  V30 1930 C 189.439 -1.88012 -2.89388 0
M  V30 1931 C 188.552 -3.15606 -2.94986 0
M  V30 1932 C 187.687 -3.20271 -4.23793 0
M  V30 1933 C 186.726 -4.42134 -4.23302 0
M  V30 1934 N 185.863 -4.44284 -5.43651 0
M  V30 1935 H 190.703 -2.67071 -1.32201 0
M  V30 1936 H 188.24 -1.32351 -0.642008 0
M  V30 1937 H 190.198 -1.9419 -3.69251 0
M  V30 1938 H 188.828 -0.98213 -3.07496 0
M  V30 1939 H 187.88 -3.18681 -2.07717 0
M  V30 1940 H 189.192 -4.05486 -2.90486 0
M  V30 1941 H 188.346 -3.25428 -5.12036 0
M  V30 1942 H 187.085 -2.28299 -4.30965 0
M  V30 1943 H 186.09 -4.3714 -3.3345 0
M  V30 1944 H 187.315 -5.35382 -4.17783 0
M  V30 1945 H 185.261 -3.55188 -5.51523 0
M  V30 1946 H 185.178 -5.27988 -5.41078 0
M  V30 1947 H 186.446 -4.53649 -6.33895 0
M  V30 1948 N 190.675 0.682077 -1.42076 0
M  V30 1949 C 192.091 0.994324 -1.24841 0
M  V30 1950 C 192.291 2.0096 -0.147389 0
M  V30 1951 O 191.347 2.47822 0.483782 0
M  V30 1952 C 192.66 1.50607 -2.60265 0
M  V30 1953 C 194.208 1.62421 -2.6756 0
M  V30 1954 C 194.683 2.16994 -4.03333 0
M  V30 1955 N 196.174 2.24337 -4.0525 0
M  V30 1956 C 196.909 2.67621 -5.07116 0
M  V30 1957 N 196.405 3.1041 -6.19368 0
M  V30 1958 N 198.198 2.67305 -4.94474 0
M  V30 1959 H 190.349 0.00973908 -2.12398 0
M  V30 1960 H 192.612 0.0668593 -0.945639 0
M  V30 1961 H 192.318 0.834583 -3.41654 0
M  V30 1962 H 192.192 2.48602 -2.83684 0
M  V30 1963 H 194.579 2.28678 -1.86521 0
M  V30 1964 H 194.66 0.629352 -2.47937 0
M  V30 1965 H 194.304 1.51349 -4.84826 0
M  V30 1966 H 194.234 3.17258 -4.20304 0
M  V30 1967 H 196.725 1.94158 -3.24209 0
M  V30 1968 H 197.038 3.42103 -6.92954 0
M  V30 1969 H 195.383 3.08286 -6.22884 0
M  V30 1970 H 198.574 2.33233 -4.05857 0
M  V30 1971 H 198.747 3.00718 -5.73997 0
M  V30 1972 N 192.153 1.28127 0.917671 0
M  V30 1973 C 193.4 1.15052 1.66641 0
M  V30 1974 C 193.728 -0.301677 1.92146 0
M  V30 1975 O 192.983 -1.23622 1.51711 0
M  V30 1976 C 193.282 1.89018 3.03327 0
M  V30 1977 C 192.948 3.38832 2.97496 0
M  V30 1978 C 191.61 3.79693 2.95613 0
M  V30 1979 C 193.962 4.34378 2.88036 0
M  V30 1980 C 191.29 5.14447 2.82066 0
M  V30 1981 C 193.642 5.69201 2.7603 0
M  V30 1982 C 192.306 6.09343 2.72502 0
M  V30 1983 H 191.576 0.421006 0.609783 0
M  V30 1984 H 194.223 1.58855 1.06945 0
M  V30 1985 H 192.528 1.37752 3.66785 0
M  V30 1986 H 194.225 1.76321 3.60156 0
M  V30 1987 H 190.815 3.06342 2.99754 0
M  V30 1988 H 194.999 4.03775 2.88581 0
M  V30 1989 H 190.255 5.44681 2.77728 0
M  V30 1990 H 194.429 6.42901 2.67678 0
M  V30 1991 H 192.056 7.13712 2.61762 0
M  V30 1992 N 193.631 -1.12557 1.10312 0
M  V30 1993 C 194.861 -1.87592 0.865617 0
M  V30 1994 C 195.269 -1.79851 -0.587389 0
M  V30 1995 O 194.612 -1.16949 -1.41664 0
M  V30 1996 C 194.674 -3.37665 1.23381 0
M  V30 1997 C 194.338 -3.69181 2.69359 0
M  V30 1998 C 195.335 -3.67652 3.67597 0
M  V30 1999 C 193.02 -3.98555 3.05711 0
M  V30 2000 C 195.014 -3.95053 5.00212 0
M  V30 2001 C 192.701 -4.25616 4.38514 0
M  V30 2002 C 193.699 -4.23851 5.35574 0
M  V30 2003 O 193.387 -4.50242 6.65986 0
M  V30 2004 H 193.119 -0.600442 0.310557 0
M  V30 2005 H 195.673 -1.4335 1.47105 0
M  V30 2006 H 193.903 -3.82454 0.571467 0
M  V30 2007 H 195.592 -3.94041 0.973994 0
M  V30 2008 H 196.358 -3.45024 3.40857 0
M  V30 2009 H 192.237 -3.99071 2.30789 0
M  V30 2010 H 195.781 -3.93591 5.75962 0
M  V30 2011 H 191.678 -4.47718 4.64994 0
M  V30 2012 H 192.446 -4.67867 6.71597 0
M  V30 2013 N 195.109 -0.891671 -1.2995 0
M  V30 2014 C 196.041 -0.320695 -2.26945 0
M  V30 2015 C 197.054 0.528497 -1.53983 0
M  V30 2016 O 198.243 0.346959 -1.75096 0
M  V30 2017 C 195.343 0.562066 -3.34207 0
M  V30 2018 C 194.516 -0.259576 -4.36629 0
M  V30 2019 C 193.575 0.554739 -5.23268 0
M  V30 2020 O 192.601 -0.0249311 -5.69195 0
M  V30 2021 N 193.803 1.8625 -5.4981 0
M  V30 2022 H 196.568 -1.15432 -2.76578 0
M  V30 2023 H 194.129 -0.755336 -1.432 0
M  V30 2024 H 196.121 1.11304 -3.89093 0
M  V30 2025 H 194.691 1.29637 -2.84452 0
M  V30 2026 H 193.911 -0.991986 -3.81514 0
M  V30 2027 H 195.199 -0.822564 -5.02107 0
M  V30 2028 H 194.597 2.35628 -5.14292 0
M  V30 2029 H 193.154 2.36078 -6.07545 0
M  V30 2030 N 196.587 1.43421 -0.653314 0
M  V30 2031 C 198.003 1.56341 -0.320886 0
M  V30 2032 C 198.203 1.63696 1.17499 0
M  V30 2033 O 197.259 1.59208 1.95982 0
M  V30 2034 C 198.572 2.82424 -1.03233 0
M  V30 2035 C 200.12 2.96168 -1.01259 0
M  V30 2036 C 200.595 4.25084 -1.70492 0
M  V30 2037 N 202.086 4.31948 -1.67257 0
M  V30 2038 C 202.821 5.30466 -2.17701 0
M  V30 2039 N 202.317 6.35261 -2.76434 0
M  V30 2040 N 204.11 5.2212 -2.082 0
M  V30 2041 H 196.261 1.3689 -1.62403 0
M  V30 2042 H 198.524 0.657455 -0.682977 0
M  V30 2043 H 198.23 2.83053 -2.08744 0
M  V30 2044 H 198.104 3.72653 -0.583948 0
M  V30 2045 H 200.491 2.9508 0.0341235 0
M  V30 2046 H 200.572 2.07229 -1.49966 0
M  V30 2047 H 200.216 4.26932 -2.7512 0
M  V30 2048 H 200.146 5.1292 -1.19251 0
M  V30 2049 H 202.637 3.56838 -1.24398 0
M  V30 2050 H 202.95 7.06754 -3.12601 0
M  V30 2051 H 201.295 6.35884 -2.80495 0
M  V30 2052 H 204.486 4.39166 -1.62021 0
M  V30 2053 H 204.659 5.98739 -2.47822 0
M  V30 2054 N 198.065 0.39524 1.52563 0
M  V30 2055 C 199.015 -0.4541 2.23432 0
M  V30 2056 C 199.999 -1.02482 1.24042 0
M  V30 2057 O 201.191 -0.949938 1.49349 0
M  V30 2058 C 198.32 -1.57769 3.049 0
M  V30 2059 C 197.406 -1.01842 4.1169 0
M  V30 2060 N 197.797 -0.184613 5.05463 0
M  V30 2061 C 196.095 -1.29033 4.26927 0
M  V30 2062 C 196.796 0.125013 5.81566 0
M  V30 2063 N 195.772 -0.480498 5.41472 0
M  V30 2064 H 199.574 0.189413 2.93289 0
M  V30 2065 H 197.088 0.204877 1.61102 0
M  V30 2066 H 199.085 -2.19862 3.54212 0
M  V30 2067 H 197.745 -2.22397 2.36579 0
M  V30 2068 H 198.756 0.178602 5.17592 0
M  V30 2069 H 195.433 -1.93721 3.69836 0
M  V30 2070 H 196.823 0.800962 6.67109 0
M  V30 2071 N 199.544 -1.57102 0.125237 0
M  V30 2072 C 200.821 -1.86953 -0.575142 0
M  V30 2073 C 201.201 -1.02749 -1.84407 0
M  V30 2074 O 200.549 -0.108144 -2.28244 0
M  V30 2075 C 200.759 -3.38198 -0.861583 0
M  V30 2076 C 202.107 -4.06937 -1.21192 0
M  V30 2077 O 203.131 -3.43252 -0.951645 0
M  V30 2078 O 201.99 -5.19364 -1.70068 0
M  V30 2079 H 199.084 -0.774147 -0.290906 0
M  V30 2080 H 201.63 -1.68942 0.160211 0
M  V30 2081 H 200.402 -3.91282 0.0373647 0
M  V30 2082 H 200.025 -3.61661 -1.65188 0
M  V30 2083 N 201.022 0.148545 -1.56898 0
M  V30 2084 C 202.268 0.862694 -1.83536 0
M  V30 2085 C 202.601 1.80889 -0.706604 0
M  V30 2086 O 201.876 1.92328 0.289885 0
M  V30 2087 C 202.159 1.63853 -3.20662 0
M  V30 2088 C 202.012 0.713925 -4.44098 0
M  V30 2089 C 203.331 2.60133 -3.54991 0
M  V30 2090 H 200.45 0.312179 -0.667618 0
M  V30 2091 H 203.092 0.127953 -1.89569 0
M  V30 2092 H 201.242 2.26489 -3.1565 0
M  V30 2093 H 202.914 0.098686 -4.61194 0
M  V30 2094 H 201.157 0.0234019 -4.33794 0
M  V30 2095 H 201.828 1.29278 -5.36648 0
M  V30 2096 H 204.304 2.07616 -3.60603 0
M  V30 2097 H 203.18 3.11468 -4.51972 0
M  V30 2098 H 203.441 3.41417 -2.80868 0
M  V30 2099 N 202.5 1.5196 0.417844 0
M  V30 2100 C 203.45 1.7106 1.5074 0
M  V30 2101 C 204.434 0.564487 1.50673 0
M  V30 2102 O 205.626 0.821206 1.56797 0
M  V30 2103 C 202.755 1.85677 2.88754 0
M  V30 2104 C 201.841 3.06133 2.93502 0
M  V30 2105 N 202.232 4.28987 2.67962 0
M  V30 2106 C 200.53 3.05787 3.24669 0
M  V30 2107 C 201.231 5.10395 2.79055 0
M  V30 2108 N 200.207 4.45455 3.11561 0
M  V30 2109 H 204.009 2.63696 1.29775 0
M  V30 2110 H 201.523 1.49873 0.625436 0
M  V30 2111 H 203.52 1.97475 3.67164 0
M  V30 2112 H 202.18 0.942348 3.10725 0
M  V30 2113 H 203.191 4.57607 2.4252 0
M  V30 2114 H 199.868 2.2405 3.52289 0
M  V30 2115 H 201.258 6.18247 2.63097 0
M  V30 2116 N 203.978 -0.674533 1.42435 0
M  V30 2117 C 204.911 -1.79924 1.40366 0
M  V30 2118 C 205.889 -1.60378 0.267899 0
M  V30 2119 O 207.073 -1.82847 0.458159 0
M  V30 2120 C 204.2 -3.16927 1.19478 0
M  V30 2121 C 203.246 -3.55221 2.36051 0
M  V30 2122 S 204.079 -3.5762 3.98583 0
M  V30 2123 C 205.235 -4.97315 3.80038 0
M  V30 2124 H 205.468 -1.81405 2.35541 0
M  V30 2125 H 203.001 -0.845221 1.29211 0
M  V30 2126 H 204.959 -3.96007 1.08114 0
M  V30 2127 H 203.62 -3.13031 0.258883 0
M  V30 2128 H 202.813 -4.54804 2.17185 0
M  V30 2129 H 202.415 -2.83502 2.43932 0
M  V30 2130 H 204.707 -5.85401 3.41045 0
M  V30 2131 H 205.65 -5.21228 4.79298 0
M  V30 2132 H 206.058 -4.69845 3.12899 0
M  V30 2133 N 205.456 -1.28612 -0.910864 0
M  V30 2134 C 206.705 -1.15311 -1.65488 0
M  V30 2135 C 207.018 0.296999 -1.93332 0
M  V30 2136 O 208.224 0.551168 -2.65847 0
M  V30 2137 C 206.68 -2.01599 -2.98137 0
M  V30 2138 C 206.288 -3.51367 -2.7793 0
M  V30 2139 C 208.032 -1.96993 -3.76024 0
M  V30 2140 C 205.939 -4.29797 -4.06237 0
M  V30 2141 H 204.869 -0.42796 -0.620779 0
M  V30 2142 H 207.52 -1.53166 -1.01057 0
M  V30 2143 H 205.902 -1.56603 -3.63719 0
M  V30 2144 H 207.076 -4.0434 -2.21011 0
M  V30 2145 H 205.391 -3.57529 -2.13452 0
M  V30 2146 H 207.988 -2.52856 -4.71135 0
M  V30 2147 H 208.331 -0.94733 -4.05378 0
M  V30 2148 H 208.864 -2.39973 -3.17266 0
M  V30 2149 H 205.603 -5.32648 -3.82055 0
M  V30 2150 H 205.123 -3.81596 -4.62757 0
M  V30 2151 H 206.802 -4.39869 -4.74473 0
M  V30 2152 N 206.934 1.1197 -1.10907 0
M  V30 2153 C 208.211 1.79959 -0.766432 0
M  V30 2154 C 208.591 1.97466 0.746363 0
M  V30 2155 O 207.939 1.55491 1.67436 0
M  V30 2156 C 208.149 3.14009 -1.52314 0
M  V30 2157 C 209.497 3.89134 -1.69883 0
M  V30 2158 O 210.521 3.2368 -1.48692 0
M  V30 2159 O 209.38 5.06572 -2.05054 0
M  V30 2160 H 206.474 0.779208 -0.277062 0
M  V30 2161 H 209.02 1.18762 -1.21217 0
M  V30 2162 H 207.792 2.96587 -2.55249 0
M  V30 2163 H 207.415 3.82915 -1.07059 0
M  V30 2164 N 208.412 0.89855 1.29475 0
M  V30 2165 C 209.659 0.523882 1.95606 0
M  V30 2166 C 209.987 -0.929608 1.70847 0
M  V30 2167 O 209.242 -1.67401 1.01367 0
M  V30 2168 C 209.541 0.761398 3.49195 0
M  V30 2169 C 209.207 2.19207 3.94029 0
M  V30 2170 C 207.869 2.58326 4.05982 0
M  V30 2171 C 210.221 3.12379 4.17216 0
M  V30 2172 C 207.549 3.898 4.38489 0
M  V30 2173 C 209.901 4.43401 4.51197 0
M  V30 2174 C 208.565 4.82394 4.61359 0
M  V30 2175 H 207.835 0.191702 0.715773 0
M  V30 2176 H 210.482 1.13699 1.54094 0
M  V30 2177 H 208.787 0.0653622 3.91745 0
M  V30 2178 H 210.484 0.450904 3.98457 0
M  V30 2179 H 207.074 1.87846 3.85242 0
M  V30 2180 H 211.258 2.83371 4.07449 0
M  V30 2181 H 206.514 4.19734 4.44559 0
M  V30 2182 H 210.688 5.15623 4.68087 0
M  V30 2183 H 208.315 5.84306 4.86303 0
M  V30 2184 N 209.89 -1.43072 0.660911 0
M  V30 2185 C 211.12 -2.05769 0.185153 0
M  V30 2186 C 211.528 -1.49668 -1.15742 0
M  V30 2187 O 210.871 -0.625649 -1.72717 0
M  V30 2188 C 210.933 -3.59489 0.0278237 0
M  V30 2189 C 210.597 -4.38212 1.2969 0
M  V30 2190 C 211.594 -4.69772 2.22734 0
M  V30 2191 C 209.279 -4.7809 1.54063 0
M  V30 2192 C 211.273 -5.40129 3.38437 0
M  V30 2193 C 208.96 -5.4819 2.70058 0
M  V30 2194 C 209.958 -5.79132 3.62071 0
M  V30 2195 O 209.646 -6.47798 4.76039 0
M  V30 2196 H 209.378 -0.669873 0.0908086 0
M  V30 2197 H 211.932 -1.84436 0.90402 0
M  V30 2198 H 210.162 -3.79426 -0.746489 0
M  V30 2199 H 211.851 -4.03862 -0.406275 0
M  V30 2200 H 212.617 -4.39476 2.05149 0
M  V30 2201 H 208.496 -4.53408 0.833215 0
M  V30 2202 H 212.04 -5.64198 4.10277 0
M  V30 2203 H 207.937 -5.77902 2.87574 0
M  V30 2204 H 208.705 -6.66283 4.75404 0
M  V30 2205 N 211.368 -0.403325 -1.52352 0
M  V30 2206 C 212.598 0.17376 -2.05868 0
M  V30 2207 C 213.006 1.39898 -1.27378 0
M  V30 2208 O 212.349 1.80939 -0.31729 0
M  V30 2209 C 212.411 0.594756 -3.54546 0
M  V30 2210 C 212.075 -0.518926 -4.54044 0
M  V30 2211 C 213.072 -1.3807 -5.01231 0
M  V30 2212 C 210.757 -0.689961 -4.97539 0
M  V30 2213 C 212.751 -2.39852 -5.90551 0
M  V30 2214 C 210.438 -1.71109 -5.86656 0
M  V30 2215 C 211.436 -2.56378 -6.33056 0
M  V30 2216 O 211.124 -3.56743 -7.20409 0
M  V30 2217 H 210.856 0.0264951 -0.675481 0
M  V30 2218 H 213.41 -0.571179 -1.97299 0
M  V30 2219 H 211.64 1.39189 -3.60782 0
M  V30 2220 H 213.329 1.0991 -3.90736 0
M  V30 2221 H 214.095 -1.25994 -4.68349 0
M  V30 2222 H 209.974 -0.035939 -4.60986 0
M  V30 2223 H 213.518 -3.06441 -6.26689 0
M  V30 2224 H 209.415 -1.83218 -6.18952 0
M  V30 2225 H 210.183 -3.52918 -7.38506 0
M  V30 2226 N 212.846 1.57033 -0.133567 0
M  V30 2227 C 214.092 1.96764 0.515326 0
M  V30 2228 C 214.447 1.01653 1.63353 0
M  V30 2229 O 213.74 0.0491374 1.91537 0
M  V30 2230 C 213.934 3.40674 1.08057 0
M  V30 2231 C 213.763 4.49696 0.0186522 0
M  V30 2232 C 212.533 5.03567 -0.418174 0
M  V30 2233 C 214.731 5.08536 -0.767809 0
M  V30 2234 N 212.713 5.9618 -1.46434 0
M  V30 2235 C 214.084 5.97231 -1.6648 0
M  V30 2236 C 216.139 4.9115 -0.817087 0
M  V30 2237 C 214.842 6.70401 -2.60681 0
M  V30 2238 C 216.868 5.65012 -1.74687 0
M  V30 2239 C 216.23 6.53403 -2.63141 0
M  V30 2240 H 212.329 0.765919 0.157771 0
M  V30 2241 H 214.913 1.93395 -0.22506 0
M  V30 2242 H 213.084 3.44662 1.79061 0
M  V30 2243 H 214.816 3.67495 1.69497 0
M  V30 2244 H 211.571 4.73594 -0.0229803 0
M  V30 2245 H 211.995 6.47191 -1.98678 0
M  V30 2246 H 216.637 4.22543 -0.147326 0
M  V30 2247 H 214.355 7.38245 -3.28664 0
M  V30 2248 H 217.941 5.53559 -1.79063 0
M  V30 2249 H 216.821 7.09556 -3.33917 0
M  V30 2250 N 214.325 -0.140222 1.56975 0
M  V30 2251 C 215.602 -0.880769 1.74648 0
M  V30 2252 C 215.982 -1.99036 0.703404 0
M  V30 2253 O 215.33 -2.26821 -0.27648 0
M  V30 2254 C 215.54 -1.417 3.18939 0
M  V30 2255 C 216.888 -1.87774 3.80823 0
M  V30 2256 O 217.912 -1.51427 3.2241 0
M  V30 2257 O 216.771 -2.54827 4.83452 0
M  V30 2258 H 213.865 -0.416713 0.714338 0
M  V30 2259 H 216.411 -0.125618 1.69234 0
M  V30 2260 H 215.183 -0.619902 3.86359 0
M  V30 2261 H 214.806 -2.23546 3.28805 0
M  V30 2262 N 215.803 -1.52179 -0.40978 0
M  V30 2263 C 217.052 -1.65434 -1.15388 0
M  V30 2264 C 217.365 -0.390056 -1.91671 0
M  V30 2265 O 218.571 -0.402399 -2.68501 0
M  V30 2266 C 217.027 -2.92279 -2.10003 0
M  V30 2267 C 216.635 -4.25813 -1.39239 0
M  V30 2268 C 218.379 -3.14897 -2.84675 0
M  V30 2269 C 216.286 -5.43782 -2.32498 0
M  V30 2270 H 215.216 -0.616267 -0.434432 0
M  V30 2271 H 217.867 -1.78666 -0.418401 0
M  V30 2272 H 216.249 -2.72744 -2.871 0
M  V30 2273 H 217.423 -4.55828 -0.675099 0
M  V30 2274 H 215.738 -4.09292 -0.766097 0
M  V30 2275 H 218.335 -4.0021 -3.54593 0
M  V30 2276 H 218.678 -2.29103 -3.47588 0
M  V30 2277 H 219.211 -3.34901 -2.14677 0
M  V30 2278 H 215.95 -6.3192 -1.74233 0
M  V30 2279 H 215.47 -5.18106 -3.02201 0
M  V30 2280 H 217.149 -5.76834 -2.93038 0
M  V30 2281 N 217.281 0.66697 -1.42791 0
M  V30 2282 C 218.506 1.46004 -1.47301 0
M  V30 2283 C 218.931 1.87894 -0.0880317 0
M  V30 2284 O 218.289 1.56502 0.915253 0
M  V30 2285 C 218.337 2.68031 -2.41229 0
M  V30 2286 O 217.441 3.6659 -1.88906 0
M  V30 2287 H 216.782 0.43832 -0.49877 0
M  V30 2288 H 219.312 0.817391 -1.87563 0
M  V30 2289 H 219.322 3.1601 -2.58073 0
M  V30 2290 H 217.997 2.36883 -3.41847 0
M  V30 2291 H 216.574 3.25661 -1.81656 0
M  V30 2292 N 218.759 1.29093 0.90403 0
M  V30 2293 C 220.007 1.16583 1.65085 0
M  V30 2294 C 220.328 -0.283933 1.92922 0
M  V30 2295 O 219.598 -1.19509 1.55224 0
M  V30 2296 H 218.178 0.428467 0.611903 0
M  V30 2297 H 220.84 1.61959 1.08422 0
M  V30 2298 H 219.936 1.71266 2.6091 0
M  V30 2299 N 220.237 -1.11381 1.11499 0
M  V30 2300 C 221.648 -1.6465 0.880191 0
M  V30 2301 C 221.999 -1.87199 -0.587434 0
M  V30 2302 O 221.124 -1.60667 -1.44966 0
M  V30 2303 C 221.719 -2.99105 1.59128 0
M  V30 2304 C 220.278 -3.49279 1.40289 0
M  V30 2305 C 219.425 -2.24077 1.63354 0
M  V30 2306 H 222.376 -0.950123 1.27116 0
M  V30 2307 H 222.397 -3.66107 1.03664 0
M  V30 2308 H 221.909 -2.82661 2.65941 0
M  V30 2309 H 220.01 -3.70887 0.356888 0
M  V30 2310 H 220.123 -4.2803 2.15238 0
M  V30 2311 H 218.487 -2.31733 1.05698 0
M  V30 2312 H 219.27 -2.10175 2.71443 0
M  V30 2313 N 221.715 -0.905404 -1.28997 0
M  V30 2314 C 222.963 -0.533192 -1.9494 0
M  V30 2315 C 223.284 0.924618 -1.71685 0
M  V30 2316 O 222.554 1.65268 -1.05183 0
M  V30 2317 H 221.134 -0.194194 -0.721317 0
M  V30 2318 H 223.796 -1.15294 -1.57141 0
M  V30 2319 H 222.892 -0.72059 -3.03667 0
M  V30 2320 N 223.193 1.4272 -0.668489 0
M  V30 2321 C 224.156 2.292 0.00448567 0
M  V30 2322 C 225.156 1.43001 0.735339 0
M  V30 2323 O 226.346 1.64461 0.57429 0
M  V30 2324 C 223.478 3.25375 1.01705 0
M  V30 2325 H 224.671 2.90199 -0.756608 0
M  V30 2326 H 222.224 1.50254 -0.430506 0
M  V30 2327 H 222.959 2.69301 1.80686 0
M  V30 2328 H 222.744 3.88944 0.496463 0
M  V30 2329 H 224.234 3.90245 1.48655 0
M  V30 2330 N 224.671 0.411399 1.52136 0
M  V30 2331 C 225.919 -0.163322 2.01439 0
M  V30 2332 C 226.24 -1.45453 1.29879 0
M  V30 2333 O 225.51 -1.91225 0.4254 0
M  V30 2334 H 224.09 -0.0633447 0.744309 0
M  V30 2335 H 226.752 0.548161 1.87033 0
M  V30 2336 H 225.848 -0.357817 3.10042 0
M  V30 2337 N 226.149 -1.5696 0.141893 0
M  V30 2338 C 227.398 -1.95135 -0.510427 0
M  V30 2339 C 227.711 -1.02896 -1.66348 0
M  V30 2340 O 228.917 -1.30629 -2.38009 0
M  V30 2341 C 227.373 -3.46876 -0.959427 0
M  V30 2342 C 226.981 -4.47691 0.166419 0
M  V30 2343 C 228.725 -3.93927 -1.58183 0
M  V30 2344 C 226.632 -5.90636 -0.300565 0
M  V30 2345 H 225.562 -0.728494 -0.194454 0
M  V30 2346 H 228.213 -1.8211 0.22542 0
M  V30 2347 H 226.595 -3.55215 -1.75038 0
M  V30 2348 H 227.769 -4.51043 0.94325 0
M  V30 2349 H 226.084 -4.10527 0.696905 0
M  V30 2350 H 228.681 -4.98158 -1.94275 0
M  V30 2351 H 229.024 -3.3519 -2.46888 0
M  V30 2352 H 229.557 -3.88484 -0.855863 0
M  V30 2353 H 226.296 -6.5318 0.550989 0
M  V30 2354 H 225.816 -5.90655 -1.04338 0
M  V30 2355 H 227.495 -6.42588 -0.754265 0
M  V30 2356 N 227.627 0.131896 -1.57047 0
M  V30 2357 C 228.537 1.1815 -2.02676 0
M  V30 2358 C 229.553 1.46113 -0.944824 0
M  V30 2359 O 230.729 1.57485 -1.25541 0
M  V30 2360 C 227.794 2.49139 -2.41103 0
M  V30 2361 C 226.855 2.28688 -3.63318 0
M  V30 2362 C 226.088 3.53431 -3.99903 0
M  V30 2363 O 226.311 4.60223 -3.36973 0
M  V30 2364 O 225.245 3.45198 -4.93074 0
M  V30 2365 H 229.071 0.824069 -2.92306 0
M  V30 2366 H 226.656 0.341745 -1.45439 0
M  V30 2367 H 228.538 3.26338 -2.66611 0
M  V30 2368 H 227.213 2.84382 -1.54624 0
M  V30 2369 H 226.12 1.4939 -3.42977 0
M  V30 2370 H 227.453 1.98355 -4.50462 0
M  V30 2371 N 229.106 1.52395 0.401703 0
M  V30 2372 C 230.054 1.7689 1.51039 0
M  V30 2373 C 231.048 0.636298 1.56996 0
M  V30 2374 O 232.254 0.818507 1.60314 0
M  V30 2375 H 228.629 0.559502 0.502456 0
M  V30 2376 H 230.6 2.69757 1.27568 0
M  V30 2377 C 229.349 1.94331 2.88324 0
M  V30 2378 H 228.672 2.80905 2.84486 0
M  V30 2379 H 230.112 2.15466 3.65172 0
M  V30 2380 C 228.571 0.712396 3.29282 0
M  V30 2381 O 229.101 -0.116218 4.01532 0
M  V30 2382 N 227.307 0.546154 2.85422 0
M  V30 2383 H 226.854 1.22156 2.26794 0
M  V30 2384 H 226.812 -0.276113 3.13185 0
M  V30 2385 N 230.584 -0.659388 1.43143 0
M  V30 2386 C 231.833 -1.41518 1.43721 0
M  V30 2387 C 232.146 -1.95499 0.0628176 0
M  V30 2388 O 233.352 -2.71446 -0.0539683 0
M  V30 2389 C 231.808 -2.5608 2.52885 0
M  V30 2390 C 231.416 -2.08733 3.96402 0
M  V30 2391 C 233.16 -3.3349 2.62649 0
M  V30 2392 C 231.067 -3.20469 4.97045 0
M  V30 2393 H 229.997 -0.531705 0.534608 0
M  V30 2394 H 232.648 -0.712343 1.69109 0
M  V30 2395 H 231.03 -3.28805 2.20688 0
M  V30 2396 H 232.204 -1.43059 4.3803 0
M  V30 2397 H 230.519 -1.44219 3.90627 0
M  V30 2398 H 233.116 -4.16734 3.35017 0
M  V30 2399 H 233.459 -3.8111 1.67513 0
M  V30 2400 H 233.992 -2.67842 2.94118 0
M  V30 2401 H 230.731 -2.77824 5.93712 0
M  V30 2402 H 230.251 -3.84874 4.60034 0
M  V30 2403 H 231.93 -3.85698 5.19467 0
M  V30 2404 N 232.062 -1.29571 -0.897171 0
M  V30 2405 C 233.339 -1.08365 -1.62839 0
M  V30 2406 C 233.719 0.371331 -2.07808 0
M  V30 2407 O 233.067 1.3606 -1.83576 0
M  V30 2408 C 233.277 -2.0735 -2.80726 0
M  V30 2409 C 234.625 -2.38406 -3.51351 0
M  V30 2410 O 235.649 -2.05564 -2.90898 0
M  V30 2411 O 234.508 -2.9453 -4.60341 0
M  V30 2412 H 231.602 -0.415345 -0.715134 0
M  V30 2413 H 234.148 -1.40952 -0.945018 0
M  V30 2414 H 232.92 -3.05339 -2.44711 0
M  V30 2415 H 232.543 -1.75507 -3.56767 0
M  V30 2416 N 233.54 1.10788 -1.12088 0
M  V30 2417 C 234.47 2.19083 -0.807755 0
M  V30 2418 C 235.451 1.6858 0.226859 0
M  V30 2419 O 236.636 1.93997 0.0888475 0
M  V30 2420 C 233.766 3.46344 -0.257576 0
M  V30 2421 C 232.72 4.101 -1.22483 0
M  V30 2422 C 232.046 5.32016 -0.535052 0
M  V30 2423 C 233.346 4.54236 -2.57811 0
M  V30 2424 H 235.04 2.45534 -1.71328 0
M  V30 2425 H 232.586 1.1801 -0.825205 0
M  V30 2426 H 234.539 4.21392 -0.0262679 0
M  V30 2427 H 233.263 3.19373 0.683278 0
M  V30 2428 H 231.922 3.37054 -1.44189 0
M  V30 2429 H 231.57 5.01319 0.410827 0
M  V30 2430 H 231.27 5.75625 -1.18024 0
M  V30 2431 H 232.794 6.09799 -0.312695 0
M  V30 2432 H 234.208 5.20575 -2.40155 0
M  V30 2433 H 232.605 5.08682 -3.18375 0
M  V30 2434 H 233.675 3.6734 -3.16528 0
M  V30 2435 N 235.018 0.912232 1.28515 0
M  V30 2436 C 236.266 0.543523 1.94654 0
M  V30 2437 C 236.587 -0.9155 1.72173 0
M  V30 2438 O 235.857 -1.64708 1.06058 0
M  V30 2439 H 234.437 0.198017 0.720277 0
M  V30 2440 H 237.099 1.16126 1.56527 0
M  V30 2441 H 236.195 0.736684 3.03281 0
M  V30 2442 N 236.496 -1.42363 0.676048 0
M  V30 2443 C 237.743 -2.01522 0.19883 0
M  V30 2444 C 238.071 -1.53456 -1.19505 0
M  V30 2445 O 237.326 -0.727967 -1.81657 0
M  V30 2446 C 237.625 -3.56929 0.183431 0
M  V30 2447 C 237.291 -4.24431 1.52215 0
M  V30 2448 C 235.953 -4.42585 1.8887 0
M  V30 2449 C 238.305 -4.62459 2.40377 0
M  V30 2450 C 235.633 -4.96039 3.13309 0
M  V30 2451 C 237.985 -5.17294 3.64129 0
M  V30 2452 C 236.649 -5.33661 4.00951 0
M  V30 2453 H 235.919 -0.737419 0.0727571 0
M  V30 2454 H 238.566 -1.70531 0.871281 0
M  V30 2455 H 236.871 -3.87594 -0.572532 0
M  V30 2456 H 238.568 -4.00486 -0.203035 0
M  V30 2457 H 235.158 -4.10661 1.22701 0
M  V30 2458 H 239.342 -4.48105 2.13343 0
M  V30 2459 H 234.598 -5.06896 3.41857 0
M  V30 2460 H 238.772 -5.45704 4.32644 0
M  V30 2461 H 236.399 -5.74845 4.9745 0
M  V30 2462 N 237.974 -0.419461 -1.51915 0
M  V30 2463 C 239.222 0.152637 -2.01523 0
M  V30 2464 C 239.543 1.44762 -1.30649 0
M  V30 2465 O 238.813 1.90997 -0.435535 0
M  V30 2466 H 237.393 0.0593966 -0.744635 0
M  V30 2467 H 240.055 -0.558073 -1.86739 0
M  V30 2468 H 239.151 0.341369 -3.10227 0
M  V30 2469 N 239.452 1.56882 -0.150215 0
M  V30 2470 C 240.399 2.16922 0.788244 0
M  V30 2471 C 241.369 1.10303 1.24187 0
M  V30 2472 O 242.554 1.38359 1.31383 0
M  V30 2473 C 239.694 2.79754 2.02068 0
M  V30 2474 C 238.807 4.00775 1.61257 0
M  V30 2475 C 237.942 4.51595 2.79705 0
M  V30 2476 C 236.981 5.65074 2.35282 0
M  V30 2477 N 236.118 6.10499 3.4675 0
M  V30 2478 H 240.958 2.96779 0.269444 0
M  V30 2479 H 238.495 1.46599 0.12128 0
M  V30 2480 H 240.453 3.14329 2.74323 0
M  V30 2481 H 239.083 2.02536 2.51354 0
M  V30 2482 H 238.135 3.72158 0.787553 0
M  V30 2483 H 239.447 4.82978 1.24633 0
M  V30 2484 H 238.601 4.88242 3.60145 0
M  V30 2485 H 237.34 3.68406 3.19576 0
M  V30 2486 H 236.345 5.28 1.53283 0
M  V30 2487 H 237.57 6.50052 1.96493 0
M  V30 2488 H 235.516 5.30243 3.86236 0
M  V30 2489 H 235.433 6.87637 3.14152 0
M  V30 2490 H 236.701 6.51791 4.27537 0
M  V30 2491 N 240.93 -0.123565 1.57115 0
M  V30 2492 C 241.86 -1.15309 2.03042 0
M  V30 2493 C 242.841 -1.43454 0.914061 0
M  V30 2494 O 244.026 -1.53973 1.18347 0
M  V30 2495 C 241.156 -2.48043 2.43089 0
M  V30 2496 C 240.11 -2.3437 3.58127 0
M  V30 2497 C 239.436 -3.72026 3.84059 0
M  V30 2498 C 240.736 -1.80804 4.90007 0
M  V30 2499 H 242.43 -0.771102 2.893 0
M  V30 2500 H 239.976 -0.369479 1.39179 0
M  V30 2501 H 241.929 -3.20311 2.73823 0
M  V30 2502 H 240.653 -2.88122 1.53796 0
M  V30 2503 H 239.312 -1.64551 3.27595 0
M  V30 2504 H 238.96 -4.09582 2.91979 0
M  V30 2505 H 238.66 -3.63732 4.6149 0
M  V30 2506 H 240.184 -4.45806 4.1724 0
M  V30 2507 H 241.598 -2.42886 5.19307 0
M  V30 2508 H 239.995 -1.83343 5.71407 0
M  V30 2509 H 241.065 -0.76528 4.78823 0
M  V30 2510 N 242.408 -1.52605 -0.393616 0
M  V30 2511 C 243.633 -1.71592 -1.16495 0
M  V30 2512 C 244.058 -0.43133 -1.83088 0
M  V30 2513 O 243.416 0.612523 -1.7064 0
M  V30 2514 C 243.464 -2.86318 -2.19213 0
M  V30 2515 O 242.568 -2.52969 -3.257 0
M  V30 2516 H 241.909 -0.570734 -0.33935 0
M  V30 2517 H 244.439 -1.99377 -0.459324 0
M  V30 2518 H 244.449 -3.1168 -2.63286 0
M  V30 2519 H 243.124 -3.79511 -1.7013 0
M  V30 2520 H 241.701 -2.38332 -2.86797 0
M  V30 2521 N 243.887 0.651787 -1.4349 0
M  V30 2522 C 244.817 1.77621 -1.51569 0
M  V30 2523 C 245.798 1.66022 -0.370253 0
M  V30 2524 O 246.983 1.85095 -0.587658 0
M  V30 2525 C 244.113 3.16056 -1.43966 0
M  V30 2526 C 243.067 3.4242 -2.56774 0
M  V30 2527 C 242.393 4.8067 -2.34223 0
M  V30 2528 C 243.693 3.37023 -3.99015 0
M  V30 2529 H 245.387 1.71117 -2.45681 0
M  V30 2530 H 242.933 0.821825 -1.18246 0
M  V30 2531 H 244.886 3.94472 -1.48221 0
M  V30 2532 H 243.61 3.23293 -0.463586 0
M  V30 2533 H 242.269 2.66375 -2.51873 0
M  V30 2534 H 241.917 4.84585 -1.34856 0
M  V30 2535 H 241.617 4.9927 -3.09844 0
M  V30 2536 H 243.141 5.61342 -2.40265 0
M  V30 2537 H 244.555 4.05374 -4.05395 0
M  V30 2538 H 242.952 3.67159 -4.74673 0
M  V30 2539 H 244.022 2.3518 -4.2405 0
M  V30 2540 N 245.365 1.30045 0.890287 0
M  V30 2541 C 246.328 1.15963 1.977 0
M  V30 2542 C 247.328 0.0923777 1.60534 0
M  V30 2543 O 248.518 0.340071 1.70848 0
M  V30 2544 C 245.65 0.775451 3.31963 0
M  V30 2545 H 246.843 2.12502 2.11619 0
M  V30 2546 H 244.396 1.13366 1.07601 0
M  V30 2547 H 245.131 -0.189671 3.23745 0
M  V30 2548 H 244.916 1.54668 3.60306 0
M  V30 2549 H 246.406 0.700251 4.11687 0
M  V30 2550 N 246.843 -1.10192 1.12674 0
M  V30 2551 C 247.806 -2.14786 0.799979 0
M  V30 2552 C 248.806 -1.59711 -0.18685 0
M  V30 2553 O 249.996 -1.74156 0.0392558 0
M  V30 2554 C 247.128 -3.40374 0.189228 0
M  V30 2555 H 248.321 -2.45203 1.72671 0
M  V30 2556 H 245.874 -1.25597 0.930326 0
M  V30 2557 H 246.609 -3.15577 -0.747107 0
M  V30 2558 H 246.394 -3.81637 0.899766 0
M  V30 2559 H 247.884 -4.17594 -0.0228143 0
M  V30 2560 N 248.321 -0.919034 -1.28029 0
M  V30 2561 C 249.549 -0.570971 -1.98866 0
M  V30 2562 C 249.964 0.848996 -1.68634 0
M  V30 2563 O 249.321 1.56307 -0.942036 0
M  V30 2564 C 249.372 -0.776876 -3.53054 0
M  V30 2565 O 249.093 -2.14097 -3.82222 0
M  V30 2566 C 250.594 -0.436356 -4.41147 0
M  V30 2567 H 247.814 -0.217175 -0.634883 0
M  V30 2568 H 250.358 -1.23368 -1.63097 0
M  V30 2569 H 248.513 -0.161085 -3.87065 0
M  V30 2570 H 248.927 -2.18455 -4.76841 0
M  V30 2571 H 250.401 -0.63117 -5.4838 0
M  V30 2572 H 250.878 0.627686 -4.34692 0
M  V30 2573 H 251.484 -1.02991 -4.12641 0
M  V30 2574 N 249.799 1.42003 -0.683588 0
M  V30 2575 C 251.215 1.55625 -0.353976 0
M  V30 2576 C 251.415 1.66151 1.14 0
M  V30 2577 O 250.471 1.63329 1.92561 0
M  V30 2578 C 251.784 2.80171 -1.092 0
M  V30 2579 C 253.332 2.93954 -1.07518 0
M  V30 2580 C 253.807 4.21372 -1.79471 0
M  V30 2581 N 255.298 4.28303 -1.76381 0
M  V30 2582 C 256.033 5.25729 -2.28904 0
M  V30 2583 N 255.529 6.29254 -2.89846 0
M  V30 2584 N 257.322 5.17586 -2.19228 0
M  V30 2585 H 249.473 1.33415 -1.6527 0
M  V30 2586 H 251.736 0.64282 -0.696769 0
M  V30 2587 H 251.442 2.78561 -2.14701 0
M  V30 2588 H 251.316 3.7133 -0.662862 0
M  V30 2589 H 253.703 2.95086 -0.028475 0
M  V30 2590 H 253.784 2.04002 -1.54328 0
M  V30 2591 H 253.428 4.21001 -2.84114 0
M  V30 2592 H 253.358 5.10275 -1.30104 0
M  V30 2593 H 255.849 3.54119 -1.31939 0
M  V30 2594 H 256.162 6.99964 -3.27522 0
M  V30 2595 H 254.507 6.29791 -2.93919 0
M  V30 2596 H 257.698 4.35631 -1.71299 0
M  V30 2597 H 257.871 5.93348 -2.60466 0
M  V30 2598 N 251.277 0.427512 1.51691 0
M  V30 2599 C 252.502 -0.143601 2.06902 0
M  V30 2600 C 252.927 -1.36536 1.29382 0
M  V30 2601 O 252.285 -1.78289 0.329043 0
M  V30 2602 C 252.333 -0.454207 3.57728 0
M  V30 2603 O 251.437 -1.54228 3.82475 0
M  V30 2604 H 250.778 -0.00617128 0.663971 0
M  V30 2605 H 253.308 0.606014 1.95419 0
M  V30 2606 H 253.318 -0.707525 4.01818 0
M  V30 2607 H 251.993 0.438812 4.13579 0
M  V30 2608 H 250.57 -1.2797 3.50254 0
M  V30 2609 N 252.755 -1.56801 0.158532 0
M  V30 2610 C 253.983 -2.00859 -0.496303 0
M  V30 2611 C 254.398 -1.03871 -1.57659 0
M  V30 2612 O 253.755 -0.0375165 -1.82461 0
M  V30 2613 C 253.806 -3.4479 -1.08638 0
M  V30 2614 O 253.527 -4.38072 -0.0492322 0
M  V30 2615 C 255.028 -4.04185 -1.8207 0
M  V30 2616 H 252.248 -0.65864 -0.128199 0
M  V30 2617 H 254.792 -2.02885 0.256506 0
M  V30 2618 H 252.947 -3.43579 -1.78975 0
M  V30 2619 H 253.361 -5.2227 -0.483102 0
M  V30 2620 H 254.835 -5.06857 -2.18633 0
M  V30 2621 H 255.312 -3.45549 -2.71095 0
M  V30 2622 H 255.918 -4.0906 -1.16405 0
M  V30 2623 N 254.233 0.115231 -1.57178 0
M  V30 2624 C 255.143 1.15994 -2.03918 0
M  V30 2625 C 256.159 1.45103 -0.960268 0
M  V30 2626 O 257.335 1.56144 -1.27204 0
M  V30 2627 C 254.4 2.46568 -2.43732 0
M  V30 2628 C 253.461 2.24822 -3.65723 0
M  V30 2629 C 252.694 3.4917 -4.03629 0
M  V30 2630 O 252.917 4.56623 -3.41835 0
M  V30 2631 O 251.851 3.39949 -4.96708 0
M  V30 2632 H 255.677 0.793019 -2.93164 0
M  V30 2633 H 253.262 0.3263 -1.45793 0
M  V30 2634 H 255.144 3.23492 -2.70057 0
M  V30 2635 H 253.819 2.82726 -1.57631 0
M  V30 2636 H 252.726 1.45744 -3.44542 0
M  V30 2637 H 254.059 1.93566 -4.52541 0
M  V30 2638 N 255.711 1.52812 0.385517 0
M  V30 2639 C 256.674 1.77188 1.45386 0
M  V30 2640 C 257.674 0.641953 1.4743 0
M  V30 2641 O 258.864 0.910033 1.4854 0
M  V30 2642 C 255.996 1.87582 2.8465 0
M  V30 2643 H 257.189 2.72583 1.25054 0
M  V30 2644 H 254.742 1.43586 0.617467 0
M  V30 2645 H 255.477 0.941849 3.10322 0
M  V30 2646 H 255.262 2.69748 2.84567 0
M  V30 2647 H 256.752 2.08102 3.62054 0
M  V30 2648 N 257.189 -0.644168 1.43834 0
M  V30 2649 C 258.437 -1.40117 1.45642 0
M  V30 2650 C 258.758 -1.94814 0.0852413 0
M  V30 2651 O 258.028 -1.74988 -0.880688 0
M  V30 2652 H 256.608 -0.52005 0.536243 0
M  V30 2653 H 259.27 -0.7591 1.7951 0
M  V30 2654 H 258.366 -2.23902 2.17427 0
M  V30 2655 N 258.668 -1.30515 -0.883378 0
M  V30 2656 C 259.916 -1.19194 -1.63209 0
M  V30 2657 C 260.237 0.253205 -1.93349 0
M  V30 2658 O 259.507 1.17025 -1.57105 0
M  V30 2659 H 258.087 -0.438148 -0.605009 0
M  V30 2660 H 260.749 -1.63663 -1.05832 0
M  V30 2661 H 259.845 -1.75396 -2.58153 0
M  V30 2662 N 260.146 1.09593 -1.13257 0
M  V30 2663 C 261.371 1.8604 -0.916732 0
M  V30 2664 C 261.796 1.80504 0.529146 0
M  V30 2665 O 261.154 1.18127 1.37534 0
M  V30 2666 C 261.202 3.32017 -1.40703 0
M  V30 2667 O 260.306 4.08141 -0.591153 0
M  V30 2668 H 259.647 0.576943 -0.328683 0
M  V30 2669 H 262.177 1.38405 -1.50682 0
M  V30 2670 H 262.187 3.82865 -1.4099 0
M  V30 2671 H 260.862 3.35361 -2.45979 0
M  V30 2672 H 259.439 3.67084 -0.656005 0
M  V30 2673 N 261.624 0.925811 1.2754 0
M  V30 2674 C 262.854 0.580666 1.98272 0
M  V30 2675 C 263.262 -0.845207 1.69272 0
M  V30 2676 O 262.605 -1.57306 0.948707 0
M  V30 2677 C 262.667 0.724418 3.52126 0
M  V30 2678 C 262.331 2.12206 4.04744 0
M  V30 2679 C 263.328 3.09604 4.17662 0
M  V30 2680 C 261.013 2.4385 4.39138 0
M  V30 2681 C 263.007 4.36755 4.64246 0
M  V30 2682 C 260.694 3.71237 4.85414 0
M  V30 2683 C 261.692 4.67503 4.97926 0
M  V30 2684 O 261.38 5.92624 5.43187 0
M  V30 2685 H 261.112 0.218987 0.639547 0
M  V30 2686 H 263.666 1.24452 1.63404 0
M  V30 2687 H 261.896 0.0034663 3.867 0
M  V30 2688 H 263.585 0.384607 4.04074 0
M  V30 2689 H 264.351 2.86478 3.91351 0
M  V30 2690 H 260.23 1.69665 4.28643 0
M  V30 2691 H 263.774 5.11898 4.73927 0
M  V30 2692 H 259.671 3.94182 5.11166 0
M  V30 2693 H 260.439 5.95585 5.61445 0
M  V30 2694 N 263.102 -1.41638 0.69111 0
M  V30 2695 C 264.33 -2.05628 0.22909 0
M  V30 2696 C 264.745 -1.51992 -1.11999 0
M  V30 2697 O 264.102 -0.666322 -1.69901 0
M  V30 2698 C 264.153 -3.61084 0.173283 0
M  V30 2699 O 263.874 -4.12735 1.46907 0
M  V30 2700 C 265.375 -4.42213 -0.310266 0
M  V30 2701 H 262.595 -0.662327 0.107534 0
M  V30 2702 H 265.139 -1.81489 0.942438 0
M  V30 2703 H 263.294 -3.84278 -0.490858 0
M  V30 2704 H 263.708 -5.06743 1.35322 0
M  V30 2705 H 265.182 -5.51194 -0.298196 0
M  V30 2706 H 265.659 -4.1799 -1.34838 0
M  V30 2707 H 266.265 -4.24074 0.322716 0
M  V30 2708 N 264.58 -0.43555 -1.51462 0
M  V30 2709 C 265.827 0.131514 -2.02072 0
M  V30 2710 C 266.155 1.42868 -1.31981 0
M  V30 2711 O 265.41 1.91076 -0.422883 0
M  V30 2712 C 265.709 0.39942 -3.55161 0
M  V30 2713 C 265.375 -0.81172 -4.43533 0
M  V30 2714 C 264.037 -1.14387 -4.67407 0
M  V30 2715 C 266.389 -1.61976 -4.95392 0
M  V30 2716 C 263.717 -2.28477 -5.40384 0
M  V30 2717 C 266.069 -2.75164 -5.6962 0
M  V30 2718 C 264.733 -3.08835 -5.91758 0
M  V30 2719 H 264.003 0.0481244 -0.739436 0
M  V30 2720 H 266.65 -0.58238 -1.8243 0
M  V30 2721 H 264.955 1.19519 -3.73125 0
M  V30 2722 H 266.652 0.85157 -3.91854 0
M  V30 2723 H 263.242 -0.542898 -4.25148 0
M  V30 2724 H 267.426 -1.37637 -4.76833 0
M  V30 2725 H 262.682 -2.5488 -5.55739 0
M  V30 2726 H 266.856 -3.38147 -6.08793 0
M  V30 2727 H 264.483 -3.97353 -6.48086 0
M  V30 2728 N 266.058 1.56714 -0.166846 0
M  V30 2729 C 267.283 2.01557 0.488833 0
M  V30 2730 C 267.708 1.0463 1.56314 0
M  V30 2731 O 267.066 0.0251304 1.81283 0
M  V30 2732 C 267.114 3.4503 1.04818 0
M  V30 2733 O 266.218 3.51163 2.16236 0
M  V30 2734 H 265.559 0.653516 0.117526 0
M  V30 2735 H 268.089 2.02818 -0.269421 0
M  V30 2736 H 268.099 3.84243 1.37191 0
M  V30 2737 H 266.774 4.15077 0.261572 0
M  V30 2738 H 265.351 3.23807 1.84942 0
M  V30 2739 N 267.536 -0.106894 1.57237 0
M  V30 2740 C 268.761 -0.830287 1.90055 0
M  V30 2741 C 269.186 -1.72064 0.75998 0
M  V30 2742 O 268.544 -1.78982 -0.288991 0
M  V30 2743 C 268.592 -1.6295 3.21683 0
M  V30 2744 O 267.696 -2.73748 3.08441 0
M  V30 2745 H 267.037 -0.228855 0.623315 0
M  V30 2746 H 269.567 -0.085658 2.04421 0
M  V30 2747 H 269.577 -2.01621 3.54701 0
M  V30 2748 H 268.252 -0.975989 4.04286 0
M  V30 2749 H 266.829 -2.38192 2.86913 0
M  V30 2750 N 269.014 -1.53014 -0.377408 0
M  V30 2751 C 269.946 -1.74884 -1.48149 0
M  V30 2752 C 270.959 -0.629433 -1.5014 0
M  V30 2753 O 272.148 -0.905416 -1.53833 0
M  V30 2754 C 269.248 -1.80299 -2.86959 0
M  V30 2755 C 268.421 -3.09776 -3.08801 0
M  V30 2756 C 267.48 -3.06586 -4.27658 0
M  V30 2757 O 266.506 -3.80419 -4.23403 0
M  V30 2758 N 267.708 -2.26578 -5.34455 0
M  V30 2759 H 270.473 -2.70147 -1.29771 0
M  V30 2760 H 268.034 -1.51646 -0.56703 0
M  V30 2761 H 270.026 -1.75657 -3.64591 0
M  V30 2762 H 268.596 -0.92372 -2.98641 0
M  V30 2763 H 267.816 -3.27815 -2.18931 0
M  V30 2764 H 269.104 -3.95366 -3.20255 0
M  V30 2765 H 268.502 -1.66081 -5.40771 0
M  V30 2766 H 267.059 -2.27766 -6.10709 0
M  V30 2767 N 270.492 0.636531 -1.44174 0
M  V30 2768 C 271.44 1.76995 -1.50915 0
M  V30 2769 C 272.434 1.65053 -0.381295 0
M  V30 2770 O 273.64 1.71197 -0.55601 0
M  V30 2771 H 270.015 0.584247 -0.473455 0
M  V30 2772 H 271.986 1.68432 -2.4632 0
M  V30 2773 C 270.735 3.15314 -1.46534 0
M  V30 2774 H 270.058 3.25149 -2.32633 0
M  V30 2775 H 271.498 3.9453 -1.55312 0
M  V30 2776 C 269.957 3.3639 -0.185305 0
M  V30 2777 O 270.487 3.94699 0.746688 0
M  V30 2778 N 268.693 2.9046 -0.0901606 0
M  V30 2779 H 268.24 2.43193 -0.849416 0
M  V30 2780 H 268.198 3.04937 0.765553 0
M  V30 2781 N 271.97 1.30982 0.876444 0
M  V30 2782 C 273.219 1.19658 1.62373 0
M  V30 2783 C 273.532 -0.245636 1.94052 0
M  V30 2784 O 274.738 -0.48049 2.67214 0
M  V30 2785 C 273.194 2.09433 2.92687 0
M  V30 2786 C 272.802 3.58613 2.68516 0
M  V30 2787 C 274.546 2.06893 3.70669 0
M  V30 2788 C 272.453 4.40416 3.94699 0
M  V30 2789 H 271.383 0.444268 0.609214 0
M  V30 2790 H 274.034 1.55791 0.969605 0
M  V30 2791 H 272.416 1.66191 3.59439 0
M  V30 2792 H 273.59 4.10058 2.10212 0
M  V30 2793 H 271.905 3.63063 2.03898 0
M  V30 2794 H 274.502 2.65258 4.64265 0
M  V30 2795 H 274.845 1.05448 4.02724 0
M  V30 2796 H 275.378 2.48301 3.10792 0
M  V30 2797 H 272.117 5.42591 3.67798 0
M  V30 2798 H 271.637 3.93731 4.52477 0
M  V30 2799 H 273.316 4.52294 4.62644 0
M  V30 2800 N 273.449 -1.08991 1.13837 0
M  V30 2801 C 274.679 -1.84743 0.924859 0
M  V30 2802 C 275.087 -1.81629 -0.529874 0
M  V30 2803 O 274.43 -1.21397 -1.37872 0
M  V30 2804 C 274.492 -3.33568 1.34061 0
M  V30 2805 C 274.156 -3.60425 2.80968 0
M  V30 2806 C 275.153 -3.55771 3.79108 0
M  V30 2807 C 272.838 -3.88627 3.18236 0
M  V30 2808 C 274.832 -3.78939 5.12527 0
M  V30 2809 C 272.519 -4.11449 4.51833 0
M  V30 2810 C 273.517 -4.06598 5.48787 0
M  V30 2811 O 273.205 -4.28826 6.79973 0
M  V30 2812 H 272.937 -0.590258 0.329502 0
M  V30 2813 H 275.491 -1.38598 1.51591 0
M  V30 2814 H 273.721 -3.80442 0.692853 0
M  V30 2815 H 275.41 -3.90743 1.09886 0
M  V30 2816 H 276.176 -3.34005 3.51661 0
M  V30 2817 H 272.055 -3.91526 2.43369 0
M  V30 2818 H 275.599 -3.75068 5.88192 0
M  V30 2819 H 271.496 -4.32698 4.79002 0
M  V30 2820 H 272.264 -4.46264 6.86142 0
M  V30 2821 N 274.927 -0.932562 -1.27047 0
M  V30 2822 C 276.204 -0.49377 -1.89265 0
M  V30 2823 C 276.584 1.02833 -1.8436 0
M  V30 2824 O 275.932 1.88461 -1.29209 0
M  V30 2825 C 276.142 -1.04536 -3.32976 0
M  V30 2826 C 277.49 -1.10879 -4.09867 0
M  V30 2827 O 278.514 -0.995327 -3.42011 0
M  V30 2828 O 277.373 -1.28417 -5.31198 0
M  V30 2829 H 274.467 -0.159596 -0.811454 0
M  V30 2830 H 277.013 -1.02457 -1.3528 0
M  V30 2831 H 275.785 -2.08913 -3.30864 0
M  V30 2832 H 275.408 -0.496494 -3.94488 0
M  V30 2833 N 276.405 1.4127 -0.698611 0
M  V30 2834 C 277.315 2.34573 -0.0357891 0
M  V30 2835 C 278.331 1.56393 0.762701 0
M  V30 2836 O 279.507 1.8886 0.699564 0
M  V30 2837 C 276.572 3.35159 0.887089 0
M  V30 2838 C 275.633 4.29225 0.0804634 0
M  V30 2839 C 274.866 5.25006 0.959387 0
M  V30 2840 O 275.089 5.26314 2.19886 0
M  V30 2841 O 274.023 6.00519 0.407439 0
M  V30 2842 H 277.849 2.92838 -0.804957 0
M  V30 2843 H 275.434 1.42175 -0.458966 0
M  V30 2844 H 277.316 3.9689 1.41621 0
M  V30 2845 H 275.991 2.79333 1.6357 0
M  V30 2846 H 274.898 3.70833 -0.493328 0
M  V30 2847 H 276.231 4.88157 -0.629547 0
M  V30 2848 N 277.883 0.443576 1.51229 0
M  V30 2849 C 279.129 -0.120975 2.02439 0
M  V30 2850 C 279.462 -1.41815 1.32674 0
M  V30 2851 O 278.737 -1.89373 0.443622 0
M  V30 2852 C 279.02 -0.333291 3.58554 0
M  V30 2853 C 278.873 0.982968 4.38928 0
M  V30 2854 C 280.192 -1.10028 4.26124 0
M  V30 2855 H 277.311 -0.0424923 0.735774 0
M  V30 2856 H 279.953 0.583794 1.80809 0
M  V30 2857 H 278.103 -0.933614 3.77115 0
M  V30 2858 H 279.775 1.61775 4.32003 0
M  V30 2859 H 278.018 1.58611 4.03763 0
M  V30 2860 H 278.689 0.788379 5.46341 0
M  V30 2861 H 281.165 -0.591711 4.11871 0
M  V30 2862 H 280.041 -1.21761 5.35225 0
M  V30 2863 H 280.302 -2.12996 3.87408 0
M  V30 2864 N 279.361 -1.56624 0.175154 0
M  V30 2865 C 280.308 -2.18149 -0.753634 0
M  V30 2866 C 281.278 -1.12265 -1.22417 0
M  V30 2867 O 282.463 -1.40432 -1.29165 0
M  V30 2868 C 279.603 -2.82933 -1.97592 0
M  V30 2869 C 278.716 -4.03289 -1.5486 0
M  V30 2870 C 277.851 -4.55988 -2.72485 0
M  V30 2871 C 276.89 -5.68746 -2.26262 0
M  V30 2872 N 276.027 -6.15938 -3.36994 0
M  V30 2873 H 280.867 -2.9717 -0.222195 0
M  V30 2874 H 278.404 -1.46774 -0.0979422 0
M  V30 2875 H 280.362 -3.18653 -2.69288 0
M  V30 2876 H 278.992 -2.06509 -2.481 0
M  V30 2877 H 278.044 -3.73364 -0.728246 0
M  V30 2878 H 279.356 -4.849 -1.16933 0
M  V30 2879 H 278.51 -4.9391 -3.52332 0
M  V30 2880 H 277.249 -3.73443 -3.13674 0
M  V30 2881 H 276.254 -5.30372 -1.44863 0
M  V30 2882 H 277.479 -6.53095 -1.86127 0
M  V30 2883 H 275.425 -5.36321 -3.77751 0
M  V30 2884 H 275.342 -6.92548 -3.03172 0
M  V30 2885 H 276.61 -6.58511 -4.17114 0
M  V30 2886 N 280.839 0.0985539 -1.57292 0
M  V30 2887 C 282.116 0.834155 -1.76921 0
M  V30 2888 C 282.496 1.97101 -0.755928 0
M  V30 2889 O 281.844 2.27474 0.216245 0
M  V30 2890 C 282.054 1.33194 -3.22584 0
M  V30 2891 C 283.402 1.77611 -3.85668 0
M  V30 2892 O 284.426 1.42825 -3.26312 0
M  V30 2893 O 283.285 2.4192 -4.90038 0
M  V30 2894 H 280.379 0.397628 -0.725135 0
M  V30 2895 H 282.925 0.0807044 -1.69508 0
M  V30 2896 H 281.697 0.517248 -3.87866 0
M  V30 2897 H 281.32 2.1475 -3.34616 0
M  V30 2898 N 282.317 1.53212 0.369288 0
M  V30 2899 C 283.545 1.73119 1.13303 0
M  V30 2900 C 283.96 0.458455 1.83149 0
M  V30 2901 O 283.317 -0.568403 1.73423 0
M  V30 2902 C 283.368 2.89413 2.16616 0
M  V30 2903 O 283.089 4.11761 1.49614 0
M  V30 2904 C 284.59 3.21161 3.05566 0
M  V30 2905 H 281.81 0.579107 0.338934 0
M  V30 2906 H 284.354 1.99942 0.429338 0
M  V30 2907 H 282.509 2.64994 2.82589 0
M  V30 2908 H 282.923 4.76858 2.18419 0
M  V30 2909 H 284.397 4.05949 3.74045 0
M  V30 2910 H 284.874 2.36369 3.70171 0
M  V30 2911 H 285.48 3.47492 2.45213 0
M  V30 2912 N 283.795 -0.628877 1.44509 0
M  V30 2913 C 284.758 -1.72263 1.51188 0
M  V30 2914 C 285.758 -1.55907 0.39367 0
M  V30 2915 O 286.948 -1.61361 0.656377 0
M  V30 2916 C 284.08 -3.11365 1.38798 0
M  V30 2917 H 285.273 -1.67714 2.4862 0
M  V30 2918 H 282.826 -0.842737 1.31634 0
M  V30 2919 H 283.561 -3.21507 0.424693 0
M  V30 2920 H 283.346 -3.24644 2.19884 0
M  V30 2921 H 284.836 -3.91075 1.46458 0
M  V30 2922 N 285.273 -1.31445 -0.869486 0
M  V30 2923 C 286.221 -1.19067 -1.99814 0
M  V30 2924 C 287.215 -0.0988569 -1.69111 0
M  V30 2925 O 288.421 -0.260781 -1.78101 0
M  V30 2926 H 284.796 -0.368677 -0.655425 0
M  V30 2927 H 286.767 -2.14555 -2.07385 0
M  V30 2928 C 285.516 -0.915323 -3.35436 0
M  V30 2929 H 284.839 -1.74759 -3.59582 0
M  V30 2930 H 286.279 -0.868895 -4.15001 0
M  V30 2931 C 284.738 0.381928 -3.34728 0
M  V30 2932 O 285.268 1.39857 -3.76567 0
M  V30 2933 N 283.474 0.398633 -2.87853 0
M  V30 2934 H 283.021 -0.429186 -2.54 0
M  V30 2935 H 282.979 1.26651 -2.87762 0
M  V30 2936 N 286.751 1.08385 -1.14413 0
M  V30 2937 C 288.028 1.77429 -0.823297 0
M  V30 2938 C 288.408 1.9974 0.683163 0
M  V30 2939 O 287.756 1.60739 1.62405 0
M  V30 2940 C 287.966 3.09004 -1.62227 0
M  V30 2941 C 289.314 3.83532 -1.82177 0
M  V30 2942 O 290.338 3.18786 -1.58915 0
M  V30 2943 O 289.197 4.99792 -2.21067 0
M  V30 2944 H 286.291 0.769999 -0.301712 0
M  V30 2945 H 288.837 1.14846 -1.24934 0
M  V30 2946 H 287.609 2.88316 -2.64555 0
M  V30 2947 H 287.232 3.79316 -1.19187 0
M  V30 2948 N 288.23 0.939286 1.26551 0
M  V30 2949 C 289.476 0.586715 1.94128 0
M  V30 2950 C 289.809 -0.8717 1.73537 0
M  V30 2951 O 289.084 -1.62339 1.07127 0
M  V30 2952 C 289.367 0.927497 3.4795 0
M  V30 2953 C 289.22 2.44052 3.77834 0
M  V30 2954 C 290.539 0.441569 4.37879 0
M  V30 2955 H 287.658 0.21463 0.705055 0
M  V30 2956 H 290.3 1.17316 1.49455 0
M  V30 2957 H 288.45 0.428431 3.8613 0
M  V30 2958 H 290.122 3.01216 3.4938 0
M  V30 2959 H 288.365 2.8848 3.23978 0
M  V30 2960 H 289.036 2.62947 4.85348 0
M  V30 2961 H 291.512 0.869448 4.06915 0
M  V30 2962 H 290.388 0.708856 5.44304 0
M  V30 2963 H 290.649 -0.658467 4.37169 0
M  V30 2964 N 289.708 -1.40897 0.706093 0
M  V30 2965 C 290.955 -2.01054 0.241531 0
M  V30 2966 C 291.283 -1.55956 -1.16223 0
M  V30 2967 O 290.538 -0.766336 -1.80072 0
M  V30 2968 C 290.837 -3.5646 0.259099 0
M  V30 2969 C 290.503 -4.21106 1.61184 0
M  V30 2970 C 289.165 -4.38479 1.98216 0
M  V30 2971 C 291.517 -4.57256 2.50132 0
M  V30 2972 C 288.845 -4.89282 3.2376 0
M  V30 2973 C 291.197 -5.09454 3.7502 0
M  V30 2974 C 289.861 -5.25037 4.12181 0
M  V30 2975 H 289.131 -0.73571 0.0883825 0
M  V30 2976 H 291.778 -1.68645 0.907257 0
M  V30 2977 H 290.083 -3.88721 -0.490189 0
M  V30 2978 H 291.78 -4.00826 -0.11804 0
M  V30 2979 H 288.37 -4.07966 1.31384 0
M  V30 2980 H 292.554 -4.43479 2.228 0
M  V30 2981 H 287.81 -4.99531 3.52532 0
M  V30 2982 H 291.984 -5.36404 4.44121 0
M  V30 2983 H 289.611 -5.64164 5.09532 0
M  V30 2984 N 291.186 -0.45159 -1.50991 0
M  V30 2985 C 292.463 0.170707 -1.94854 0
M  V30 2986 C 292.843 1.58788 -1.39103 0
M  V30 2987 O 292.191 2.20913 -0.583921 0
M  V30 2988 C 292.401 0.133929 -3.48743 0
M  V30 2989 C 293.749 0.33248 -4.23296 0
M  V30 2990 O 294.773 0.211403 -3.55572 0
M  V30 2991 O 293.632 0.57486 -5.43468 0
M  V30 2992 H 290.726 0.122264 -0.817912 0
M  V30 2993 H 293.272 -0.510594 -1.61836 0
M  V30 2994 H 292.044 -0.856283 -3.81816 0
M  V30 2995 H 291.667 0.857529 -3.88242 0
M  V30 2996 N 292.664 1.56529 -0.183458 0
M  V30 2997 C 293.91 1.97537 0.459036 0
M  V30 2998 C 294.243 1.06989 1.62071 0
M  V30 2999 O 293.518 0.11948 1.94133 0
M  V30 3000 C 293.801 3.47874 0.930368 0
M  V30 3001 C 293.654 4.492 -0.232317 0
M  V30 3002 C 294.973 4.01612 1.79989 0
M  V30 3003 H 292.092 0.718204 0.165383 0
M  V30 3004 H 294.734 1.88042 -0.272038 0
M  V30 3005 H 292.884 3.56095 1.55333 0
M  V30 3006 H 294.556 4.53027 -0.86972 0
M  V30 3007 H 292.799 4.24657 -0.885928 0
M  V30 3008 H 293.47 5.51823 0.139796 0
M  V30 3009 H 295.946 3.96097 1.27461 0
M  V30 3010 H 294.822 5.07195 2.09867 0
M  V30 3011 H 295.083 3.46163 2.74998 0
M  V30 3012 N 294.142 -0.090211 1.57342 0
M  V30 3013 C 295.558 -0.444547 1.53284 0
M  V30 3014 C 295.758 -1.80238 0.900914 0
M  V30 3015 O 294.814 -2.4759 0.495513 0
M  V30 3016 C 296.127 -0.402543 2.97993 0
M  V30 3017 C 297.675 -0.48405 3.09234 0
M  V30 3018 C 298.15 -0.472144 4.5556 0
M  V30 3019 N 299.641 -0.532757 4.60126 0
M  V30 3020 C 300.376 -0.545462 5.708 0
M  V30 3021 N 299.872 -0.514082 6.9089 0
M  V30 3022 N 301.665 -0.59064 5.58988 0
M  V30 3023 H 293.816 0.799121 1.96794 0
M  V30 3024 H 296.079 0.297965 0.899956 0
M  V30 3025 H 295.785 0.528106 3.47712 0
M  V30 3026 H 295.659 -1.21969 3.56936 0
M  V30 3027 H 298.046 -1.40512 2.595 0
M  V30 3028 H 298.127 0.361328 2.53235 0
M  V30 3029 H 297.771 0.445 5.05947 0
M  V30 3030 H 297.701 -1.3348 5.09402 0
M  V30 3031 H 300.192 -0.562006 3.73698 0
M  V30 3032 H 300.505 -0.527195 7.71 0
M  V30 3033 H 298.85 -0.481054 6.93333 0
M  V30 3034 H 302.041 -0.61272 4.64073 0
M  V30 3035 H 302.214 -0.597073 6.45243 0
M  V30 3036 N 295.62 -1.53406 -0.361157 0
M  V30 3037 C 296.55 -1.83136 -1.44857 0
M  V30 3038 C 297.531 -0.685174 -1.5569 0
M  V30 3039 O 298.716 -0.93544 -1.70186 0
M  V30 3040 C 295.846 -2.02522 -2.82138 0
M  V30 3041 C 294.8 -3.18302 -2.86126 0
M  V30 3042 C 294.126 -3.22989 -4.26125 0
M  V30 3043 C 295.426 -4.56796 -2.53248 0
M  V30 3044 H 297.12 -2.74201 -1.20226 0
M  V30 3045 H 294.666 -1.31938 -0.576922 0
M  V30 3046 H 296.619 -2.21904 -3.58241 0
M  V30 3047 H 295.343 -1.08172 -3.08166 0
M  V30 3048 H 294.002 -2.98747 -2.12475 0
M  V30 3049 H 293.65 -2.26267 -4.49235 0
M  V30 3050 H 293.35 -4.00781 -4.29708 0
M  V30 3051 H 294.874 -3.44559 -5.04094 0
M  V30 3052 H 296.288 -4.7631 -3.19064 0
M  V30 3053 H 294.685 -5.36862 -2.68141 0
M  V30 3054 H 295.755 -4.61606 -1.48484 0
M  V30 3055 N 297.098 0.621204 -1.44841 0
M  V30 3056 C 298.061 1.71459 -1.521 0
M  V30 3057 C 299.061 1.55696 -0.401933 0
M  V30 3058 O 300.251 1.61011 -0.664925 0
M  V30 3059 C 297.383 3.10624 -1.40447 0
M  V30 3060 H 298.576 1.66394 -2.49506 0
M  V30 3061 H 296.129 0.835745 -1.3208 0
M  V30 3062 H 296.864 3.21277 -0.441737 0
M  V30 3063 H 296.649 3.23473 -2.21602 0
M  V30 3064 H 298.139 3.90293 -1.4853 0
M  V30 3065 N 298.576 1.31904 0.862503 0
M  V30 3066 C 299.824 1.21776 1.61292 0
M  V30 3067 C 300.145 -0.222413 1.93727 0
M  V30 3068 O 299.415 -1.1451 1.58947 0
M  V30 3069 H 297.995 0.447717 0.597962 0
M  V30 3070 H 300.657 1.65326 1.03215 0
M  V30 3071 H 299.753 1.7948 2.5533 0
M  V30 3072 N 300.054 -1.07777 1.14986 0
M  V30 3073 C 300.984 -2.16865 0.865557 0
M  V30 3074 C 301.965 -1.69123 -0.182083 0
M  V30 3075 O 303.15 -1.94164 -0.0373815 0
M  V30 3076 C 300.28 -3.45539 0.349313 0
M  V30 3077 C 299.234 -4.06708 1.33313 0
M  V30 3078 C 298.56 -5.30411 0.675918 0
M  V30 3079 C 299.86 -4.47241 2.69764 0
M  V30 3080 H 301.554 -2.40905 1.77778 0
M  V30 3081 H 299.1 -1.15781 0.856203 0
M  V30 3082 H 301.053 -4.21174 0.137983 0
M  V30 3083 H 299.777 -3.21072 -0.598362 0
M  V30 3084 H 298.436 -3.33112 1.53075 0
M  V30 3085 H 298.084 -5.02232 -0.277767 0
M  V30 3086 H 297.784 -5.72293 1.33244 0
M  V30 3087 H 299.308 -6.08755 0.474262 0
M  V30 3088 H 300.722 -5.14025 2.53873 0
M  V30 3089 H 299.119 -5.00062 3.3175 0
M  V30 3090 H 300.189 -3.58818 3.26156 0
M  V30 3091 N 301.532 -0.945985 -1.26051 0
M  V30 3092 C 302.464 -0.416662 -2.25381 0
M  V30 3093 C 303.477 0.462712 -1.56086 0
M  V30 3094 O 304.666 0.272383 -1.7641 0
M  V30 3095 C 301.766 0.419812 -3.3629 0
M  V30 3096 C 300.939 -0.444531 -4.35135 0
M  V30 3097 C 299.998 0.332305 -5.2515 0
M  V30 3098 O 299.024 -0.266324 -5.68577 0
M  V30 3099 N 300.226 1.62763 -5.57215 0
M  V30 3100 H 302.991 -1.27059 -2.71433 0
M  V30 3101 H 300.552 -0.815392 -1.39868 0
M  V30 3102 H 302.544 0.947013 -3.93464 0
M  V30 3103 H 301.114 1.17456 -2.89694 0
M  V30 3104 H 300.334 -1.15291 -3.76964 0
M  V30 3105 H 301.622 -1.03478 -4.98166 0
M  V30 3106 H 301.02 2.13603 -5.23823 0
M  V30 3107 H 299.577 2.10097 -6.17011 0
M  V30 3108 N 303.011 1.40521 -0.713556 0
M  V30 3109 C 304.239 2.05237 -0.261775 0
M  V30 3110 C 304.654 1.53755 1.09567 0
M  V30 3111 O 304.011 0.693268 1.6882 0
M  V30 3112 C 304.062 3.60763 -0.230706 0
M  V30 3113 O 303.783 4.10345 -1.53455 0
M  V30 3114 C 305.284 4.42651 0.239874 0
M  V30 3115 H 302.504 0.660533 -0.118057 0
M  V30 3116 H 305.048 1.79967 -0.971192 0
M  V30 3117 H 303.203 3.8501 0.429661 0
M  V30 3118 H 303.617 5.04526 -1.43366 0
M  V30 3119 H 305.091 5.51599 0.210468 0
M  V30 3120 H 305.568 4.20082 1.28171 0
M  V30 3121 H 306.174 4.23507 -0.390142 0
M  V30 3122 N 304.489 0.459591 1.5075 0
M  V30 3123 C 305.437 -0.354678 2.2988 0
M  V30 3124 C 306.431 -1.00086 1.36672 0
M  V30 3125 O 307.637 -0.933277 1.53915 0
M  V30 3126 H 304.012 -0.13321 0.740107 0
M  V30 3127 H 305.983 0.333269 2.96533 0
M  V30 3128 C 304.732 -1.43073 3.169 0
M  V30 3129 H 304.055 -0.942882 3.88523 0
M  V30 3130 H 305.495 -1.97328 3.75284 0
M  V30 3131 C 303.954 -2.42633 2.33732 0
M  V30 3132 O 304.484 -3.47658 2.01238 0
M  V30 3133 N 302.69 -2.14066 1.9653 0
M  V30 3134 H 302.237 -1.28685 2.23155 0
M  V30 3135 H 302.195 -2.80917 1.41185 0
M  V30 3136 N 305.967 -1.56429 0.191757 0
M  V30 3137 C 307.378 -1.83912 -0.321428 0
M  V30 3138 C 307.729 -1.11231 -1.61623 0
M  V30 3139 O 306.854 -0.37202 -2.13178 0
M  V30 3140 C 307.449 -3.33624 -0.589961 0
M  V30 3141 C 306.008 -3.6153 -1.04753 0
M  V30 3142 C 305.155 -2.7714 -0.0943327 0
M  V30 3143 H 308.106 -1.53161 0.415612 0
M  V30 3144 H 308.127 -3.52213 -1.43966 0
M  V30 3145 H 307.639 -3.86495 0.352588 0
M  V30 3146 H 305.74 -3.14089 -2.00447 0
M  V30 3147 H 305.853 -4.69737 -0.942549 0
M  V30 3148 H 304.217 -2.47638 -0.595589 0
M  V30 3149 H 305 -3.32799 0.842601 0
M  V30 3150 N 307.445 0.0818655 -1.57387 0
M  V30 3151 C 308.722 0.815343 -1.77796 0
M  V30 3152 C 309.102 1.96289 -0.77679 0
M  V30 3153 O 308.45 2.27691 0.192106 0
M  V30 3154 C 308.66 1.29765 -3.23978 0
M  V30 3155 C 310.008 1.7351 -3.8753 0
M  V30 3156 O 311.032 1.39356 -3.27808 0
M  V30 3157 O 309.891 2.36708 -4.92576 0
M  V30 3158 H 306.985 0.389914 -0.729312 0
M  V30 3159 H 309.531 0.0627213 -1.69584 0
M  V30 3160 H 308.303 0.47608 -3.88393 0
M  V30 3161 H 307.926 2.11189 -3.36875 0
M  V30 3162 N 308.923 1.53595 0.353017 0
M  V30 3163 C 310.171 1.70049 1.09215 0
M  V30 3164 C 310.492 0.461406 1.89463 0
M  V30 3165 O 309.762 -0.524633 1.88744 0
M  V30 3166 H 308.342 0.626912 0.40619 0
M  V30 3167 H 311.004 1.90822 0.396585 0
M  V30 3168 H 310.1 2.56718 1.77488 0
M  V30 3169 N 310.401 -0.613514 1.45168 0
M  V30 3170 C 311.647 -1.37471 1.49096 0
M  V30 3171 C 311.98 -1.93765 0.129901 0
M  V30 3172 O 311.255 -1.74707 -0.854858 0
M  V30 3173 C 311.538 -2.52701 2.56542 0
M  V30 3174 C 311.391 -2.01643 4.0207 0
M  V30 3175 C 312.71 -3.54849 2.60327 0
M  V30 3176 H 309.829 -0.498502 0.54283 0
M  V30 3177 H 312.471 -0.692125 1.76945 0
M  V30 3178 H 310.621 -3.10931 2.32926 0
M  V30 3179 H 312.293 -1.48108 4.36877 0
M  V30 3180 H 310.536 -1.32688 4.13009 0
M  V30 3181 H 311.207 -2.84681 4.72928 0
M  V30 3182 H 313.683 -3.0645 2.81474 0
M  V30 3183 H 312.559 -4.32973 3.37381 0
M  V30 3184 H 312.82 -4.10079 1.6519 0
M  V30 3185 N 311.879 -1.3236 -0.855495 0
M  V30 3186 C 312.809 -1.23833 -1.97958 0
M  V30 3187 C 313.79 -0.122361 -1.69659 0
M  V30 3188 O 314.975 -0.30939 -1.9172 0
M  V30 3189 C 312.105 -0.959772 -3.33775 0
M  V30 3190 C 311.059 -2.03689 -3.76424 0
M  V30 3191 C 310.385 -1.61075 -5.09862 0
M  V30 3192 C 311.685 -3.4518 -3.9198 0
M  V30 3193 H 313.379 -2.1788 -2.0535 0
M  V30 3194 H 310.925 -1.04891 -0.986605 0
M  V30 3195 H 312.878 -0.886678 -4.11966 0
M  V30 3196 H 311.602 0.0163404 -3.26596 0
M  V30 3197 H 310.261 -2.10012 -3.00484 0
M  V30 3198 H 309.909 -0.622107 -4.99138 0
M  V30 3199 H 309.609 -2.33143 -5.39368 0
M  V30 3200 H 311.133 -1.55201 -5.90546 0
M  V30 3201 H 312.547 -3.4145 -4.60526 0
M  V30 3202 H 310.944 -4.1559 -4.32903 0
M  V30 3203 H 312.014 -3.84903 -2.94919 0
M  V30 3204 N 313.357 1.07166 -1.15556 0
M  V30 3205 C 314.267 2.17947 -0.868116 0
M  V30 3206 C 315.283 1.73297 0.156297 0
M  V30 3207 O 316.459 2.01392 -0.0182327 0
M  V30 3208 C 313.524 3.44789 -0.36355 0
M  V30 3209 C 312.585 4.03996 -1.45209 0
M  V30 3210 C 311.818 5.24783 -0.971508 0
M  V30 3211 O 312.041 5.70109 0.182194 0
M  V30 3212 O 310.975 5.75715 -1.75603 0
M  V30 3213 H 314.801 2.4503 -1.79427 0
M  V30 3214 H 312.386 1.16539 -0.934824 0
M  V30 3215 H 314.268 4.21307 -0.0887113 0
M  V30 3216 H 312.943 3.19253 0.534708 0
M  V30 3217 H 311.85 3.29009 -1.78056 0
M  V30 3218 H 313.183 4.33808 -2.32533 0
M  V30 3219 N 314.835 0.952656 1.25548 0
M  V30 3220 C 315.765 0.489287 2.28316 0
M  V30 3221 C 316.746 -0.463359 1.63667 0
M  V30 3222 O 317.931 -0.36274 1.90782 0
M  V30 3223 C 315.061 -0.235603 3.465 0
M  V30 3224 C 314.015 0.631593 4.23314 0
M  V30 3225 C 313.341 -0.223923 5.34231 0
M  V30 3226 C 314.641 1.90871 4.86174 0
M  V30 3227 H 316.335 1.34822 2.67326 0
M  V30 3228 H 313.881 0.649728 1.28509 0
M  V30 3229 H 315.834 -0.570882 4.17515 0
M  V30 3230 H 314.558 -1.12877 3.06474 0
M  V30 3231 H 313.217 0.949929 3.54079 0
M  V30 3232 H 312.865 -1.11678 4.90446 0
M  V30 3233 H 312.565 0.35299 5.86539 0
M  V30 3234 H 314.089 -0.554214 6.0808 0
M  V30 3235 H 315.503 1.63997 5.49343 0
M  V30 3236 H 313.9 2.43112 5.4865 0
M  V30 3237 H 314.97 2.61304 4.08471 0
M  V30 3238 N 316.313 -1.40141 0.720998 0
M  V30 3239 C 317.561 -2.0039 0.262323 0
M  V30 3240 C 317.882 -1.57469 -1.15015 0
M  V30 3241 O 317.152 -0.816582 -1.78069 0
M  V30 3242 H 315.732 -0.741063 0.093996 0
M  V30 3243 H 318.394 -1.71398 0.927835 0
M  V30 3244 H 317.49 -3.10658 0.299671 0
M  V30 3245 N 317.792 -0.46758 -1.50504 0
M  V30 3246 C 319.038 0.0887532 -2.02606 0
M  V30 3247 C 319.371 1.39686 -1.34913 0
M  V30 3248 O 318.646 1.88644 -0.473694 0
M  V30 3249 C 318.929 0.276206 -3.59039 0
M  V30 3250 C 318.782 -1.05267 -4.37309 0
M  V30 3251 C 320.101 1.03235 -4.27821 0
M  V30 3252 H 317.22 0.0307814 -0.736357 0
M  V30 3253 H 319.862 -0.612485 -1.79857 0
M  V30 3254 H 318.012 0.8735 -3.78553 0
M  V30 3255 H 319.684 -1.68628 -4.29374 0
M  V30 3256 H 317.927 -1.65015 -4.01189 0
M  V30 3257 H 318.598 -0.875197 -5.45018 0
M  V30 3258 H 321.074 0.526111 -4.12761 0
M  V30 3259 H 319.95 1.1323 -5.37094 0
M  V30 3260 H 320.211 2.06806 -3.90748 0
M  V30 3261 N 319.27 1.56325 -0.20005 0
M  V30 3262 C 320.547 1.89484 0.48529 0
M  V30 3263 C 320.927 1.1143 1.79294 0
M  V30 3264 O 320.275 0.216919 2.27468 0
M  V30 3265 C 320.485 3.41923 0.699243 0
M  V30 3266 C 321.833 4.12256 1.01638 0
M  V30 3267 O 322.857 3.47402 0.786792 0
M  V30 3268 O 321.716 5.26887 1.45095 0
M  V30 3269 H 318.81 0.787144 0.253639 0
M  V30 3270 H 321.356 1.67985 -0.240633 0
M  V30 3271 H 320.128 3.90658 -0.224008 0
M  V30 3272 H 319.751 3.69131 1.47744 0
M  V30 3273 N 320.748 -0.0735177 1.57428 0
M  V30 3274 C 321.978 -0.78483 1.91112 0
M  V30 3275 C 322.386 -1.71729 0.7941 0
M  V30 3276 O 321.729 -1.82105 -0.241542 0
M  V30 3277 C 321.791 -1.63346 3.20247 0
M  V30 3278 C 321.455 -0.870557 4.48632 0
M  V30 3279 C 322.452 -0.19058 5.19551 0
M  V30 3280 C 320.137 -0.838242 4.95256 0
M  V30 3281 C 322.131 0.511503 6.35344 0
M  V30 3282 C 319.818 -0.132386 6.10957 0
M  V30 3283 C 320.816 0.541288 6.80852 0
M  V30 3284 O 320.504 1.23578 7.94345 0
M  V30 3285 H 320.236 -0.228408 0.636244 0
M  V30 3286 H 322.79 -0.0486039 2.05342 0
M  V30 3287 H 321.02 -2.41245 3.02222 0
M  V30 3288 H 322.709 -2.22329 3.39595 0
M  V30 3289 H 323.475 -0.206864 4.84559 0
M  V30 3290 H 319.354 -1.35206 4.40727 0
M  V30 3291 H 322.898 1.03789 6.89836 0
M  V30 3292 H 318.795 -0.114023 6.45399 0
M  V30 3293 H 319.563 1.14487 8.10454 0
M  V30 3294 N 322.226 -1.5378 -0.344866 0
M  V30 3295 C 323.474 -1.70625 -1.08311 0
M  V30 3296 C 323.795 -0.471447 -1.89215 0
M  V30 3297 O 323.065 0.514616 -1.8902 0
M  V30 3298 H 321.645 -0.629058 -0.402859 0
M  V30 3299 H 324.307 -1.9103 -0.386459 0
M  V30 3300 H 323.403 -2.57656 -1.76124 0
M  V30 3301 N 323.704 0.605807 -1.45491 0
M  V30 3302 C 325.12 0.926751 -1.29936 0
M  V30 3303 C 325.32 1.99896 -0.253706 0
M  V30 3304 O 324.376 2.50038 0.351737 0
M  V30 3305 C 325.689 1.36599 -2.67883 0
M  V30 3306 C 327.237 1.4801 -2.75793 0
M  V30 3307 C 327.712 1.95309 -4.14268 0
M  V30 3308 N 329.203 2.0254 -4.16571 0
M  V30 3309 C 329.938 2.40363 -5.20589 0
M  V30 3310 N 329.434 2.77143 -6.34952 0
M  V30 3311 N 331.227 2.40718 -5.07948 0
M  V30 3312 H 323.378 -0.102862 -2.12151 0
M  V30 3313 H 325.641 0.016639 -0.947854 0
M  V30 3314 H 325.347 0.652306 -3.45598 0
M  V30 3315 H 325.221 2.33215 -2.96463 0
M  V30 3316 H 327.608 2.1847 -1.98381 0
M  V30 3317 H 327.689 0.497041 -2.50925 0
M  V30 3318 H 327.333 1.25436 -4.92167 0
M  V30 3319 H 327.263 2.94532 -4.3653 0
M  V30 3320 H 329.754 1.76699 -3.34045 0
M  V30 3321 H 330.067 3.0489 -7.10114 0
M  V30 3322 H 328.412 2.74834 -6.3835 0
M  V30 3323 H 331.603 2.11392 -4.1765 0
M  V30 3324 H 331.776 2.69869 -5.89131 0
M  V30 3325 N 325.182 1.32811 0.848464 0
M  V30 3326 C 326.145 1.22194 1.9391 0
M  V30 3327 C 327.145 0.143404 1.60159 0
M  V30 3328 O 328.335 0.394253 1.6968 0
M  V30 3329 C 325.467 0.88067 3.29328 0
M  V30 3330 H 326.66 2.19127 2.04752 0
M  V30 3331 H 324.213 1.16731 1.0394 0
M  V30 3332 H 324.948 -0.0865776 3.24184 0
M  V30 3333 H 324.733 1.66052 3.55203 0
M  V30 3334 H 326.223 0.830871 4.09251 0
M  V30 3335 N 326.66 -1.06551 1.16123 0
M  V30 3336 C 327.608 -2.16063 0.861371 0
M  V30 3337 C 328.602 -1.6856 -0.168517 0
M  V30 3338 O 329.808 -1.79986 -0.0227579 0
M  V30 3339 H 326.183 -0.705278 0.260934 0
M  V30 3340 H 328.154 -2.38567 1.79244 0
M  V30 3341 C 326.903 -3.45661 0.376018 0
M  V30 3342 H 326.226 -3.82604 1.15992 0
M  V30 3343 H 327.666 -4.23504 0.204951 0
M  V30 3344 C 326.125 -3.24546 -0.903954 0
M  V30 3345 O 326.655 -3.49865 -1.97377 0
M  V30 3346 N 324.861 -2.77992 -0.846679 0
M  V30 3347 H 324.408 -2.57589 0.0241017 0
M  V30 3348 H 324.366 -2.64244 -1.70359 0
M  V30 3349 N 328.138 -0.959301 -1.25041 0
M  V30 3350 C 329.366 -0.633949 -1.96948 0
M  V30 3351 C 329.781 0.794916 -1.7125 0
M  V30 3352 O 329.138 1.53231 -0.991287 0
M  V30 3353 C 329.189 -0.888805 -3.50403 0
M  V30 3354 O 328.91 -2.26149 -3.75218 0
M  V30 3355 C 330.411 -0.576482 -4.39536 0
M  V30 3356 H 327.631 -0.237263 -0.627652 0
M  V30 3357 H 330.175 -1.28495 -1.59089 0
M  V30 3358 H 328.33 -0.284145 -3.86357 0
M  V30 3359 H 328.744 -2.33514 -4.6965 0
M  V30 3360 H 330.218 -0.805314 -5.46094 0
M  V30 3361 H 330.695 0.489075 -4.36468 0
M  V30 3362 H 331.301 -1.16067 -4.09156 0
M  V30 3363 N 329.616 1.39756 -0.72842 0
M  V30 3364 C 330.844 2.04948 -0.283528 0
M  V30 3365 C 331.259 1.54908 1.0793 0
M  V30 3366 O 330.616 0.711135 1.68075 0
M  V30 3367 C 330.667 3.60498 -0.268957 0
M  V30 3368 O 330.388 4.08695 -1.57798 0
M  V30 3369 C 331.889 4.4288 0.192912 0
M  V30 3370 H 329.109 0.659243 -0.125056 0
M  V30 3371 H 331.653 1.78927 -0.990226 0
M  V30 3372 H 329.808 3.85444 0.388801 0
M  V30 3373 H 330.222 5.02977 -1.48709 0
M  V30 3374 H 331.696 5.51791 0.151952 0
M  V30 3375 H 332.173 4.21418 1.23708 0
M  V30 3376 H 332.779 4.23069 -0.435039 0
M  V30 3377 N 331.094 0.475555 1.50254 0
M  V30 3378 C 332.371 -0.139685 1.95101 0
M  V30 3379 C 332.751 -1.56555 1.41611 0
M  V30 3380 O 332.099 -2.19956 0.618993 0
M  V30 3381 C 332.309 -0.0784298 3.48912 0
M  V30 3382 C 333.657 -0.265095 4.23772 0
M  V30 3383 O 334.681 -0.154808 3.55863 0
M  V30 3384 O 333.54 -0.488327 5.44314 0
M  V30 3385 H 330.634 -0.109236 0.819754 0
M  V30 3386 H 333.18 0.536276 1.61004 0
M  V30 3387 H 331.952 0.916918 3.80405 0
M  V30 3388 H 331.575 -0.795655 3.89558 0
M  V30 3389 N 332.573 -1.56217 0.208337 0
M  V30 3390 C 333.821 -1.97558 -0.426076 0
M  V30 3391 C 334.142 -1.09683 -1.61229 0
M  V30 3392 O 333.412 -0.170956 -1.95153 0
M  V30 3393 H 331.992 -0.729575 -0.160405 0
M  V30 3394 H 334.654 -1.92606 0.298155 0
M  V30 3395 H 333.75 -3.02672 -0.761312 0
M  V30 3396 N 334.051 0.0651679 -1.57465 0
M  V30 3397 C 335.281 0.774683 -1.91526 0
M  V30 3398 C 335.689 1.71305 -0.803196 0
M  V30 3399 O 335.032 1.82231 0.231881 0
M  V30 3400 C 335.094 1.61645 -3.21109 0
M  V30 3401 C 334.758 0.846753 -4.49087 0
M  V30 3402 C 335.755 0.163024 -5.19644 0
M  V30 3403 C 333.44 0.811966 -4.95694 0
M  V30 3404 C 335.434 -0.54519 -6.35064 0
M  V30 3405 C 333.121 0.0999836 -6.11018 0
M  V30 3406 C 334.119 -0.577388 -6.80555 0
M  V30 3407 O 333.807 -1.27789 -7.93678 0
M  V30 3408 H 333.539 0.225031 -0.637446 0
M  V30 3409 H 336.093 0.0377134 -2.05365 0
M  V30 3410 H 334.323 2.39638 -3.03497 0
M  V30 3411 H 336.012 2.20525 -3.40769 0
M  V30 3412 H 336.778 0.181163 -4.84662 0
M  V30 3413 H 332.657 1.32867 -4.41438 0
M  V30 3414 H 336.201 -1.07446 -6.89276 0
M  V30 3415 H 332.098 0.0797945 -6.45451 0
M  V30 3416 H 332.866 -1.18784 -8.09835 0
M  V30 3417 N 335.529 1.53961 0.336706 0
M  V30 3418 C 336.476 1.82428 1.41381 0
M  V30 3419 C 337.446 0.670444 1.51968 0
M  V30 3420 O 338.631 0.915565 1.67398 0
M  V30 3421 C 335.771 2.04564 2.77934 0
M  V30 3422 C 334.884 3.32267 2.76084 0
M  V30 3423 C 334.019 3.44434 4.04399 0
M  V30 3424 C 333.058 4.66061 3.96804 0
M  V30 3425 N 332.195 4.75224 5.16823 0
M  V30 3426 H 337.035 2.74324 1.16405 0
M  V30 3427 H 334.572 1.35869 0.563752 0
M  V30 3428 H 336.53 2.15388 3.57301 0
M  V30 3429 H 335.16 1.15974 3.01247 0
M  V30 3430 H 334.212 3.3025 1.88784 0
M  V30 3431 H 335.524 4.21733 2.66351 0
M  V30 3432 H 334.678 3.54728 4.92192 0
M  V30 3433 H 333.417 2.53037 4.16921 0
M  V30 3434 H 332.422 4.55838 3.07396 0
M  V30 3435 H 333.647 5.58829 3.85858 0
M  V30 3436 H 331.593 3.86739 5.29876 0
M  V30 3437 H 331.51 5.58636 5.09374 0
M  V30 3438 H 332.778 4.89835 6.06367 0
M  V30 3439 N 337.007 -0.598083 1.45811 0
M  V30 3440 C 337.937 -1.71873 1.58057 0
M  V30 3441 C 338.918 -1.64533 0.431615 0
M  V30 3442 O 340.103 -1.82787 0.65595 0
M  V30 3443 C 337.233 -3.10495 1.55597 0
M  V30 3444 C 336.187 -3.32654 2.69305 0
M  V30 3445 C 335.513 -4.71646 2.51902 0
M  V30 3446 C 336.813 -3.21981 4.11248 0
M  V30 3447 H 338.507 -1.61881 2.51863 0
M  V30 3448 H 336.053 -0.777372 1.21214 0
M  V30 3449 H 338.006 -3.88699 1.6276 0
M  V30 3450 H 336.73 -3.2135 0.583255 0
M  V30 3451 H 335.389 -2.56843 2.61586 0
M  V30 3452 H 335.037 -4.79246 1.52748 0
M  V30 3453 H 334.737 -4.87426 3.2816 0
M  V30 3454 H 336.261 -5.52038 2.60933 0
M  V30 3455 H 337.675 -3.90049 4.20161 0
M  V30 3456 H 336.072 -3.49289 4.87972 0
M  V30 3457 H 337.142 -2.1928 4.32486 0
M  V30 3458 N 338.485 -1.33259 -0.841409 0
M  V30 3459 C 339.448 -1.23221 -1.9326 0
M  V30 3460 C 340.448 -0.151895 -1.60081 0
M  V30 3461 O 341.638 -0.403246 -1.69468 0
M  V30 3462 C 338.77 -0.898123 -3.28856 0
M  V30 3463 H 339.963 -2.2021 -2.03587 0
M  V30 3464 H 337.516 -1.17281 -1.03319 0
M  V30 3465 H 338.251 0.0693841 -3.24226 0
M  V30 3466 H 338.036 -1.67934 -3.54317 0
M  V30 3467 H 339.526 -0.852563 -4.08805 0
M  V30 3468 N 339.963 1.05934 -1.16686 0
M  V30 3469 C 341.24 1.75643 -0.860747 0
M  V30 3470 C 341.62 2.01144 0.640641 0
M  V30 3471 O 340.968 1.64147 1.58959 0
M  V30 3472 C 341.178 3.05493 -1.68745 0
M  V30 3473 C 342.526 3.79581 -1.90271 0
M  V30 3474 O 343.55 3.15344 -1.65641 0
M  V30 3475 O 342.409 4.9499 -2.31618 0
M  V30 3476 H 339.503 0.763426 -0.317977 0
M  V30 3477 H 342.049 1.1217 -1.27342 0
M  V30 3478 H 340.821 2.8264 -2.70611 0
M  V30 3479 H 340.444 3.76702 -1.27206 0
M  V30 3480 N 341.441 0.965919 1.2453 0
M  V30 3481 C 342.689 0.625593 1.92174 0
M  V30 3482 C 343.01 -0.841652 1.75901 0
M  V30 3483 O 342.28 -1.60061 1.12948 0
M  V30 3484 H 340.86 0.228388 0.71123 0
M  V30 3485 H 343.522 1.2266 1.51461 0
M  V30 3486 H 342.618 0.864653 2.99884 0
M  V30 3487 N 342.919 -1.39368 0.735821 0
M  V30 3488 C 343.882 -2.2896 0.104874 0
M  V30 3489 C 344.882 -1.46347 -0.666274 0
M  V30 3490 O 346.072 -1.67014 -0.49517 0
M  V30 3491 C 343.204 -3.29857 -0.860656 0
M  V30 3492 H 344.397 -2.86259 0.894205 0
M  V30 3493 H 341.95 -1.48029 0.501704 0
M  V30 3494 H 342.685 -2.77615 -1.67631 0
M  V30 3495 H 342.47 -3.9087 -0.310327 0
M  V30 3496 H 343.96 -3.96893 -1.29867 0
M  V30 3497 N 344.397 -0.483516 -1.5 0
M  V30 3498 C 345.622 0.0667119 -2.07293 0
M  V30 3499 C 346.047 1.3164 -1.3436 0
M  V30 3500 O 345.405 1.76945 -0.394987 0
M  V30 3501 C 345.453 0.321126 -3.59167 0
M  V30 3502 O 344.557 1.39927 -3.87936 0
M  V30 3503 H 343.898 -0.0184758 -0.663743 0
M  V30 3504 H 346.428 -0.678125 -1.93035 0
M  V30 3505 H 346.438 0.557906 -4.04168 0
M  V30 3506 H 345.113 -0.592007 -4.11665 0
M  V30 3507 H 343.69 1.14882 -3.54763 0
M  V30 3508 N 345.875 1.56104 -0.216619 0
M  V30 3509 C 346.822 2.2007 0.695531 0
M  V30 3510 C 347.792 1.15471 1.19397 0
M  V30 3511 O 348.977 1.43807 1.25396 0
M  V30 3512 C 346.117 2.88073 1.90021 0
M  V30 3513 C 345.23 4.07253 1.44113 0
M  V30 3514 C 344.365 4.63052 2.603 0
M  V30 3515 C 343.404 5.74545 2.11103 0
M  V30 3516 N 342.541 6.24656 3.20545 0
M  V30 3517 H 347.381 2.97655 0.143327 0
M  V30 3518 H 344.918 1.46982 0.0589934 0
M  V30 3519 H 346.876 3.25681 2.60745 0
M  V30 3520 H 345.506 2.13015 2.42538 0
M  V30 3521 H 344.558 3.75164 0.628999 0
M  V30 3522 H 345.87 4.8783 1.04036 0
M  V30 3523 H 345.024 5.03078 3.39113 0
M  V30 3524 H 343.763 3.81628 3.03663 0
M  V30 3525 H 342.768 5.34027 1.3075 0
M  V30 3526 H 343.993 6.57801 1.68746 0
M  V30 3527 H 341.939 5.46148 3.63399 0
M  V30 3528 H 341.856 7.00343 2.84704 0
M  V30 3529 H 343.124 6.69338 3.99508 0
M  V30 3530 N 347.353 -0.0568162 1.57498 0
M  V30 3531 C 348.63 -0.786954 1.79071 0
M  V30 3532 C 349.01 -1.95028 0.80792 0
M  V30 3533 O 348.358 -2.27968 -0.155858 0
M  V30 3534 C 348.568 -1.24594 3.26002 0
M  V30 3535 C 349.916 -1.67323 3.90241 0
M  V30 3536 O 350.94 -1.34124 3.29984 0
M  V30 3537 O 349.799 -2.28842 4.9628 0
M  V30 3538 H 346.893 -0.378262 0.735423 0
M  V30 3539 H 349.439 -0.035734 1.69662 0
M  V30 3540 H 348.211 -0.41423 3.89101 0
M  V30 3541 H 347.834 -2.05803 3.40192 0
M  V30 3542 N 348.832 -1.54138 -0.328536 0
M  V30 3543 C 350.08 -1.71765 -1.06496 0
M  V30 3544 C 350.401 -0.49149 -1.88704 0
M  V30 3545 O 349.671 0.494539 -1.89555 0
M  V30 3546 H 348.251 -0.633295 -0.396164 0
M  V30 3547 H 350.913 -1.91429 -0.366176 0
M  V30 3548 H 350.009 -2.5951 -1.73381 0
M  V30 3549 N 350.31 0.590341 -1.46126 0
M  V30 3550 C 351.556 1.34874 -1.52252 0
M  V30 3551 C 351.911 1.91658 -0.168807 0
M  V30 3552 O 351.204 1.73093 0.821556 0
M  V30 3553 C 351.398 2.5032 -2.55097 0
M  V30 3554 C 351.227 2.04843 -4.00337 0
M  V30 3555 C 349.997 1.90213 -4.68132 0
M  V30 3556 C 352.195 1.61267 -4.88362 0
M  V30 3557 N 350.177 1.38727 -5.9802 0
M  V30 3558 C 351.548 1.21319 -6.08015 0
M  V30 3559 C 353.603 1.49015 -4.75078 0
M  V30 3560 C 352.306 0.7034 -7.15852 0
M  V30 3561 C 354.332 0.994401 -5.8298 0
M  V30 3562 C 353.694 0.604659 -7.018 0
M  V30 3563 H 349.793 0.486803 -0.612002 0
M  V30 3564 H 352.377 0.673007 -1.82698 0
M  V30 3565 H 350.548 3.15466 -2.26574 0
M  V30 3566 H 352.28 3.1725 -2.51266 0
M  V30 3567 H 349.035 2.11927 -4.23537 0
M  V30 3568 H 349.459 1.15168 -6.67132 0
M  V30 3569 H 354.101 1.77768 -3.83612 0
M  V30 3570 H 351.819 0.403446 -8.07092 0
M  V30 3571 H 355.405 0.903621 -5.7474 0
M  V30 3572 H 354.285 0.226963 -7.83871 0
M  V30 3573 N 351.788 1.33704 0.83433 0
M  V30 3574 C 352.721 1.18675 1.94914 0
M  V30 3575 C 353.699 0.0811145 1.62398 0
M  V30 3576 O 354.883 0.244186 1.86912 0
M  V30 3577 C 352.01 0.821231 3.28593 0
M  V30 3578 C 351.056 1.93501 3.80079 0
M  V30 3579 S 351.889 3.54671 4.01209 0
M  V30 3580 C 353.045 3.20136 5.37833 0
M  V30 3581 H 353.278 2.13043 2.07364 0
M  V30 3582 H 350.811 1.18598 0.988624 0
M  V30 3583 H 352.769 0.617123 4.05835 0
M  V30 3584 H 351.43 -0.103927 3.13928 0
M  V30 3585 H 350.623 1.63273 4.76821 0
M  V30 3586 H 350.225 2.09601 3.09747 0
M  V30 3587 H 352.517 2.71242 6.20833 0
M  V30 3588 H 353.46 4.15975 5.73036 0
M  V30 3589 H 353.868 2.56613 5.02802 0
M  V30 3590 N 353.266 -1.05314 1.17247 0
M  V30 3591 C 354.513 -1.78293 0.960091 0
M  V30 3592 C 354.841 -1.87658 -0.51136 0
M  V30 3593 O 354.096 -1.3718 -1.39571 0
M  V30 3594 C 354.395 -3.2229 1.54479 0
M  V30 3595 C 354.061 -3.32987 3.04024 0
M  V30 3596 C 352.723 -3.35613 3.44844 0
M  V30 3597 C 355.075 -3.34102 4.00031 0
M  V30 3598 C 352.403 -3.36982 4.8027 0
M  V30 3599 C 354.755 -3.3701 5.35357 0
M  V30 3600 C 353.419 -3.37923 5.75642 0
M  V30 3601 H 352.689 -0.652422 0.351322 0
M  V30 3602 H 355.336 -1.23782 1.46117 0
M  V30 3603 H 353.641 -3.7972 0.965391 0
M  V30 3604 H 355.338 -3.77376 1.35603 0
M  V30 3605 H 351.928 -3.31655 2.71483 0
M  V30 3606 H 356.112 -3.31276 3.69554 0
M  V30 3607 H 351.368 -3.35999 5.10798 0
M  V30 3608 H 355.542 -3.36822 6.09528 0
M  V30 3609 H 353.169 -3.38738 6.80559 0
M  V30 3610 N 354.744 -0.972509 -1.24016 0
M  V30 3611 C 355.972 -0.654803 -1.96265 0
M  V30 3612 C 356.387 0.776708 -1.72083 0
M  V30 3613 O 355.744 1.52171 -1.00748 0
M  V30 3614 C 355.795 -0.92592 -3.49441 0
M  V30 3615 O 355.516 -2.30116 -3.72798 0
M  V30 3616 C 357.017 -0.623068 -4.38899 0
M  V30 3617 H 354.237 -0.243907 -0.6251 0
M  V30 3618 H 356.781 -1.30175 -1.57717 0
M  V30 3619 H 354.936 -0.325108 -3.86033 0
M  V30 3620 H 355.35 -2.38483 -4.67147 0
M  V30 3621 H 356.824 -0.863189 -5.45209 0
M  V30 3622 H 357.301 0.442754 -4.36963 0
M  V30 3623 H 357.907 -1.204 -4.07902 0
M  V30 3624 N 356.222 1.38976 -0.743202 0
M  V30 3625 C 357.185 2.28901 -0.117014 0
M  V30 3626 C 358.185 1.46698 0.658503 0
M  V30 3627 O 359.375 1.67274 0.486305 0
M  V30 3628 C 356.507 3.30309 0.84315 0
M  V30 3629 H 357.7 2.8578 -0.909373 0
M  V30 3630 H 355.253 1.47761 -0.509547 0
M  V30 3631 H 355.988 2.785 1.66157 0
M  V30 3632 H 355.773 3.91029 0.289594 0
M  V30 3633 H 357.263 3.97577 1.2776 0
M  V30 3634 N 357.7 0.491464 1.49741 0
M  V30 3635 C 358.61 -0.296835 2.32715 0
M  V30 3636 C 359.626 -0.976536 1.44013 0
M  V30 3637 O 360.802 -0.960023 1.77047 0
M  V30 3638 C 357.867 -1.35288 3.19215 0
M  V30 3639 C 356.928 -0.687632 4.23757 0
M  V30 3640 C 356.161 -1.69336 5.06123 0
M  V30 3641 O 356.384 -2.92219 4.89861 0
M  V30 3642 O 355.318 -1.25394 5.88693 0
M  V30 3643 H 359.144 0.382048 3.01287 0
M  V30 3644 H 356.729 0.252953 1.47243 0
M  V30 3645 H 358.611 -1.96411 3.72828 0
M  V30 3646 H 357.286 -2.01487 2.53347 0
M  V30 3647 H 356.193 -0.0369159 3.74082 0
M  V30 3648 H 357.526 -0.0682566 4.92153 0
M  V30 3649 N 359.178 -1.55987 0.224894 0
M  V30 3650 C 360.128 -2.17076 -0.697296 0
M  V30 3651 C 361.112 -1.12006 -1.15514 0
M  V30 3652 O 362.304 -1.37985 -1.10857 0
M  V30 3653 C 359.433 -2.85679 -1.90374 0
M  V30 3654 C 358.519 -3.97977 -1.46543 0
M  V30 3655 N 358.91 -5.00359 -0.739909 0
M  V30 3656 C 357.208 -4.10128 -1.75245 0
M  V30 3657 C 357.909 -5.79407 -0.515939 0
M  V30 3658 N 356.885 -5.32892 -1.07364 0
M  V30 3659 H 360.687 -2.93592 -0.134594 0
M  V30 3660 H 358.201 -1.62379 0.0262885 0
M  V30 3661 H 360.198 -3.27857 -2.57518 0
M  V30 3662 H 358.858 -2.1066 -2.47088 0
M  V30 3663 H 359.869 -5.16412 -0.392253 0
M  V30 3664 H 356.546 -3.46263 -2.33255 0
M  V30 3665 H 357.936 -6.71872 0.0617349 0
M  V30 3666 N 360.656 0.0484629 -1.57525 0
M  V30 3667 C 361.884 0.755421 -1.92616 0
M  V30 3668 C 362.299 1.69919 -0.822984 0
M  V30 3669 O 361.656 1.81378 0.202085 0
M  V30 3670 C 361.707 1.52915 -3.27566 0
M  V30 3671 O 361.428 0.62329 -4.33644 0
M  V30 3672 C 362.929 2.33502 -3.76818 0
M  V30 3673 H 360.149 0.213465 -0.63614 0
M  V30 3674 H 362.693 0.0117698 -2.04497 0
M  V30 3675 H 360.848 2.22486 -3.17142 0
M  V30 3676 H 361.262 1.16383 -5.11425 0
M  V30 3677 H 362.736 2.83214 -4.73808 0
M  V30 3678 H 363.213 3.14068 -3.07014 0
M  V30 3679 H 363.819 1.69043 -3.90262 0
M  V30 3680 N 362.134 1.5431 0.320358 0
M  V30 3681 C 363.066 1.80262 1.41556 0
M  V30 3682 C 364.079 0.684723 1.477 0
M  V30 3683 O 365.268 0.961886 1.50366 0
M  V30 3684 C 362.368 1.90825 2.8007 0
M  V30 3685 C 361.541 3.21023 2.97091 0
M  V30 3686 C 360.6 3.22247 4.15985 0
M  V30 3687 O 359.626 3.95871 4.08992 0
M  V30 3688 N 360.828 2.46258 5.25678 0
M  V30 3689 H 363.593 2.74778 1.19655 0
M  V30 3690 H 361.154 1.53646 0.510358 0
M  V30 3691 H 363.146 1.89067 3.57821 0
M  V30 3692 H 361.716 1.03392 2.95006 0
M  V30 3693 H 360.936 3.35715 2.06614 0
M  V30 3694 H 362.224 4.0698 3.05361 0
M  V30 3695 H 361.622 1.86037 5.34235 0
M  V30 3696 H 360.179 2.50275 6.01835 0
M  V30 3697 N 363.613 -0.582584 1.46437 0
M  V30 3698 C 364.838 -1.37168 1.55563 0
M  V30 3699 C 365.263 -1.87061 0.19743 0
M  V30 3700 O 364.621 -1.61572 -0.822451 0
M  V30 3701 C 364.669 -2.53511 2.56446 0
M  V30 3702 O 363.773 -3.54953 2.09958 0
M  V30 3703 H 363.114 -0.408494 0.523477 0
M  V30 3704 H 365.644 -0.706646 1.9201 0
M  V30 3705 H 365.654 -3.00426 2.76058 0
M  V30 3706 H 364.329 -2.16549 3.55076 0
M  V30 3707 H 362.906 -3.14516 2.00334 0
M  V30 3708 N 365.091 -1.34144 -0.827227 0
M  V30 3709 C 366.024 -1.19707 -1.94282 0
M  V30 3710 C 367.002 -0.0897256 -1.62352 0
M  V30 3711 O 368.186 -0.254095 -1.8678 0
M  V30 3712 C 365.313 -0.838646 -3.28153 0
M  V30 3713 C 364.359 -1.95514 -3.79047 0
M  V30 3714 S 365.192 -3.56793 -3.99323 0
M  V30 3715 C 366.348 -3.22983 -5.36127 0
M  V30 3716 H 366.581 -2.1414 -2.06231 0
M  V30 3717 H 364.114 -1.19121 -0.982321 0
M  V30 3718 H 366.072 -0.638637 -4.05502 0
M  V30 3719 H 364.733 0.0872776 -3.13979 0
M  V30 3720 H 363.926 -1.658 -4.75948 0
M  V30 3721 H 363.528 -2.11241 -3.08631 0
M  V30 3722 H 365.82 -2.74531 -6.19386 0
M  V30 3723 H 366.763 -4.19008 -5.70822 0
M  V30 3724 H 367.171 -2.59276 -5.01434 0
M  V30 3725 N 366.569 1.04691 -1.17803 0
M  V30 3726 C 367.499 2.14494 -0.92275 0
M  V30 3727 C 368.48 1.69546 0.137179 0
M  V30 3728 O 369.665 1.94195 -0.0141108 0
M  V30 3729 C 366.795 3.44491 -0.440803 0
M  V30 3730 C 365.749 4.03031 -1.4405 0
M  V30 3731 C 365.075 5.28432 -0.81631 0
M  V30 3732 C 366.375 4.39932 -2.81527 0
M  V30 3733 H 368.069 2.36107 -1.84103 0
M  V30 3734 H 365.615 1.1347 -0.886599 0
M  V30 3735 H 367.568 4.2066 -0.249602 0
M  V30 3736 H 366.292 3.22546 0.513025 0
M  V30 3737 H 364.951 3.28937 -1.61853 0
M  V30 3738 H 364.599 5.02792 0.144511 0
M  V30 3739 H 364.299 5.68559 -1.48371 0
M  V30 3740 H 365.823 6.07284 -0.635496 0
M  V30 3741 H 367.237 5.07113 -2.67412 0
M  V30 3742 H 365.634 4.9109 -3.44892 0
M  V30 3743 H 366.704 3.50045 -3.35554 0
M  V30 3744 N 368.047 0.979072 1.23499 0
M  V30 3745 C 368.994 0.517904 2.24914 0
M  V30 3746 C 369.964 -0.442525 1.60097 0
M  V30 3747 O 371.149 -0.350365 1.87556 0
M  V30 3748 C 368.289 -0.174813 3.44657 0
M  V30 3749 C 367.402 0.825721 4.24035 0
M  V30 3750 C 366.537 0.107946 5.3109 0
M  V30 3751 C 365.576 1.09778 6.02175 0
M  V30 3752 N 364.713 0.40925 7.00906 0
M  V30 3753 H 369.553 1.38751 2.63727 0
M  V30 3754 H 367.09 0.695303 1.2963 0
M  V30 3755 H 369.048 -0.593233 4.12961 0
M  V30 3756 H 367.678 -1.0083 3.06648 0
M  V30 3757 H 366.73 1.36253 3.55161 0
M  V30 3758 H 368.042 1.58005 4.73113 0
M  V30 3759 H 367.196 -0.367904 6.05583 0
M  V30 3760 H 365.935 -0.678994 4.8295 0
M  V30 3761 H 364.94 1.5844 5.26476 0
M  V30 3762 H 366.165 1.88536 6.52404 0
M  V30 3763 H 364.111 -0.358506 6.5502 0
M  V30 3764 H 364.028 1.10226 7.47921 0
M  V30 3765 H 365.296 -0.0442557 7.79487 0
M  V30 3766 N 369.525 -1.3858 0.750561 0
M  V30 3767 C 370.773 -1.99789 0.30477 0
M  V30 3768 C 371.094 -1.59874 -1.11649 0
M  V30 3769 O 370.364 -0.85417 -1.76297 0
M  V30 3770 H 368.944 -0.738902 0.109694 0
M  V30 3771 H 371.606 -1.69391 0.963983 0
M  V30 3772 H 370.702 -3.09952 0.365499 0
M  V30 3773 N 371.003 -0.499398 -1.49478 0
M  V30 3774 C 372.233 0.0424839 -2.06556 0
M  V30 3775 C 372.641 1.31514 -1.36018 0
M  V30 3776 O 371.984 1.78555 -0.431718 0
M  V30 3777 C 372.046 0.368074 -3.57611 0
M  V30 3778 C 371.71 -0.806631 -4.49825 0
M  V30 3779 C 372.707 -1.69667 -4.91436 0
M  V30 3780 C 370.392 -1.00498 -4.92144 0
M  V30 3781 C 372.386 -2.76923 -5.74101 0
M  V30 3782 C 370.073 -2.08072 -5.74586 0
M  V30 3783 C 371.071 -2.96119 -6.15469 0
M  V30 3784 O 370.759 -4.01836 -6.96264 0
M  V30 3785 H 370.491 -0.0165165 -0.675798 0
M  V30 3786 H 373.045 -0.695497 -1.93267 0
M  V30 3787 H 371.275 1.15963 -3.68903 0
M  V30 3788 H 372.964 0.848381 -3.96935 0
M  V30 3789 H 373.73 -1.55524 -4.59388 0
M  V30 3790 H 369.609 -0.329036 -4.59824 0
M  V30 3791 H 373.153 -3.45676 -6.05932 0
M  V30 3792 H 369.05 -2.22211 -6.06047 0
M  V30 3793 H 369.818 -3.9917 -7.14567 0
M  V30 3794 N 372.481 1.55866 -0.233164 0
M  V30 3795 C 373.429 2.22176 0.68851 0
M  V30 3796 C 374.423 1.20487 1.19076 0
M  V30 3797 O 375.629 1.38536 1.14925 0
M  V30 3798 H 372.004 0.712511 0.240483 0
M  V30 3799 H 373.975 2.98212 0.105935 0
M  V30 3800 C 372.724 2.92446 1.88071 0
M  V30 3801 H 372.047 3.70458 1.50337 0
M  V30 3802 H 373.487 3.42226 2.50314 0
M  V30 3803 C 371.946 1.95555 2.74335 0
M  V30 3804 O 372.476 1.47986 3.73447 0
M  V30 3805 N 370.682 1.62953 2.40613 0
M  V30 3806 H 370.229 2.01831 1.60069 0
M  V30 3807 H 370.187 0.983886 2.98609 0
M  V30 3808 N 373.959 -0.0401083 1.57549 0
M  V30 3809 C 374.906 -1.04413 2.05831 0
M  V30 3810 C 375.876 -1.36585 0.945184 0
M  V30 3811 O 377.061 -1.47112 1.21502 0
M  V30 3812 C 374.201 -2.34336 2.53339 0
M  V30 3813 C 373.314 -2.08419 3.78398 0
M  V30 3814 C 372.449 -3.32133 4.14561 0
M  V30 3815 C 371.488 -3.01721 5.3257 0
M  V30 3816 N 370.625 -4.17855 5.64218 0
M  V30 3817 H 375.465 -0.625442 2.91363 0
M  V30 3818 H 373.002 -0.297218 1.44066 0
M  V30 3819 H 374.96 -3.10234 2.78946 0
M  V30 3820 H 373.59 -2.73948 1.7074 0
M  V30 3821 H 372.642 -1.23069 3.59942 0
M  V30 3822 H 373.954 -1.81978 4.64419 0
M  V30 3823 H 373.108 -4.16406 4.41238 0
M  V30 3824 H 371.847 -3.61678 3.2717 0
M  V30 3825 H 370.852 -2.15849 5.05657 0
M  V30 3826 H 372.077 -2.73466 6.21605 0
M  V30 3827 H 370.023 -4.47372 4.79786 0
M  V30 3828 H 369.94 -3.94798 6.44725 0
M  V30 3829 H 371.208 -5.03033 5.95465 0
M  V30 3830 N 375.437 -1.54477 -0.31217 0
M  V30 3831 C 376.684 -1.73227 -1.04875 0
M  V30 3832 C 377.012 -0.512042 -1.87639 0
M  V30 3833 O 376.267 0.506131 -1.89042 0
M  V30 3834 C 376.566 -2.967 -1.99258 0
M  V30 3835 C 376.232 -4.30974 -1.32559 0
M  V30 3836 C 374.894 -4.67477 -1.141 0
M  V30 3837 C 377.246 -5.14258 -0.847835 0
M  V30 3838 C 374.574 -5.84852 -0.465326 0
M  V30 3839 C 376.926 -6.32327 -0.185931 0
M  V30 3840 C 375.59 -6.67499 0.0107077 0
M  V30 3841 H 374.86 -0.633881 -0.383765 0
M  V30 3842 H 377.507 -1.88727 -0.324731 0
M  V30 3843 H 375.812 -2.75935 -2.7815 0
M  V30 3844 H 377.509 -3.08401 -2.563 0
M  V30 3845 H 374.099 -4.02262 -1.4793 0
M  V30 3846 H 378.283 -4.86565 -0.978192 0
M  V30 3847 H 373.539 -6.10654 -0.301883 0
M  V30 3848 H 377.713 -6.96135 0.192211 0
M  V30 3849 H 375.34 -7.58306 0.536287 0
M  V30 3850 N 376.915 0.57481 -1.46744 0
M  V30 3851 C 378.161 1.3347 -1.52688 0
M  V30 3852 C 378.494 1.93353 -0.181229 0
M  V30 3853 O 377.769 1.76912 0.808237 0
M  V30 3854 C 378.052 2.45811 -2.63152 0
M  V30 3855 C 377.905 1.90912 -4.07275 0
M  V30 3856 C 379.224 3.47822 -2.69644 0
M  V30 3857 H 376.343 0.483935 -0.555856 0
M  V30 3858 H 378.985 0.644968 -1.78718 0
M  V30 3859 H 377.135 3.04646 -2.41088 0
M  V30 3860 H 378.807 1.36473 -4.4065 0
M  V30 3861 H 377.05 1.21691 -4.16382 0
M  V30 3862 H 377.721 2.72042 -4.80309 0
M  V30 3863 H 380.197 2.9888 -2.895 0
M  V30 3864 H 379.073 4.23876 -3.48742 0
M  V30 3865 H 379.334 4.05555 -1.76005 0
M  V30 3866 N 378.394 1.34581 0.820102 0
M  V30 3867 C 379.64 1.27285 1.57881 0
M  V30 3868 C 379.973 -0.156137 1.93571 0
M  V30 3869 O 379.248 -1.10222 1.60254 0
M  V30 3870 C 379.531 2.16639 2.87645 0
M  V30 3871 C 379.384 3.68088 2.58517 0
M  V30 3872 C 380.703 2.05378 3.8924 0
M  V30 3873 H 377.822 0.463714 0.572833 0
M  V30 3874 H 380.464 1.64859 0.944539 0
M  V30 3875 H 378.614 1.84725 3.41773 0
M  V30 3876 H 380.286 4.10382 2.10676 0
M  V30 3877 H 378.529 3.89038 1.91917 0
M  V30 3878 H 379.2 4.2598 3.51063 0
M  V30 3879 H 381.676 2.33404 3.44473 0
M  V30 3880 H 380.552 2.7012 4.77835 0
M  V30 3881 H 380.813 1.0316 4.29896 0
M  V30 3882 N 379.872 -1.04064 1.18357 0
M  V30 3883 C 380.804 -2.12114 0.868358 0
M  V30 3884 C 381.817 -1.62247 -0.134045 0
M  V30 3885 O 383.006 -1.78253 0.0937933 0
M  V30 3886 C 380.106 -3.37773 0.276132 0
M  V30 3887 C 379.279 -4.16874 1.3242 0
M  V30 3888 C 378.338 -5.20861 0.747662 0
M  V30 3889 O 377.364 -5.51141 1.42239 0
M  V30 3890 N 378.566 -5.78715 -0.454823 0
M  V30 3891 H 381.331 -2.39748 1.79836 0
M  V30 3892 H 378.892 -1.20258 1.08396 0
M  V30 3893 H 380.884 -4.04513 -0.123133 0
M  V30 3894 H 379.454 -3.07581 -0.557895 0
M  V30 3895 H 378.674 -3.45456 1.89878 0
M  V30 3896 H 379.962 -4.66516 2.03078 0
M  V30 3897 H 379.36 -5.56415 -1.02073 0
M  V30 3898 H 377.917 -6.46921 -0.79601 0
M  V30 3899 N 381.35 -0.985608 -1.22978 0
M  V30 3900 C 382.58 -0.674603 -1.95276 0
M  V30 3901 C 382.988 0.763483 -1.73111 0
M  V30 3902 O 382.331 1.52601 -1.02268 0
M  V30 3903 C 382.393 -0.891597 -3.48268 0
M  V30 3904 C 382.057 -2.31275 -3.94158 0
M  V30 3905 C 383.054 -3.29179 -4.02415 0
M  V30 3906 C 380.739 -2.64524 -4.27004 0
M  V30 3907 C 382.733 -4.58407 -4.42879 0
M  V30 3908 C 380.42 -3.93974 -4.67149 0
M  V30 3909 C 381.418 -4.90727 -4.75053 0
M  V30 3910 O 381.106 -6.17865 -5.14294 0
M  V30 3911 H 380.838 -0.249251 -0.628371 0
M  V30 3912 H 383.392 -1.32106 -1.5728 0
M  V30 3913 H 381.622 -0.187962 -3.86243 0
M  V30 3914 H 383.311 -0.576957 -4.01779 0
M  V30 3915 H 384.077 -3.04823 -3.77237 0
M  V30 3916 H 379.956 -1.89923 -4.2006 0
M  V30 3917 H 383.5 -5.33926 -4.48964 0
M  V30 3918 H 379.397 -4.18122 -4.91777 0
M  V30 3919 H 380.165 -6.21694 -5.32389 0
M  V30 3920 N 382.828 1.3818 -0.7579 0
M  V30 3921 C 383.791 2.28764 -0.141286 0
M  V30 3922 C 384.791 1.47388 0.642907 0
M  V30 3923 O 385.981 1.67781 0.468536 0
M  V30 3924 C 383.113 3.31184 0.808069 0
M  V30 3925 H 384.306 2.848 -0.939633 0
M  V30 3926 H 381.859 1.47212 -0.525191 0
M  V30 3927 H 382.594 2.80247 1.63193 0
M  V30 3928 H 382.379 3.91314 0.248104 0
M  V30 3929 H 383.869 3.98909 1.23536 0
M  V30 3930 N 384.306 0.507319 1.49211 0
M  V30 3931 C 385.534 -0.0315749 2.06876 0
M  V30 3932 C 385.949 -1.30241 1.36685 0
M  V30 3933 O 385.306 -1.76937 0.447152 0
M  V30 3934 C 385.357 -0.282627 3.60393 0
M  V30 3935 O 385.078 0.937835 4.27944 0
M  V30 3936 C 386.579 -0.864453 4.3479 0
M  V30 3937 H 383.799 0.0233048 0.670595 0
M  V30 3938 H 386.343 0.706484 1.91909 0
M  V30 3939 H 384.498 -0.97068 3.75042 0
M  V30 3940 H 384.912 0.704567 5.19746 0
M  V30 3941 H 386.386 -0.989664 5.43056 0
M  V30 3942 H 386.863 -1.86382 3.97692 0
M  V30 3943 H 387.469 -0.213672 4.24763 0
M  V30 3944 N 385.784 -1.5574 0.241426 0
M  V30 3945 C 387.061 -1.90704 -0.434881 0
M  V30 3946 C 387.441 -1.16145 -1.76277 0
M  V30 3947 O 386.789 -0.277152 -2.26813 0
M  V30 3948 C 386.999 -3.43657 -0.608343 0
M  V30 3949 C 388.347 -4.14806 -0.906725 0
M  V30 3950 O 389.371 -3.49366 -0.694408 0
M  V30 3951 O 388.23 -5.30548 -1.31075 0
M  V30 3952 H 385.324 -0.793592 -0.23268 0
M  V30 3953 H 387.87 -1.67288 0.285086 0
M  V30 3954 H 386.642 -3.89927 0.327505 0
M  V30 3955 H 386.265 -3.72918 -1.37906 0
M  V30 3956 N 387.262 0.0317525 -1.57568 0
M  V30 3957 C 388.225 1.01783 -2.0536 0
M  V30 3958 C 389.225 1.29203 -0.957253 0
M  V30 3959 O 390.415 1.24251 -1.22095 0
M  V30 3960 C 387.547 2.35137 -2.46827 0
M  V30 3961 H 388.74 0.605062 -2.93733 0
M  V30 3962 H 386.293 0.278514 -1.53799 0
M  V30 3963 H 387.028 2.81168 -1.61602 0
M  V30 3964 H 386.813 2.16566 -3.26866 0
M  V30 3965 H 388.303 3.05938 -2.84239 0
M  V30 3966 N 388.74 1.54641 0.303973 0
M  V30 3967 C 389.673 1.80263 1.3993 0
M  V30 3968 C 390.651 0.653657 1.48883 0
M  V30 3969 O 391.835 0.893284 1.6599 0
M  V30 3970 C 388.962 1.9367 2.77866 0
M  V30 3971 C 388.008 3.16078 2.86351 0
M  V30 3972 S 388.841 4.74219 2.4875 0
M  V30 3973 C 389.997 4.90558 3.88721 0
M  V30 3974 H 390.23 2.72886 1.17986 0
M  V30 3975 H 387.763 1.46014 0.501918 0
M  V30 3976 H 389.721 2.0208 3.57315 0
M  V30 3977 H 388.382 1.01991 2.9708 0
M  V30 3978 H 387.575 3.22252 3.87517 0
M  V30 3979 H 387.177 3.06099 2.14893 0
M  V30 3980 H 389.469 4.74398 4.83687 0
M  V30 3981 H 390.412 5.92651 3.87518 0
M  V30 3982 H 390.82 4.18728 3.78585 0
M  V30 3983 N 390.218 -0.567019 1.47046 0
M  V30 3984 C 391.446 -1.35027 1.56765 0
M  V30 3985 C 391.861 -1.8758 0.214316 0
M  V30 3986 O 391.218 -1.64471 -0.790919 0
M  V30 3987 C 391.269 -2.52698 2.58507 0
M  V30 3988 O 390.99 -2.0232 3.88585 0
M  V30 3989 C 392.491 -3.45043 2.78316 0
M  V30 3990 H 389.711 -0.41195 0.529658 0
M  V30 3991 H 392.255 -0.687832 1.92585 0
M  V30 3992 H 390.41 -3.149 2.25648 0
M  V30 3993 H 390.824 -2.79068 4.44096 0
M  V30 3994 H 392.298 -4.2405 3.53391 0
M  V30 3995 H 392.775 -3.97971 1.85784 0
M  V30 3996 H 393.381 -2.88665 3.12334 0
M  V30 3997 N 391.696 -1.35014 -0.812953 0
M  V30 3998 C 392.924 -1.31031 -1.6012 0
M  V30 3999 C 393.339 0.113558 -1.88458 0
M  V30 4000 O 392.696 1.06363 -1.48301 0
M  V30 4001 C 392.747 -2.10872 -2.93624 0
M  V30 4002 O 392.468 -3.47706 -2.66518 0
M  V30 4003 C 393.969 -2.14401 -3.88004 0
M  V30 4004 H 391.189 -0.45037 -0.497401 0
M  V30 4005 H 393.733 -1.77775 -1.01076 0
M  V30 4006 H 391.888 -1.67744 -3.492 0
M  V30 4007 H 392.302 -3.89097 -3.51715 0
M  V30 4008 H 393.776 -2.74669 -4.78812 0
M  V30 4009 H 394.253 -1.14105 -4.24119 0
M  V30 4010 H 394.859 -2.57662 -3.38364 0
M  V30 4011 N 393.175 1.03435 -1.18907 0
M  V30 4012 C 394.107 2.1165 -0.879595 0
M  V30 4013 C 395.12 1.62316 0.125439 0
M  V30 4014 O 396.309 1.78201 -0.103245 0
M  V30 4015 C 393.409 3.37622 -0.294042 0
M  V30 4016 C 392.582 4.16166 -1.34629 0
M  V30 4017 C 391.641 5.20457 -0.775274 0
M  V30 4018 O 390.667 5.50379 -1.4516 0
M  V30 4019 N 391.869 5.78949 0.424126 0
M  V30 4020 H 394.634 2.38791 -1.81105 0
M  V30 4021 H 392.195 1.19681 -1.09032 0
M  V30 4022 H 394.187 4.04572 0.101679 0
M  V30 4023 H 392.757 3.07873 0.541575 0
M  V30 4024 H 391.977 3.44444 -1.91707 0
M  V30 4025 H 393.265 4.65432 -2.05549 0
M  V30 4026 H 392.663 5.56948 0.991209 0
M  V30 4027 H 391.22 6.47334 0.761691 0
M  V30 4028 N 394.653 0.992116 1.22453 0
M  V30 4029 C 395.901 0.666215 1.90804 0
M  V30 4030 C 396.222 -0.804152 1.77647 0
M  V30 4031 O 395.492 -1.57629 1.16318 0
M  V30 4032 H 394.072 0.243423 0.706225 0
M  V30 4033 H 396.734 1.25845 1.48825 0
M  V30 4034 H 395.83 0.928069 2.97982 0
M  V30 4035 N 396.131 -1.37776 0.765217 0
M  V30 4036 C 397.078 -2.30342 0.145274 0
M  V30 4037 C 398.048 -1.5077 -0.696971 0
M  V30 4038 O 399.233 -1.79362 -0.650689 0
M  V30 4039 C 396.373 -3.37227 -0.732939 0
M  V30 4040 C 395.486 -4.31819 0.125199 0
M  V30 4041 C 394.621 -5.25777 -0.757107 0
M  V30 4042 C 393.66 -6.12012 0.103963 0
M  V30 4043 N 392.797 -6.98232 -0.735953 0
M  V30 4044 H 397.637 -2.8278 0.940195 0
M  V30 4045 H 395.174 -1.39211 0.475255 0
M  V30 4046 H 397.132 -3.97818 -1.25686 0
M  V30 4047 H 395.762 -2.86171 -1.49353 0
M  V30 4048 H 394.814 -3.7259 0.766865 0
M  V30 4049 H 396.126 -4.92509 0.789683 0
M  V30 4050 H 395.28 -5.91541 -1.34776 0
M  V30 4051 H 394.019 -4.65481 -1.45529 0
M  V30 4052 H 393.024 -5.45233 0.707197 0
M  V30 4053 H 394.249 -6.74379 0.799381 0
M  V30 4054 H 392.195 -6.40472 -1.41887 0
M  V30 4055 H 392.112 -7.55891 -0.128624 0
M  V30 4056 H 393.38 -7.68393 -1.31121 0
M  V30 4057 N 397.609 -0.515225 -1.4894 0
M  V30 4058 C 398.857 0.0241671 -2.02086 0
M  V30 4059 C 399.178 1.3616 -1.3959 0
M  V30 4060 O 398.448 1.87841 -0.556121 0
M  V30 4061 H 397.028 0.0119203 -0.746905 0
M  V30 4062 H 399.69 -0.675702 -1.82812 0
M  V30 4063 H 398.786 0.143385 -3.1177 0
M  V30 4064 N 399.087 1.5561 -0.249682 0
M  V30 4065 C 400.019 2.18834 0.681496 0
M  V30 4066 C 401.032 1.16546 1.1367 0
M  V30 4067 O 402.221 1.43397 1.06299 0
M  V30 4068 C 399.321 2.77992 1.9384 0
M  V30 4069 C 398.494 4.05725 1.63419 0
M  V30 4070 C 397.553 4.49174 2.74096 0
M  V30 4071 O 396.579 5.15492 2.41364 0
M  V30 4072 N 397.781 4.17191 4.03649 0
M  V30 4073 H 400.546 2.9937 0.140514 0
M  V30 4074 H 398.107 1.6175 -0.0697541 0
M  V30 4075 H 400.099 3.04015 2.67127 0
M  V30 4076 H 398.669 2.01596 2.38909 0
M  V30 4077 H 397.889 3.87261 0.736358 0
M  V30 4078 H 399.177 4.88999 1.40562 0
M  V30 4079 H 398.575 3.63955 4.33074 0
M  V30 4080 H 397.132 4.48043 4.73393 0
M  V30 4081 N 400.565 -0.0233959 1.57583 0
M  V30 4082 C 401.528 -1.00693 2.05897 0
M  V30 4083 C 402.528 -1.28693 0.964092 0
M  V30 4084 O 403.718 -1.23602 1.22753 0
M  V30 4085 C 400.85 -2.33825 2.4807 0
M  V30 4086 H 402.043 -0.589476 2.9405 0
M  V30 4087 H 399.596 -0.270354 1.53944 0
M  V30 4088 H 400.331 -2.80307 1.6309 0
M  V30 4089 H 400.116 -2.1483 3.2801 0
M  V30 4090 H 401.606 -3.04426 2.85857 0
M  V30 4091 N 402.043 -1.548 -0.295768 0
M  V30 4092 C 403.459 -1.4613 -0.641722 0
M  V30 4093 C 403.659 -0.656771 -1.90496 0
M  V30 4094 O 402.715 -0.166547 -2.5195 0
M  V30 4095 C 404.028 -2.90141 -0.789852 0
M  V30 4096 C 405.576 -3.00216 -0.885396 0
M  V30 4097 C 406.051 -4.45434 -1.06548 0
M  V30 4098 N 407.542 -4.49166 -1.13156 0
M  V30 4099 C 408.277 -5.58717 -1.28929 0
M  V30 4100 N 407.773 -6.78182 -1.41567 0
M  V30 4101 N 409.566 -5.46415 -1.31859 0
M  V30 4102 H 401.717 -2.05574 0.534147 0
M  V30 4103 H 403.98 -0.931259 0.177372 0
M  V30 4104 H 403.686 -3.51635 0.0675598 0
M  V30 4105 H 403.56 -3.37859 -1.67724 0
M  V30 4106 H 405.947 -2.38833 -1.73329 0
M  V30 4107 H 406.028 -2.55787 0.0261185 0
M  V30 4108 H 405.672 -5.07413 -0.222335 0
M  V30 4109 H 405.602 -4.87499 -1.9913 0
M  V30 4110 H 408.093 -3.631 -1.04721 0
M  V30 4111 H 408.406 -7.57428 -1.53372 0
M  V30 4112 H 406.751 -6.81037 -1.38613 0
M  V30 4113 H 409.942 -4.5203 -1.21601 0
M  V30 4114 H 410.115 -6.31841 -1.43808 0
M  V30 4115 N 403.521 0.559213 -1.47345 0
M  V30 4116 C 404.769 1.31388 -1.53563 0
M  V30 4117 C 405.09 1.93985 -0.198678 0
M  V30 4118 O 404.36 1.79825 0.777167 0
M  V30 4119 H 402.94 0.487901 -0.565652 0
M  V30 4120 H 405.602 0.65315 -1.8363 0
M  V30 4121 H 404.698 2.10844 -2.30111 0
M  V30 4122 N 404.999 1.35443 0.805782 0
M  V30 4123 C 406.224 1.32037 1.59941 0
M  V30 4124 C 406.649 -0.0994215 1.87837 0
M  V30 4125 O 406.007 -1.06648 1.46615 0
M  V30 4126 C 406.055 2.13354 2.90711 0
M  V30 4127 O 405.159 1.5148 3.83572 0
M  V30 4128 H 404.5 0.452666 0.485787 0
M  V30 4129 H 407.03 1.78496 1.00002 0
M  V30 4130 H 407.04 2.25338 3.40128 0
M  V30 4131 H 405.715 3.16572 2.69732 0
M  V30 4132 H 404.292 1.4834 3.42125 0
M  V30 4133 N 406.477 -1.02803 1.19454 0
M  V30 4134 C 407.754 -1.73299 0.907013 0
M  V30 4135 C 408.134 -2.02772 -0.587086 0
M  V30 4136 O 407.482 -1.68304 -1.54551 0
M  V30 4137 C 407.692 -3.00912 1.76785 0
M  V30 4138 C 409.04 -3.74403 2.00268 0
M  V30 4139 O 410.064 -3.10841 1.73943 0
M  V30 4140 O 408.923 -4.88675 2.4466 0
M  V30 4141 H 406.017 -0.754727 0.338106 0
M  V30 4142 H 408.563 -1.08754 1.30271 0
M  V30 4143 H 407.335 -2.75366 2.7801 0
M  V30 4144 H 406.958 -3.73197 1.37149 0
M  V30 4145 N 407.956 -0.998596 -1.21925 0
M  V30 4146 C 409.204 -0.676325 -1.90448 0
M  V30 4147 C 409.525 0.794719 -1.78071 0
M  V30 4148 O 408.795 1.5701 -1.17152 0
M  V30 4149 H 407.375 -0.247165 -0.704925 0
M  V30 4150 H 410.037 -1.26633 -1.48156 0
M  V30 4151 H 409.133 -0.943858 -2.97486 0
M  V30 4152 N 409.434 1.37368 -0.772513 0
M  V30 4153 C 410.659 2.0447 -0.347386 0
M  V30 4154 C 411.084 1.57882 1.0225 0
M  V30 4155 O 410.442 0.73941 1.65537 0
M  V30 4156 C 410.49 3.58369 -0.400479 0
M  V30 4157 O 409.594 4.0803 0.598789 0
M  V30 4158 H 408.935 0.646773 -0.15027 0
M  V30 4159 H 411.465 1.75667 -1.04892 0
M  V30 4160 H 411.475 4.07183 -0.258045 0
M  V30 4161 H 410.15 3.91633 -1.39986 0
M  V30 4162 H 408.727 3.70534 0.419411 0
M  V30 4163 N 410.912 0.523116 1.48665 0
M  V30 4164 C 412.137 -0.0117284 2.07397 0
M  V30 4165 C 412.562 -1.28031 1.37803 0
M  V30 4166 O 411.92 -1.75836 0.441762 0
M  V30 4167 C 411.968 -0.225786 3.59892 0
M  V30 4168 O 411.072 -1.29592 3.91509 0
M  V30 4169 H 410.413 0.0360673 0.66302 0
M  V30 4170 H 412.943 0.729066 1.9117 0
M  V30 4171 H 412.953 -0.450552 4.05505 0
M  V30 4172 H 411.628 0.700944 4.09951 0
M  V30 4173 H 410.205 -1.05436 3.57684 0
M  V30 4174 N 412.39 -1.55475 0.257931 0
M  V30 4175 C 413.615 -2.04064 -0.370488 0
M  V30 4176 C 414.04 -1.13565 -1.49948 0
M  V30 4177 O 413.398 -0.130781 -1.80828 0
M  V30 4178 C 413.446 -3.50554 -0.845237 0
M  V30 4179 O 412.55 -3.63173 -1.95394 0
M  V30 4180 H 411.891 -0.659257 -0.0792243 0
M  V30 4181 H 414.421 -2.00903 0.387212 0
M  V30 4182 H 414.431 -3.91588 -1.14555 0
M  V30 4183 H 413.106 -4.15896 -0.0191259 0
M  V30 4184 H 411.683 -3.34039 -1.65748 0
M  V30 4185 N 413.868 0.0150385 -1.57593 0
M  V30 4186 C 415.115 0.703001 -1.89906 0
M  V30 4187 C 415.443 1.74604 -0.856944 0
M  V30 4188 O 414.698 1.95197 0.140287 0
M  V30 4189 C 414.997 1.39686 -3.28972 0
M  V30 4190 C 414.663 0.488457 -4.48246 0
M  V30 4191 C 413.325 0.2383 -4.8061 0
M  V30 4192 C 415.677 -0.137881 -5.21018 0
M  V30 4193 C 413.005 -0.646738 -5.83125 0
M  V30 4194 C 415.357 -1.0107 -6.24474 0
M  V30 4195 C 414.021 -1.27019 -6.55303 0
M  V30 4196 H 413.291 0.257246 -0.694914 0
M  V30 4197 H 415.938 -0.037259 -1.91464 0
M  V30 4198 H 414.243 2.21079 -3.23468 0
M  V30 4199 H 415.94 1.93495 -3.51227 0
M  V30 4200 H 412.53 0.693593 -4.22951 0
M  V30 4201 H 416.714 0.0423953 -4.96282 0
M  V30 4202 H 411.97 -0.855937 -6.05379 0
M  V30 4203 H 416.144 -1.50247 -6.79999 0
M  V30 4204 H 413.771 -1.95769 -7.3456 0
M  V30 4205 N 415.346 1.54954 0.287554 0
M  V30 4206 C 416.574 1.78881 1.03967 0
M  V30 4207 C 416.989 0.554894 1.80462 0
M  V30 4208 O 416.346 -0.475676 1.76192 0
M  V30 4209 C 416.397 3.00488 2.0097 0
M  V30 4210 O 416.118 4.19113 1.27577 0
M  V30 4211 C 417.619 3.36907 2.88112 0
M  V30 4212 H 414.839 0.596259 0.307761 0
M  V30 4213 H 417.383 2.01937 0.322749 0
M  V30 4214 H 415.538 2.79601 2.68145 0
M  V30 4215 H 415.952 4.87765 1.92835 0
M  V30 4216 H 417.426 4.25205 3.52001 0
M  V30 4217 H 417.903 2.55659 3.57121 0
M  V30 4218 H 418.509 3.60001 2.26449 0
M  V30 4219 N 416.824 -0.551391 1.4764 0
M  V30 4220 C 417.734 -1.68525 1.63207 0
M  V30 4221 C 418.75 -1.6621 0.514815 0
M  V30 4222 O 419.926 -1.85551 0.783113 0
M  V30 4223 C 416.991 -3.05025 1.64805 0
M  V30 4224 C 416.052 -3.18362 2.88 0
M  V30 4225 C 415.285 -4.4835 2.89513 0
M  V30 4226 O 415.508 -5.34163 2.00065 0
M  V30 4227 O 414.442 -4.65602 3.81443 0
M  V30 4228 H 418.268 -1.58333 2.59161 0
M  V30 4229 H 415.853 -0.722063 1.30792 0
M  V30 4230 H 417.735 -3.86245 1.68502 0
M  V30 4231 H 416.41 -3.15587 0.720197 0
M  V30 4232 H 415.317 -2.36518 2.89845 0
M  V30 4233 H 416.65 -3.12707 3.80099 0
M  V30 4234 N 418.302 -1.35869 -0.798587 0
M  V30 4235 C 419.212 -1.31578 -1.94228 0
M  V30 4236 C 420.228 -0.21939 -1.72611 0
M  V30 4237 O 421.404 -0.450167 -1.96305 0
M  V30 4238 C 418.469 -1.09528 -3.28944 0
M  V30 4239 C 417.53 -2.28556 -3.63402 0
M  V30 4240 C 416.763 -2.07549 -4.9169 0
M  V30 4241 O 416.986 -1.046 -5.60727 0
M  V30 4242 O 415.92 -2.95106 -5.24591 0
M  V30 4243 H 419.746 -2.27847 -2.00796 0
M  V30 4244 H 417.331 -1.16322 -0.937526 0
M  V30 4245 H 419.213 -0.991127 -4.09579 0
M  V30 4246 H 417.888 -0.16315 -3.23289 0
M  V30 4247 H 416.795 -2.44538 -2.83112 0
M  V30 4248 H 418.128 -3.20244 -3.73771 0
M  V30 4249 N 419.78 1.02168 -1.19998 0
M  V30 4250 C 420.71 2.12488 -0.96804 0
M  V30 4251 C 421.691 1.69799 0.101185 0
M  V30 4252 O 422.876 1.94121 -0.0552993 0
M  V30 4253 C 420.006 3.43479 -0.513776 0
M  V30 4254 C 418.96 3.99884 -1.52566 0
M  V30 4255 C 418.286 5.26582 -0.928214 0
M  V30 4256 C 419.586 4.33861 -2.90795 0
M  V30 4257 H 421.28 2.32149 -1.89069 0
M  V30 4258 H 418.826 1.11564 -0.910468 0
M  V30 4259 H 420.779 4.20036 -0.338774 0
M  V30 4260 H 419.503 3.23561 0.444493 0
M  V30 4261 H 418.162 3.25429 -1.68794 0
M  V30 4262 H 417.81 5.02986 0.0378289 0
M  V30 4263 H 417.51 5.65284 -1.60397 0
M  V30 4264 H 419.034 6.05799 -0.764167 0
M  V30 4265 H 420.448 5.01327 -2.78109 0
M  V30 4266 H 418.845 4.83664 -3.55231 0
M  V30 4267 H 419.915 3.42848 -3.42904 0
M  V30 4268 N 421.258 1.00505 1.21394 0
M  V30 4269 C 422.483 0.706367 1.95001 0
M  V30 4270 C 422.908 -0.72463 1.73582 0
M  V30 4271 O 422.266 -1.49702 1.0227 0
M  V30 4272 C 422.314 1.03299 3.45487 0
M  V30 4273 O 421.418 0.138275 4.12168 0
M  V30 4274 H 420.759 0.263175 0.609619 0
M  V30 4275 H 423.289 1.34531 1.54151 0
M  V30 4276 H 423.299 0.979872 3.96059 0
M  V30 4277 H 421.974 2.07567 3.60401 0
M  V30 4278 H 420.551 0.247928 3.72075 0
M  V30 4279 N 422.737 -1.36956 0.779787 0
M  V30 4280 C 424.014 -1.93697 0.272156 0
M  V30 4281 C 424.394 -1.71267 -1.23413 0
M  V30 4282 O 423.742 -1.06607 -2.02107 0
M  V30 4283 C 423.952 -3.42812 0.654291 0
M  V30 4284 C 425.3 -4.19921 0.628602 0
M  V30 4285 O 426.324 -3.51209 0.594172 0
M  V30 4286 O 425.183 -5.42465 0.662864 0
M  V30 4287 H 422.277 -0.824447 0.0649286 0
M  V30 4288 H 424.823 -1.46196 0.861682 0
M  V30 4289 H 423.595 -3.52754 1.69353 0
M  V30 4290 H 423.218 -3.97582 0.0381369 0
M  V30 4291 N 424.215 -0.530993 -1.48385 0
M  V30 4292 C 425.463 0.00273189 -2.021 0
M  V30 4293 C 425.784 1.34672 -1.41027 0
M  V30 4294 O 425.054 1.8724 -0.576012 0
M  V30 4295 H 423.634 0.00399774 -0.746989 0
M  V30 4296 H 426.296 -0.695054 -1.82085 0
M  V30 4297 H 425.392 0.11031 -3.11905 0
M  V30 4298 N 425.693 1.55336 -0.266172 0
M  V30 4299 C 426.921 2.03801 0.356756 0
M  V30 4300 C 427.336 1.14485 1.50129 0
M  V30 4301 O 426.693 0.163121 1.8177 0
M  V30 4302 C 426.744 3.51455 0.846281 0
M  V30 4303 O 426.465 4.37371 -0.252663 0
M  V30 4304 C 427.966 4.15767 1.53794 0
M  V30 4305 H 425.186 0.665906 0.0825218 0
M  V30 4306 H 427.73 2.00636 -0.39566 0
M  V30 4307 H 425.885 3.55092 1.54881 0
M  V30 4308 H 426.299 5.24358 0.122173 0
M  V30 4309 H 427.773 5.20714 1.83198 0
M  V30 4310 H 428.25 3.63404 2.46646 0
M  V30 4311 H 428.856 4.16107 0.879488 0
M  V30 4312 N 427.171 -0.0066808 1.57599 0
M  V30 4313 C 428.118 -1.00024 2.08 0
M  V30 4314 C 429.088 -1.34549 0.973943 0
M  V30 4315 O 430.273 -1.44502 1.24595 0
M  V30 4316 C 427.413 -2.2891 2.58252 0
M  V30 4317 C 426.526 -2.00346 3.82734 0
M  V30 4318 C 425.661 -3.23265 4.21513 0
M  V30 4319 C 424.7 -2.90357 5.3885 0
M  V30 4320 N 423.837 -4.05793 5.72954 0
M  V30 4321 H 428.677 -0.563499 2.92624 0
M  V30 4322 H 426.214 -0.266592 1.44664 0
M  V30 4323 H 428.172 -3.04247 2.85464 0
M  V30 4324 H 426.802 -2.70265 1.76512 0
M  V30 4325 H 425.854 -1.15406 3.62471 0
M  V30 4326 H 427.166 -1.72086 4.68175 0
M  V30 4327 H 426.32 -4.06953 4.49971 0
M  V30 4328 H 425.059 -3.54657 3.34768 0
M  V30 4329 H 424.064 -2.05075 5.10122 0
M  V30 4330 H 425.289 -2.60219 6.27266 0
M  V30 4331 H 423.235 -4.37094 4.89167 0
M  V30 4332 H 423.152 -3.81034 6.52954 0
M  V30 4333 H 424.42 -4.90289 6.06001 0
M  V30 4334 N 428.649 -1.55105 -0.279332 0
M  V30 4335 C 429.898 -1.74618 -1.00952 0
M  V30 4336 C 430.211 -0.551096 -1.87676 0
M  V30 4337 O 431.417 -0.628507 -2.64125 0
M  V30 4338 C 429.873 -3.09025 -1.84476 0
M  V30 4339 C 429.481 -4.36081 -1.0265 0
M  V30 4340 C 431.225 -3.37891 -2.56963 0
M  V30 4341 C 429.132 -5.6153 -1.85576 0
M  V30 4342 H 428.062 -0.650868 -0.38064 0
M  V30 4343 H 430.713 -1.81569 -0.265475 0
M  V30 4344 H 429.095 -2.96095 -2.62952 0
M  V30 4345 H 430.269 -4.59909 -0.286354 0
M  V30 4346 H 428.584 -4.14312 -0.416464 0
M  V30 4347 H 431.181 -4.28822 -3.19399 0
M  V30 4348 H 431.524 -2.57737 -3.26921 0
M  V30 4349 H 432.057 -3.5189 -1.85522 0
M  V30 4350 H 428.796 -6.44413 -1.2005 0
M  V30 4351 H 428.316 -5.41854 -2.57204 0
M  V30 4352 H 429.995 -5.99594 -2.43096 0
M  V30 4353 N 430.127 0.543554 -1.4793 0
M  V30 4354 C 431.075 1.67039 -1.61866 0
M  V30 4355 C 432.069 1.62294 -0.48549 0
M  V30 4356 O 433.275 1.67315 -0.66376 0
M  V30 4357 H 429.65 0.552954 -0.509652 0
M  V30 4358 H 431.621 1.52426 -2.56533 0
M  V30 4359 C 430.37 3.05357 -1.6629 0
M  V30 4360 H 429.693 3.09696 -2.5284 0
M  V30 4361 H 431.133 3.83855 -1.80088 0
M  V30 4362 C 429.592 3.34531 -0.398861 0
M  V30 4363 O 430.122 3.98649 0.494162 0
M  V30 4364 N 428.328 2.89299 -0.2747 0
M  V30 4365 H 427.875 2.37298 -1.00236 0
M  V30 4366 H 427.833 3.09188 0.570075 0
M  V30 4367 N 431.605 1.3629 0.791371 0
M  V30 4368 C 432.835 1.33368 1.57786 0
M  V30 4369 C 433.243 -0.0875188 1.88997 0
M  V30 4370 O 432.586 -1.05427 1.50435 0
M  V30 4371 C 432.648 2.08802 2.92646 0
M  V30 4372 C 432.312 3.57903 2.84174 0
M  V30 4373 C 433.309 4.52191 2.56553 0
M  V30 4374 C 430.994 4.00762 3.02812 0
M  V30 4375 C 432.988 5.87315 2.47669 0
M  V30 4376 C 430.675 5.35977 2.93551 0
M  V30 4377 C 431.673 6.29066 2.66017 0
M  V30 4378 O 431.361 7.61798 2.56746 0
M  V30 4379 H 431.093 0.459166 0.496128 0
M  V30 4380 H 433.647 1.79952 0.990269 0
M  V30 4381 H 431.877 1.56878 3.53449 0
M  V30 4382 H 433.566 1.98762 3.53904 0
M  V30 4383 H 434.332 4.20393 2.41858 0
M  V30 4384 H 430.211 3.2868 3.2325 0
M  V30 4385 H 433.755 6.59943 2.26099 0
M  V30 4386 H 429.652 5.67384 3.07808 0
M  V30 4387 H 430.42 7.71898 2.72242 0
M  V30 4388 N 433.083 -1.0153 1.20538 0
M  V30 4389 C 434.046 -2.0826 0.957098 0
M  V30 4390 C 435.046 -1.60657 -0.0678655 0
M  V30 4391 O 436.236 -1.73385 0.168332 0
M  V30 4392 C 433.368 -3.38033 0.441188 0
M  V30 4393 H 434.561 -2.31719 1.90384 0
M  V30 4394 H 432.114 -1.1835 1.02093 0
M  V30 4395 H 432.849 -3.20249 -0.510961 0
M  V30 4396 H 432.634 -3.73911 1.18038 0
M  V30 4397 H 434.124 -4.16613 0.287009 0
M  V30 4398 N 434.561 -1.01147 -1.20859 0
M  V30 4399 C 435.509 -0.57059 -2.25493 0
M  V30 4400 C 436.503 0.388109 -1.64894 0
M  V30 4401 O 437.709 0.258592 -1.78133 0
M  V30 4402 H 434.084 -0.166191 -0.733406 0
M  V30 4403 H 436.055 -1.46411 -2.60012 0
M  V30 4404 C 434.804 0.0805241 -3.47607 0
M  V30 4405 H 434.127 -0.648156 -3.94511 0
M  V30 4406 H 435.567 0.352197 -4.22535 0
M  V30 4407 C 434.026 1.32175 -3.09889 0
M  V30 4408 O 434.556 2.41553 -3.20959 0
M  V30 4409 N 432.762 1.20392 -2.64488 0
M  V30 4410 H 432.309 0.313905 -2.5568 0
M  V30 4411 H 432.267 2.03541 -2.39621 0
M  V30 4412 N 436.039 1.36541 -0.78704 0
M  V30 4413 C 436.986 2.30082 -0.181901 0
M  V30 4414 C 437.956 1.5186 0.672896 0
M  V30 4415 O 439.141 1.80374 0.622072 0
M  V30 4416 C 436.281 3.3835 0.679197 0
M  V30 4417 C 435.394 4.31565 -0.193882 0
M  V30 4418 C 434.529 5.26915 0.673364 0
M  V30 4419 C 433.568 6.11769 -0.201315 0
M  V30 4420 N 432.705 6.99315 0.624777 0
M  V30 4421 H 437.545 2.81248 -0.985064 0
M  V30 4422 H 435.082 1.38437 -0.497342 0
M  V30 4423 H 437.04 3.99767 1.19341 0
M  V30 4424 H 435.67 2.8851 1.44781 0
M  V30 4425 H 434.722 3.71323 -0.826044 0
M  V30 4426 H 436.034 4.91191 -0.867937 0
M  V30 4427 H 435.188 5.9361 1.25348 0
M  V30 4428 H 433.927 4.67737 1.38105 0
M  V30 4429 H 432.932 5.44039 -0.793849 0
M  V30 4430 H 434.157 6.73022 -0.906568 0
M  V30 4431 H 432.103 6.42648 1.3168 0
M  V30 4432 H 432.02 7.56 0.00835237 0
M  V30 4433 H 433.288 7.70382 1.18879 0
M  V30 4434 N 437.518 0.538854 1.48102 0
M  V30 4435 C 438.764 0.00801365 2.02798 0
M  V30 4436 C 439.097 -1.3309 1.41424 0
M  V30 4437 O 438.372 -1.86169 0.563158 0
M  V30 4438 C 438.655 -0.104589 3.59948 0
M  V30 4439 C 438.508 1.26012 4.31788 0
M  V30 4440 C 439.827 -0.827055 4.32259 0
M  V30 4441 H 436.946 0.00438624 0.736987 0
M  V30 4442 H 439.588 0.6976 1.7673 0
M  V30 4443 H 437.738 -0.691893 3.82289 0
M  V30 4444 H 439.41 1.88922 4.2084 0
M  V30 4445 H 437.653 1.83968 3.92859 0
M  V30 4446 H 438.324 1.13424 5.40221 0
M  V30 4447 H 440.8 -0.328578 4.14801 0
M  V30 4448 H 439.676 -0.87476 5.41885 0
M  V30 4449 H 439.937 -1.87927 4.0017 0
M  V30 4450 N 438.996 -1.55193 0.274407 0
M  V30 4451 C 440.245 -1.98758 -0.343213 0
M  V30 4452 C 440.558 -1.16624 -1.5703 0
M  V30 4453 O 441.764 -1.5033 -2.26082 0
M  V30 4454 C 440.22 -3.53759 -0.661996 0
M  V30 4455 C 439.828 -4.4467 0.54524 0
M  V30 4456 C 441.572 -4.05916 -1.24228 0
M  V30 4457 C 439.479 -5.91058 0.201084 0
M  V30 4458 H 438.409 -0.742353 -0.132014 0
M  V30 4459 H 441.06 -1.79545 0.378948 0
M  V30 4460 H 439.442 -3.68772 -1.44304 0
M  V30 4461 H 440.616 -4.41426 1.32212 0
M  V30 4462 H 438.931 -4.03143 1.04232 0
M  V30 4463 H 441.528 -5.12831 -1.51357 0
M  V30 4464 H 441.871 -3.54908 -2.17592 0
M  V30 4465 H 442.404 -3.9434 -0.523542 0
M  V30 4466 H 439.143 -6.46161 1.10258 0
M  V30 4467 H 438.663 -5.97373 -0.539045 0
M  V30 4468 H 440.342 -6.46669 -0.206954 0
M  V30 4469 N 440.474 -0.00167713 -1.576 0
M  V30 4470 C 441.422 1.0074 -2.09652 0
M  V30 4471 C 442.416 1.35483 -1.01689 0
M  V30 4472 O 443.622 1.34028 -1.20152 0
M  V30 4473 H 439.997 0.342537 -0.669457 0
M  V30 4474 H 441.968 0.542841 -2.93421 0
M  V30 4475 C 440.717 2.2899 -2.61647 0
M  V30 4476 H 440.04 2.03124 -3.44355 0
M  V30 4477 H 441.48 2.9787 -3.01744 0
M  V30 4478 C 439.939 3.00085 -1.53136 0
M  V30 4479 O 440.469 3.91135 -0.91524 0
M  V30 4480 N 438.675 2.6194 -1.25841 0
M  V30 4481 H 438.222 1.8798 -1.76129 0
M  V30 4482 H 438.18 3.09822 -0.534576 0
M  V30 4483 N 441.952 1.55251 0.271103 0
M  V30 4484 C 442.9 1.89054 1.35504 0
M  V30 4485 C 443.894 0.767064 1.51038 0
M  V30 4486 O 445.1 0.951429 1.528 0
M  V30 4487 H 441.475 0.600072 0.45323 0
M  V30 4488 H 443.446 2.79598 1.04247 0
M  V30 4489 C 442.195 2.18068 2.70817 0
M  V30 4490 H 441.518 3.04005 2.59656 0
M  V30 4491 H 442.958 2.4564 3.45597 0
M  V30 4492 C 441.417 0.988901 3.2206 0
M  V30 4493 O 441.947 0.224501 4.01072 0
M  V30 4494 N 440.153 0.786085 2.79766 0
M  V30 4495 H 439.7 1.40937 2.15626 0
M  V30 4496 H 439.658 -0.00969349 3.14399 0
M  V30 4497 N 443.43 -0.535701 1.48216 0
M  V30 4498 C 444.378 -1.66179 1.62749 0
M  V30 4499 C 445.372 -1.62034 0.49409 0
M  V30 4500 O 446.578 -1.6696 0.672624 0
M  V30 4501 H 442.953 -0.550244 0.512578 0
M  V30 4502 H 444.924 -1.51063 2.57337 0
M  V30 4503 C 443.673 -3.04471 1.67907 0
M  V30 4504 H 442.996 -3.08351 2.54479 0
M  V30 4505 H 444.436 -3.82894 1.82121 0
M  V30 4506 C 442.895 -3.34314 0.416596 0
M  V30 4507 O 443.425 -3.98905 -0.473014 0
M  V30 4508 N 441.631 -2.89149 0.290038 0
M  V30 4509 H 441.178 -2.36764 1.01493 0
M  V30 4510 H 441.136 -3.09486 -0.55367 0
M  V30 4511 N 444.908 -1.36708 -0.784132 0
M  V30 4512 C 446.156 -1.30972 -1.53918 0
M  V30 4513 C 446.477 0.109086 -1.94695 0
M  V30 4514 O 445.747 1.05048 -1.65353 0
M  V30 4515 H 444.327 -0.481819 -0.570841 0
M  V30 4516 H 446.989 -1.71063 -0.934002 0
M  V30 4517 H 446.085 -1.94061 -2.44431 0
M  V30 4518 N 446.386 1.0089 -1.21074 0
M  V30 4519 C 447.334 2.11707 -0.963476 0
M  V30 4520 C 448.328 1.69172 0.0879032 0
M  V30 4521 O 449.534 1.79889 -0.0631415 0
M  V30 4522 H 445.909 0.692026 -0.294287 0
M  V30 4523 H 447.88 2.29743 -1.90422 0
M  V30 4524 C 446.629 3.43473 -0.540509 0
M  V30 4525 H 445.952 3.76634 -1.34114 0
M  V30 4526 H 447.392 4.22044 -0.406777 0
M  V30 4527 C 445.851 3.2849 0.748079 0
M  V30 4528 O 446.381 3.58883 1.8046 0
M  V30 4529 N 444.587 2.81715 0.713081 0
M  V30 4530 H 444.134 2.5718 -0.146973 0
M  V30 4531 H 444.092 2.72071 1.57558 0
M  V30 4532 N 447.864 1.01787 1.20321 0
M  V30 4533 C 448.797 0.533882 2.21867 0
M  V30 4534 C 449.775 -0.419361 1.57099 0
M  V30 4535 O 450.959 -0.339062 1.85426 0
M  V30 4536 C 448.086 -0.222899 3.37966 0
M  V30 4537 C 447.132 0.680091 4.21043 0
M  V30 4538 S 447.965 2.14997 4.90445 0
M  V30 4539 C 449.121 1.40339 6.09964 0
M  V30 4540 H 449.354 1.39429 2.62577 0
M  V30 4541 H 446.887 0.826867 1.30393 0
M  V30 4542 H 448.845 -0.653425 4.05266 0
M  V30 4543 H 447.506 -1.0589 2.95713 0
M  V30 4544 H 446.699 0.0964704 5.03908 0
M  V30 4545 H 446.301 1.04845 3.59004 0
M  V30 4546 H 448.593 0.68407 6.74038 0
M  V30 4547 H 449.536 2.20823 6.72787 0
M  V30 4548 H 449.944 0.905716 5.57187 0
M  V30 4549 N 449.342 -1.36122 0.79427 0
M  V30 4550 C 450.588 -1.99846 0.378542 0
M  V30 4551 C 450.943 -1.61898 -1.03955 0
M  V30 4552 O 450.236 -0.866013 -1.70912 0
M  V30 4553 C 450.43 -3.5409 0.48527 0
M  V30 4554 C 450.259 -4.0702 1.91219 0
M  V30 4555 C 449.029 -4.36944 2.53787 0
M  V30 4556 C 451.227 -4.26435 2.87502 0
M  V30 4557 N 449.209 -4.75727 3.88017 0
M  V30 4558 C 450.58 -4.68077 4.06576 0
M  V30 4559 C 452.635 -4.08616 2.84495 0
M  V30 4560 C 451.338 -4.93765 5.23057 0
M  V30 4561 C 453.364 -4.35453 4.00169 0
M  V30 4562 C 452.726 -4.77355 5.17988 0
M  V30 4563 H 448.825 -0.759549 0.186034 0
M  V30 4564 H 451.409 -1.65043 1.0329 0
M  V30 4565 H 449.58 -3.88151 -0.139023 0
M  V30 4566 H 451.312 -4.04675 0.0453192 0
M  V30 4567 H 448.067 -4.26822 2.05231 0
M  V30 4568 H 448.491 -4.99396 4.57092 0
M  V30 4569 H 453.133 -3.75373 1.94564 0
M  V30 4570 H 450.851 -5.25887 6.1357 0
M  V30 4571 H 454.437 -4.2323 3.99208 0
M  V30 4572 H 453.317 -4.97718 6.06008 0
M  V30 4573 N 450.82 -0.546701 -1.47814 0
M  V30 4574 C 452.236 -0.205717 -1.58269 0
M  V30 4575 C 452.436 1.29153 -1.54667 0
M  V30 4576 O 451.492 2.07098 -1.44453 0
M  V30 4577 C 452.805 -0.823065 -2.89216 0
M  V30 4578 C 454.353 -0.793328 -3.02779 0
M  V30 4579 C 454.828 -1.38955 -4.36412 0
M  V30 4580 N 456.319 -1.35227 -4.43021 0
M  V30 4581 C 457.054 -1.78333 -5.44963 0
M  V30 4582 N 456.55 -2.29246 -6.53772 0
M  V30 4583 N 458.343 -1.69467 -5.35945 0
M  V30 4584 H 450.494 -1.5196 -1.48398 0
M  V30 4585 H 452.757 -0.633078 -0.705632 0
M  V30 4586 H 452.463 -1.8749 -2.97558 0
M  V30 4587 H 452.337 -0.309915 -3.75925 0
M  V30 4588 H 454.724 0.249784 -2.94041 0
M  V30 4589 H 454.805 -1.34412 -2.17639 0
M  V30 4590 H 454.449 -2.43168 -4.45906 0
M  V30 4591 H 454.379 -0.814291 -5.20266 0
M  V30 4592 H 456.87 -0.979739 -3.64979 0
M  V30 4593 H 457.183 -2.60089 -7.27718 0
M  V30 4594 H 455.528 -2.3325 -6.5469 0
M  V30 4595 H 458.719 -1.29477 -4.49837 0
M  V30 4596 H 458.892 -2.03381 -6.15256 0
M  V30 4597 N 452.299 1.55045 -0.282633 0
M  V30 4598 C 453.548 1.98938 0.332667 0
M  V30 4599 C 453.861 1.17455 1.56409 0
M  V30 4600 O 455.067 1.51527 2.25282 0
M  V30 4601 C 453.523 3.54105 0.643226 0
M  V30 4602 C 453.131 4.44374 -0.568814 0
M  V30 4603 C 454.875 4.06569 1.22074 0
M  V30 4604 C 452.782 5.90943 -0.232426 0
M  V30 4605 H 451.712 0.743043 0.128075 0
M  V30 4606 H 454.363 1.79341 -0.388464 0
M  V30 4607 H 452.745 3.69532 1.42346 0
M  V30 4608 H 453.919 4.40718 -1.34551 0
M  V30 4609 H 452.234 4.02585 -1.06369 0
M  V30 4610 H 454.831 5.13626 1.48635 0
M  V30 4611 H 455.174 3.56057 2.15707 0
M  V30 4612 H 455.707 3.94612 0.502621 0
M  V30 4613 H 452.446 6.45567 -1.13683 0
M  V30 4614 H 451.966 5.9765 0.507357 0
M  V30 4615 H 453.645 6.4677 0.172657 0
M  V30 4616 N 453.777 0.010035 1.57597 0
M  V30 4617 C 454.707 -0.976857 2.12084 0
M  V30 4618 C 455.688 -1.35191 1.03235 0
M  V30 4619 O 456.873 -1.43389 1.3097 0
M  V30 4620 C 454.003 -2.26548 2.63236 0
M  V30 4621 C 452.957 -2.03175 3.76701 0
M  V30 4622 C 452.283 -3.38138 4.14206 0
M  V30 4623 C 453.583 -1.38625 5.03568 0
M  V30 4624 H 455.277 -0.523145 2.94794 0
M  V30 4625 H 452.823 -0.250195 1.4181 0
M  V30 4626 H 454.776 -2.95952 2.99984 0
M  V30 4627 H 453.5 -2.74051 1.77661 0
M  V30 4628 H 452.159 -1.36195 3.40362 0
M  V30 4629 H 451.807 -3.83363 3.25641 0
M  V30 4630 H 451.507 -3.23312 4.90656 0
M  V30 4631 H 453.031 -4.08841 4.53521 0
M  V30 4632 H 454.445 -1.98 5.38023 0
M  V30 4633 H 452.842 -1.34256 5.84889 0
M  V30 4634 H 453.912 -0.356722 4.83586 0
M  V30 4635 N 455.255 -1.55392 -0.262866 0
M  V30 4636 C 456.532 -1.67204 -1.01499 0
M  V30 4637 C 456.912 -0.545186 -2.03939 0
M  V30 4638 O 456.26 0.453467 -2.23955 0
M  V30 4639 C 456.47 -3.06847 -1.6627 0
M  V30 4640 C 457.818 -3.64928 -2.17054 0
M  V30 4641 O 458.842 -3.09545 -1.76239 0
M  V30 4642 O 457.701 -4.61984 -2.91947 0
M  V30 4643 H 454.795 -0.679467 -0.471438 0
M  V30 4644 H 457.341 -1.67729 -0.257918 0
M  V30 4645 H 456.113 -3.80309 -0.920915 0
M  V30 4646 H 455.736 -3.10266 -2.48638 0
M  V30 4647 N 456.733 0.527833 -1.48498 0
M  V30 4648 C 457.683 1.62844 -1.5958 0
M  V30 4649 C 458.667 1.54397 -0.452809 0
M  V30 4650 O 459.859 1.62381 -0.704364 0
M  V30 4651 C 456.988 3.01557 -1.64067 0
M  V30 4652 C 456.074 3.151 -2.83853 0
M  V30 4653 N 456.465 2.9861 -4.08247 0
M  V30 4654 C 454.763 3.46158 -2.8123 0
M  V30 4655 C 455.464 3.15626 -4.88626 0
M  V30 4656 N 454.44 3.43298 -4.21483 0
M  V30 4657 H 458.242 1.48708 -2.53502 0
M  V30 4658 H 455.756 0.733343 -1.44899 0
M  V30 4659 H 457.753 3.8062 -1.70101 0
M  V30 4660 H 456.413 3.16783 -0.712636 0
M  V30 4661 H 457.424 2.75329 -4.3865 0
M  V30 4662 H 454.101 3.67728 -1.97692 0
M  V30 4663 H 455.491 3.07596 -5.97356 0
M  V30 4664 N 458.211 1.37122 0.776871 0
M  V30 4665 C 459.459 1.31787 1.53221 0
M  V30 4666 C 459.78 -0.0987589 1.9475 0
M  V30 4667 O 459.05 -1.0417 1.65908 0
M  V30 4668 H 457.63 0.484839 0.568278 0
M  V30 4669 H 460.292 1.71556 0.924917 0
M  V30 4670 H 459.388 1.95355 2.43398 0
M  V30 4671 N 459.689 -1.00246 1.21608 0
M  V30 4672 C 460.652 -2.07233 0.979133 0
M  V30 4673 C 461.652 -1.6072 -0.0508219 0
M  V30 4674 O 462.842 -1.73196 0.186712 0
M  V30 4675 C 459.974 -3.37546 0.477016 0
M  V30 4676 H 461.167 -2.29687 1.92831 0
M  V30 4677 H 458.72 -1.17261 1.03342 0
M  V30 4678 H 459.455 -3.20773 -0.476966 0
M  V30 4679 H 459.24 -3.72638 1.21997 0
M  V30 4680 H 460.73 -4.16285 0.331181 0
M  V30 4681 N 461.167 -1.02423 -1.1978 0
M  V30 4682 C 462.416 -0.713265 -1.88667 0
M  V30 4683 C 462.729 0.7609 -1.80193 0
M  V30 4684 O 463.935 1.18473 -2.44288 0
M  V30 4685 C 462.391 -1.22545 -3.38394 0
M  V30 4686 C 461.999 -2.72706 -3.55437 0
M  V30 4687 C 463.743 -0.990257 -4.12788 0
M  V30 4688 C 461.65 -3.17367 -4.99031 0
M  V30 4689 H 460.58 -0.263105 -0.706606 0
M  V30 4690 H 463.231 -1.23792 -1.35454 0
M  V30 4691 H 461.613 -0.628732 -3.90977 0
M  V30 4692 H 462.787 -3.37993 -3.13205 0
M  V30 4693 H 461.102 -2.94453 -2.94425 0
M  V30 4694 H 463.699 -1.29926 -5.18675 0
M  V30 4695 H 464.042 0.0730761 -4.16236 0
M  V30 4696 H 464.575 -1.55074 -3.66329 0
M  V30 4697 H 461.314 -4.23009 -5.00743 0
M  V30 4698 H 460.834 -2.56805 -5.42044 0
M  V30 4699 H 462.513 -3.10441 -5.67658 0
M  V30 4700 N 462.645 1.35699 -0.801477 0
M  V30 4701 C 463.87 2.03687 -0.390678 0
M  V30 4702 C 464.295 1.60015 0.988778 0
M  V30 4703 O 463.653 0.774357 1.63931 0
M  V30 4704 C 463.701 3.57439 -0.476404 0
M  V30 4705 O 462.805 4.09208 0.512106 0
M  V30 4706 H 462.146 0.64344 -0.163956 0
M  V30 4707 H 464.676 1.73403 -1.08594 0
M  V30 4708 H 464.686 4.06544 -0.344357 0
M  V30 4709 H 463.361 3.88576 -1.48262 0
M  V30 4710 H 461.938 3.7134 0.340721 0
M  V30 4711 N 464.123 0.554532 1.47522 0
M  V30 4712 C 465.053 -0.182974 2.32782 0
M  V30 4713 C 466.034 -0.911377 1.43624 0
M  V30 4714 O 467.219 -0.892366 1.72483 0
M  V30 4715 C 464.349 -1.21513 3.25349 0
M  V30 4716 C 463.303 -0.603355 4.23726 0
M  V30 4717 C 462.629 -1.73995 5.05598 0
M  V30 4718 C 463.929 0.441121 5.20434 0
M  V30 4719 H 465.623 0.52882 2.94693 0
M  V30 4720 H 463.169 0.255759 1.41711 0
M  V30 4721 H 465.122 -1.73922 3.83835 0
M  V30 4722 H 463.846 -1.95683 2.61487 0
M  V30 4723 H 462.505 -0.10059 3.66462 0
M  V30 4724 H 462.153 -2.47063 4.38143 0
M  V30 4725 H 461.853 -1.3364 5.72201 0
M  V30 4726 H 463.377 -2.26735 5.66942 0
M  V30 4727 H 464.791 0.00319931 5.733 0
M  V30 4728 H 463.188 0.763402 5.95224 0
M  V30 4729 H 464.258 1.33799 4.66075 0
M  V30 4730 N 465.601 -1.54893 0.290851 0
M  V30 4731 C 466.849 -1.99538 -0.320756 0
M  V30 4732 C 467.17 -1.18075 -1.55188 0
M  V30 4733 O 466.44 -0.274162 -1.93972 0
M  V30 4734 H 465.02 -0.737052 -0.121507 0
M  V30 4735 H 467.682 -1.90755 0.399832 0
M  V30 4736 H 466.778 -3.06282 -0.599802 0
M  V30 4737 N 467.08 -0.0183926 -1.57589 0
M  V30 4738 C 468.357 0.700621 -1.82622 0
M  V30 4739 C 468.737 1.90951 -0.90005 0
M  V30 4740 O 468.085 2.28452 0.0469145 0
M  V30 4741 C 468.295 1.08899 -3.31575 0
M  V30 4742 C 469.643 1.48514 -3.9778 0
M  V30 4743 O 470.667 1.18227 -3.36007 0
M  V30 4744 O 469.526 2.04903 -5.06633 0
M  V30 4745 H 466.62 0.342743 -0.752633 0
M  V30 4746 H 469.166 -0.0452548 -1.6964 0
M  V30 4747 H 467.938 0.228113 -3.90635 0
M  V30 4748 H 467.561 1.89338 -3.49624 0
M  V30 4749 N 468.558 1.5553 0.254621 0
M  V30 4750 C 469.505 1.89666 1.31512 0
M  V30 4751 C 470.475 0.750057 1.482 0
M  V30 4752 O 471.66 1.00301 1.62309 0
M  V30 4753 C 468.8 2.19009 2.667 0
M  V30 4754 C 467.913 3.46435 2.58083 0
M  V30 4755 C 467.048 3.65386 3.85573 0
M  V30 4756 C 466.087 4.8644 3.71541 0
M  V30 4757 N 465.224 5.01952 4.90906 0
M  V30 4758 H 470.064 2.80109 1.017 0
M  V30 4759 H 467.601 1.38666 0.490938 0
M  V30 4760 H 469.559 2.34025 3.45381 0
M  V30 4761 H 468.189 1.31779 2.94676 0
M  V30 4762 H 467.241 3.39792 1.71013 0
M  V30 4763 H 468.553 4.35258 2.43622 0
M  V30 4764 H 467.707 3.80319 4.72697 0
M  V30 4765 H 466.446 2.74781 4.02922 0
M  V30 4766 H 465.451 4.71491 2.82801 0
M  V30 4767 H 466.676 5.78497 3.55694 0
M  V30 4768 H 464.622 4.14283 5.08631 0
M  V30 4769 H 464.539 5.84851 4.79046 0
M  V30 4770 H 465.807 5.21289 5.7955 0
M  V30 4771 N 470.036 -0.519951 1.48776 0
M  V30 4772 C 471.282 -1.27456 1.58514 0
M  V30 4773 C 471.637 -1.90634 0.260057 0
M  V30 4774 O 470.93 -1.76815 -0.738036 0
M  V30 4775 C 471.124 -2.37864 2.6675 0
M  V30 4776 C 470.953 -1.85509 4.09654 0
M  V30 4777 C 469.723 -1.67661 4.76674 0
M  V30 4778 C 471.921 -1.37783 4.955 0
M  V30 4779 N 469.903 -1.10037 6.03958 0
M  V30 4780 C 471.274 -0.921714 6.1311 0
M  V30 4781 C 473.329 -1.26179 4.81646 0
M  V30 4782 C 472.032 -0.361057 7.18393 0
M  V30 4783 C 474.058 -0.715121 5.8706 0
M  V30 4784 C 473.42 -0.269132 7.03886 0
M  V30 4785 H 469.519 -0.457049 0.634531 0
M  V30 4786 H 472.103 -0.585073 1.85701 0
M  V30 4787 H 470.274 -3.04296 2.41367 0
M  V30 4788 H 472.006 -3.04901 2.66116 0
M  V30 4789 H 468.761 -1.91478 4.33166 0
M  V30 4790 H 469.185 -0.832067 6.71867 0
M  V30 4791 H 473.827 -1.59263 3.91657 0
M  V30 4792 H 471.545 -0.0179127 8.08098 0
M  V30 4793 H 475.131 -0.628376 5.78397 0
M  V30 4794 H 474.011 0.14729 7.84062 0
M  V30 4795 N 471.514 -1.37532 -0.769588 0
M  V30 4796 C 472.791 -1.23392 -1.51768 0
M  V30 4797 C 473.171 0.17157 -2.10402 0
M  V30 4798 O 472.519 1.17943 -1.95708 0
M  V30 4799 C 472.729 -2.33163 -2.59685 0
M  V30 4800 C 474.077 -2.70809 -3.27028 0
M  V30 4801 O 475.101 -2.32355 -2.69981 0
M  V30 4802 O 473.96 -3.37066 -4.30173 0
M  V30 4803 H 471.054 -0.481617 -0.67229 0
M  V30 4804 H 473.6 -1.49318 -0.806368 0
M  V30 4805 H 472.372 -3.27273 -2.14494 0
M  V30 4806 H 471.995 -2.08713 -3.38415 0
M  V30 4807 N 472.992 0.995999 -1.22138 0
M  V30 4808 C 473.922 2.10387 -1.01289 0
M  V30 4809 C 474.903 1.69975 0.0651454 0
M  V30 4810 O 476.088 1.9396 -0.0964628 0
M  V30 4811 C 473.218 3.42312 -0.586517 0
M  V30 4812 C 472.172 3.96558 -1.61014 0
M  V30 4813 C 471.498 5.24494 -1.0397 0
M  V30 4814 C 472.798 4.27595 -2.99933 0
M  V30 4815 H 474.492 2.28086 -1.93951 0
M  V30 4816 H 472.038 1.09607 -0.933928 0
M  V30 4817 H 473.991 4.19223 -0.427793 0
M  V30 4818 H 472.715 3.24431 0.375761 0
M  V30 4819 H 471.374 3.21776 -1.75658 0
M  V30 4820 H 471.022 5.02953 -0.0688703 0
M  V30 4821 H 470.722 5.61755 -1.72352 0
M  V30 4822 H 472.246 6.04042 -0.892494 0
M  V30 4823 H 473.66 4.95315 -2.8868 0
M  V30 4824 H 472.057 4.76021 -3.6541 0
M  V30 4825 H 473.127 3.35498 -3.50099 0
M  V30 4826 N 474.47 1.03057 1.19235 0
M  V30 4827 C 475.403 0.557384 2.21288 0
M  V30 4828 C 476.381 -0.402675 1.57535 0
M  V30 4829 O 477.565 -0.319376 1.85775 0
M  V30 4830 C 474.692 -0.187041 3.38183 0
M  V30 4831 C 473.738 0.72471 4.20298 0
M  V30 4832 S 474.571 2.20187 4.88137 0
M  V30 4833 C 475.727 1.46801 6.08441 0
M  V30 4834 H 475.96 1.42207 2.61083 0
M  V30 4835 H 473.493 0.840651 1.29508 0
M  V30 4836 H 475.451 -0.610405 4.05936 0
M  V30 4837 H 474.112 -1.02748 2.96819 0
M  V30 4838 H 473.305 0.149911 5.03777 0
M  V30 4839 H 472.907 1.08647 3.57871 0
M  V30 4840 H 475.199 0.755522 6.73274 0
M  V30 4841 H 476.142 2.27946 6.70407 0
M  V30 4842 H 476.55 0.964762 5.56195 0
M  V30 4843 N 475.948 -1.35272 0.808662 0
M  V30 4844 C 477.178 -2.02652 0.401953 0
M  V30 4845 C 477.586 -1.6108 -0.992462 0
M  V30 4846 O 476.929 -0.804984 -1.65123 0
M  V30 4847 C 476.991 -3.57174 0.408246 0
M  V30 4848 C 476.655 -4.22019 1.75353 0
M  V30 4849 C 477.652 -4.43552 2.71215 0
M  V30 4850 C 475.337 -4.59093 2.03811 0
M  V30 4851 C 477.331 -5.01264 3.93717 0
M  V30 4852 C 475.018 -5.16519 3.26576 0
M  V30 4853 C 476.016 -5.37546 4.21347 0
M  V30 4854 O 475.704 -5.93761 5.41944 0
M  V30 4855 H 475.436 -0.656495 0.161216 0
M  V30 4856 H 477.99 -1.73829 1.0942 0
M  V30 4857 H 476.22 -3.85197 -0.340608 0
M  V30 4858 H 477.909 -4.05893 0.0235623 0
M  V30 4859 H 478.675 -4.15288 2.50522 0
M  V30 4860 H 474.554 -4.42039 1.30854 0
M  V30 4861 H 478.098 -5.17592 4.67701 0
M  V30 4862 H 473.995 -5.4421 3.47139 0
M  V30 4863 H 474.763 -6.1221 5.43269 0
M  V30 4864 N 477.426 -0.562348 -1.47226 0
M  V30 4865 C 478.672 -0.0402761 -2.0276 0
M  V30 4866 C 479.005 1.30823 -1.43523 0
M  V30 4867 O 478.28 1.85249 -0.592705 0
M  V30 4868 C 478.563 0.047311 -3.60069 0
M  V30 4869 C 478.416 -1.32865 -4.29729 0
M  V30 4870 C 479.735 0.758182 -4.3352 0
M  V30 4871 H 476.854 -0.0161105 -0.736824 0
M  V30 4872 H 479.496 -0.725628 -1.75598 0
M  V30 4873 H 477.646 0.630986 -3.83342 0
M  V30 4874 H 479.318 -1.95593 -4.17781 0
M  V30 4875 H 477.561 -1.90195 -3.89882 0
M  V30 4876 H 478.232 -1.22004 -5.38349 0
M  V30 4877 H 480.708 0.262546 -4.15271 0
M  V30 4878 H 479.584 0.78844 -5.43208 0
M  V30 4879 H 479.845 1.81537 -4.03109 0
M  V30 4880 N 478.904 1.54736 -0.299062 0
M  V30 4881 C 480.152 1.99706 0.31017 0
M  V30 4882 C 480.473 1.18896 1.54559 0
M  V30 4883 O 479.743 0.284445 1.93824 0
M  V30 4884 H 478.323 0.737686 0.117596 0
M  V30 4885 H 480.985 1.9054 -0.409943 0
M  V30 4886 H 480.081 3.06596 0.58355 0
M  V30 4887 N 480.382 0.0267497 1.57577 0
M  V30 4888 C 481.315 -0.99059 2.05579 0
M  V30 4889 C 482.293 -1.31884 0.951065 0
M  V30 4890 O 483.477 -1.43592 1.22121 0
M  V30 4891 C 480.604 -2.31125 2.47586 0
M  V30 4892 C 479.65 -2.13777 3.69055 0
M  V30 4893 S 480.483 -1.4388 5.15809 0
M  V30 4894 C 481.639 -2.77321 5.6111 0
M  V30 4895 H 481.872 -0.581976 2.91548 0
M  V30 4896 H 479.405 -0.184876 1.53289 0
M  V30 4897 H 481.363 -3.07049 2.72454 0
M  V30 4898 H 480.024 -2.6912 1.61967 0
M  V30 4899 H 479.217 -3.11405 3.96287 0
M  V30 4900 H 478.819 -1.45996 3.44327 0
M  V30 4901 H 481.111 -3.73565 5.65204 0
M  V30 4902 H 482.054 -2.54756 6.60685 0
M  V30 4903 H 482.462 -2.82459 4.88751 0
M  V30 4904 N 481.861 -1.55662 -0.24637 0
M  V30 4905 C 483.091 -1.81312 -0.990438 0
M  V30 4906 C 483.499 -0.600234 -1.79426 0
M  V30 4907 O 482.842 0.440537 -1.78339 0
M  V30 4908 C 482.904 -3.0032 -1.97607 0
M  V30 4909 C 482.568 -4.36322 -1.35912 0
M  V30 4910 C 483.565 -5.14295 -0.761348 0
M  V30 4911 C 481.25 -4.83019 -1.37833 0
M  V30 4912 C 483.244 -6.37114 -0.190998 0
M  V30 4913 C 480.931 -6.05786 -0.804128 0
M  V30 4914 C 481.929 -6.82672 -0.211489 0
M  V30 4915 O 481.617 -8.03121 0.353845 0
M  V30 4916 H 481.349 -0.607233 -0.297058 0
M  V30 4917 H 483.903 -2.0356 -0.274351 0
M  V30 4918 H 482.133 -2.73829 -2.73047 0
M  V30 4919 H 483.822 -3.13057 -2.58361 0
M  V30 4920 H 484.588 -4.79337 -0.739013 0
M  V30 4921 H 480.467 -4.23165 -1.829 0
M  V30 4922 H 484.011 -6.97069 0.272206 0
M  V30 4923 H 479.908 -6.40222 -0.823792 0
M  V30 4924 H 480.676 -8.18131 0.245761 0
M  V30 4925 N 483.339 0.512053 -1.4905 0
M  V30 4926 C 484.271 1.63121 -1.6101 0
M  V30 4927 C 485.284 1.55145 -0.493352 0
M  V30 4928 O 486.473 1.61278 -0.764955 0
M  V30 4929 C 483.573 3.01863 -1.54052 0
M  V30 4930 C 482.746 3.35138 -2.81072 0
M  V30 4931 C 481.805 4.5324 -2.67319 0
M  V30 4932 O 480.831 4.55571 -3.41238 0
M  V30 4933 N 482.033 5.52495 -1.78127 0
M  V30 4934 H 484.798 1.53292 -2.5753 0
M  V30 4935 H 482.359 0.699706 -1.45999 0
M  V30 4936 H 484.351 3.78774 -1.42521 0
M  V30 4937 H 482.921 3.05675 -0.654345 0
M  V30 4938 H 482.141 2.4723 -3.07036 0
M  V30 4939 H 483.429 3.54162 -3.65304 0
M  V30 4940 H 482.827 5.53403 -1.17308 0
M  V30 4941 H 481.384 6.28553 -1.72525 0
M  V30 4942 N 484.817 1.37938 0.762283 0
M  V30 4943 C 485.765 1.34569 1.89721 0
M  V30 4944 C 486.759 0.232929 1.67791 0
M  V30 4945 O 487.965 0.401485 1.75465 0
M  V30 4946 H 484.34 0.419594 0.624055 0
M  V30 4947 H 486.311 2.30357 1.8968 0
M  V30 4948 C 485.06 1.17898 3.27101 0
M  V30 4949 H 484.383 2.02781 3.44558 0
M  V30 4950 H 485.823 1.19593 4.06784 0
M  V30 4951 C 484.282 -0.114728 3.36705 0
M  V30 4952 O 484.812 -1.0949 3.8649 0
M  V30 4953 N 483.018 -0.16863 2.9011 0
M  V30 4954 H 482.565 0.62967 2.49786 0
M  V30 4955 H 482.523 -1.03383 2.96916 0
M  V30 4956 N 486.295 -0.989507 1.22664 0
M  V30 4957 C 487.544 -1.72375 1.04737 0
M  V30 4958 C 487.857 -1.91096 -0.417316 0
M  V30 4959 O 489.063 -2.6188 -0.716334 0
M  V30 4960 C 487.519 -3.10161 1.82561 0
M  V30 4961 C 487.127 -2.99358 3.333 0
M  V30 4962 C 488.871 -3.87607 1.73093 0
M  V30 4963 C 486.778 -4.32319 4.03552 0
M  V30 4964 H 485.708 -0.646326 0.388302 0
M  V30 4965 H 488.359 -1.10437 1.46546 0
M  V30 4966 H 486.741 -3.728 1.33552 0
M  V30 4967 H 487.915 -2.45863 3.89728 0
M  V30 4968 H 486.23 -2.35392 3.43481 0
M  V30 4969 H 488.827 -4.86025 2.22899 0
M  V30 4970 H 489.17 -4.10509 0.691976 0
M  V30 4971 H 489.703 -3.31652 2.19663 0
M  V30 4972 H 486.442 -4.14616 5.07714 0
M  V30 4973 H 485.962 -4.85714 3.51911 0
M  V30 4974 H 487.641 -5.01051 4.09337 0
M  V30 4975 N 487.773 -1.03688 -1.18687 0
M  V30 4976 C 489.05 -0.652397 -1.84399 0
M  V30 4977 C 489.43 0.868386 -1.92412 0
M  V30 4978 O 488.778 1.76832 -1.44716 0
M  V30 4979 C 488.988 -1.3238 -3.22919 0
M  V30 4980 C 490.336 -1.45216 -3.98996 0
M  V30 4981 O 491.36 -1.2816 -3.32345 0
M  V30 4982 O 490.219 -1.72975 -5.18403 0
M  V30 4983 H 487.313 -0.227793 -0.795009 0
M  V30 4984 H 489.859 -1.13553 -1.2611 0
M  V30 4985 H 488.631 -2.36202 -3.11968 0
M  V30 4986 H 488.254 -0.829039 -3.88861 0
M  V30 4987 N 489.251 1.34841 -0.815825 0
M  V30 4988 C 490.497 1.99219 -0.410288 0
M  V30 4989 C 490.852 1.63532 1.01366 0
M  V30 4990 O 490.145 0.893093 1.69512 0
M  V30 4991 C 490.339 3.53273 -0.541541 0
M  V30 4992 C 490.168 4.03927 -1.9767 0
M  V30 4993 C 488.938 4.32852 -2.60706 0
M  V30 4994 C 491.136 4.21808 -2.9425 0
M  V30 4995 N 489.118 4.69494 -3.95536 0
M  V30 4996 C 490.489 4.6155 -4.13971 0
M  V30 4997 C 492.544 4.04038 -2.9096 0
M  V30 4998 C 491.247 4.85381 -5.30847 0
M  V30 4999 C 493.273 4.29031 -4.07046 0
M  V30 5000 C 492.635 4.69054 -5.25517 0
M  V30 5001 H 488.734 0.756494 -0.198094 0
M  V30 5002 H 491.318 1.63379 -1.05902 0
M  V30 5003 H 489.489 3.88323 0.0772544 0
M  V30 5004 H 491.221 4.04551 -0.109694 0
M  V30 5005 H 487.976 4.23503 -2.11995 0
M  V30 5006 H 488.4 4.92061 -4.64979 0
M  V30 5007 H 493.042 3.7223 -2.00512 0
M  V30 5008 H 490.76 5.16059 -6.21859 0
M  V30 5009 H 494.346 4.16826 -4.05891 0
M  V30 5010 H 493.226 4.88014 -6.1385 0
M  V30 5011 N 490.729 0.570148 1.46925 0
M  V30 5012 C 492.006 -0.0153259 1.95594 0
M  V30 5013 C 492.386 -1.47232 1.51281 0
M  V30 5014 O 491.734 -2.15574 0.757624 0
M  V30 5015 C 491.944 0.143624 3.48704 0
M  V30 5016 C 493.292 0.00494484 4.246 0
M  V30 5017 O 494.316 0.0718214 3.56128 0
M  V30 5018 O 493.175 -0.141175 5.46318 0
M  V30 5019 H 490.269 -0.0568819 0.825041 0
M  V30 5020 H 492.815 0.637583 1.57267 0
M  V30 5021 H 491.587 1.15699 3.73804 0
M  V30 5022 H 491.21 -0.5463 3.93829 0
M  V30 5023 N 492.207 -1.54576 0.307264 0
M  V30 5024 C 493.155 -2.25208 -0.581723 0
M  V30 5025 C 494.149 -1.26031 -1.13192 0
M  V30 5026 O 495.355 -1.43862 -1.08184 0
M  V30 5027 H 491.73 -0.723173 -0.206214 0
M  V30 5028 H 493.701 -2.98378 0.0364663 0
M  V30 5029 C 492.45 -3.01086 -1.73904 0
M  V30 5030 H 491.773 -3.77208 -1.32491 0
M  V30 5031 H 493.213 -3.5378 -2.33701 0
M  V30 5032 C 491.672 -2.08422 -2.64692 0
M  V30 5033 O 492.202 -1.65636 -3.65961 0
M  V30 5034 N 490.408 -1.74247 -2.32564 0
M  V30 5035 H 489.955 -2.09238 -1.50257 0
M  V30 5036 H 489.913 -1.12524 -2.93574 0
M  V30 5037 N 493.685 -0.035106 -1.57561 0
M  V30 5038 C 494.633 0.962707 -2.11742 0
M  V30 5039 C 495.627 1.33296 -1.0454 0
M  V30 5040 O 496.833 1.31449 -1.22968 0
M  V30 5041 H 493.208 0.32826 -0.676572 0
M  V30 5042 H 495.179 0.48048 -2.94506 0
M  V30 5043 C 493.928 2.23388 -2.66445 0
M  V30 5044 H 493.251 1.95774 -3.48587 0
M  V30 5045 H 494.691 2.91402 -3.07995 0
M  V30 5046 C 493.15 2.96769 -1.59467 0
M  V30 5047 O 493.68 3.89105 -0.998 0
M  V30 5048 N 491.886 2.59212 -1.31369 0
M  V30 5049 H 491.433 1.84202 -1.80076 0
M  V30 5050 H 491.391 3.08618 -0.600173 0
M  V30 5051 N 495.163 1.55791 0.238111 0
M  V30 5052 C 496.093 1.94068 1.29846 0
M  V30 5053 C 497.074 0.806726 1.49753 0
M  V30 5054 O 498.259 1.06772 1.62214 0
M  V30 5055 C 495.389 2.24302 2.65153 0
M  V30 5056 C 494.343 3.40032 2.59927 0
M  V30 5057 C 493.669 3.55829 3.99111 0
M  V30 5058 C 494.969 4.75476 2.16148 0
M  V30 5059 H 496.663 2.82887 0.980563 0
M  V30 5060 H 494.209 1.36105 0.470253 0
M  V30 5061 H 496.162 2.4967 3.39475 0
M  V30 5062 H 494.886 1.32318 2.98596 0
M  V30 5063 H 493.545 3.14687 1.88063 0
M  V30 5064 H 493.193 2.6125 4.29834 0
M  V30 5065 H 492.893 4.3366 3.96501 0
M  V30 5066 H 494.417 3.83528 4.7512 0
M  V30 5067 H 495.831 5.00158 2.80205 0
M  V30 5068 H 494.228 5.56472 2.24631 0
M  V30 5069 H 495.298 4.71946 1.11333 0
M  V30 5070 N 496.642 -0.504142 1.49319 0
M  V30 5071 C 497.89 -1.25598 1.58334 0
M  V30 5072 C 498.211 -1.93114 0.270538 0
M  V30 5073 O 497.481 -1.82585 -0.709891 0
M  V30 5074 H 496.061 -0.466571 0.58337 0
M  V30 5075 H 498.723 -0.584547 1.85928 0
M  V30 5076 H 497.819 -2.02159 2.37778 0
M  V30 5077 N 498.12 -1.38341 -0.754957 0
M  V30 5078 C 499.348 -1.37704 -1.54419 0
M  V30 5079 C 499.763 0.0335243 -1.8877 0
M  V30 5080 O 499.12 0.999773 -1.52679 0
M  V30 5081 C 499.171 -2.23136 -2.84416 0
M  V30 5082 O 498.892 -3.58697 -2.51531 0
M  V30 5083 C 500.393 -2.30664 -3.78562 0
M  V30 5084 H 497.613 -0.471061 -0.477852 0
M  V30 5085 H 500.157 -1.81902 -0.934446 0
M  V30 5086 H 498.312 -1.82403 -3.41772 0
M  V30 5087 H 498.726 -4.03665 -3.34896 0
M  V30 5088 H 500.2 -2.9473 -4.66732 0
M  V30 5089 H 500.677 -1.3199 -4.18898 0
M  V30 5090 H 501.283 -2.71781 -3.27131 0
M  V30 5091 N 499.598 0.982988 -1.23187 0
M  V30 5092 C 500.508 2.10907 -1.02739 0
M  V30 5093 C 501.524 1.73979 0.0273188 0
M  V30 5094 O 502.7 2.00702 -0.16757 0
M  V30 5095 C 499.765 3.41142 -0.618304 0
M  V30 5096 C 498.826 3.92112 -1.74777 0
M  V30 5097 C 498.059 5.16131 -1.3581 0
M  V30 5098 O 498.282 5.6989 -0.241201 0
M  V30 5099 O 497.216 5.61103 -2.17824 0
M  V30 5100 H 501.042 2.31046 -1.97108 0
M  V30 5101 H 498.627 1.09284 -1.01869 0
M  V30 5102 H 500.509 4.19488 -0.400982 0
M  V30 5103 H 499.184 3.2234 0.296421 0
M  V30 5104 H 498.091 3.14895 -2.0197 0
M  V30 5105 H 499.424 4.15364 -2.64071 0
M  V30 5106 N 501.076 1.04316 1.18135 0
M  V30 5107 C 502.322 0.758899 1.88712 0
M  V30 5108 C 502.677 -0.705863 1.78984 0
M  V30 5109 O 501.97 -1.50874 1.18101 0
M  V30 5110 C 502.164 1.16271 3.37958 0
M  V30 5111 C 501.993 2.66518 3.62213 0
M  V30 5112 C 500.763 3.33702 3.79436 0
M  V30 5113 C 502.961 3.64739 3.62588 0
M  V30 5114 N 500.943 4.72904 3.91452 0
M  V30 5115 C 502.314 4.89627 3.80348 0
M  V30 5116 C 504.369 3.58333 3.4569 0
M  V30 5117 C 503.072 6.08879 3.8296 0
M  V30 5118 C 505.098 4.77016 3.49586 0
M  V30 5119 C 504.46 6.00724 3.67845 0
M  V30 5120 H 500.559 0.329795 0.709055 0
M  V30 5121 H 503.143 1.33334 1.4188 0
M  V30 5122 H 501.314 0.616319 3.83479 0
M  V30 5123 H 503.046 0.829205 3.96114 0
M  V30 5124 H 499.801 2.84105 3.78921 0
M  V30 5125 H 500.225 5.45258 4.01277 0
M  V30 5126 H 504.867 2.63663 3.30517 0
M  V30 5127 H 502.585 7.03903 3.96921 0
M  V30 5128 H 506.171 4.73703 3.37782 0
M  V30 5129 H 505.051 6.91022 3.70753 0
M  V30 5130 N 502.554 -1.34406 0.822964 0
M  V30 5131 C 503.8 -1.98999 0.420847 0
M  V30 5132 C 504.155 -1.64067 -1.00498 0
M  V30 5133 O 503.448 -0.902071 -1.69036 0
M  V30 5134 C 503.642 -3.52981 0.560268 0
M  V30 5135 C 503.471 -4.02873 1.99809 0
M  V30 5136 C 502.241 -4.31463 2.62998 0
M  V30 5137 C 504.439 -4.20241 2.96483 0
M  V30 5138 N 502.421 -4.6739 3.9802 0
M  V30 5139 C 503.792 -4.59348 4.16413 0
M  V30 5140 C 505.847 -4.02489 2.93098 0
M  V30 5141 C 504.55 -4.82559 5.33413 0
M  V30 5142 C 506.576 -4.26866 4.09315 0
M  V30 5143 C 505.938 -4.6626 5.27997 0
M  V30 5144 H 502.037 -0.755432 0.202104 0
M  V30 5145 H 504.621 -1.62815 1.06767 0
M  V30 5146 H 502.792 -3.88359 -0.0566596 0
M  V30 5147 H 504.524 -4.04487 0.131146 0
M  V30 5148 H 501.279 -4.22373 2.14238 0
M  V30 5149 H 501.703 -4.89588 4.67582 0
M  V30 5150 H 506.345 -3.71161 2.02483 0
M  V30 5151 H 504.063 -5.12754 6.24587 0
M  V30 5152 H 507.649 -4.14667 4.08096 0
M  V30 5153 H 506.529 -4.84752 6.16429 0
M  V30 5154 N 504.032 -0.577932 -1.46621 0
M  V30 5155 C 505.26 -0.0671642 -2.06791 0
M  V30 5156 C 505.675 1.23571 -1.42743 0
M  V30 5157 O 505.032 1.74602 -0.531062 0
M  V30 5158 C 505.083 0.110357 -3.61332 0
M  V30 5159 O 504.804 -1.14095 -4.22982 0
M  V30 5160 C 506.305 0.656025 -4.38419 0
M  V30 5161 H 503.525 -0.0552732 -0.66872 0
M  V30 5162 H 506.069 -0.797242 -1.8832 0
M  V30 5163 H 504.224 0.790637 -3.79246 0
M  V30 5164 H 504.638 -0.951742 -5.15793 0
M  V30 5165 H 506.112 0.729438 -5.47159 0
M  V30 5166 H 506.589 1.67195 -4.06131 0
M  V30 5167 H 507.195 0.0107692 -4.25299 0
M  V30 5168 N 505.51 1.54411 -0.315457 0
M  V30 5169 C 506.756 2.00716 0.289972 0
M  V30 5170 C 507.089 1.2034 1.5242 0
M  V30 5171 O 506.364 0.283579 1.92422 0
M  V30 5172 C 506.647 3.54507 0.632196 0
M  V30 5173 C 506.5 4.45615 -0.61218 0
M  V30 5174 C 507.819 4.15421 1.45305 0
M  V30 5175 H 504.938 0.729637 0.10392 0
M  V30 5176 H 507.58 1.8506 -0.430427 0
M  V30 5177 H 505.73 3.67979 1.24595 0
M  V30 5178 H 507.402 4.44026 -1.25053 0
M  V30 5179 H 505.645 4.15621 -1.24264 0
M  V30 5180 H 506.316 5.51022 -0.328379 0
M  V30 5181 H 508.792 4.05474 0.934331 0
M  V30 5182 H 507.668 5.23157 1.66127 0
M  V30 5183 H 507.929 3.68223 2.44671 0
M  V30 5184 N 506.988 0.0434614 1.5754 0
M  V30 5185 C 508.236 -0.630786 1.92004 0
M  V30 5186 C 508.557 -1.71836 0.921807 0
M  V30 5187 O 507.827 -1.9587 -0.034522 0
M  V30 5188 H 506.407 -0.235988 0.708745 0
M  V30 5189 H 509.069 0.0946462 1.9467 0
M  V30 5190 H 508.165 -1.07434 2.93026 0
M  V30 5191 N 508.466 -1.55915 -0.229846 0
M  V30 5192 C 509.712 -1.78807 -0.956868 0
M  V30 5193 C 510.045 -0.611687 -1.84315 0
M  V30 5194 O 509.32 0.389398 -1.90562 0
M  V30 5195 C 509.603 -3.11718 -1.80288 0
M  V30 5196 C 509.456 -4.3979 -0.943649 0
M  V30 5197 C 510.775 -3.40999 -2.78222 0
M  V30 5198 H 507.894 -0.6505 -0.346437 0
M  V30 5199 H 510.536 -1.88648 -0.226252 0
M  V30 5200 H 508.686 -3.03459 -2.42579 0
M  V30 5201 H 510.358 -4.60059 -0.338121 0
M  V30 5202 H 508.601 -4.33086 -0.248705 0
M  V30 5203 H 509.272 -5.29208 -1.5698 0
M  V30 5204 H 511.748 -3.49332 -2.26067 0
M  V30 5205 H 510.624 -4.35183 -3.34526 0
M  V30 5206 H 510.885 -2.62754 -3.55546 0
M  V30 5207 N 509.944 0.496216 -1.49584 0
M  V30 5208 C 511.36 0.827814 -1.36453 0
M  V30 5209 C 511.56 1.97464 -0.401285 0
M  V30 5210 O 510.616 2.51958 0.165296 0
M  V30 5211 C 511.929 1.16352 -2.77277 0
M  V30 5212 C 513.477 1.27145 -2.86013 0
M  V30 5213 C 513.952 1.64042 -4.27615 0
M  V30 5214 N 515.443 1.71082 -4.30448 0
M  V30 5215 C 516.178 2.01085 -5.36984 0
M  V30 5216 N 515.674 2.2928 -6.5376 0
M  V30 5217 N 517.467 2.02376 -5.24405 0
M  V30 5218 H 509.618 -0.259947 -2.10803 0
M  V30 5219 H 511.881 -0.0537163 -0.946477 0
M  V30 5220 H 511.587 0.394153 -3.49484 0
M  V30 5221 H 511.461 2.10582 -3.12946 0
M  V30 5222 H 513.848 2.03152 -2.1404 0
M  V30 5223 H 513.929 0.309542 -2.5392 0
M  V30 5224 H 513.573 0.88583 -5.00115 0
M  V30 5225 H 513.503 2.6134 -4.57175 0
M  V30 5226 H 515.994 1.51434 -3.46232 0
M  V30 5227 H 516.307 2.51376 -7.30774 0
M  V30 5228 H 514.652 2.26726 -6.56978 0
M  V30 5229 H 517.843 1.79829 -4.32179 0
M  V30 5230 H 518.016 2.25425 -6.07526 0
M  V30 5231 N 511.423 1.38739 0.74761 0
M  V30 5232 C 512.834 1.31507 1.32524 0
M  V30 5233 C 513.185 -0.0263963 1.96182 0
M  V30 5234 O 512.31 -0.92849 1.95469 0
M  V30 5235 C 512.905 2.38162 2.40966 0
M  V30 5236 C 511.464 2.34489 2.94434 0
M  V30 5237 C 510.611 2.20712 1.67873 0
M  V30 5238 H 513.562 1.4901 0.546043 0
M  V30 5239 H 513.583 2.04222 3.21051 0
M  V30 5240 H 513.095 3.35783 1.94605 0
M  V30 5241 H 511.196 1.40467 3.45108 0
M  V30 5242 H 511.309 3.28861 3.48407 0
M  V30 5243 H 509.673 1.67667 1.91729 0
M  V30 5244 H 510.456 3.20285 1.23582 0
M  V30 5245 N 512.901 -0.976442 1.23707 0
M  V30 5246 C 513.834 -2.06793 0.964973 0
M  V30 5247 C 514.812 -1.62304 -0.0981472 0
M  V30 5248 O 515.996 -1.88464 0.0369477 0
M  V30 5249 C 513.123 -3.35636 0.454522 0
M  V30 5250 C 512.169 -3.99069 1.50485 0
M  V30 5251 S 513.002 -4.37814 3.0835 0
M  V30 5252 C 514.158 -5.69805 2.58985 0
M  V30 5253 H 514.391 -2.29556 1.88922 0
M  V30 5254 H 511.924 -1.11317 1.06995 0
M  V30 5255 H 513.882 -4.10162 0.166626 0
M  V30 5256 H 512.543 -3.10876 -0.448871 0
M  V30 5257 H 511.736 -4.91896 1.09792 0
M  V30 5258 H 511.338 -3.30938 1.7423 0
M  V30 5259 H 513.63 -6.46919 2.01252 0
M  V30 5260 H 514.573 -6.15345 3.50366 0
M  V30 5261 H 514.981 -5.27994 1.99705 0
M  V30 5262 N 514.379 -1.04941 -1.1758 0
M  V30 5263 C 515.609 -0.777166 -1.91425 0
M  V30 5264 C 516.017 0.670647 -1.76915 0
M  V30 5265 O 515.36 1.46965 -1.10213 0
M  V30 5266 C 515.422 -1.07495 -3.43052 0
M  V30 5267 C 515.086 -2.51844 -3.81345 0
M  V30 5268 C 516.083 -3.50047 -3.844 0
M  V30 5269 C 513.768 -2.86787 -4.12382 0
M  V30 5270 C 515.762 -4.81239 -4.17957 0
M  V30 5271 C 513.449 -4.18182 -4.45608 0
M  V30 5272 C 514.447 -5.15219 -4.48373 0
M  V30 5273 O 514.135 -6.44258 -4.80819 0
M  V30 5274 H 513.867 -0.282209 -0.614275 0
M  V30 5275 H 516.421 -1.40258 -1.50056 0
M  V30 5276 H 514.651 -0.392437 -3.84704 0
M  V30 5277 H 516.34 -0.78912 -3.98155 0
M  V30 5278 H 517.106 -3.24391 -3.60548 0
M  V30 5279 H 512.985 -2.11922 -4.09402 0
M  V30 5280 H 516.529 -5.56974 -4.2003 0
M  V30 5281 H 512.426 -4.43602 -4.68922 0
M  V30 5282 H 513.194 -6.49041 -4.98686 0
M  V30 5283 N 515.857 1.33968 -0.830081 0
M  V30 5284 C 516.804 2.29387 -0.255008 0
M  V30 5285 C 517.774 1.53923 0.624243 0
M  V30 5286 O 518.959 1.82262 0.564372 0
M  V30 5287 C 516.099 3.4034 0.571209 0
M  V30 5288 C 515.212 4.30729 -0.331083 0
M  V30 5289 C 514.347 5.2879 0.505389 0
M  V30 5290 C 513.386 6.10819 -0.395843 0
M  V30 5291 N 512.523 7.00948 0.401979 0
M  V30 5292 H 517.363 2.77972 -1.07404 0
M  V30 5293 H 514.9 1.36785 -0.541133 0
M  V30 5294 H 516.858 4.03361 1.06562 0
M  V30 5295 H 515.488 2.9297 1.35529 0
M  V30 5296 H 514.54 3.68507 -0.943759 0
M  V30 5297 H 515.852 4.88181 -1.02377 0
M  V30 5298 H 515.006 5.97297 1.06399 0
M  V30 5299 H 513.745 4.71894 1.23155 0
M  V30 5300 H 512.75 5.41238 -0.966529 0
M  V30 5301 H 513.975 6.69797 -1.12023 0
M  V30 5302 H 511.921 6.46512 1.11168 0
M  V30 5303 H 511.838 7.55643 -0.232167 0
M  V30 5304 H 513.106 7.73774 0.943102 0
M  V30 5305 N 517.335 0.585699 1.46312 0
M  V30 5306 C 518.581 0.0808731 2.03239 0
M  V30 5307 C 518.936 -1.26609 1.44872 0
M  V30 5308 O 518.229 -1.81779 0.60556 0
M  V30 5309 C 518.423 -0.0401312 3.57377 0
M  V30 5310 C 518.252 1.29356 4.30694 0
M  V30 5311 C 517.022 1.86849 4.69484 0
M  V30 5312 C 519.22 2.21742 4.64042 0
M  V30 5313 N 517.202 3.13926 5.27564 0
M  V30 5314 C 518.573 3.33408 5.22723 0
M  V30 5315 C 520.628 2.21386 4.45974 0
M  V30 5316 C 519.331 4.44852 5.65242 0
M  V30 5317 C 521.357 3.31862 4.89511 0
M  V30 5318 C 520.719 4.42248 5.48266 0
M  V30 5319 H 516.818 0.072443 0.778637 0
M  V30 5320 H 519.402 0.779254 1.78426 0
M  V30 5321 H 517.573 -0.707686 3.81898 0
M  V30 5322 H 519.305 -0.549615 4.00951 0
M  V30 5323 H 516.06 1.40307 4.52339 0
M  V30 5324 H 516.484 3.78775 5.61122 0
M  V30 5325 H 521.126 1.37314 3.99881 0
M  V30 5326 H 518.844 5.29665 6.10312 0
M  V30 5327 H 522.43 3.32708 4.7728 0
M  V30 5328 H 521.31 5.26323 5.81338 0
M  V30 5329 N 518.813 -1.54241 0.323641 0
M  V30 5330 C 520.041 -2.04985 -0.280871 0
M  V30 5331 C 520.456 -1.19978 -1.45777 0
M  V30 5332 O 519.813 -0.230471 -1.81039 0
M  V30 5333 C 519.864 -3.54353 -0.715258 0
M  V30 5334 O 519.585 -4.36132 0.414817 0
M  V30 5335 C 521.086 -4.21189 -1.38257 0
M  V30 5336 H 518.306 -0.66851 -0.0577502 0
M  V30 5337 H 520.85 -1.99029 0.469852 0
M  V30 5338 H 519.005 -3.60596 -1.41596 0
M  V30 5339 H 519.419 -5.2445 0.0725227 0
M  V30 5340 H 520.893 -5.27154 -1.63745 0
M  V30 5341 H 521.37 -3.72307 -2.32989 0
M  V30 5342 H 521.976 -4.19085 -0.724447 0
M  V30 5343 N 520.291 -0.0518155 -1.57515 0
M  V30 5344 C 521.702 0.483787 -1.80323 0
M  V30 5345 C 522.053 1.70879 -0.964099 0
M  V30 5346 O 521.178 2.15643 -0.180872 0
M  V30 5347 C 521.773 0.884459 -3.27052 0
M  V30 5348 C 520.332 1.36504 -3.50776 0
M  V30 5349 C 519.479 0.340539 -2.75201 0
M  V30 5350 H 522.43 -0.277691 -1.56252 0
M  V30 5351 H 522.451 1.74733 -3.38007 0
M  V30 5352 H 521.963 -0.00731093 -3.88099 0
M  V30 5353 H 520.064 2.27598 -2.95009 0
M  V30 5354 H 520.177 1.35675 -4.59488 0
M  V30 5355 H 518.541 0.81356 -2.41357 0
M  V30 5356 H 519.324 -0.543156 -3.38976 0
M  V30 5357 N 521.769 1.56035 0.221574 0
M  V30 5358 C 523.018 1.78245 0.944016 0
M  V30 5359 C 523.331 0.620371 1.85501 0
M  V30 5360 O 524.537 0.726103 2.6161 0
M  V30 5361 C 522.993 3.15659 1.7288 0
M  V30 5362 C 522.601 4.39591 0.863942 0
M  V30 5363 C 524.345 3.47195 2.44246 0
M  V30 5364 C 522.252 5.6803 1.64607 0
M  V30 5365 H 521.182 0.664547 0.356222 0
M  V30 5366 H 523.833 1.8243 0.197904 0
M  V30 5367 H 522.215 3.0565 2.51781 0
M  V30 5368 H 523.389 4.60655 0.115464 0
M  V30 5369 H 521.704 4.15572 0.262407 0
M  V30 5370 H 524.301 4.40381 3.03263 0
M  V30 5371 H 524.644 2.69693 3.1713 0
M  V30 5372 H 525.177 3.58533 1.72334 0
M  V30 5373 H 521.916 6.48425 0.960507 0
M  V30 5374 H 521.436 5.51027 2.36917 0
M  V30 5375 H 523.115 6.08203 2.20675 0
M  V30 5376 N 523.247 -0.488276 1.49845 0
M  V30 5377 C 524.18 -1.60651 1.62069 0
M  V30 5378 C 525.158 -1.5568 0.469308 0
M  V30 5379 O 526.342 -1.75553 0.686551 0
M  V30 5380 C 523.469 -2.99197 1.58741 0
M  V30 5381 C 522.515 -3.22385 2.79232 0
M  V30 5382 S 523.348 -3.04133 4.40753 0
M  V30 5383 C 524.504 -4.45052 4.4009 0
M  V30 5384 H 524.737 -1.50039 2.56662 0
M  V30 5385 H 522.27 -0.674371 1.38894 0
M  V30 5386 H 524.228 -3.79081 1.57506 0
M  V30 5387 H 522.889 -3.07213 0.654136 0
M  V30 5388 H 522.082 -4.23557 2.73159 0
M  V30 5389 H 521.684 -2.50245 2.77945 0
M  V30 5390 H 523.976 -5.37375 4.12594 0
M  V30 5391 H 524.919 -4.56172 5.41583 0
M  V30 5392 H 525.327 -4.26327 3.70008 0
M  V30 5393 N 524.725 -1.39134 -0.740242 0
M  V30 5394 C 525.95 -1.39518 -1.53459 0
M  V30 5395 C 526.375 0.00968883 -1.88098 0
M  V30 5396 O 525.733 0.995312 -1.51536 0
M  V30 5397 C 525.781 -2.26981 -2.802 0
M  V30 5398 O 524.885 -1.69609 -3.75908 0
M  V30 5399 H 524.226 -0.475328 -0.463637 0
M  V30 5400 H 526.756 -1.83064 -0.913717 0
M  V30 5401 H 526.766 -2.41309 -3.28989 0
M  V30 5402 H 525.441 -3.29081 -2.5432 0
M  V30 5403 H 524.018 -1.64495 -3.34658 0
M  V30 5404 N 526.204 0.969867 -1.24223 0
M  V30 5405 C 527.432 1.74756 -1.10761 0
M  V30 5406 C 527.847 1.85713 0.340041 0
M  V30 5407 O 527.204 1.34389 1.23474 0
M  V30 5408 C 527.255 3.16915 -1.73917 0
M  V30 5409 O 526.976 3.06511 -3.13021 0
M  V30 5410 C 528.477 4.11032 -1.66036 0
M  V30 5411 H 525.697 0.548092 -0.387087 0
M  V30 5412 H 528.241 1.2178 -1.64286 0
M  V30 5413 H 526.396 3.66884 -1.244 0
M  V30 5414 H 526.81 3.96079 -3.43834 0
M  V30 5415 H 528.284 5.08446 -2.14911 0
M  V30 5416 H 528.761 4.34785 -0.621159 0
M  V30 5417 H 529.367 3.66972 -2.14969 0
M  V30 5418 N 527.682 1.05563 1.17022 0
M  V30 5419 C 528.612 0.681026 2.23348 0
M  V30 5420 C 529.593 -0.322983 1.67005 0
M  V30 5421 O 530.778 -0.199746 1.9317 0
M  V30 5422 C 527.908 0.0589053 3.4725 0
M  V30 5423 C 526.862 0.988082 4.16438 0
M  V30 5424 C 526.188 0.229646 5.34207 0
M  V30 5425 C 527.488 2.31388 4.68249 0
M  V30 5426 H 529.182 1.56993 2.54938 0
M  V30 5427 H 526.728 0.756302 1.2254 0
M  V30 5428 H 528.681 -0.214982 4.20851 0
M  V30 5429 H 527.405 -0.864968 3.14938 0
M  V30 5430 H 526.064 1.24659 3.44754 0
M  V30 5431 H 525.712 -0.697111 4.98146 0
M  V30 5432 H 525.412 0.848815 5.81437 0
M  V30 5433 H 526.936 -0.0368694 6.10589 0
M  V30 5434 H 528.35 2.09964 5.33468 0
M  V30 5435 H 526.747 2.88736 5.26072 0
M  V30 5436 H 527.817 2.94982 3.84855 0
M  V30 5437 N 529.16 -1.33526 0.837174 0
M  V30 5438 C 530.09 -2.31764 0.284206 0
M  V30 5439 C 531.071 -1.58896 -0.607142 0
M  V30 5440 O 532.256 -1.86798 -0.531047 0
M  V30 5441 C 529.386 -3.43029 -0.542962 0
M  V30 5442 C 528.34 -4.27255 0.252451 0
M  V30 5443 C 527.666 -5.3012 -0.69836 0
M  V30 5444 C 528.966 -5.01229 1.46858 0
M  V30 5445 H 530.66 -2.78262 1.10502 0
M  V30 5446 H 528.206 -1.3378 0.532812 0
M  V30 5447 H 530.159 -4.1078 -0.940096 0
M  V30 5448 H 528.883 -2.95216 -1.39697 0
M  V30 5449 H 527.542 -3.61127 0.631124 0
M  V30 5450 H 527.19 -4.78564 -1.54872 0
M  V30 5451 H 526.89 -5.87353 -0.170274 0
M  V30 5452 H 528.414 -6.00737 -1.09305 0
M  V30 5453 H 529.828 -5.61756 1.14469 0
M  V30 5454 H 528.225 -5.68104 1.93333 0
M  V30 5455 H 529.295 -4.301 2.23924 0
M  V30 5456 N 530.638 -0.59345 -1.46 0
M  V30 5457 C 531.548 0.135817 -2.34207 0
M  V30 5458 C 532.564 0.875008 -1.50398 0
M  V30 5459 O 533.74 0.835778 -1.83239 0
M  V30 5460 C 530.805 1.12977 -3.27776 0
M  V30 5461 C 529.866 0.394081 -4.27487 0
M  V30 5462 C 529.099 1.34068 -5.16586 0
M  V30 5463 O 529.322 2.5778 -5.08828 0
M  V30 5464 O 528.256 0.845426 -5.95933 0
M  V30 5465 H 532.082 -0.588691 -2.9794 0
M  V30 5466 H 529.667 -0.353784 -1.45151 0
M  V30 5467 H 531.549 1.70261 -3.85473 0
M  V30 5468 H 530.224 1.83556 -2.66625 0
M  V30 5469 H 529.131 -0.220869 -3.73447 0
M  V30 5470 H 530.464 -0.270939 -4.91454 0
M  V30 5471 N 532.116 1.54067 -0.331816 0
M  V30 5472 C 533.362 2.01012 0.268667 0
M  V30 5473 C 533.695 1.2195 1.51136 0
M  V30 5474 O 532.97 0.303972 1.9211 0
M  V30 5475 C 533.253 3.55158 0.59456 0
M  V30 5476 C 533.106 4.4494 -0.659409 0
M  V30 5477 C 534.425 4.16939 1.4089 0
M  V30 5478 H 531.544 0.730698 0.0961756 0
M  V30 5479 H 534.186 1.84593 -0.450031 0
M  V30 5480 H 532.336 3.6928 1.20685 0
M  V30 5481 H 534.008 4.42675 -1.29756 0
M  V30 5482 H 532.251 4.1428 -1.28665 0
M  V30 5483 H 532.922 5.50643 -0.386804 0
M  V30 5484 H 535.398 4.06443 0.891272 0
M  V30 5485 H 534.274 5.24889 1.60569 0
M  V30 5486 H 534.535 3.70798 2.40752 0
M  V30 5487 N 533.594 0.0601682 1.57485 0
M  V30 5488 C 534.842 -0.610386 1.92662 0
M  V30 5489 C 535.163 -1.70849 0.939981 0
M  V30 5490 O 534.433 -1.95895 -0.0137455 0
M  V30 5491 H 533.013 -0.228457 0.711208 0
M  V30 5492 H 535.675 0.115288 1.94559 0
M  V30 5493 H 534.771 -1.0432 2.94149 0
M  V30 5494 N 535.072 -1.5615 -0.213296 0
M  V30 5495 C 536.302 -1.83372 -0.951757 0
M  V30 5496 C 536.71 -0.638158 -1.78113 0
M  V30 5497 O 536.053 0.402609 -1.79234 0
M  V30 5498 C 536.115 -3.04444 -1.91192 0
M  V30 5499 C 535.779 -4.39107 -1.26627 0
M  V30 5500 C 536.776 -5.15794 -0.652087 0
M  V30 5501 C 534.461 -4.85834 -1.27556 0
M  V30 5502 C 536.455 -6.37376 -0.055814 0
M  V30 5503 C 534.142 -6.07356 -0.675451 0
M  V30 5504 C 535.14 -6.82967 -0.0666367 0
M  V30 5505 O 534.828 -8.0219 0.524119 0
M  V30 5506 H 534.56 -0.613398 -0.284111 0
M  V30 5507 H 537.114 -2.04096 -0.231112 0
M  V30 5508 H 535.344 -2.79559 -2.67178 0
M  V30 5509 H 537.033 -3.18466 -2.51662 0
M  V30 5510 H 537.799 -4.80796 -0.637172 0
M  V30 5511 H 533.678 -4.26949 -1.73883 0
M  V30 5512 H 537.222 -6.96334 0.420004 0
M  V30 5513 H 533.119 -6.41825 -0.687806 0
M  V30 5514 H 533.887 -8.17426 0.419243 0
M  V30 5515 N 536.55 0.480323 -1.50102 0
M  V30 5516 C 537.827 1.24159 -1.51142 0
M  V30 5517 C 538.207 2.09605 -0.250818 0
M  V30 5518 O 537.555 2.15274 0.766118 0
M  V30 5519 C 537.765 2.08057 -2.80202 0
M  V30 5520 C 539.113 2.66556 -3.30504 0
M  V30 5521 O 540.137 2.18308 -2.81461 0
M  V30 5522 O 538.996 3.54442 -4.15973 0
M  V30 5523 H 536.09 0.562928 -0.605839 0
M  V30 5524 H 538.636 0.492899 -1.62384 0
M  V30 5525 H 537.408 1.45032 -3.6343 0
M  V30 5526 H 537.031 2.90079 -2.71919 0
M  V30 5527 N 538.028 1.39524 0.732853 0
M  V30 5528 C 538.976 1.38563 1.86824 0
M  V30 5529 C 539.97 0.268467 1.67259 0
M  V30 5530 O 541.176 0.438613 1.74574 0
M  V30 5531 H 537.551 0.432737 0.615014 0
M  V30 5532 H 539.522 2.34328 1.84751 0
M  V30 5533 C 538.271 1.2481 3.24527 0
M  V30 5534 H 537.594 2.10044 3.40179 0
M  V30 5535 H 539.034 1.28194 4.04156 0
M  V30 5536 C 537.493 -0.0432825 3.36872 0
M  V30 5537 O 538.023 -1.01268 3.88726 0
M  V30 5538 N 536.229 -0.107055 2.90403 0
M  V30 5539 H 535.776 0.682512 2.48394 0
M  V30 5540 H 535.734 -0.970618 2.99042 0
M  V30 5541 N 539.506 -0.963266 1.24736 0
M  V30 5542 C 540.752 -1.70933 1.09131 0
M  V30 5543 C 541.085 -1.90676 -0.368273 0
M  V30 5544 O 540.36 -1.47147 -1.27193 0
M  V30 5545 C 540.643 -3.09744 1.83658 0
M  V30 5546 C 540.496 -2.97465 3.37394 0
M  V30 5547 C 541.815 -4.09483 1.61282 0
M  V30 5548 H 538.934 -0.620398 0.397838 0
M  V30 5549 H 541.576 -1.12028 1.53459 0
M  V30 5550 H 539.726 -3.60031 1.4598 0
M  V30 5551 H 541.398 -2.54571 3.84696 0
M  V30 5552 H 539.641 -2.33576 3.65547 0
M  V30 5553 H 540.312 -3.95822 3.84745 0
M  V30 5554 H 542.788 -3.68073 1.94066 0
M  V30 5555 H 541.664 -5.04666 2.15878 0
M  V30 5556 H 541.925 -4.38639 0.552102 0
M  V30 5557 N 540.985 -1.06182 -1.16461 0
M  V30 5558 C 541.932 -0.671613 -2.20812 0
M  V30 5559 C 542.902 0.331186 -1.62765 0
M  V30 5560 O 544.087 0.22033 -1.89524 0
M  V30 5561 C 541.227 -0.063029 -3.45042 0
M  V30 5562 C 540.34 -1.11587 -4.1734 0
M  V30 5563 C 539.475 -0.473546 -5.29085 0
M  V30 5564 C 538.514 -1.51 -5.93182 0
M  V30 5565 N 537.651 -0.891118 -6.96422 0
M  V30 5566 H 542.491 -1.56589 -2.53542 0
M  V30 5567 H 540.028 -0.782951 -1.24532 0
M  V30 5568 H 541.986 0.307344 -4.16066 0
M  V30 5569 H 540.616 0.794663 -3.12866 0
M  V30 5570 H 539.668 -1.60396 -3.44931 0
M  V30 5571 H 540.98 -1.90221 -4.61104 0
M  V30 5572 H 540.134 -0.0501432 -6.06679 0
M  V30 5573 H 538.873 0.344687 -4.8648 0
M  V30 5574 H 537.878 -1.94331 -5.14311 0
M  V30 5575 H 539.103 -2.33031 -6.37866 0
M  V30 5576 H 537.049 -0.0935753 -6.55933 0
M  V30 5577 H 536.966 -1.61486 -7.38551 0
M  V30 5578 H 538.234 -0.492822 -7.77941 0
M  V30 5579 N 542.463 1.3308 -0.844243 0
M  V30 5580 C 543.688 2.02341 -0.455282 0
M  V30 5581 C 544.113 1.6308 0.93737 0
M  V30 5582 O 543.471 0.826118 1.61385 0
M  V30 5583 C 543.519 3.55743 -0.58988 0
M  V30 5584 O 542.623 4.1063 0.38166 0
M  V30 5585 H 541.964 0.637898 -0.184343 0
M  V30 5586 H 544.494 1.6986 -1.14056 0
M  V30 5587 H 544.504 4.05243 -0.473522 0
M  V30 5588 H 543.179 3.83662 -1.60549 0
M  V30 5589 H 541.756 3.72236 0.22241 0
M  V30 5590 N 543.941 0.601185 1.45683 0
M  V30 5591 C 544.873 -0.159446 2.28645 0
M  V30 5592 C 545.886 -0.837882 1.39583 0
M  V30 5593 O 547.075 -0.704344 1.64016 0
M  V30 5594 C 544.175 -1.24641 3.15147 0
M  V30 5595 C 543.348 -0.656334 4.32448 0
M  V30 5596 C 542.407 -1.63337 5.00208 0
M  V30 5597 O 541.433 -1.16217 5.57209 0
M  V30 5598 N 542.635 -2.96773 4.98905 0
M  V30 5599 H 545.4 0.5524 2.94565 0
M  V30 5600 H 542.961 0.440223 1.558 0
M  V30 5601 H 544.953 -1.8997 3.57342 0
M  V30 5602 H 543.523 -1.86087 2.51178 0
M  V30 5603 H 542.743 0.174879 3.93812 0
M  V30 5604 H 544.031 -0.242211 5.08223 0
M  V30 5605 H 543.429 -3.37662 4.53873 0
M  V30 5606 H 541.986 -3.57541 5.44984 0
M  V30 5607 N 545.419 -1.53889 0.339982 0
M  V30 5608 C 546.351 -2.22435 -0.55275 0
M  V30 5609 C 547.364 -1.22975 -1.06681 0
M  V30 5610 O 548.553 -1.49351 -0.977575 0
M  V30 5611 C 545.653 -2.8882 -1.77302 0
M  V30 5612 C 544.826 -4.14563 -1.39486 0
M  V30 5613 C 543.885 -4.64391 -2.47442 0
M  V30 5614 O 542.911 -5.28687 -2.10899 0
M  V30 5615 N 544.113 -4.40015 -3.78639 0
M  V30 5616 H 546.878 -2.9968 0.0342669 0
M  V30 5617 H 544.439 -1.61068 0.16394 0
M  V30 5618 H 546.431 -3.19072 -2.48948 0
M  V30 5619 H 545.001 -2.15182 -2.26749 0
M  V30 5620 H 544.221 -3.90896 -0.509321 0
M  V30 5621 H 545.509 -4.96362 -1.11813 0
M  V30 5622 H 544.907 -3.88586 -4.11118 0
M  V30 5623 H 543.464 -4.74881 -4.46465 0
M  V30 5624 N 546.897 -0.0685191 -1.57451 0
M  V30 5625 C 548.125 0.610462 -1.97689 0
M  V30 5626 C 548.54 1.63346 -0.946758 0
M  V30 5627 O 547.897 1.82377 0.0669868 0
M  V30 5628 C 547.948 1.28196 -3.38006 0
M  V30 5629 O 547.669 0.299906 -4.37072 0
M  V30 5630 C 549.17 2.04907 -3.931 0
M  V30 5631 H 546.39 0.165689 -0.650222 0
M  V30 5632 H 548.934 -0.139953 -2.04021 0
M  V30 5633 H 547.089 1.98348 -3.32771 0
M  V30 5634 H 547.503 0.78126 -5.18649 0
M  V30 5635 H 548.977 2.47287 -4.93511 0
M  V30 5636 H 549.454 2.9043 -3.29465 0
M  V30 5637 H 550.06 1.39629 -4.01726 0
M  V30 5638 N 548.375 1.56261 0.205012 0
M  V30 5639 C 549.623 1.79684 0.925096 0
M  V30 5640 C 549.944 0.63989 1.84202 0
M  V30 5641 O 549.214 -0.342345 1.92885 0
M  V30 5642 H 547.794 0.662774 0.344587 0
M  V30 5643 H 550.456 1.93734 0.212899 0
M  V30 5644 H 549.552 2.72467 1.52211 0
M  V30 5645 N 549.853 -0.472356 1.50355 0
M  V30 5646 C 551.13 -1.23356 1.51798 0
M  V30 5647 C 551.51 -2.09469 0.26193 0
M  V30 5648 O 550.858 -2.15677 -0.754691 0
M  V30 5649 C 551.068 -2.06568 2.81302 0
M  V30 5650 C 552.416 -2.648 3.31913 0
M  V30 5651 O 553.44 -2.16812 2.82614 0
M  V30 5652 O 552.299 -3.52231 4.17846 0
M  V30 5653 H 549.393 -0.559707 0.608816 0
M  V30 5654 H 551.939 -0.48428 1.62643 0
M  V30 5655 H 550.711 -1.43103 3.64194 0
M  V30 5656 H 550.334 -2.88633 2.73454 0
M  V30 5657 N 551.331 -1.39911 -0.725443 0
M  V30 5658 C 552.747 -1.21725 -1.03224 0
M  V30 5659 C 552.947 -0.0855224 -2.01318 0
M  V30 5660 O 552.003 0.55976 -2.46217 0
M  V30 5661 C 553.316 -2.55511 -1.58539 0
M  V30 5662 C 554.864 -2.62439 -1.70572 0
M  V30 5663 C 555.339 -3.9647 -2.29294 0
M  V30 5664 N 556.83 -3.98159 -2.36692 0
M  V30 5665 C 557.565 -4.98647 -2.83088 0
M  V30 5666 N 557.061 -6.0953 -3.2931 0
M  V30 5667 N 558.854 -4.8602 -2.82384 0
M  V30 5668 H 551.005 -2.12267 -0.075048 0
M  V30 5669 H 553.268 -0.943136 -0.0959066 0
M  V30 5670 H 552.974 -3.38926 -0.939249 0
M  V30 5671 H 552.848 -2.75905 -2.57208 0
M  V30 5672 H 555.235 -1.79401 -2.34306 0
M  V30 5673 H 555.316 -2.45885 -0.705297 0
M  V30 5674 H 554.96 -4.79942 -1.66186 0
M  V30 5675 H 554.89 -4.10349 -3.30032 0
M  V30 5676 H 557.381 -3.18085 -2.04035 0
M  V30 5677 H 557.694 -6.82106 -3.6325 0
M  V30 5678 H 556.039 -6.1311 -3.27294 0
M  V30 5679 H 559.23 -3.98493 -2.45603 0
M  V30 5680 H 559.403 -5.64478 -3.18226 0
M  V30 5681 N 552.809 0.956637 -1.25245 0
M  V30 5682 C 553.757 2.0743 -1.0524 0
M  V30 5683 C 554.751 1.69392 0.0160725 0
M  V30 5684 O 555.957 1.7946 -0.139382 0
M  V30 5685 H 552.332 0.678921 -0.323373 0
M  V30 5686 H 554.303 2.2146 -1.99995 0
M  V30 5687 C 553.052 3.40872 -0.685702 0
M  V30 5688 H 552.375 3.70607 -1.49968 0
M  V30 5689 H 553.815 4.19939 -0.585415 0
M  V30 5690 C 552.274 3.31367 0.608082 0
M  V30 5691 O 552.804 3.66214 1.65076 0
M  V30 5692 N 551.01 2.84486 0.592955 0
M  V30 5693 H 550.557 2.56326 -0.25592 0
M  V30 5694 H 550.515 2.78509 1.45877 0
M  V30 5695 N 554.287 1.06798 1.15896 0
M  V30 5696 C 555.235 0.677525 2.22514 0
M  V30 5697 C 556.229 -0.308994 1.66558 0
M  V30 5698 O 557.435 -0.173308 1.79164 0
M  V30 5699 H 553.81 0.200994 0.724642 0
M  V30 5700 H 555.781 1.5865 2.52731 0
M  V30 5701 C 554.53 0.0854153 3.47595 0
M  V30 5702 H 553.853 0.835645 3.90969 0
M  V30 5703 H 555.293 -0.150199 4.23734 0
M  V30 5704 C 553.752 -1.1724 3.15843 0
M  V30 5705 O 554.282 -2.25965 3.32119 0
M  V30 5706 N 552.488 -1.07636 2.69931 0
M  V30 5707 H 552.035 -0.191559 2.56887 0
M  V30 5708 H 551.993 -1.91876 2.4906 0
M  V30 5709 N 555.766 -1.3263 0.851289 0
M  V30 5710 C 556.698 -2.27824 0.250757 0
M  V30 5711 C 557.711 -1.52285 -0.575598 0
M  V30 5712 O 558.9 -1.73946 -0.400638 0
M  V30 5713 C 556 -3.3232 -0.664571 0
M  V30 5714 C 555.173 -4.37221 0.125187 0
M  V30 5715 C 554.232 -5.21314 -0.715385 0
M  V30 5716 O 553.258 -5.69002 -0.150111 0
M  V30 5717 N 554.46 -5.43823 -2.03069 0
M  V30 5718 H 557.225 -2.79997 1.06873 0
M  V30 5719 H 554.786 -1.45455 0.710943 0
M  V30 5720 H 556.778 -3.85486 -1.23216 0
M  V30 5721 H 555.348 -2.80331 -1.38323 0
M  V30 5722 H 554.568 -3.84384 0.874199 0
M  V30 5723 H 555.856 -5.04399 0.667774 0
M  V30 5724 H 555.254 -5.06803 -2.51332 0
M  V30 5725 H 553.811 -5.99998 -2.54648 0
M  V30 5726 N 557.244 -0.608902 -1.45362 0
M  V30 5727 C 558.474 -0.110852 -2.06302 0
M  V30 5728 C 558.882 1.21062 -1.45398 0
M  V30 5729 O 558.225 1.74861 -0.562976 0
M  V30 5730 C 558.287 0.101793 -3.59356 0
M  V30 5731 C 557.951 -1.13808 -4.42602 0
M  V30 5732 C 558.948 -2.05653 -4.77496 0
M  V30 5733 C 556.633 -1.36727 -4.83333 0
M  V30 5734 C 558.627 -3.18745 -5.51978 0
M  V30 5735 C 556.314 -2.5012 -5.57569 0
M  V30 5736 C 557.312 -3.40957 -5.91809 0
M  V30 5737 O 557 -4.52376 -6.64538 0
M  V30 5738 H 556.732 -0.0666001 -0.672711 0
M  V30 5739 H 559.286 -0.836942 -1.87575 0
M  V30 5740 H 557.516 0.88279 -3.76489 0
M  V30 5741 H 559.205 0.551607 -4.02134 0
M  V30 5742 H 559.971 -1.89172 -4.46586 0
M  V30 5743 H 555.85 -0.669216 -4.56117 0
M  V30 5744 H 559.394 -3.8967 -5.78622 0
M  V30 5745 H 555.291 -2.66553 -5.87894 0
M  V30 5746 H 556.059 -4.51075 -6.82989 0
M  V30 5747 N 558.722 1.53707 -0.348139 0
M  V30 5748 C 559.669 2.25173 0.506518 0
M  V30 5749 C 560.639 1.25174 1.09182 0
M  V30 5750 O 561.824 1.53917 1.12757 0
M  V30 5751 C 558.964 3.03141 1.64923 0
M  V30 5752 C 558.077 4.18002 1.0908 0
M  V30 5753 C 557.212 4.83447 2.20119 0
M  V30 5754 C 556.251 5.90369 1.61651 0
M  V30 5755 N 555.388 6.49575 2.66451 0
M  V30 5756 H 560.228 2.97799 -0.109452 0
M  V30 5757 H 557.765 1.46953 -0.0657866 0
M  V30 5758 H 559.723 3.46607 2.32205 0
M  V30 5759 H 558.353 2.32803 2.23612 0
M  V30 5760 H 557.405 3.79145 0.308783 0
M  V30 5761 H 558.717 4.94892 0.623178 0
M  V30 5762 H 557.871 5.30008 2.95257 0
M  V30 5763 H 556.61 4.05991 2.70227 0
M  V30 5764 H 555.615 5.43186 0.850209 0
M  V30 5765 H 556.84 6.69735 1.1239 0
M  V30 5766 H 554.786 5.74981 3.15805 0
M  V30 5767 H 554.703 7.21952 2.24325 0
M  V30 5768 H 555.971 7.00789 3.41344 0
M  V30 5769 N 560.2 0.0768682 1.57412 0
M  V30 5770 C 561.449 -0.590679 1.92857 0
M  V30 5771 C 561.762 -1.70461 0.959293 0
M  V30 5772 O 562.968 -2.43207 1.20675 0
M  V30 5773 C 561.424 -1.10204 3.42612 0
M  V30 5774 C 561.032 -0.0188447 4.47996 0
M  V30 5775 C 562.776 -1.74336 3.87049 0
M  V30 5776 C 560.683 -0.544536 5.88888 0
M  V30 5777 H 559.613 -0.224411 0.71983 0
M  V30 5778 H 562.264 0.149924 1.82887 0
M  V30 5779 H 560.646 -1.89577 3.47673 0
M  V30 5780 H 561.82 0.755936 4.54557 0
M  V30 5781 H 560.135 0.526555 4.13057 0
M  V30 5782 H 562.732 -2.14708 4.89699 0
M  V30 5783 H 563.075 -2.60537 3.24694 0
M  V30 5784 H 563.608 -1.01577 3.84613 0
M  V30 5785 H 560.347 0.280426 6.549 0
M  V30 5786 H 559.867 -1.28673 5.85836 0
M  V30 5787 H 561.546 -1.01933 6.3892 0
M  V30 5788 N 561.678 -1.56367 -0.196722 0
M  V30 5789 C 562.906 -1.84639 -0.933608 0
M  V30 5790 C 563.321 -0.659164 -1.76919 0
M  V30 5791 O 562.678 0.372142 -1.78665 0
M  V30 5792 C 562.729 -3.11694 -1.83109 0
M  V30 5793 O 562.45 -4.25838 -1.02924 0
M  V30 5794 C 563.951 -3.53132 -2.67979 0
M  V30 5795 H 561.171 -0.613188 -0.272473 0
M  V30 5796 H 563.715 -2.03475 -0.204465 0
M  V30 5797 H 561.87 -2.94759 -2.51387 0
M  V30 5798 H 562.284 -4.98178 -1.64069 0
M  V30 5799 H 563.758 -4.45005 -3.26611 0
M  V30 5800 H 564.235 -2.76045 -3.41608 0
M  V30 5801 H 564.841 -3.72592 -2.05074 0
M  V30 5802 N 563.156 0.464375 -1.50603 0
M  V30 5803 C 564.086 1.56944 -1.72889 0
M  V30 5804 C 565.067 1.59979 -0.577997 0
M  V30 5805 O 566.252 1.76138 -0.817855 0
M  V30 5806 C 563.382 2.95225 -1.8292 0
M  V30 5807 C 562.336 3.07056 -2.98162 0
M  V30 5808 C 561.662 4.47051 -2.93343 0
M  V30 5809 C 562.962 2.83648 -4.38567 0
M  V30 5810 H 564.656 1.38547 -2.65415 0
M  V30 5811 H 562.202 0.665082 -1.27721 0
M  V30 5812 H 564.155 3.72467 -1.97095 0
M  V30 5813 H 562.879 3.14793 -0.870209 0
M  V30 5814 H 561.538 2.32248 -2.83648 0
M  V30 5815 H 561.186 4.63547 -1.95276 0
M  V30 5816 H 560.886 4.55902 -3.70712 0
M  V30 5817 H 562.41 5.26304 -3.09575 0
M  V30 5818 H 563.824 3.50636 -4.53572 0
M  V30 5819 H 562.221 3.03937 -5.17438 0
M  V30 5820 H 563.291 1.79451 -4.50472 0
M  V30 5821 N 564.634 1.40294 0.718013 0
M  V30 5822 C 565.597 1.4012 1.81381 0
M  V30 5823 C 566.597 0.295405 1.58063 0
M  V30 5824 O 567.787 0.554187 1.6515 0
M  V30 5825 C 564.919 1.19056 3.19435 0
M  V30 5826 H 566.112 2.37645 1.82933 0
M  V30 5827 H 563.665 1.26107 0.923405 0
M  V30 5828 H 564.4 0.222809 3.23534 0
M  V30 5829 H 564.185 1.99152 3.37758 0
M  V30 5830 H 565.675 1.21716 3.99468 0
M  V30 5831 N 566.112 -0.949982 1.2575 0
M  V30 5832 C 567.044 -2.05088 1.02331 0
M  V30 5833 C 568.057 -1.62795 -0.0133247 0
M  V30 5834 O 569.246 -1.77067 0.225759 0
M  V30 5835 C 566.346 -3.34794 0.525924 0
M  V30 5836 C 565.519 -4.05903 1.62978 0
M  V30 5837 C 564.578 -5.1388 1.13196 0
M  V30 5838 O 563.604 -5.39072 1.82729 0
M  V30 5839 N 564.806 -5.80495 -0.0242926 0
M  V30 5840 H 567.571 -2.25747 1.97125 0
M  V30 5841 H 565.132 -1.11886 1.17018 0
M  V30 5842 H 567.124 -4.04312 0.177263 0
M  V30 5843 H 565.694 -3.10872 -0.328202 0
M  V30 5844 H 564.914 -3.3042 2.1498 0
M  V30 5845 H 566.202 -4.50166 2.37124 0
M  V30 5846 H 565.6 -5.62454 -0.605184 0
M  V30 5847 H 564.157 -6.51043 -0.313947 0
M  V30 5848 N 567.59 -1.07411 -1.15328 0
M  V30 5849 C 568.522 -0.652924 -2.19703 0
M  V30 5850 C 569.535 0.294869 -1.60107 0
M  V30 5851 O 570.724 0.0840932 -1.78302 0
M  V30 5852 C 567.824 0.061434 -3.38844 0
M  V30 5853 C 566.997 -0.902696 -4.27984 0
M  V30 5854 C 566.056 -0.225521 -5.25717 0
M  V30 5855 O 565.082 -0.86676 -5.62562 0
M  V30 5856 N 566.284 1.02858 -5.71315 0
M  V30 5857 H 569.049 -1.55081 -2.56457 0
M  V30 5858 H 566.61 -0.958883 -1.30449 0
M  V30 5859 H 568.602 0.525145 -4.01278 0
M  V30 5860 H 567.172 0.861269 -3.00501 0
M  V30 5861 H 566.392 -1.54551 -3.6264 0
M  V30 5862 H 567.68 -1.55636 -4.84412 0
M  V30 5863 H 567.078 1.56948 -5.43492 0
M  V30 5864 H 565.635 1.43596 -6.35786 0
M  V30 5865 N 569.068 1.32177 -0.85831 0
M  V30 5866 C 570.314 1.97813 -0.47346 0
M  V30 5867 C 570.669 1.66674 0.961122 0
M  V30 5868 O 569.962 0.94657 1.66585 0
M  V30 5869 C 570.156 3.51372 -0.653658 0
M  V30 5870 C 569.985 3.97433 -2.1042 0
M  V30 5871 C 568.755 4.24338 -2.74345 0
M  V30 5872 C 570.953 4.12233 -3.0752 0
M  V30 5873 N 568.935 4.56672 -4.10272 0
M  V30 5874 C 570.306 4.48146 -4.28445 0
M  V30 5875 C 572.361 3.94577 -3.03667 0
M  V30 5876 C 571.064 4.68246 -5.4602 0
M  V30 5877 C 573.09 4.15864 -4.20489 0
M  V30 5878 C 572.452 4.52098 -5.40173 0
M  V30 5879 H 568.551 0.749808 -0.222061 0
M  V30 5880 H 571.135 1.59927 -1.11047 0
M  V30 5881 H 569.306 3.88372 -0.0463267 0
M  V30 5882 H 571.038 4.03998 -0.238343 0
M  V30 5883 H 567.793 4.16544 -2.25362 0
M  V30 5884 H 568.217 4.77019 -4.80398 0
M  V30 5885 H 572.859 3.65662 -2.12252 0
M  V30 5886 H 570.577 4.96014 -6.37962 0
M  V30 5887 H 574.163 4.03702 -4.18947 0
M  V30 5888 H 573.043 4.68238 -6.29065 0
M  V30 5889 N 570.547 0.616602 1.45037 0
M  V30 5890 C 571.479 -0.135186 2.28801 0
M  V30 5891 C 572.492 -0.82303 1.40464 0
M  V30 5892 O 573.681 -0.686909 1.64754 0
M  V30 5893 C 570.781 -1.21292 3.16451 0
M  V30 5894 C 569.954 -0.61043 4.3312 0
M  V30 5895 C 569.013 -1.58022 5.01912 0
M  V30 5896 O 568.039 -1.10301 5.58411 0
M  V30 5897 N 569.241 -2.91464 5.02025 0
M  V30 5898 H 572.006 0.583612 2.93963 0
M  V30 5899 H 569.567 0.456723 1.55324 0
M  V30 5900 H 571.559 -1.86169 3.59337 0
M  V30 5901 H 570.129 -1.83412 2.53138 0
M  V30 5902 H 569.349 0.216638 3.93604 0
M  V30 5903 H 570.637 -0.188293 5.08451 0
M  V30 5904 H 570.035 -3.32829 4.57429 0
M  V30 5905 H 568.592 -3.51741 5.48745 0
M  V30 5906 N 572.025 -1.5352 0.356285 0
M  V30 5907 C 572.988 -2.24071 -0.482182 0
M  V30 5908 C 573.988 -1.24531 -1.01729 0
M  V30 5909 O 575.178 -1.48876 -0.904513 0
M  V30 5910 C 572.31 -2.97025 -1.67299 0
M  V30 5911 H 573.503 -2.99596 0.135031 0
M  V30 5912 H 571.056 -1.55928 0.107825 0
M  V30 5913 H 571.791 -2.25719 -2.32855 0
M  V30 5914 H 571.576 -3.7005 -1.29636 0
M  V30 5915 H 573.066 -3.50683 -2.26741 0
M  V30 5916 N 573.503 -0.0852151 -1.57369 0
M  V30 5917 C 574.751 0.579658 -1.93609 0
M  V30 5918 C 575.072 1.69332 -0.967043 0
M  V30 5919 O 574.342 1.95892 -0.0174215 0
M  V30 5920 H 572.922 0.217113 -0.714752 0
M  V30 5921 H 575.584 -0.146226 -1.94351 0
M  V30 5922 H 574.68 0.996276 -2.95771 0
M  V30 5923 N 574.981 1.5647 0.188427 0
M  V30 5924 C 576.258 1.71857 0.934058 0
M  V30 5925 C 576.638 0.641867 2.01105 0
M  V30 5926 O 575.986 -0.346098 2.25864 0
M  V30 5927 C 576.196 3.14431 1.5144 0
M  V30 5928 C 577.544 3.74869 1.99396 0
M  V30 5929 O 578.568 3.17601 1.61269 0
M  V30 5930 O 577.427 4.75387 2.69573 0
M  V30 5931 H 574.521 0.701186 0.438483 0
M  V30 5932 H 577.067 1.68768 0.177599 0
M  V30 5933 H 575.839 3.8427 0.738416 0
M  V30 5934 H 575.462 3.21775 2.33552 0
M  V30 5935 N 576.459 -0.456382 1.50847 0
M  V30 5936 C 577.684 -1.2349 1.66628 0
M  V30 5937 C 578.109 -1.84715 0.355254 0
M  V30 5938 O 577.467 -1.67961 -0.682559 0
M  V30 5939 C 577.515 -2.30865 2.77009 0
M  V30 5940 O 576.619 -3.35882 2.39285 0
M  V30 5941 H 575.96 -0.36266 0.556214 0
M  V30 5942 H 578.49 -0.541374 1.97308 0
M  V30 5943 H 578.5 -2.75949 3.00526 0
M  V30 5944 H 577.175 -1.85677 3.72152 0
M  V30 5945 H 575.752 -2.96406 2.26269 0
M  V30 5946 N 577.937 -1.40673 -0.710563 0
M  V30 5947 C 579.186 -1.38525 -1.46607 0
M  V30 5948 C 579.499 0.0077024 -1.95598 0
M  V30 5949 O 580.705 0.151792 -2.71075 0
M  V30 5950 C 579.161 -2.43489 -2.6503 0
M  V30 5951 C 578.769 -3.88619 -2.22888 0
M  V30 5952 C 580.513 -2.50456 -3.42742 0
M  V30 5953 C 578.42 -4.85168 -3.3818 0
M  V30 5954 H 577.35 -0.515092 -0.550632 0
M  V30 5955 H 580.001 -1.66431 -0.772846 0
M  V30 5956 H 578.383 -2.0869 -3.36548 0
M  V30 5957 H 579.557 -4.32588 -1.58758 0
M  V30 5958 H 577.872 -3.85174 -1.58208 0
M  V30 5959 H 580.469 -3.19776 -4.28541 0
M  V30 5960 H 580.812 -1.53665 -3.86902 0
M  V30 5961 H 581.345 -2.84271 -2.78271 0
M  V30 5962 H 578.084 -5.8331 -2.99047 0
M  V30 5963 H 577.604 -4.4586 -4.01209 0
M  V30 5964 H 579.283 -5.05225 -4.04174 0
M  V30 5965 N 579.415 0.9433 -1.26252 0
M  V30 5966 C 580.661 1.69226 -1.12846 0
M  V30 5967 C 581.016 1.8963 0.325282 0
M  V30 5968 O 580.309 1.46435 1.23561 0
M  V30 5969 C 580.503 3.07073 -1.82868 0
M  V30 5970 C 580.332 3.00118 -3.34902 0
M  V30 5971 C 579.102 3.03251 -4.04186 0
M  V30 5972 C 581.3 2.80418 -4.31127 0
M  V30 5973 N 579.282 2.86573 -5.42908 0
M  V30 5974 C 580.653 2.72287 -5.5701 0
M  V30 5975 C 582.708 2.65185 -4.21404 0
M  V30 5976 C 581.411 2.50479 -6.74279 0
M  V30 5977 C 583.437 2.4475 -5.38378 0
M  V30 5978 C 582.799 2.37349 -6.63208 0
M  V30 5979 H 578.898 0.626716 -0.467708 0
M  V30 5980 H 581.482 1.11645 -1.5951 0
M  V30 5981 H 579.653 3.62797 -1.38682 0
M  V30 5982 H 581.385 3.70816 -1.62103 0
M  V30 5983 H 578.14 3.12882 -3.55531 0
M  V30 5984 H 578.564 2.81408 -6.15742 0
M  V30 5985 H 583.206 2.69675 -3.25631 0
M  V30 5986 H 580.924 2.4473 -7.70151 0
M  V30 5987 H 584.51 2.33872 -5.32724 0
M  V30 5988 H 583.39 2.21746 -7.52196 0
M  V30 5989 N 580.893 1.08022 1.14757 0
M  V30 5990 C 582.118 0.82895 1.90114 0
M  V30 5991 C 582.543 -0.612772 1.77839 0
M  V30 5992 O 581.901 -1.42895 1.11583 0
M  V30 5993 C 581.949 1.25062 3.38219 0
M  V30 5994 O 581.053 0.400119 4.10454 0
M  V30 5995 H 580.394 0.301412 0.591648 0
M  V30 5996 H 582.924 1.44062 1.45284 0
M  V30 5997 H 582.934 1.22977 3.89025 0
M  V30 5998 H 581.609 2.30067 3.46471 0
M  V30 5999 H 580.186 0.484052 3.69745 0
M  V30 6000 N 582.371 -1.3172 0.865308 0
M  V30 6001 C 583.787 -1.4958 0.556596 0
M  V30 6002 C 583.987 -1.79763 -0.910353 0
M  V30 6003 O 583.043 -1.87351 -1.6928 0
M  V30 6004 C 584.356 -2.63277 1.45279 0
M  V30 6005 C 585.904 -2.77161 1.45433 0
M  V30 6006 C 586.379 -3.93949 2.33598 0
M  V30 6007 N 587.87 -4.01228 2.31453 0
M  V30 6008 C 588.605 -4.90855 2.96393 0
M  V30 6009 N 588.101 -5.85416 3.70486 0
M  V30 6010 N 589.894 -4.84063 2.85726 0
M  V30 6011 H 582.045 -1.10396 1.81456 0
M  V30 6012 H 584.308 -0.54507 0.775631 0
M  V30 6013 H 584.014 -2.47734 2.49641 0
M  V30 6014 H 583.888 -3.59309 1.14792 0
M  V30 6015 H 586.275 -2.9212 0.41831 0
M  V30 6016 H 586.356 -1.8181 1.79941 0
M  V30 6017 H 586 -3.79748 3.37274 0
M  V30 6018 H 585.93 -4.88598 1.96417 0
M  V30 6019 H 588.421 -3.3357 1.77593 0
M  V30 6020 H 588.734 -6.50525 4.17178 0
M  V30 6021 H 587.079 -5.85409 3.74594 0
M  V30 6022 H 590.27 -4.09163 2.27384 0
M  V30 6023 H 590.443 -5.53708 3.36617 0
M  V30 6024 N 583.85 -0.624285 -1.44708 0
M  V30 6025 C 585.26 -0.2092 -1.85524 0
M  V30 6026 C 585.611 1.23783 -1.52225 0
M  V30 6027 O 584.736 1.94089 -0.956986 0
M  V30 6028 C 585.332 -0.372897 -3.36742 0
M  V30 6029 C 583.891 -0.012374 -3.76398 0
M  V30 6030 C 583.038 -0.68951 -2.68591 0
M  V30 6031 H 585.989 -0.829894 -1.35272 0
M  V30 6032 H 586.01 0.390134 -3.78495 0
M  V30 6033 H 585.522 -1.42615 -3.60947 0
M  V30 6034 H 583.623 1.03941 -3.57809 0
M  V30 6035 H 583.736 -0.417663 -4.77276 0
M  V30 6036 H 582.1 -0.125484 -2.54391 0
M  V30 6037 H 582.883 -1.74522 -2.9563 0
M  V30 6038 N 585.328 1.53329 -0.364422 0
M  V30 6039 C 586.291 2.24323 0.470292 0
M  V30 6040 C 587.291 1.25068 1.01067 0
M  V30 6041 O 588.481 1.49354 0.896605 0
M  V30 6042 C 585.613 2.97908 1.65722 0
M  V30 6043 H 586.806 2.9952 -0.150917 0
M  V30 6044 H 584.359 1.55868 -0.116092 0
M  V30 6045 H 585.094 2.2695 2.31655 0
M  V30 6046 H 584.879 3.70732 1.27671 0
M  V30 6047 H 586.369 3.5188 2.24878 0
M  V30 6048 N 586.806 0.0935595 1.57322 0
M  V30 6049 C 588.055 -0.570191 1.93473 0
M  V30 6050 C 588.368 -1.69434 0.977318 0
M  V30 6051 O 589.574 -2.41914 1.23248 0
M  V30 6052 C 588.03 -1.06564 3.43762 0
M  V30 6053 C 587.638 0.0286723 4.47991 0
M  V30 6054 C 589.382 -1.70221 3.88877 0
M  V30 6055 C 587.289 -0.482046 5.89432 0
M  V30 6056 H 586.219 -0.216764 0.72217 0
M  V30 6057 H 588.87 0.169313 1.82717 0
M  V30 6058 H 587.252 -1.85878 3.49664 0
M  V30 6059 H 588.426 0.804106 4.5373 0
M  V30 6060 H 586.741 0.570336 4.12476 0
M  V30 6061 H 589.338 -2.09502 4.91948 0
M  V30 6062 H 589.681 -2.57078 3.27439 0
M  V30 6063 H 590.214 -0.974919 3.85668 0
M  V30 6064 H 586.953 0.349871 6.54566 0
M  V30 6065 H 586.473 -1.22452 5.87167 0
M  V30 6066 H 588.152 -0.951508 6.39965 0
M  V30 6067 N 588.284 -1.56567 -0.180126 0
M  V30 6068 C 589.7 -1.50488 -0.531559 0
M  V30 6069 C 589.9 -0.796267 -1.851 0
M  V30 6070 O 588.956 -0.352978 -2.50021 0
M  V30 6071 C 590.269 -2.95201 -0.572456 0
M  V30 6072 C 591.817 -3.05957 -0.660264 0
M  V30 6073 C 592.292 -4.5211 -0.732135 0
M  V30 6074 N 593.783 -4.56322 -0.795262 0
M  V30 6075 C 594.518 -5.66742 -0.871296 0
M  V30 6076 N 594.014 -6.86815 -0.908708 0
M  V30 6077 N 595.807 -5.54691 -0.909639 0
M  V30 6078 H 587.958 -2.01045 0.685165 0
M  V30 6079 H 590.221 -0.915536 0.245962 0
M  V30 6080 H 589.927 -3.50165 0.328208 0
M  V30 6081 H 589.801 -3.49369 -1.422 0
M  V30 6082 H 592.188 -2.51032 -1.55136 0
M  V30 6083 H 592.269 -2.54888 0.215783 0
M  V30 6084 H 591.913 -5.07664 0.154664 0
M  V30 6085 H 591.843 -5.00926 -1.6242 0
M  V30 6086 H 594.334 -3.69868 -0.77499 0
M  V30 6087 H 594.647 -7.66718 -0.967654 0
M  V30 6088 H 592.992 -6.89443 -0.877132 0
M  V30 6089 H 596.183 -4.59804 -0.877353 0
M  V30 6090 H 596.356 -6.40768 -0.965434 0
M  V30 6091 N 589.762 0.448376 -1.51087 0
M  V30 6092 C 591.011 1.19561 -1.62444 0
M  V30 6093 C 591.324 1.92602 -0.341151 0
M  V30 6094 O 592.53 2.69439 -0.333936 0
M  V30 6095 C 590.986 2.17373 -2.8684 0
M  V30 6096 C 590.594 1.5003 -4.22131 0
M  V30 6097 C 592.338 2.92597 -3.0755 0
M  V30 6098 C 590.245 2.46262 -5.37689 0
M  V30 6099 H 589.175 0.449975 -0.605011 0
M  V30 6100 H 591.826 0.463735 -1.77544 0
M  V30 6101 H 590.208 2.93948 -2.65349 0
M  V30 6102 H 591.382 0.790886 -4.53962 0
M  V30 6103 H 589.697 0.870011 -4.0721 0
M  V30 6104 H 592.294 3.64663 -3.91056 0
M  V30 6105 H 592.637 3.53306 -2.20183 0
M  V30 6106 H 593.17 2.23131 -3.29329 0
M  V30 6107 H 589.909 1.90258 -6.27281 0
M  V30 6108 H 589.429 3.15289 -5.10248 0
M  V30 6109 H 591.108 3.07623 -5.6919 0
M  V30 6110 N 591.24 1.41047 0.703093 0
M  V30 6111 C 592.487 1.4 1.46309 0
M  V30 6112 C 592.815 0.00654574 1.94499 0
M  V30 6113 O 592.07 -0.980255 1.6938 0
M  V30 6114 C 592.369 2.34686 2.6955 0
M  V30 6115 C 592.035 3.81684 2.40058 0
M  V30 6116 C 590.697 4.21731 2.31725 0
M  V30 6117 C 593.049 4.74525 2.15581 0
M  V30 6118 C 590.377 5.52637 1.97001 0
M  V30 6119 C 592.729 6.05744 1.82366 0
M  V30 6120 C 591.393 6.44819 1.72524 0
M  V30 6121 H 590.663 0.512295 0.535382 0
M  V30 6122 H 593.31 1.73792 0.804275 0
M  V30 6123 H 591.615 1.94122 3.40329 0
M  V30 6124 H 593.312 2.31152 3.27673 0
M  V30 6125 H 589.902 3.49963 2.47435 0
M  V30 6126 H 594.086 4.44395 2.20968 0
M  V30 6127 H 589.342 5.81802 1.87928 0
M  V30 6128 H 593.516 6.77189 1.62444 0
M  V30 6129 H 591.143 7.46168 1.45385 0
M  V30 6130 N 592.718 -0.936591 1.26751 0
M  V30 6131 C 593.681 -2.01752 1.08761 0
M  V30 6132 C 594.681 -1.60763 0.0344435 0
M  V30 6133 O 595.871 -1.71963 0.278258 0
M  V30 6134 C 593.003 -3.34543 0.655271 0
M  V30 6135 H 594.196 -2.19143 2.04735 0
M  V30 6136 H 591.749 -1.11618 1.09413 0
M  V30 6137 H 592.484 -3.22851 -0.30626 0
M  V30 6138 H 592.269 -3.65647 1.41578 0
M  V30 6139 H 593.759 -4.13944 0.551378 0
M  V30 6140 N 594.196 -1.08629 -1.14182 0
M  V30 6141 C 595.424 -0.838889 -1.8913 0
M  V30 6142 C 595.839 0.609153 -1.78703 0
M  V30 6143 O 595.196 1.41876 -1.14794 0
M  V30 6144 C 595.247 -1.25477 -3.39025 0
M  V30 6145 O 594.968 -2.64601 -3.49167 0
M  V30 6146 C 596.469 -1.03856 -4.30963 0
M  V30 6147 H 593.689 -0.302377 -0.599007 0
M  V30 6148 H 596.233 -1.44615 -1.44592 0
M  V30 6149 H 594.388 -0.691571 -3.81177 0
M  V30 6150 H 594.802 -2.81922 -4.42289 0
M  V30 6151 H 596.276 -1.37892 -5.345 0
M  V30 6152 H 596.753 0.0242522 -4.39193 0
M  V30 6153 H 597.359 -1.58731 -3.94569 0
M  V30 6154 N 595.674 1.31259 -0.872281 0
M  V30 6155 C 596.904 2.00504 -0.498183 0
M  V30 6156 C 597.312 1.65632 0.914479 0
M  V30 6157 O 596.655 0.882849 1.61095 0
M  V30 6158 C 596.717 3.5482 -0.578194 0
M  V30 6159 C 596.381 4.13172 -1.95289 0
M  V30 6160 C 597.378 4.30107 -2.92069 0
M  V30 6161 C 595.063 4.48846 -2.25483 0
M  V30 6162 C 597.057 4.81908 -4.17185 0
M  V30 6163 C 594.744 5.00349 -3.50847 0
M  V30 6164 C 595.742 5.16831 -4.46514 0
M  V30 6165 O 595.43 5.67228 -5.69656 0
M  V30 6166 H 595.162 0.648055 -0.192354 0
M  V30 6167 H 597.716 1.6841 -1.17589 0
M  V30 6168 H 595.946 3.86383 0.156438 0
M  V30 6169 H 597.635 4.05318 -0.217192 0
M  V30 6170 H 598.401 4.02862 -2.7005 0
M  V30 6171 H 594.28 4.35292 -1.51795 0
M  V30 6172 H 597.824 4.94688 -4.91863 0
M  V30 6173 H 593.721 5.27028 -3.72708 0
M  V30 6174 H 594.489 5.85592 -5.7186 0
M  V30 6175 N 597.152 0.631951 1.44375 0
M  V30 6176 C 598.115 -0.0628142 2.29114 0
M  V30 6177 C 599.115 -0.771494 1.41084 0
M  V30 6178 O 600.305 -0.615959 1.62947 0
M  V30 6179 C 597.437 -1.09953 3.22681 0
M  V30 6180 H 598.63 0.682509 2.92031 0
M  V30 6181 H 596.183 0.392128 1.51301 0
M  V30 6182 H 596.918 -1.87481 2.64616 0
M  V30 6183 H 596.703 -0.595286 3.87555 0
M  V30 6184 H 598.193 -1.58538 3.86336 0
M  V30 6185 N 598.631 -1.53133 0.372548 0
M  V30 6186 C 599.578 -2.25951 -0.470631 0
M  V30 6187 C 600.548 -1.26895 -1.07176 0
M  V30 6188 O 601.733 -1.55691 -1.10294 0
M  V30 6189 C 598.873 -3.05726 -1.6008 0
M  V30 6190 C 597.986 -4.19684 -1.02416 0
M  V30 6191 C 597.121 -4.86888 -2.124 0
M  V30 6192 C 596.16 -5.92866 -1.52238 0
M  V30 6193 N 595.297 -6.53732 -2.56084 0
M  V30 6194 H 600.137 -2.97587 0.156816 0
M  V30 6195 H 597.674 -1.4683 0.0891571 0
M  V30 6196 H 599.632 -3.50258 -2.26661 0
M  V30 6197 H 598.262 -2.36331 -2.1988 0
M  V30 6198 H 597.314 -3.79588 -0.248426 0
M  V30 6199 H 598.626 -4.95821 -0.544366 0
M  V30 6200 H 597.78 -5.34638 -2.86787 0
M  V30 6201 H 596.519 -4.10239 -2.63734 0
M  V30 6202 H 595.524 -5.4447 -0.763685 0
M  V30 6203 H 596.749 -6.71439 -1.0172 0
M  V30 6204 H 594.695 -5.79932 -3.06618 0
M  V30 6205 H 594.612 -7.25429 -2.12811 0
M  V30 6206 H 595.88 -7.0613 -3.30152 0
M  V30 6207 N 600.109 -0.101901 -1.5727 0
M  V30 6208 C 601.355 0.554864 -1.95686 0
M  V30 6209 C 601.71 1.65368 -0.983415 0
M  V30 6210 O 601.003 1.91597 -0.0105374 0
M  V30 6211 C 601.197 1.14898 -3.38427 0
M  V30 6212 C 601.026 0.109251 -4.49567 0
M  V30 6213 C 599.796 -0.316633 -5.04307 0
M  V30 6214 C 601.994 -0.665196 -5.0998 0
M  V30 6215 N 599.976 -1.34393 -5.99009 0
M  V30 6216 C 601.347 -1.54413 -6.00464 0
M  V30 6217 C 603.402 -0.717966 -4.92696 0
M  V30 6218 C 602.105 -2.47122 -6.75517 0
M  V30 6219 C 604.131 -1.63268 -5.68417 0
M  V30 6220 C 603.493 -2.49923 -6.58572 0
M  V30 6221 H 599.592 0.17317 -0.762585 0
M  V30 6222 H 602.176 -0.18605 -1.93809 0
M  V30 6223 H 600.347 1.85969 -3.40984 0
M  V30 6224 H 602.079 1.76867 -3.64006 0
M  V30 6225 H 598.834 0.0724419 -4.73545 0
M  V30 6226 H 599.258 -1.85598 -6.51062 0
M  V30 6227 H 603.9 -0.0621637 -4.22754 0
M  V30 6228 H 601.618 -3.13724 -7.44717 0
M  V30 6229 H 605.204 -1.67874 -5.57054 0
M  V30 6230 H 604.084 -3.19553 -7.16139 0
M  V30 6231 N 601.587 1.56661 0.17182 0
M  V30 6232 C 602.864 1.72838 0.915778 0
M  V30 6233 C 603.244 0.66316 2.00413 0
M  V30 6234 O 602.592 -0.322123 2.26218 0
M  V30 6235 C 602.802 3.16019 1.48097 0
M  V30 6236 C 604.15 3.76962 1.95408 0
M  V30 6237 O 605.174 3.19294 1.57892 0
M  V30 6238 O 604.033 4.78219 2.64516 0
M  V30 6239 H 601.127 0.705797 0.431021 0
M  V30 6240 H 603.673 1.68947 0.159689 0
M  V30 6241 H 602.445 3.85031 0.697618 0
M  V30 6242 H 602.068 3.24234 2.30126 0
M  V30 6243 N 603.065 -0.440357 1.51323 0
M  V30 6244 C 603.975 -1.55955 1.75258 0
M  V30 6245 C 604.991 -1.61933 0.636687 0
M  V30 6246 O 606.167 -1.79231 0.918593 0
M  V30 6247 C 603.232 -2.9196 1.86977 0
M  V30 6248 C 602.293 -2.96122 3.10822 0
M  V30 6249 C 601.526 -4.2564 3.21973 0
M  V30 6250 O 601.749 -5.17851 2.39137 0
M  V30 6251 O 600.683 -4.36025 4.14929 0
M  V30 6252 H 604.509 -1.38673 2.70191 0
M  V30 6253 H 602.094 -0.623055 1.35788 0
M  V30 6254 H 603.976 -3.72682 1.96688 0
M  V30 6255 H 602.651 -3.09375 0.952307 0
M  V30 6256 H 601.558 -2.14366 3.06591 0
M  V30 6257 H 602.891 -2.83651 4.02247 0
M  V30 6258 N 604.543 -1.41418 -0.695603 0
M  V30 6259 C 605.49 -1.43264 -1.80954 0
M  V30 6260 C 606.46 -0.287016 -1.63601 0
M  V30 6261 O 607.645 -0.488054 -1.84452 0
M  V30 6262 C 604.785 -1.32054 -3.18835 0
M  V30 6263 C 603.898 -2.56485 -3.4762 0
M  V30 6264 C 603.033 -2.3757 -4.75115 0
M  V30 6265 C 602.072 -3.57477 -4.96867 0
M  V30 6266 N 601.209 -3.37632 -6.15588 0
M  V30 6267 H 606.049 -2.38467 -1.78711 0
M  V30 6268 H 603.586 -1.18415 -0.872715 0
M  V30 6269 H 605.544 -1.23558 -3.98484 0
M  V30 6270 H 604.174 -0.404592 -3.20254 0
M  V30 6271 H 603.226 -2.75432 -2.62376 0
M  V30 6272 H 604.538 -3.45678 -3.59594 0
M  V30 6273 H 603.692 -2.2654 -5.62818 0
M  V30 6274 H 602.431 -1.45834 -4.65386 0
M  V30 6275 H 601.436 -3.68961 -4.07612 0
M  V30 6276 H 602.661 -4.50167 -5.08455 0
M  V30 6277 H 600.607 -2.48596 -6.07072 0
M  V30 6278 H 600.524 -4.20401 -6.2833 0
M  V30 6279 H 601.792 -3.30375 -7.06026 0
M  V30 6280 N 606.021 0.929856 -1.27246 0
M  V30 6281 C 607.267 1.6802 -1.14634 0
M  V30 6282 C 607.622 1.89965 0.305151 0
M  V30 6283 O 606.915 1.47737 1.22001 0
M  V30 6284 C 607.109 3.05116 -1.86115 0
M  V30 6285 C 606.938 2.96549 -3.38066 0
M  V30 6286 C 605.708 2.98947 -4.0738 0
M  V30 6287 C 607.906 2.7583 -4.34077 0
M  V30 6288 N 605.888 2.80799 -5.45917 0
M  V30 6289 C 607.259 2.66364 -5.59866 0
M  V30 6290 C 609.314 2.60701 -4.24193 0
M  V30 6291 C 608.017 2.43313 -6.76898 0
M  V30 6292 C 610.043 2.39026 -5.40944 0
M  V30 6293 C 609.405 2.30302 -6.65688 0
M  V30 6294 H 605.504 0.62172 -0.474329 0
M  V30 6295 H 608.088 1.09947 -1.60685 0
M  V30 6296 H 606.259 3.61306 -1.42522 0
M  V30 6297 H 607.991 3.69076 -1.66027 0
M  V30 6298 H 604.746 3.09093 -3.58829 0
M  V30 6299 H 605.17 2.74861 -6.18692 0
M  V30 6300 H 609.812 2.66206 -3.28473 0
M  V30 6301 H 607.53 2.36548 -7.72704 0
M  V30 6302 H 611.116 2.28208 -5.35175 0
M  V30 6303 H 609.996 2.13756 -7.54505 0
M  V30 6304 N 607.499 1.09233 1.13605 0
M  V30 6305 C 608.747 0.825525 1.84471 0
M  V30 6306 C 609.068 -0.650702 1.83823 0
M  V30 6307 O 608.338 -1.47204 1.29259 0
M  V30 6308 H 606.918 0.3024 0.683054 0
M  V30 6309 H 609.58 1.38006 1.37624 0
M  V30 6310 H 608.676 1.17727 2.89045 0
M  V30 6311 N 608.977 -1.30795 0.87923 0
M  V30 6312 C 610.207 -2.00237 0.50881 0
M  V30 6313 C 610.615 -1.66115 -0.905682 0
M  V30 6314 O 609.958 -0.89138 -1.60624 0
M  V30 6315 C 610.02 -3.54508 0.597003 0
M  V30 6316 C 609.684 -4.12131 1.97477 0
M  V30 6317 C 610.681 -4.28552 2.94346 0
M  V30 6318 C 608.366 -4.47644 2.2786 0
M  V30 6319 C 610.36 -4.79689 4.19735 0
M  V30 6320 C 608.047 -4.98481 3.53496 0
M  V30 6321 C 609.045 -5.14456 4.49248 0
M  V30 6322 O 608.733 -5.64199 5.72656 0
M  V30 6323 H 608.465 -0.647026 0.195788 0
M  V30 6324 H 611.019 -1.67785 1.1848 0
M  V30 6325 H 609.249 -3.86461 -0.135945 0
M  V30 6326 H 610.938 -4.05198 0.238684 0
M  V30 6327 H 611.704 -4.01424 2.72183 0
M  V30 6328 H 607.583 -4.34481 1.54102 0
M  V30 6329 H 611.127 -4.92073 4.9448 0
M  V30 6330 H 607.024 -5.25044 3.75498 0
M  V30 6331 H 607.792 -5.82551 5.74957 0
M  V30 6332 N 610.455 -0.639598 -1.44038 0
M  V30 6333 C 611.704 -0.144885 -2.01179 0
M  V30 6334 C 612.017 1.24372 -1.50967 0
M  V30 6335 O 613.223 1.83291 -2.00292 0
M  V30 6336 C 611.679 -0.208244 -3.59297 0
M  V30 6337 C 611.287 -1.59869 -4.18504 0
M  V30 6338 C 613.031 0.229568 -4.23879 0
M  V30 6339 C 610.938 -1.61671 -5.68873 0
M  V30 6340 H 609.868 -0.0504005 -0.752314 0
M  V30 6341 H 612.519 -0.799639 -1.65161 0
M  V30 6342 H 610.901 0.513767 -3.92653 0
M  V30 6343 H 612.075 -2.34496 -3.96671 0
M  V30 6344 H 610.39 -1.98131 -3.66242 0
M  V30 6345 H 612.987 0.235758 -5.3418 0
M  V30 6346 H 613.33 1.25848 -3.96822 0
M  V30 6347 H 613.863 -0.440233 -3.95357 0
M  V30 6348 H 610.602 -2.62427 -6.00677 0
M  V30 6349 H 610.122 -0.913489 -5.92803 0
M  V30 6350 H 611.801 -1.35439 -6.32665 0
M  V30 6351 N 611.933 1.52934 -0.380664 0
M  V30 6352 C 612.88 2.26197 0.458641 0
M  V30 6353 C 613.85 1.27462 1.06502 0
M  V30 6354 O 615.035 1.56274 1.09467 0
M  V30 6355 C 612.175 3.06571 1.58456 0
M  V30 6356 C 611.288 4.20222 1.00189 0
M  V30 6357 C 610.423 4.88007 2.09815 0
M  V30 6358 C 609.462 5.93665 1.49092 0
M  V30 6359 N 608.599 6.55081 2.52613 0
M  V30 6360 H 613.439 2.975 -0.172595 0
M  V30 6361 H 610.976 1.4678 -0.0969426 0
M  V30 6362 H 612.934 3.51455 2.24801 0
M  V30 6363 H 611.564 2.37494 2.18624 0
M  V30 6364 H 610.616 3.79714 0.228292 0
M  V30 6365 H 611.928 4.96102 0.518064 0
M  V30 6366 H 611.082 5.36151 2.83948 0
M  V30 6367 H 609.821 4.11632 2.61555 0
M  V30 6368 H 608.826 5.44868 0.7348 0
M  V30 6369 H 610.051 6.71969 0.981582 0
M  V30 6370 H 607.997 5.8155 3.03538 0
M  V30 6371 H 607.914 7.26548 2.08961 0
M  V30 6372 H 609.182 7.07871 3.26402 0
M  V30 6373 N 613.412 0.11024 1.57214 0
M  V30 6374 C 614.689 -0.592956 1.86396 0
M  V30 6375 C 615.069 -1.85379 1.00985 0
M  V30 6376 O 614.417 -2.28337 0.0863592 0
M  V30 6377 C 614.627 -0.893816 3.3736 0
M  V30 6378 C 615.975 -1.25069 4.05762 0
M  V30 6379 O 616.999 -0.984356 3.42329 0
M  V30 6380 O 615.858 -1.75017 5.17718 0
M  V30 6381 H 612.952 -0.29828 0.771335 0
M  V30 6382 H 615.498 0.144083 1.69087 0
M  V30 6383 H 614.27 2.6031e-05 3.913 0
M  V30 6384 H 613.893 -1.68631 3.60068 0
M  V30 6385 N 614.89 -1.56749 -0.16351 0
M  V30 6386 C 616.138 -1.82074 -0.87713 0
M  V30 6387 C 616.459 -0.688503 -1.82441 0
M  V30 6388 O 615.729 0.291085 -1.93725 0
M  V30 6389 H 614.309 -0.671677 -0.326893 0
M  V30 6390 H 616.971 -1.9423 -0.161459 0
M  V30 6391 H 616.067 -2.76407 -1.44934 0
M  V30 6392 N 616.368 0.432326 -1.51554 0
M  V30 6393 C 617.645 1.19288 -1.55015 0
M  V30 6394 C 618.025 2.08701 -0.317375 0
M  V30 6395 O 617.373 2.17602 0.697243 0
M  V30 6396 C 617.583 1.99037 -2.86679 0
M  V30 6397 C 618.931 2.55907 -3.38817 0
M  V30 6398 O 619.955 2.09243 -2.88263 0
M  V30 6399 O 618.814 3.41029 -4.27038 0
M  V30 6400 H 615.908 0.543369 -0.623441 0
M  V30 6401 H 618.454 0.440988 -1.6387 0
M  V30 6402 H 617.226 1.33397 -3.6786 0
M  V30 6403 H 616.849 2.81281 -2.8101 0
M  V30 6404 N 617.846 1.41785 0.688094 0
M  V30 6405 C 618.794 1.44436 1.82321 0
M  V30 6406 C 619.788 0.321544 1.6632 0
M  V30 6407 O 620.994 0.493931 1.73091 0
M  V30 6408 H 617.369 0.452084 0.600936 0
M  V30 6409 H 619.34 2.40087 1.77202 0
M  V30 6410 C 618.089 1.35071 3.20392 0
M  V30 6411 H 617.412 2.2076 3.33324 0
M  V30 6412 H 618.852 1.40988 3.99873 0
M  V30 6413 C 617.311 0.0639127 3.36839 0
M  V30 6414 O 617.841 -0.888495 3.91751 0
M  V30 6415 N 616.047 -0.0146114 2.90596 0
M  V30 6416 H 615.594 0.761191 2.46097 0
M  V30 6417 H 615.552 -0.874988 3.01979 0
M  V30 6418 N 619.324 -0.923095 1.27737 0
M  V30 6419 C 620.573 -1.66581 1.13727 0
M  V30 6420 C 620.886 -1.9304 -0.315433 0
M  V30 6421 O 622.092 -2.65309 -0.57651 0
M  V30 6422 C 620.548 -3.00047 1.98745 0
M  V30 6423 C 620.156 -2.8127 3.48699 0
M  V30 6424 C 621.9 -3.77887 1.93395 0
M  V30 6425 C 619.807 -4.1032 4.25901 0
M  V30 6426 H 618.737 -0.624834 0.422017 0
M  V30 6427 H 621.388 -1.02514 1.52194 0
M  V30 6428 H 619.77 -3.65197 1.53125 0
M  V30 6429 H 620.944 -2.24859 4.02213 0
M  V30 6430 H 619.259 -2.16854 3.55476 0
M  V30 6431 H 621.856 -4.73526 2.48348 0
M  V30 6432 H 622.199 -4.06264 0.908605 0
M  V30 6433 H 622.732 -3.19541 2.36935 0
M  V30 6434 H 619.471 -3.8712 5.28978 0
M  V30 6435 H 618.991 -4.66377 3.77163 0
M  V30 6436 H 620.67 -4.78648 4.35321 0
M  V30 6437 N 620.802 -1.09834 -1.13024 0
M  V30 6438 C 622.027 -0.85909 -1.88771 0
M  V30 6439 C 622.452 0.584402 -1.78791 0
M  V30 6440 O 621.81 1.41101 -1.13842 0
M  V30 6441 C 621.858 -1.30427 -3.36186 0
M  V30 6442 O 620.962 -0.465368 -4.09766 0
M  V30 6443 H 620.303 -0.310786 -0.586778 0
M  V30 6444 H 622.833 -1.46355 -1.42973 0
M  V30 6445 H 622.843 -1.2915 -3.8702 0
M  V30 6446 H 621.518 -2.3555 -3.42767 0
M  V30 6447 H 620.095 -0.542814 -3.68928 0
M  V30 6448 N 622.28 1.30327 -0.886154 0
M  V30 6449 C 623.696 1.48676 -0.580323 0
M  V30 6450 C 623.896 1.81189 0.881639 0
M  V30 6451 O 622.952 1.90021 1.66278 0
M  V30 6452 C 624.265 2.60932 -1.49449 0
M  V30 6453 C 625.813 2.74812 -1.49824 0
M  V30 6454 C 626.288 3.90183 -2.39836 0
M  V30 6455 N 627.779 3.97495 -2.37806 0
M  V30 6456 C 628.514 4.86078 -3.04165 0
M  V30 6457 N 628.01 5.79448 -3.79753 0
M  V30 6458 N 629.803 4.79456 -2.93391 0
M  V30 6459 H 621.954 1.07495 -1.8319 0
M  V30 6460 H 624.217 0.532661 -0.784204 0
M  V30 6461 H 623.923 2.43731 -2.5355 0
M  V30 6462 H 623.797 3.57437 -1.20494 0
M  V30 6463 H 626.184 2.91418 -0.464731 0
M  V30 6464 H 626.265 1.78924 -1.82811 0
M  V30 6465 H 625.909 3.74334 -3.43273 0
M  V30 6466 H 625.839 4.85411 -2.04166 0
M  V30 6467 H 628.33 3.30703 -1.82877 0
M  V30 6468 H 628.643 6.43805 -4.27475 0
M  V30 6469 H 626.988 5.79376 -3.8386 0
M  V30 6470 H 630.179 4.05494 -2.33864 0
M  V30 6471 H 630.352 5.48283 -3.45383 0
M  V30 6472 N 623.758 0.647228 1.43697 0
M  V30 6473 C 624.988 0.16551 2.05936 0
M  V30 6474 C 625.396 -1.17164 1.48557 0
M  V30 6475 O 624.739 -1.73307 0.60914 0
M  V30 6476 C 624.801 -0.00648082 3.59499 0
M  V30 6477 C 624.465 1.25503 4.39429 0
M  V30 6478 C 625.462 2.18241 4.71876 0
M  V30 6479 C 623.147 1.49494 4.79538 0
M  V30 6480 C 625.141 3.33268 5.43333 0
M  V30 6481 C 622.828 2.64815 5.50742 0
M  V30 6482 C 623.826 3.56528 5.82561 0
M  V30 6483 O 623.514 4.69836 6.52311 0
M  V30 6484 H 623.246 0.0844124 0.670709 0
M  V30 6485 H 625.8 0.88638 1.8529 0
M  V30 6486 H 624.03 -0.782661 3.78697 0
M  V30 6487 H 625.719 -0.444794 4.03456 0
M  V30 6488 H 626.485 2.00946 4.41413 0
M  V30 6489 H 622.364 0.789912 4.54182 0
M  V30 6490 H 625.908 4.04874 5.68087 0
M  V30 6491 H 621.805 2.82047 5.8062 0
M  V30 6492 H 622.573 4.69024 6.70789 0
M  V30 6493 N 625.236 -1.5273 0.388769 0
M  V30 6494 C 626.199 -2.25043 -0.434544 0
M  V30 6495 C 627.199 -1.26661 -0.990644 0
M  V30 6496 O 628.389 -1.50762 -0.872731 0
M  V30 6497 C 625.521 -3.00507 -1.60961 0
M  V30 6498 H 626.714 -2.99242 0.198549 0
M  V30 6499 H 624.267 -1.55664 0.140875 0
M  V30 6500 H 625.002 -2.30607 -2.28015 0
M  V30 6501 H 624.787 -3.72716 -1.21757 0
M  V30 6502 H 626.277 -3.55413 -2.19251 0
M  V30 6503 N 626.714 -0.118576 -1.57153 0
M  V30 6504 C 627.677 0.817464 -2.14127 0
M  V30 6505 C 628.677 1.1949 -1.07604 0
M  V30 6506 O 629.867 1.12048 -1.33382 0
M  V30 6507 C 626.999 2.10541 -2.68115 0
M  V30 6508 H 628.192 0.322339 -2.98163 0
M  V30 6509 H 625.745 0.130655 -1.55753 0
M  V30 6510 H 626.48 2.64485 -1.87665 0
M  V30 6511 H 626.265 1.84425 -3.4602 0
M  V30 6512 H 627.755 2.77453 -3.12105 0
M  V30 6513 N 628.193 1.56834 0.155195 0
M  V30 6514 C 629.156 1.96748 1.17571 0
M  V30 6515 C 630.156 0.853006 1.3631 0
M  V30 6516 O 631.346 1.11978 1.33441 0
M  V30 6517 C 628.478 2.27631 2.53765 0
M  V30 6518 H 629.671 2.88085 0.833498 0
M  V30 6519 H 627.224 1.51141 0.398242 0
M  V30 6520 H 627.959 1.39059 2.92973 0
M  V30 6521 H 627.744 3.0888 2.41527 0
M  V30 6522 H 629.234 2.59377 3.27282 0
M  V30 6523 N 629.671 -0.424282 1.51781 0
M  V30 6524 C 630.899 -1.1947 1.68921 0
M  V30 6525 C 631.314 -1.84683 0.39213 0
M  V30 6526 O 630.671 -1.71261 -0.630554 0
M  V30 6527 C 630.722 -2.26909 2.81416 0
M  V30 6528 O 630.443 -1.64361 4.061 0
M  V30 6529 C 631.944 -3.16945 3.09937 0
M  V30 6530 H 629.164 -0.359591 0.566511 0
M  V30 6531 H 631.708 -0.501139 1.98265 0
M  V30 6532 H 629.863 -2.91959 2.54635 0
M  V30 6533 H 630.277 -2.35468 4.68674 0
M  V30 6534 H 631.751 -3.88437 3.922 0
M  V30 6535 H 632.228 -3.78451 2.22871 0
M  V30 6536 H 632.834 -2.57581 3.38426 0
M  V30 6537 N 631.149 -1.42148 -0.680565 0
M  V30 6538 C 632.097 -1.45401 -1.81552 0
M  V30 6539 C 633.091 -0.33036 -1.66147 0
M  V30 6540 O 634.297 -0.503103 -1.72826 0
M  V30 6541 H 630.672 -0.455265 -0.59853 0
M  V30 6542 H 632.643 -2.41024 -1.75926 0
M  V30 6543 C 631.392 -1.36769 -3.19671 0
M  V30 6544 H 630.715 -2.22525 -3.32149 0
M  V30 6545 H 632.155 -1.43106 -3.9912 0
M  V30 6546 C 630.614 -0.0817752 -3.36801 0
M  V30 6547 O 631.144 0.867707 -3.92216 0
M  V30 6548 N 629.35 -0.000799811 -2.906 0
M  V30 6549 H 628.897 -0.774231 -2.4569 0
M  V30 6550 H 628.855 0.858961 -3.02439 0
M  V30 6551 N 632.627 0.916307 -1.28225 0
M  V30 6552 C 633.852 1.7043 -1.18188 0
M  V30 6553 C 634.277 1.86346 0.256274 0
M  V30 6554 O 633.635 1.37175 1.18544 0
M  V30 6555 C 633.683 3.07546 -1.88275 0
M  V30 6556 O 632.787 3.94904 -1.18848 0
M  V30 6557 H 632.128 0.521967 -0.410423 0
M  V30 6558 H 634.658 1.14589 -1.69501 0
M  V30 6559 H 634.668 3.57793 -1.96082 0
M  V30 6560 H 633.343 2.95279 -2.92887 0
M  V30 6561 H 631.92 3.53339 -1.19187 0
M  V30 6562 N 634.105 1.10431 1.1244 0
M  V30 6563 C 635.353 0.845045 1.83585 0
M  V30 6564 C 635.674 -0.631168 1.84503 0
M  V30 6565 O 634.944 -1.45825 1.30813 0
M  V30 6566 H 633.524 0.309628 0.679809 0
M  V30 6567 H 636.186 1.39458 1.36153 0
M  V30 6568 H 635.282 1.20786 2.8778 0
M  V30 6569 N 635.583 -1.29855 0.893053 0
M  V30 6570 C 636.832 -1.95104 0.511597 0
M  V30 6571 C 637.145 -1.71226 -0.945567 0
M  V30 6572 O 638.351 -2.30525 -1.43424 0
M  V30 6573 C 636.807 -3.49374 0.864034 0
M  V30 6574 C 636.415 -3.82061 2.33952 0
M  V30 6575 C 638.159 -4.20894 0.552167 0
M  V30 6576 C 636.066 -5.29546 2.63316 0
M  V30 6577 H 634.996 -0.73029 0.187597 0
M  V30 6578 H 637.647 -1.47682 1.08914 0
M  V30 6579 H 636.029 -3.95413 0.215493 0
M  V30 6580 H 637.203 -3.46904 3.03305 0
M  V30 6581 H 635.518 -3.23665 2.61973 0
M  V30 6582 H 638.115 -5.29435 0.748489 0
M  V30 6583 H 638.458 -4.13178 -0.508924 0
M  V30 6584 H 638.991 -3.80564 1.15825 0
M  V30 6585 H 635.73 -5.4232 3.68197 0
M  V30 6586 H 635.25 -5.65974 1.9858 0
M  V30 6587 H 636.929 -5.97068 2.49236 0
M  V30 6588 N 637.061 -0.65484 -1.43351 0
M  V30 6589 C 638.286 -0.175046 -2.0666 0
M  V30 6590 C 638.711 1.15104 -1.4877 0
M  V30 6591 O 638.069 1.71144 -0.598279 0
M  V30 6592 C 638.117 -0.0991544 -3.60464 0
M  V30 6593 O 637.221 0.938169 -4.01587 0
M  V30 6594 H 636.562 -0.0956148 -0.65708 0
M  V30 6595 H 639.092 -0.898222 -1.83829 0
M  V30 6596 H 639.102 0.083632 -4.07914 0
M  V30 6597 H 637.777 -1.06719 -4.01975 0
M  V30 6598 H 636.354 0.72804 -3.65724 0
M  V30 6599 N 638.539 1.52521 -0.396863 0
M  V30 6600 C 639.767 2.06091 0.18275 0
M  V30 6601 C 640.182 1.26796 1.39886 0
M  V30 6602 O 639.539 0.316585 1.79733 0
M  V30 6603 C 639.59 3.57362 0.545377 0
M  V30 6604 O 639.311 4.33656 -0.622428 0
M  V30 6605 C 640.812 4.27305 1.18004 0
M  V30 6606 H 638.032 0.670504 0.025789 0
M  V30 6607 H 640.576 1.96561 -0.564276 0
M  V30 6608 H 638.731 3.66941 1.2423 0
M  V30 6609 H 639.145 5.23507 -0.322662 0
M  V30 6610 H 640.619 5.34366 1.38408 0
M  V30 6611 H 641.096 3.83 2.1496 0
M  V30 6612 H 641.702 4.22064 0.523671 0
M  V30 6613 N 640.017 0.126909 1.57088 0
M  V30 6614 C 640.965 -0.837618 2.16995 0
M  V30 6615 C 641.959 -1.26974 1.12133 0
M  V30 6616 O 643.165 -1.24056 1.30423 0
M  V30 6617 H 639.54 -0.288256 0.694559 0
M  V30 6618 H 641.511 -0.307957 2.96807 0
M  V30 6619 C 640.26 -2.07474 2.79016 0
M  V30 6620 H 639.583 -1.75117 3.59408 0
M  V30 6621 H 641.023 -2.72949 3.24461 0
M  V30 6622 C 639.482 -2.86967 1.76498 0
M  V30 6623 O 640.012 -3.82625 1.22316 0
M  V30 6624 N 638.218 -2.51111 1.46258 0
M  V30 6625 H 637.765 -1.73389 1.90509 0
M  V30 6626 H 637.723 -3.04594 0.779085 0
M  V30 6627 N 641.495 -1.56914 -0.146875 0
M  V30 6628 C 642.72 -1.87881 -0.878386 0
M  V30 6629 C 643.145 -0.715945 -1.73942 0
M  V30 6630 O 642.503 0.334447 -1.78189 0
M  V30 6631 C 642.551 -3.17431 -1.71084 0
M  V30 6632 O 641.655 -3.01374 -2.81509 0
M  V30 6633 H 640.996 -0.617289 -0.244644 0
M  V30 6634 H 643.526 -2.04136 -0.137654 0
M  V30 6635 H 643.536 -3.49455 -2.10582 0
M  V30 6636 H 642.211 -4.01671 -1.07856 0
M  V30 6637 H 640.788 -2.80758 -2.45416 0
M  V30 6638 N 642.974 0.416227 -1.52004 0
M  V30 6639 C 644.39 0.754319 -1.40649 0
M  V30 6640 C 644.59 1.95059 -0.505392 0
M  V30 6641 O 643.646 2.5248 0.0315057 0
M  V30 6642 C 644.959 1.0149 -2.83055 0
M  V30 6643 C 646.507 1.11805 -2.9235 0
M  V30 6644 C 646.982 1.41144 -4.35709 0
M  V30 6645 N 648.473 1.48024 -4.38911 0
M  V30 6646 C 649.208 1.72338 -5.46889 0
M  V30 6647 N 648.704 1.94303 -6.64995 0
M  V30 6648 N 650.497 1.74294 -5.34395 0
M  V30 6649 H 642.648 -0.371324 -2.09129 0
M  V30 6650 H 644.911 -0.103811 -0.942299 0
M  V30 6651 H 644.617 0.208345 -3.51082 0
M  V30 6652 H 644.491 1.93697 -3.23668 0
M  V30 6653 H 646.878 1.91521 -2.24508 0
M  V30 6654 H 646.959 0.17451 -2.55204 0
M  V30 6655 H 646.603 0.619484 -5.04108 0
M  V30 6656 H 646.533 2.36739 -4.70385 0
M  V30 6657 H 649.024 1.32868 -3.53772 0
M  V30 6658 H 649.337 2.12286 -7.43071 0
M  V30 6659 H 647.682 1.91582 -6.68073 0
M  V30 6660 H 650.873 1.56667 -4.41104 0
M  V30 6661 H 651.046 1.92904 -6.18621 0
M  V30 6662 N 644.452 1.42507 0.673017 0
M  V30 6663 C 645.7 1.42789 1.43023 0
M  V30 6664 C 646.021 0.0459738 1.94946 0
M  V30 6665 O 645.291 -0.915765 1.73178 0
M  V30 6666 H 643.871 0.525657 0.530748 0
M  V30 6667 H 646.533 1.77944 0.795113 0
M  V30 6668 H 645.629 2.12872 2.28237 0
M  V30 6669 N 645.93 -0.909495 1.28709 0
M  V30 6670 C 647.207 -1.63865 1.06806 0
M  V30 6671 C 647.587 -2.07445 -0.391143 0
M  V30 6672 O 646.935 -1.82269 -1.37805 0
M  V30 6673 C 647.145 -2.82692 2.04661 0
M  V30 6674 C 648.493 -3.5361 2.35042 0
M  V30 6675 O 649.517 -2.92847 2.02779 0
M  V30 6676 O 648.376 -4.63131 2.90124 0
M  V30 6677 H 645.47 -0.719065 0.408502 0
M  V30 6678 H 648.016 -0.958424 1.40044 0
M  V30 6679 H 646.788 -2.47614 3.0299 0
M  V30 6680 H 646.411 -3.58426 1.72095 0
M  V30 6681 N 647.408 -1.11026 -1.11852 0
M  V30 6682 C 648.633 -0.879064 -1.87849 0
M  V30 6683 C 649.058 0.565406 -1.79401 0
M  V30 6684 O 648.416 1.39886 -1.15333 0
M  V30 6685 C 648.464 -1.33985 -3.34784 0
M  V30 6686 O 647.568 -0.508803 -4.09249 0
M  V30 6687 H 646.909 -0.316992 -0.583448 0
M  V30 6688 H 649.439 -1.47863 -1.41413 0
M  V30 6689 H 649.449 -1.33248 -3.85628 0
M  V30 6690 H 648.124 -2.39172 -3.40249 0
M  V30 6691 H 646.701 -0.581913 -3.68332 0
M  V30 6692 N 648.886 1.2938 -0.899927 0
M  V30 6693 C 650.163 1.9046 -0.445443 0
M  V30 6694 C 650.543 1.81683 1.07492 0
M  V30 6695 O 649.891 1.24371 1.91688 0
M  V30 6696 C 650.101 3.35529 -0.960279 0
M  V30 6697 C 651.449 4.12556 -1.00412 0
M  V30 6698 O 652.473 3.44434 -0.907965 0
M  V30 6699 O 651.332 5.34294 -1.14857 0
M  V30 6700 H 648.426 0.815253 -0.138893 0
M  V30 6701 H 650.972 1.37844 -0.989808 0
M  V30 6702 H 649.744 3.36074 -2.00425 0
M  V30 6703 H 649.367 3.95624 -0.395939 0
M  V30 6704 N 650.364 0.662433 1.43002 0
M  V30 6705 C 651.274 -0.0239199 2.34588 0
M  V30 6706 C 652.29 -0.802255 1.54402 0
M  V30 6707 O 653.466 -0.747401 1.87018 0
M  V30 6708 C 650.531 -0.972098 3.32793 0
M  V30 6709 C 649.592 -0.189673 4.28881 0
M  V30 6710 C 648.825 -1.09269 5.22395 0
M  V30 6711 O 649.048 -2.33209 5.20547 0
M  V30 6712 O 647.982 -0.560136 5.99288 0
M  V30 6713 H 651.808 0.730171 2.94792 0
M  V30 6714 H 649.393 0.422635 1.43297 0
M  V30 6715 H 651.275 -1.51676 3.93157 0
M  V30 6716 H 649.95 -1.70626 2.75079 0
M  V30 6717 H 648.857 0.398794 3.71968 0
M  V30 6718 H 650.19 0.50511 4.89601 0
M  V30 6719 N 651.842 -1.52309 0.404946 0
M  V30 6720 C 653.088 -2.02731 -0.164857 0
M  V30 6721 C 653.443 -1.28543 -1.43159 0
M  V30 6722 O 652.736 -0.381883 -1.87756 0
M  V30 6723 C 652.93 -3.54284 -0.470895 0
M  V30 6724 C 652.759 -4.43152 0.764625 0
M  V30 6725 C 651.529 -4.88594 1.28858 0
M  V30 6726 C 653.727 -4.874 1.64152 0
M  V30 6727 N 651.709 -5.61577 2.48001 0
M  V30 6728 C 653.08 -5.59121 2.67924 0
M  V30 6729 C 655.135 -4.69421 1.65978 0
M  V30 6730 C 653.838 -6.14772 3.73427 0
M  V30 6731 C 655.864 -5.25966 2.70396 0
M  V30 6732 C 655.226 -5.97606 3.7289 0
M  V30 6733 H 651.325 -0.78169 -0.0220025 0
M  V30 6734 H 653.909 -1.86522 0.558354 0
M  V30 6735 H 652.08 -3.70574 -1.16315 0
M  V30 6736 H 653.812 -3.91394 -1.02921 0
M  V30 6737 H 650.567 -4.6596 0.847232 0
M  V30 6738 H 650.991 -6.02712 3.08329 0
M  V30 6739 H 655.633 -4.13524 0.88079 0
M  V30 6740 H 653.351 -6.69743 4.52184 0
M  V30 6741 H 656.937 -5.13926 2.72711 0
M  V30 6742 H 655.817 -6.40577 4.52361 0
M  V30 6743 N 653.32 -0.135238 -1.57019 0
M  V30 6744 C 654.548 0.526066 -2.001 0
M  V30 6745 C 654.963 1.59184 -1.01519 0
M  V30 6746 O 654.32 1.82497 -0.0104258 0
M  V30 6747 C 654.371 1.13744 -3.43139 0
M  V30 6748 O 654.092 0.114259 -4.37951 0
M  V30 6749 C 655.593 1.8805 -4.01438 0
M  V30 6750 H 652.813 0.137962 -0.656664 0
M  V30 6751 H 655.357 -0.226359 -2.03243 0
M  V30 6752 H 653.512 1.84056 -3.40885 0
M  V30 6753 H 653.926 0.56058 -5.21496 0
M  V30 6754 H 655.4 2.26133 -5.03555 0
M  V30 6755 H 655.877 2.76194 -3.41487 0
M  V30 6756 H 656.483 1.22464 -4.07287 0
M  V30 6757 N 654.798 1.5699 0.138552 0
M  V30 6758 C 656.045 1.83809 0.849732 0
M  V30 6759 C 656.373 0.717409 1.80786 0
M  V30 6760 O 655.628 -0.292897 1.93496 0
M  V30 6761 C 655.927 3.17007 1.65049 0
M  V30 6762 C 655.593 4.43037 0.838398 0
M  V30 6763 C 654.255 4.77262 0.614385 0
M  V30 6764 C 656.607 5.20495 0.271044 0
M  V30 6765 C 653.935 5.864 -0.187552 0
M  V30 6766 C 656.287 6.30476 -0.517979 0
M  V30 6767 C 654.951 6.63245 -0.75249 0
M  V30 6768 H 654.221 0.672605 0.310939 0
M  V30 6769 H 656.868 1.91166 0.112971 0
M  V30 6770 H 655.173 3.05138 2.4576 0
M  V30 6771 H 656.87 3.34975 2.20437 0
M  V30 6772 H 653.46 4.16211 1.02307 0
M  V30 6773 H 657.644 4.94422 0.431371 0
M  V30 6774 H 652.9 6.10226 -0.378659 0
M  V30 6775 H 657.074 6.89686 -0.964694 0
M  V30 6776 H 654.701 7.47648 -1.37573 0
M  V30 6777 N 656.276 -0.40816 1.52223 0
M  V30 6778 C 657.524 -1.15274 1.66001 0
M  V30 6779 C 657.845 -1.91003 0.392803 0
M  V30 6780 O 657.115 -1.8673 -0.592336 0
M  V30 6781 H 655.695 -0.428526 0.611861 0
M  V30 6782 H 658.357 -0.46512 1.89269 0
M  V30 6783 H 657.453 -1.86628 2.50153 0
M  V30 6784 N 657.755 -1.42862 -0.66545 0
M  V30 6785 C 658.718 -1.46756 -1.76055 0
M  V30 6786 C 659.718 -0.353866 -1.56858 0
M  V30 6787 O 660.908 -0.615099 -1.62979 0
M  V30 6788 C 658.04 -1.30829 -3.14796 0
M  V30 6789 H 659.233 -2.44271 -1.73987 0
M  V30 6790 H 656.786 -1.29447 -0.875965 0
M  V30 6791 H 657.521 -0.342733 -3.22484 0
M  V30 6792 H 657.306 -2.11551 -3.30134 0
M  V30 6793 H 658.796 -1.36458 -3.94676 0
M  V30 6794 N 659.233 0.902656 -1.29189 0
M  V30 6795 C 660.165 2.01149 -1.09872 0
M  V30 6796 C 661.178 1.62732 -0.0471046 0
M  V30 6797 O 662.367 1.76107 -0.29132 0
M  V30 6798 C 659.467 3.32612 -0.649818 0
M  V30 6799 C 658.64 3.99574 -1.7793 0
M  V30 6800 C 657.699 5.09325 -1.32191 0
M  V30 6801 O 656.725 5.31919 -2.02611 0
M  V30 6802 N 657.927 5.80185 -0.191171 0
M  V30 6803 H 660.692 2.18276 -2.05368 0
M  V30 6804 H 658.253 1.07466 -1.2109 0
M  V30 6805 H 660.245 4.03375 -0.327199 0
M  V30 6806 H 658.815 3.11876 0.212597 0
M  V30 6807 H 658.035 3.22213 -2.27095 0
M  V30 6808 H 659.323 4.41056 -2.53668 0
M  V30 6809 H 658.721 5.64312 0.396016 0
M  V30 6810 H 657.278 6.5176 0.0721001 0
M  V30 6811 N 660.711 1.11618 1.11262 0
M  V30 6812 C 661.644 0.719995 2.16544 0
M  V30 6813 C 662.622 -0.28471 1.60088 0
M  V30 6814 O 663.806 -0.180693 1.87632 0
M  V30 6815 C 660.933 0.0643302 3.38639 0
M  V30 6816 C 659.979 1.03448 4.13764 0
M  V30 6817 S 660.812 2.55789 4.70459 0
M  V30 6818 C 661.968 1.91529 5.95875 0
M  V30 6819 H 662.201 1.61181 2.49816 0
M  V30 6820 H 659.734 0.934401 1.22916 0
M  V30 6821 H 661.692 -0.307609 4.09346 0
M  V30 6822 H 660.353 -0.804471 3.03623 0
M  V30 6823 H 659.546 0.523188 5.01277 0
M  V30 6824 H 659.148 1.34893 3.48826 0
M  V30 6825 H 661.44 1.25286 6.65815 0
M  V30 6826 H 662.383 2.77047 6.51652 0
M  V30 6827 H 662.791 1.37468 5.47506 0
M  V30 6828 N 662.189 -1.289 0.906776 0
M  V30 6829 C 663.099 -2.31256 0.394707 0
M  V30 6830 C 664.115 -1.66231 -0.514121 0
M  V30 6831 O 665.291 -1.97347 -0.401994 0
M  V30 6832 C 662.356 -3.44792 -0.363191 0
M  V30 6833 C 661.417 -4.25391 0.578012 0
M  V30 6834 C 660.65 -5.33506 -0.143811 0
M  V30 6835 O 660.873 -5.53786 -1.36665 0
M  V30 6836 O 659.807 -5.99673 0.5173 0
M  V30 6837 H 663.633 -2.77051 1.24405 0
M  V30 6838 H 661.218 -1.33466 0.671346 0
M  V30 6839 H 663.1 -4.139 -0.791503 0
M  V30 6840 H 661.775 -3.01093 -1.18848 0
M  V30 6841 H 660.682 -3.58899 1.05558 0
M  V30 6842 H 662.015 -4.72752 1.36992 0
M  V30 6843 N 663.667 -0.670007 -1.42649 0
M  V30 6844 C 664.916 -0.187526 -2.00826 0
M  V30 6845 C 665.229 1.21142 -1.53571 0
M  V30 6846 O 666.435 1.79001 -2.04134 0
M  V30 6847 C 664.891 -0.284409 -3.58774 0
M  V30 6848 C 664.499 -1.6871 -4.15019 0
M  V30 6849 C 666.243 0.139605 -4.2427 0
M  V30 6850 C 664.15 -1.73701 -5.65316 0
M  V30 6851 H 663.08 -0.0663468 -0.751075 0
M  V30 6852 H 665.731 -0.834492 -1.63427 0
M  V30 6853 H 664.113 0.430364 -3.93655 0
M  V30 6854 H 665.287 -2.42857 -3.91608 0
M  V30 6855 H 663.602 -2.05855 -3.61957 0
M  V30 6856 H 666.199 0.122398 -5.3456 0
M  V30 6857 H 666.542 1.17403 -3.99402 0
M  V30 6858 H 667.075 -0.523995 -3.94334 0
M  V30 6859 H 663.814 -2.75109 -5.94975 0
M  V30 6860 H 663.334 -1.03903 -5.90732 0
M  V30 6861 H 665.013 -1.48829 -6.2965 0
M  V30 6862 N 665.145 1.52092 -0.413018 0
M  V30 6863 C 666.391 2.02815 0.154104 0
M  V30 6864 C 666.746 1.293 1.42475 0
M  V30 6865 O 666.039 0.391835 1.87551 0
M  V30 6866 C 666.233 3.54529 0.4521 0
M  V30 6867 C 666.062 4.4274 -0.788116 0
M  V30 6868 C 664.832 4.87903 -1.31447 0
M  V30 6869 C 667.03 4.86522 -1.66735 0
M  V30 6870 N 665.012 5.60254 -2.50976 0
M  V30 6871 C 666.383 5.57692 -2.70886 0
M  V30 6872 C 668.438 4.68534 -1.68465 0
M  V30 6873 C 667.141 6.12783 -3.76682 0
M  V30 6874 C 669.167 5.24524 -2.73182 0
M  V30 6875 C 668.529 5.9562 -3.76054 0
M  V30 6876 H 664.628 0.781796 0.0178567 0
M  V30 6877 H 667.212 1.86223 -0.568237 0
M  V30 6878 H 665.383 3.71186 1.14348 0
M  V30 6879 H 667.115 3.91934 1.00844 0
M  V30 6880 H 663.87 4.65504 -0.871931 0
M  V30 6881 H 664.294 6.01069 -3.11521 0
M  V30 6882 H 668.936 4.13051 -0.902708 0
M  V30 6883 H 666.654 6.67335 -4.55729 0
M  V30 6884 H 670.24 5.12473 -2.75433 0
M  V30 6885 H 669.12 6.38169 -4.55752 0
M  V30 6886 N 666.623 0.143563 1.56945 0
M  V30 6887 C 667.869 -0.502787 1.97088 0
M  V30 6888 C 668.224 -1.62703 1.02691 0
M  V30 6889 O 667.517 -1.91502 0.0613323 0
M  V30 6890 C 667.711 -1.05885 3.41355 0
M  V30 6891 C 667.54 0.00998209 4.49699 0
M  V30 6892 C 666.31 0.450229 5.0329 0
M  V30 6893 C 668.508 0.800174 5.08037 0
M  V30 6894 N 666.49 1.50227 5.95235 0
M  V30 6895 C 667.861 1.70279 5.96158 0
M  V30 6896 C 669.916 0.848344 4.9062 0
M  V30 6897 C 668.619 2.64945 6.68728 0
M  V30 6898 C 670.645 1.78281 5.63888 0
M  V30 6899 C 670.007 2.67296 6.51715 0
M  V30 6900 H 666.106 -0.152891 0.766908 0
M  V30 6901 H 668.69 0.23737 1.93248 0
M  V30 6902 H 666.861 -1.76863 3.45795 0
M  V30 6903 H 668.593 -1.67154 3.68567 0
M  V30 6904 H 665.348 0.0531355 4.7357 0
M  V30 6905 H 665.772 2.02795 6.45913 0
M  V30 6906 H 670.414 0.174228 4.22441 0
M  V30 6907 H 668.132 3.33358 7.36137 0
M  V30 6908 H 671.718 1.82584 5.52408 0
M  V30 6909 H 670.598 3.38428 7.07415 0
M  V30 6910 O 668.14 -1.61499 0.00487092 0
M  V30 6911 H 668.831 -1.83807 -0.611124 0
M  V30 END ATOM
M  V30 BEGIN BOND
M  V30 END BOND
M  V30 END CTAB
M  END
$$$$
